# generated using pymatgen
data_CuH18(C13N2)2
_symmetry_space_group_name_H-M   'P 1'
_cell_length_a   26.96290000
_cell_length_b   26.96290000
_cell_length_c   27.53650000
_cell_angle_alpha   90.00000000
_cell_angle_beta   90.00000000
_cell_angle_gamma   90.00000000
_symmetry_Int_Tables_number   1
_chemical_formula_structural   CuH18(C13N2)2
_chemical_formula_sum   'Cu16 H288 C416 N64'
_cell_volume   20018.97977741
_cell_formula_units_Z   16
loop_
 _symmetry_equiv_pos_site_id
 _symmetry_equiv_pos_as_xyz
  1  'x, y, z'
loop_
 _atom_site_type_symbol
 _atom_site_label
 _atom_site_symmetry_multiplicity
 _atom_site_fract_x
 _atom_site_fract_y
 _atom_site_fract_z
 _atom_site_occupancy
 _atom_site_charge
  Cu  Cu1  1  0.750000  0.370850  0.500000  1.0  0.5482
  Cu  Cu2  1  0.250000  0.870850  0.000000  1.0  0.5482
  Cu  Cu3  1  0.750000  0.629150  0.000000  1.0  0.5483
  Cu  Cu4  1  0.250000  0.129150  0.500000  1.0  0.5483
  Cu  Cu5  1  0.879150  0.500000  0.750000  1.0  0.5478
  Cu  Cu6  1  0.379150  0.000000  0.250000  1.0  0.5478
  Cu  Cu7  1  0.620850  0.500000  0.250000  1.0  0.5424
  Cu  Cu8  1  0.120850  0.000000  0.750000  1.0  0.5482
  Cu  Cu9  1  0.250000  0.629150  0.500000  1.0  0.5483
  Cu  Cu10  1  0.750000  0.129150  0.000000  1.0  0.5483
  Cu  Cu11  1  0.250000  0.370850  0.000000  1.0  0.5482
  Cu  Cu12  1  0.750000  0.870850  0.500000  1.0  0.5482
  Cu  Cu13  1  0.120850  0.500000  0.250000  1.0  0.5482
  Cu  Cu14  1  0.620850  0.000000  0.750000  1.0  0.5424
  Cu  Cu15  1  0.379150  0.500000  0.750000  1.0  0.5478
  Cu  Cu16  1  0.879150  0.000000  0.250000  1.0  0.5478
  H  H17  1  0.366300  0.449700  0.656200  1.0  0.0606
  H  H18  1  0.396900  0.455600  0.578600  1.0  0.1077
  H  H19  1  0.514000  0.529400  0.632800  1.0  0.104
  H  H20  1  0.477900  0.524300  0.708400  1.0  0.0666
  H  H21  1  0.548000  0.475800  0.565300  1.0  0.0852
  H  H22  1  0.634000  0.506600  0.537800  1.0  0.1042
  H  H23  1  0.709400  0.466600  0.534500  1.0  0.0613
  H  H24  1  0.660800  0.375900  0.435400  1.0  0.0572
  H  H25  1  0.583300  0.411800  0.437000  1.0  0.1054
  H  H26  1  0.866300  0.949700  0.156200  1.0  0.0606
  H  H27  1  0.896900  0.955600  0.078600  1.0  0.1077
  H  H28  1  0.014000  0.029400  0.132800  1.0  0.104
  H  H29  1  0.977900  0.024300  0.208400  1.0  0.0666
  H  H30  1  0.048000  0.975800  0.065300  1.0  0.0852
  H  H31  1  0.134000  0.006600  0.037800  1.0  0.1042
  H  H32  1  0.209400  0.966600  0.034500  1.0  0.0613
  H  H33  1  0.160800  0.875900  0.935400  1.0  0.0572
  H  H34  1  0.083300  0.911800  0.937000  1.0  0.1054
  H  H35  1  0.133700  0.550300  0.156200  1.0  0.0607
  H  H36  1  0.103100  0.544400  0.078600  1.0  0.1092
  H  H37  1  0.986000  0.470600  0.132800  1.0  0.104
  H  H38  1  0.022100  0.475700  0.208400  1.0  0.0673
  H  H39  1  0.952000  0.524200  0.065300  1.0  0.0858
  H  H40  1  0.866000  0.493400  0.037800  1.0  0.1047
  H  H41  1  0.790600  0.533400  0.034500  1.0  0.0611
  H  H42  1  0.839200  0.624100  0.935400  1.0  0.0577
  H  H43  1  0.916700  0.588200  0.937000  1.0  0.1056
  H  H44  1  0.633700  0.050300  0.656200  1.0  0.0607
  H  H45  1  0.603100  0.044400  0.578600  1.0  0.1092
  H  H46  1  0.486000  0.970600  0.632800  1.0  0.104
  H  H47  1  0.522100  0.975700  0.708400  1.0  0.0673
  H  H48  1  0.452000  0.024200  0.565300  1.0  0.0858
  H  H49  1  0.366000  0.993400  0.537800  1.0  0.1047
  H  H50  1  0.290600  0.033400  0.534500  1.0  0.0611
  H  H51  1  0.339200  0.124100  0.435400  1.0  0.0577
  H  H52  1  0.416700  0.088200  0.437000  1.0  0.1056
  H  H53  1  0.800300  0.116300  0.906200  1.0  0.0609
  H  H54  1  0.794400  0.146900  0.828600  1.0  0.1068
  H  H55  1  0.720600  0.264000  0.882800  1.0  0.1034
  H  H56  1  0.725700  0.227900  0.958400  1.0  0.0663
  H  H57  1  0.774200  0.298000  0.815300  1.0  0.0851
  H  H58  1  0.743400  0.384000  0.787800  1.0  0.1045
  H  H59  1  0.783400  0.459400  0.784500  1.0  0.0594
  H  H60  1  0.874100  0.410800  0.685400  1.0  0.0581
  H  H61  1  0.838200  0.333333  0.687000  1.0  0.1036
  H  H62  1  0.300300  0.616300  0.406200  1.0  0.0609
  H  H63  1  0.294400  0.646900  0.328600  1.0  0.1068
  H  H64  1  0.220600  0.764000  0.382800  1.0  0.1034
  H  H65  1  0.225700  0.727900  0.458400  1.0  0.0663
  H  H66  1  0.274200  0.798000  0.315300  1.0  0.0851
  H  H67  1  0.243400  0.884000  0.287800  1.0  0.1045
  H  H68  1  0.283400  0.959400  0.284500  1.0  0.0594
  H  H69  1  0.374100  0.910800  0.185400  1.0  0.0581
  H  H70  1  0.338200  0.833300  0.187000  1.0  0.1046
  H  H71  1  0.699700  0.883700  0.406200  1.0  0.0615
  H  H72  1  0.705600  0.853100  0.328600  1.0  0.1075
  H  H73  1  0.779400  0.736000  0.382800  1.0  0.1032
  H  H74  1  0.774300  0.772100  0.458400  1.0  0.0664
  H  H75  1  0.725800  0.702000  0.315300  1.0  0.0853
  H  H76  1  0.756600  0.616000  0.287800  1.0  0.1043
  H  H77  1  0.716600  0.540600  0.284500  1.0  0.0604
  H  H78  1  0.625900  0.589200  0.185400  1.0  0.0579
  H  H79  1  0.661800  0.666667  0.187000  1.0  0.1044
  H  H80  1  0.199700  0.383700  0.906200  1.0  0.0615
  H  H81  1  0.205600  0.353100  0.828600  1.0  0.1075
  H  H82  1  0.279400  0.236000  0.882800  1.0  0.1032
  H  H83  1  0.274300  0.272100  0.958400  1.0  0.0664
  H  H84  1  0.225800  0.202000  0.815300  1.0  0.0853
  H  H85  1  0.256600  0.116000  0.787800  1.0  0.1042
  H  H86  1  0.216600  0.040600  0.784500  1.0  0.0602
  H  H87  1  0.125900  0.089200  0.685400  1.0  0.0577
  H  H88  1  0.161800  0.166700  0.687000  1.0  0.1054
  H  H89  1  0.133700  0.449700  0.343800  1.0  0.06
  H  H90  1  0.103100  0.455600  0.421400  1.0  0.1081
  H  H91  1  0.986000  0.529400  0.367200  1.0  0.1041
  H  H92  1  0.022100  0.524300  0.291600  1.0  0.0667
  H  H93  1  0.952000  0.475800  0.434700  1.0  0.0852
  H  H94  1  0.866000  0.506600  0.462200  1.0  0.1048
  H  H95  1  0.790600  0.466600  0.465500  1.0  0.0612
  H  H96  1  0.839200  0.375900  0.564600  1.0  0.057
  H  H97  1  0.916700  0.411800  0.563000  1.0  0.105
  H  H98  1  0.633700  0.949700  0.843800  1.0  0.06
  H  H99  1  0.603100  0.955600  0.921400  1.0  0.1081
  H  H100  1  0.486000  0.029400  0.867200  1.0  0.1041
  H  H101  1  0.522100  0.024300  0.791600  1.0  0.0667
  H  H102  1  0.452000  0.975800  0.934700  1.0  0.0852
  H  H103  1  0.366000  0.006600  0.962200  1.0  0.1048
  H  H104  1  0.290600  0.966600  0.965500  1.0  0.0612
  H  H105  1  0.339200  0.875900  0.064600  1.0  0.057
  H  H106  1  0.416700  0.911800  0.063000  1.0  0.105
  H  H107  1  0.366300  0.550300  0.843800  1.0  0.0597
  H  H108  1  0.396900  0.544400  0.921400  1.0  0.1093
  H  H109  1  0.514000  0.470600  0.867200  1.0  0.1044
  H  H110  1  0.477900  0.475700  0.791600  1.0  0.0668
  H  H111  1  0.548000  0.524200  0.934700  1.0  0.0854
  H  H112  1  0.634000  0.493400  0.962200  1.0  0.1039
  H  H113  1  0.709400  0.533400  0.965500  1.0  0.0611
  H  H114  1  0.660800  0.624100  0.064600  1.0  0.0569
  H  H115  1  0.583300  0.588200  0.063000  1.0  0.1048
  H  H116  1  0.866300  0.050300  0.343800  1.0  0.0597
  H  H117  1  0.896900  0.044400  0.421400  1.0  0.1093
  H  H118  1  0.014000  0.970600  0.367200  1.0  0.1044
  H  H119  1  0.977900  0.975700  0.291600  1.0  0.0668
  H  H120  1  0.048000  0.024200  0.434700  1.0  0.0854
  H  H121  1  0.134000  0.993400  0.462200  1.0  0.1039
  H  H122  1  0.209400  0.033400  0.465500  1.0  0.0611
  H  H123  1  0.160800  0.124100  0.564600  1.0  0.0569
  H  H124  1  0.083300  0.088200  0.563000  1.0  0.1048
  H  H125  1  0.699700  0.116300  0.093800  1.0  0.0608
  H  H126  1  0.705600  0.146900  0.171400  1.0  0.1077
  H  H127  1  0.779400  0.264000  0.117200  1.0  0.1034
  H  H128  1  0.774300  0.227900  0.041600  1.0  0.0663
  H  H129  1  0.725800  0.298000  0.184700  1.0  0.0854
  H  H130  1  0.756600  0.384000  0.212200  1.0  0.1044
  H  H131  1  0.716600  0.459400  0.215500  1.0  0.0604
  H  H132  1  0.625900  0.410800  0.314600  1.0  0.0579
  H  H133  1  0.661800  0.333333  0.313000  1.0  0.1036
  H  H134  1  0.199700  0.616300  0.593800  1.0  0.0608
  H  H135  1  0.205600  0.646900  0.671400  1.0  0.1077
  H  H136  1  0.279400  0.764000  0.617200  1.0  0.1034
  H  H137  1  0.274300  0.727900  0.541600  1.0  0.0663
  H  H138  1  0.225800  0.798000  0.684700  1.0  0.0854
  H  H139  1  0.256600  0.884000  0.712200  1.0  0.1044
  H  H140  1  0.216600  0.959400  0.715500  1.0  0.0602
  H  H141  1  0.125900  0.910800  0.814600  1.0  0.0577
  H  H142  1  0.161800  0.833300  0.813000  1.0  0.1044
  H  H143  1  0.800300  0.883700  0.593800  1.0  0.0605
  H  H144  1  0.794400  0.853100  0.671400  1.0  0.1068
  H  H145  1  0.720600  0.736000  0.617200  1.0  0.1031
  H  H146  1  0.725700  0.772100  0.541600  1.0  0.0659
  H  H147  1  0.774200  0.702000  0.684700  1.0  0.0852
  H  H148  1  0.743400  0.616000  0.712200  1.0  0.1045
  H  H149  1  0.783400  0.540600  0.715500  1.0  0.0592
  H  H150  1  0.874100  0.589200  0.814600  1.0  0.058
  H  H151  1  0.838200  0.666667  0.813000  1.0  0.1034
  H  H152  1  0.300300  0.383700  0.093800  1.0  0.0605
  H  H153  1  0.294400  0.353100  0.171400  1.0  0.1068
  H  H154  1  0.220600  0.236000  0.117200  1.0  0.1031
  H  H155  1  0.225700  0.272100  0.041600  1.0  0.0659
  H  H156  1  0.274200  0.202000  0.184700  1.0  0.0852
  H  H157  1  0.243400  0.116000  0.212200  1.0  0.1045
  H  H158  1  0.283400  0.040600  0.215500  1.0  0.0592
  H  H159  1  0.374100  0.089200  0.314600  1.0  0.058
  H  H160  1  0.338200  0.166700  0.313000  1.0  0.1043
  H  H161  1  0.633700  0.550300  0.343800  1.0  0.0598
  H  H162  1  0.603100  0.544400  0.421400  1.0  0.1084
  H  H163  1  0.486000  0.470600  0.367200  1.0  0.1041
  H  H164  1  0.522100  0.475700  0.291600  1.0  0.0666
  H  H165  1  0.452000  0.524200  0.434700  1.0  0.0854
  H  H166  1  0.366000  0.493400  0.462200  1.0  0.104
  H  H167  1  0.290600  0.533400  0.465500  1.0  0.0608
  H  H168  1  0.339200  0.624100  0.564600  1.0  0.0571
  H  H169  1  0.416700  0.588200  0.563000  1.0  0.1045
  H  H170  1  0.133700  0.050300  0.843800  1.0  0.0598
  H  H171  1  0.103100  0.044400  0.921400  1.0  0.1084
  H  H172  1  0.986000  0.970600  0.867200  1.0  0.1041
  H  H173  1  0.022100  0.975700  0.791600  1.0  0.0666
  H  H174  1  0.952000  0.024200  0.934700  1.0  0.0854
  H  H175  1  0.866000  0.993400  0.962200  1.0  0.104
  H  H176  1  0.790600  0.033400  0.965500  1.0  0.0608
  H  H177  1  0.839200  0.124100  0.064600  1.0  0.0571
  H  H178  1  0.916700  0.088200  0.063000  1.0  0.1045
  H  H179  1  0.866300  0.449700  0.843800  1.0  0.06
  H  H180  1  0.896900  0.455600  0.921400  1.0  0.1086
  H  H181  1  0.014000  0.529400  0.867200  1.0  0.1045
  H  H182  1  0.977900  0.524300  0.791600  1.0  0.0669
  H  H183  1  0.048000  0.475800  0.934700  1.0  0.0853
  H  H184  1  0.134000  0.506600  0.962200  1.0  0.1045
  H  H185  1  0.209400  0.466600  0.965500  1.0  0.0612
  H  H186  1  0.160800  0.375900  0.064600  1.0  0.0572
  H  H187  1  0.083300  0.411800  0.063000  1.0  0.1052
  H  H188  1  0.366300  0.949700  0.343800  1.0  0.06
  H  H189  1  0.396900  0.955600  0.421400  1.0  0.1086
  H  H190  1  0.514000  0.029400  0.367200  1.0  0.1045
  H  H191  1  0.477900  0.024300  0.291600  1.0  0.0669
  H  H192  1  0.548000  0.975800  0.434700  1.0  0.0853
  H  H193  1  0.634000  0.006600  0.462200  1.0  0.1045
  H  H194  1  0.709400  0.966600  0.465500  1.0  0.0612
  H  H195  1  0.660800  0.875900  0.564600  1.0  0.0572
  H  H196  1  0.583300  0.911800  0.563000  1.0  0.1052
  H  H197  1  0.199700  0.883700  0.093800  1.0  0.0608
  H  H198  1  0.205600  0.853100  0.171400  1.0  0.1076
  H  H199  1  0.279400  0.736000  0.117200  1.0  0.1035
  H  H200  1  0.274300  0.772100  0.041600  1.0  0.0659
  H  H201  1  0.225800  0.702000  0.184700  1.0  0.0852
  H  H202  1  0.256600  0.616000  0.212200  1.0  0.1044
  H  H203  1  0.216600  0.540600  0.215500  1.0  0.06
  H  H204  1  0.125900  0.589200  0.314600  1.0  0.0576
  H  H205  1  0.161800  0.666667  0.313000  1.0  0.1038
  H  H206  1  0.699700  0.383700  0.593800  1.0  0.0608
  H  H207  1  0.705600  0.353100  0.671400  1.0  0.1076
  H  H208  1  0.779400  0.236000  0.617200  1.0  0.1035
  H  H209  1  0.774300  0.272100  0.541600  1.0  0.0659
  H  H210  1  0.725800  0.202000  0.684700  1.0  0.0852
  H  H211  1  0.756600  0.116000  0.712200  1.0  0.1044
  H  H212  1  0.716600  0.040600  0.715500  1.0  0.0602
  H  H213  1  0.625900  0.089200  0.814600  1.0  0.0573
  H  H214  1  0.661800  0.166700  0.813000  1.0  0.1047
  H  H215  1  0.300300  0.116300  0.593800  1.0  0.0606
  H  H216  1  0.294400  0.146900  0.671400  1.0  0.1067
  H  H217  1  0.220600  0.264000  0.617200  1.0  0.1036
  H  H218  1  0.225700  0.227900  0.541600  1.0  0.0663
  H  H219  1  0.274200  0.298000  0.684700  1.0  0.0853
  H  H220  1  0.243400  0.384000  0.712200  1.0  0.1044
  H  H221  1  0.283400  0.459400  0.715500  1.0  0.0596
  H  H222  1  0.374100  0.410800  0.814600  1.0  0.0579
  H  H223  1  0.338200  0.333333  0.813000  1.0  0.1034
  H  H224  1  0.800300  0.616300  0.093800  1.0  0.0606
  H  H225  1  0.794400  0.646900  0.171400  1.0  0.1067
  H  H226  1  0.720600  0.764000  0.117200  1.0  0.1036
  H  H227  1  0.725700  0.727900  0.041600  1.0  0.0663
  H  H228  1  0.774200  0.798000  0.184700  1.0  0.0853
  H  H229  1  0.743400  0.884000  0.212200  1.0  0.1044
  H  H230  1  0.783400  0.959400  0.215500  1.0  0.0596
  H  H231  1  0.874100  0.910800  0.314600  1.0  0.0579
  H  H232  1  0.838200  0.833300  0.313000  1.0  0.1043
  H  H233  1  0.866300  0.550300  0.656200  1.0  0.0607
  H  H234  1  0.896900  0.544400  0.578600  1.0  0.1099
  H  H235  1  0.014000  0.470600  0.632800  1.0  0.1043
  H  H236  1  0.977900  0.475700  0.708400  1.0  0.0666
  H  H237  1  0.048000  0.524200  0.565300  1.0  0.0852
  H  H238  1  0.134000  0.493400  0.537800  1.0  0.1042
  H  H239  1  0.209400  0.533400  0.534500  1.0  0.0615
  H  H240  1  0.160800  0.624100  0.435400  1.0  0.0572
  H  H241  1  0.083300  0.588200  0.437000  1.0  0.1057
  H  H242  1  0.366300  0.050300  0.156200  1.0  0.0607
  H  H243  1  0.396900  0.044400  0.078600  1.0  0.1099
  H  H244  1  0.514000  0.970600  0.132800  1.0  0.1043
  H  H245  1  0.477900  0.975700  0.208400  1.0  0.0666
  H  H246  1  0.548000  0.024200  0.065300  1.0  0.0852
  H  H247  1  0.634000  0.993400  0.037800  1.0  0.1042
  H  H248  1  0.709400  0.033400  0.034500  1.0  0.0615
  H  H249  1  0.660800  0.124100  0.935400  1.0  0.0572
  H  H250  1  0.583300  0.088200  0.937000  1.0  0.1057
  H  H251  1  0.633700  0.449700  0.156200  1.0  0.0604
  H  H252  1  0.603100  0.455600  0.078600  1.0  0.1077
  H  H253  1  0.486000  0.529400  0.132800  1.0  0.1037
  H  H254  1  0.522100  0.524300  0.208400  1.0  0.067
  H  H255  1  0.452000  0.475800  0.065300  1.0  0.0857
  H  H256  1  0.366000  0.506600  0.037800  1.0  0.1046
  H  H257  1  0.290600  0.466600  0.034500  1.0  0.061
  H  H258  1  0.339200  0.375900  0.935400  1.0  0.0576
  H  H259  1  0.416700  0.411800  0.937000  1.0  0.1054
  H  H260  1  0.133700  0.949700  0.656200  1.0  0.0604
  H  H261  1  0.103100  0.955600  0.578600  1.0  0.1077
  H  H262  1  0.986000  0.029400  0.632800  1.0  0.1037
  H  H263  1  0.022100  0.024300  0.708400  1.0  0.067
  H  H264  1  0.952000  0.975800  0.565300  1.0  0.0857
  H  H265  1  0.866000  0.006600  0.537800  1.0  0.1046
  H  H266  1  0.790600  0.966600  0.534500  1.0  0.061
  H  H267  1  0.839200  0.875900  0.435400  1.0  0.0576
  H  H268  1  0.916700  0.911800  0.437000  1.0  0.1054
  H  H269  1  0.300300  0.883700  0.906200  1.0  0.0612
  H  H270  1  0.294400  0.853100  0.828600  1.0  0.107
  H  H271  1  0.220600  0.736000  0.882800  1.0  0.1028
  H  H272  1  0.225700  0.772100  0.958400  1.0  0.0663
  H  H273  1  0.274200  0.702000  0.815300  1.0  0.085
  H  H274  1  0.243400  0.616000  0.787800  1.0  0.1046
  H  H275  1  0.283400  0.540600  0.784500  1.0  0.0597
  H  H276  1  0.374100  0.589200  0.685400  1.0  0.0583
  H  H277  1  0.338200  0.666667  0.687000  1.0  0.1043
  H  H278  1  0.800300  0.383700  0.406200  1.0  0.0612
  H  H279  1  0.794400  0.353100  0.328600  1.0  0.107
  H  H280  1  0.720600  0.236000  0.382800  1.0  0.1028
  H  H281  1  0.725700  0.272100  0.458400  1.0  0.0663
  H  H282  1  0.774200  0.202000  0.315300  1.0  0.085
  H  H283  1  0.743400  0.116000  0.287800  1.0  0.1046
  H  H284  1  0.783400  0.040600  0.284500  1.0  0.0597
  H  H285  1  0.874100  0.089200  0.185400  1.0  0.0582
  H  H286  1  0.838200  0.166700  0.187000  1.0  0.1053
  H  H287  1  0.199700  0.116300  0.406200  1.0  0.0609
  H  H288  1  0.205600  0.146900  0.328600  1.0  0.1073
  H  H289  1  0.279400  0.264000  0.382800  1.0  0.1031
  H  H290  1  0.274300  0.227900  0.458400  1.0  0.0665
  H  H291  1  0.225800  0.298000  0.315300  1.0  0.0855
  H  H292  1  0.256600  0.384000  0.287800  1.0  0.1042
  H  H293  1  0.216600  0.459400  0.284500  1.0  0.0597
  H  H294  1  0.125900  0.410800  0.185400  1.0  0.0577
  H  H295  1  0.161800  0.333333  0.187000  1.0  0.1035
  H  H296  1  0.699700  0.616300  0.906200  1.0  0.0609
  H  H297  1  0.705600  0.646900  0.828600  1.0  0.1073
  H  H298  1  0.779400  0.764000  0.882800  1.0  0.1031
  H  H299  1  0.774300  0.727900  0.958400  1.0  0.0665
  H  H300  1  0.725800  0.798000  0.815300  1.0  0.0855
  H  H301  1  0.756600  0.884000  0.787800  1.0  0.1042
  H  H302  1  0.716600  0.959400  0.784500  1.0  0.0598
  H  H303  1  0.625900  0.910800  0.685400  1.0  0.0575
  H  H304  1  0.661800  0.833300  0.687000  1.0  0.1044
  C  C305  1  0.395700  0.467000  0.651000  1.0  0.1488
  C  C306  1  0.413900  0.470100  0.604400  1.0  -0.1592
  C  C307  1  0.458500  0.495500  0.596500  1.0  0.0813
  C  C308  1  0.483200  0.514300  0.636400  1.0  -0.241
  C  C309  1  0.461500  0.510400  0.682000  1.0  0.1498
  C  C310  1  0.479700  0.499400  0.547400  1.0  0.0033
  C  C311  1  0.528600  0.485300  0.539000  1.0  -0.1571
  C  C312  1  0.549400  0.484900  0.493200  1.0  -0.041
  C  C313  1  0.599600  0.463500  0.488000  1.0  0.0531
  C  C314  1  0.638300  0.479700  0.517100  1.0  -0.2378
  C  C315  1  0.683600  0.455400  0.514800  1.0  0.1264
  C  C316  1  0.655000  0.402000  0.456800  1.0  0.1458
  C  C317  1  0.608300  0.423700  0.457100  1.0  -0.1999
  C  C318  1  0.895700  0.967000  0.151000  1.0  0.1489
  C  C319  1  0.913900  0.970100  0.104400  1.0  -0.1592
  C  C320  1  0.958500  0.995500  0.096500  1.0  0.0813
  C  C321  1  0.983200  0.014300  0.136400  1.0  -0.241
  C  C322  1  0.961500  0.010400  0.182000  1.0  0.1498
  C  C323  1  0.979700  0.999400  0.047400  1.0  0.0033
  C  C324  1  0.028600  0.985300  0.039000  1.0  -0.1571
  C  C325  1  0.049400  0.984900  0.993200  1.0  -0.041
  C  C326  1  0.099600  0.963500  0.988000  1.0  0.0531
  C  C327  1  0.138300  0.979700  0.017100  1.0  -0.2378
  C  C328  1  0.183600  0.955400  0.014800  1.0  0.1264
  C  C329  1  0.155000  0.902000  0.956800  1.0  0.1458
  C  C330  1  0.108300  0.923700  0.957100  1.0  -0.1999
  C  C331  1  0.104300  0.533000  0.151000  1.0  0.15
  C  C332  1  0.086100  0.529900  0.104400  1.0  -0.162
  C  C333  1  0.041500  0.504500  0.096500  1.0  0.0814
  C  C334  1  0.016800  0.485700  0.136400  1.0  -0.2395
  C  C335  1  0.038500  0.489600  0.182000  1.0  0.1493
  C  C336  1  0.020300  0.500600  0.047400  1.0  0.0023
  C  C337  1  0.971400  0.514700  0.039000  1.0  -0.1572
  C  C338  1  0.950600  0.515100  0.993200  1.0  -0.0416
  C  C339  1  0.900400  0.536500  0.988000  1.0  0.0523
  C  C340  1  0.861700  0.520300  0.017100  1.0  -0.2373
  C  C341  1  0.816400  0.544600  0.014800  1.0  0.1263
  C  C342  1  0.845000  0.598000  0.956800  1.0  0.1438
  C  C343  1  0.891700  0.576300  0.957100  1.0  -0.2017
  C  C344  1  0.604300  0.033000  0.651000  1.0  0.15
  C  C345  1  0.586100  0.029900  0.604400  1.0  -0.162
  C  C346  1  0.541500  0.004500  0.596500  1.0  0.0814
  C  C347  1  0.516800  0.985700  0.636400  1.0  -0.2395
  C  C348  1  0.538500  0.989600  0.682000  1.0  0.1493
  C  C349  1  0.520300  0.000600  0.547400  1.0  0.0023
  C  C350  1  0.471400  0.014700  0.539000  1.0  -0.1572
  C  C351  1  0.450600  0.015100  0.493200  1.0  -0.0416
  C  C352  1  0.400400  0.036500  0.488000  1.0  0.0523
  C  C353  1  0.361700  0.020300  0.517100  1.0  -0.2373
  C  C354  1  0.316400  0.044600  0.514800  1.0  0.1263
  C  C355  1  0.345000  0.098000  0.456800  1.0  0.1438
  C  C356  1  0.391700  0.076300  0.457100  1.0  -0.2017
  C  C357  1  0.783000  0.145700  0.901000  1.0  0.1527
  C  C358  1  0.779900  0.163900  0.854400  1.0  -0.1583
  C  C359  1  0.754500  0.208500  0.846500  1.0  0.0813
  C  C360  1  0.735700  0.233200  0.886400  1.0  -0.242
  C  C361  1  0.739600  0.211500  0.932000  1.0  0.1476
  C  C362  1  0.750600  0.229700  0.797400  1.0  0.0032
  C  C363  1  0.764700  0.278600  0.789000  1.0  -0.1576
  C  C364  1  0.765100  0.299400  0.743200  1.0  -0.0414
  C  C365  1  0.786500  0.349600  0.738000  1.0  0.053
  C  C366  1  0.770300  0.388300  0.767100  1.0  -0.2391
  C  C367  1  0.794600  0.433600  0.764800  1.0  0.1286
  C  C368  1  0.848000  0.405000  0.706800  1.0  0.147
  C  C369  1  0.826300  0.358300  0.707100  1.0  -0.195
  C  C370  1  0.283000  0.645700  0.401000  1.0  0.1527
  C  C371  1  0.279900  0.663900  0.354400  1.0  -0.1583
  C  C372  1  0.254500  0.708500  0.346500  1.0  0.0813
  C  C373  1  0.235700  0.733200  0.386400  1.0  -0.242
  C  C374  1  0.239600  0.711500  0.432000  1.0  0.1476
  C  C375  1  0.250600  0.729700  0.297400  1.0  0.0032
  C  C376  1  0.264700  0.778600  0.289000  1.0  -0.1578
  C  C377  1  0.265100  0.799400  0.243200  1.0  -0.0414
  C  C378  1  0.286500  0.849600  0.238000  1.0  0.0528
  C  C379  1  0.270300  0.888300  0.267100  1.0  -0.2391
  C  C380  1  0.294600  0.933600  0.264800  1.0  0.1286
  C  C381  1  0.348000  0.905000  0.206800  1.0  0.1471
  C  C382  1  0.326300  0.858300  0.207100  1.0  -0.1988
  C  C383  1  0.717000  0.854300  0.401000  1.0  0.1523
  C  C384  1  0.720100  0.836100  0.354400  1.0  -0.1581
  C  C385  1  0.745500  0.791500  0.346500  1.0  0.0812
  C  C386  1  0.764300  0.766800  0.386400  1.0  -0.2414
  C  C387  1  0.760400  0.788500  0.432000  1.0  0.1486
  C  C388  1  0.749400  0.770300  0.297400  1.0  0.0026
  C  C389  1  0.735300  0.721400  0.289000  1.0  -0.1572
  C  C390  1  0.734900  0.700600  0.243200  1.0  -0.0416
  C  C391  1  0.713500  0.650400  0.238000  1.0  0.0531
  C  C392  1  0.729700  0.611700  0.267100  1.0  -0.2371
  C  C393  1  0.705400  0.566400  0.264800  1.0  0.131
  C  C394  1  0.652000  0.595000  0.206800  1.0  0.1453
  C  C395  1  0.673700  0.641700  0.207100  1.0  -0.1957
  C  C396  1  0.217000  0.354300  0.901000  1.0  0.1523
  C  C397  1  0.220100  0.336100  0.854400  1.0  -0.1581
  C  C398  1  0.245500  0.291500  0.846500  1.0  0.0812
  C  C399  1  0.264300  0.266800  0.886400  1.0  -0.2414
  C  C400  1  0.260400  0.288500  0.932000  1.0  0.1486
  C  C401  1  0.249400  0.270300  0.797400  1.0  0.0027
  C  C402  1  0.235300  0.221400  0.789000  1.0  -0.1574
  C  C403  1  0.234900  0.200600  0.743200  1.0  -0.0417
  C  C404  1  0.213500  0.150400  0.738000  1.0  0.0529
  C  C405  1  0.229700  0.111700  0.767100  1.0  -0.2371
  C  C406  1  0.205400  0.066400  0.764800  1.0  0.1285
  C  C407  1  0.152000  0.095000  0.706800  1.0  0.1452
  C  C408  1  0.173700  0.141700  0.707100  1.0  -0.1996
  C  C409  1  0.104300  0.467000  0.349000  1.0  0.1492
  C  C410  1  0.086100  0.470100  0.395600  1.0  -0.1632
  C  C411  1  0.041500  0.495500  0.403500  1.0  0.0813
  C  C412  1  0.016800  0.514300  0.363600  1.0  -0.2387
  C  C413  1  0.038500  0.510400  0.318000  1.0  0.1483
  C  C414  1  0.020300  0.499400  0.452600  1.0  0.0026
  C  C415  1  0.971400  0.485300  0.461000  1.0  -0.156
  C  C416  1  0.950600  0.484900  0.506800  1.0  -0.0412
  C  C417  1  0.900400  0.463500  0.512000  1.0  0.0519
  C  C418  1  0.861700  0.479700  0.482900  1.0  -0.2381
  C  C419  1  0.816400  0.455400  0.485200  1.0  0.1256
  C  C420  1  0.845000  0.402000  0.543200  1.0  0.1442
  C  C421  1  0.891700  0.423700  0.542900  1.0  -0.2008
  C  C422  1  0.604300  0.967000  0.849000  1.0  0.1491
  C  C423  1  0.586100  0.970100  0.895600  1.0  -0.1632
  C  C424  1  0.541500  0.995500  0.903500  1.0  0.0813
  C  C425  1  0.516800  0.014300  0.863600  1.0  -0.2387
  C  C426  1  0.538500  0.010400  0.818000  1.0  0.1483
  C  C427  1  0.520300  0.999400  0.952600  1.0  0.0026
  C  C428  1  0.471400  0.985300  0.961000  1.0  -0.156
  C  C429  1  0.450600  0.984900  0.006800  1.0  -0.0412
  C  C430  1  0.400400  0.963500  0.012000  1.0  0.0519
  C  C431  1  0.361700  0.979700  0.982900  1.0  -0.2381
  C  C432  1  0.316400  0.955400  0.985200  1.0  0.1256
  C  C433  1  0.345000  0.902000  0.043200  1.0  0.1442
  C  C434  1  0.391700  0.923700  0.042900  1.0  -0.2008
  C  C435  1  0.395700  0.533000  0.849000  1.0  0.1493
  C  C436  1  0.413900  0.529900  0.895600  1.0  -0.1625
  C  C437  1  0.458500  0.504500  0.903500  1.0  0.0808
  C  C438  1  0.483200  0.485700  0.863600  1.0  -0.2387
  C  C439  1  0.461500  0.489600  0.818000  1.0  0.1501
  C  C440  1  0.479700  0.500600  0.952600  1.0  0.0037
  C  C441  1  0.528600  0.514700  0.961000  1.0  -0.1573
  C  C442  1  0.549400  0.515100  0.006800  1.0  -0.0409
  C  C443  1  0.599600  0.536500  0.012000  1.0  0.0524
  C  C444  1  0.638300  0.520300  0.982900  1.0  -0.2367
  C  C445  1  0.683600  0.544600  0.985200  1.0  0.1255
  C  C446  1  0.655000  0.598000  0.043200  1.0  0.1445
  C  C447  1  0.608300  0.576300  0.042900  1.0  -0.2017
  C  C448  1  0.895700  0.033000  0.349000  1.0  0.1493
  C  C449  1  0.913900  0.029900  0.395600  1.0  -0.1625
  C  C450  1  0.958500  0.004500  0.403500  1.0  0.0808
  C  C451  1  0.983200  0.985700  0.363600  1.0  -0.2387
  C  C452  1  0.961500  0.989600  0.318000  1.0  0.1501
  C  C453  1  0.979700  0.000600  0.452600  1.0  0.0037
  C  C454  1  0.028600  0.014700  0.461000  1.0  -0.1573
  C  C455  1  0.049400  0.015100  0.506800  1.0  -0.0409
  C  C456  1  0.099600  0.036500  0.512000  1.0  0.0524
  C  C457  1  0.138300  0.020300  0.482900  1.0  -0.2367
  C  C458  1  0.183600  0.044600  0.485200  1.0  0.1255
  C  C459  1  0.155000  0.098000  0.543200  1.0  0.1445
  C  C460  1  0.108300  0.076300  0.542900  1.0  -0.2017
  C  C461  1  0.717000  0.145700  0.099000  1.0  0.1535
  C  C462  1  0.720100  0.163900  0.145600  1.0  -0.1589
  C  C463  1  0.745500  0.208500  0.153500  1.0  0.0813
  C  C464  1  0.764300  0.233200  0.113600  1.0  -0.2398
  C  C465  1  0.760400  0.211500  0.068000  1.0  0.1482
  C  C466  1  0.749400  0.229700  0.202600  1.0  0.0026
  C  C467  1  0.735300  0.278600  0.211000  1.0  -0.1567
  C  C468  1  0.734900  0.299400  0.256800  1.0  -0.041
  C  C469  1  0.713500  0.349600  0.262000  1.0  0.0526
  C  C470  1  0.729700  0.388300  0.232900  1.0  -0.2372
  C  C471  1  0.705400  0.433600  0.235200  1.0  0.1304
  C  C472  1  0.652000  0.405000  0.293200  1.0  0.1453
  C  C473  1  0.673700  0.358300  0.292900  1.0  -0.1953
  C  C474  1  0.217000  0.645700  0.599000  1.0  0.1535
  C  C475  1  0.220100  0.663900  0.645600  1.0  -0.1589
  C  C476  1  0.245500  0.708500  0.653500  1.0  0.0813
  C  C477  1  0.264300  0.733200  0.613600  1.0  -0.2398
  C  C478  1  0.260400  0.711500  0.568000  1.0  0.1482
  C  C479  1  0.249400  0.729700  0.702600  1.0  0.0027
  C  C480  1  0.235300  0.778600  0.711000  1.0  -0.1569
  C  C481  1  0.234900  0.799400  0.756800  1.0  -0.041
  C  C482  1  0.213500  0.849600  0.762000  1.0  0.0524
  C  C483  1  0.229700  0.888300  0.732900  1.0  -0.2372
  C  C484  1  0.205400  0.933600  0.735200  1.0  0.1281
  C  C485  1  0.152000  0.905000  0.793200  1.0  0.1451
  C  C486  1  0.173700  0.858300  0.792900  1.0  -0.1989
  C  C487  1  0.783000  0.854300  0.599000  1.0  0.1527
  C  C488  1  0.779900  0.836100  0.645600  1.0  -0.1584
  C  C489  1  0.754500  0.791500  0.653500  1.0  0.0809
  C  C490  1  0.735700  0.766800  0.613600  1.0  -0.2396
  C  C491  1  0.739600  0.788500  0.568000  1.0  0.1479
  C  C492  1  0.750600  0.770300  0.702600  1.0  0.0036
  C  C493  1  0.764700  0.721400  0.711000  1.0  -0.1563
  C  C494  1  0.765100  0.700600  0.756800  1.0  -0.0412
  C  C495  1  0.786500  0.650400  0.762000  1.0  0.0526
  C  C496  1  0.770300  0.611700  0.732900  1.0  -0.238
  C  C497  1  0.794600  0.566400  0.735200  1.0  0.1286
  C  C498  1  0.848000  0.595000  0.793200  1.0  0.1465
  C  C499  1  0.826300  0.641700  0.792900  1.0  -0.1951
  C  C500  1  0.283000  0.354300  0.099000  1.0  0.1527
  C  C501  1  0.279900  0.336100  0.145600  1.0  -0.1584
  C  C502  1  0.254500  0.291500  0.153500  1.0  0.0809
  C  C503  1  0.235700  0.266800  0.113600  1.0  -0.2396
  C  C504  1  0.239600  0.288500  0.068000  1.0  0.1479
  C  C505  1  0.250600  0.270300  0.202600  1.0  0.0036
  C  C506  1  0.264700  0.221400  0.211000  1.0  -0.1565
  C  C507  1  0.265100  0.200600  0.256800  1.0  -0.0412
  C  C508  1  0.286500  0.150400  0.262000  1.0  0.0524
  C  C509  1  0.270300  0.111700  0.232900  1.0  -0.238
  C  C510  1  0.294600  0.066400  0.235200  1.0  0.1286
  C  C511  1  0.348000  0.095000  0.293200  1.0  0.1466
  C  C512  1  0.326300  0.141700  0.292900  1.0  -0.1991
  C  C513  1  0.604300  0.533000  0.349000  1.0  0.1501
  C  C514  1  0.586100  0.529900  0.395600  1.0  -0.1632
  C  C515  1  0.541500  0.504500  0.403500  1.0  0.0813
  C  C516  1  0.516800  0.485700  0.363600  1.0  -0.2382
  C  C517  1  0.538500  0.489600  0.318000  1.0  0.1485
  C  C518  1  0.520300  0.500600  0.452600  1.0  0.0026
  C  C519  1  0.471400  0.514700  0.461000  1.0  -0.1558
  C  C520  1  0.450600  0.515100  0.506800  1.0  -0.0412
  C  C521  1  0.400400  0.536500  0.512000  1.0  0.0519
  C  C522  1  0.361700  0.520300  0.482900  1.0  -0.2377
  C  C523  1  0.316400  0.544600  0.485200  1.0  0.1252
  C  C524  1  0.345000  0.598000  0.543200  1.0  0.1431
  C  C525  1  0.391700  0.576300  0.542900  1.0  -0.202
  C  C526  1  0.104300  0.033000  0.849000  1.0  0.1501
  C  C527  1  0.086100  0.029900  0.895600  1.0  -0.1632
  C  C528  1  0.041500  0.004500  0.903500  1.0  0.0813
  C  C529  1  0.016800  0.985700  0.863600  1.0  -0.2382
  C  C530  1  0.038500  0.989600  0.818000  1.0  0.1485
  C  C531  1  0.020300  0.000600  0.952600  1.0  0.0026
  C  C532  1  0.971400  0.014700  0.961000  1.0  -0.1558
  C  C533  1  0.950600  0.015100  0.006800  1.0  -0.0412
  C  C534  1  0.900400  0.036500  0.012000  1.0  0.0519
  C  C535  1  0.861700  0.020300  0.982900  1.0  -0.2377
  C  C536  1  0.816400  0.044600  0.985200  1.0  0.1252
  C  C537  1  0.845000  0.098000  0.043200  1.0  0.1431
  C  C538  1  0.891700  0.076300  0.042900  1.0  -0.202
  C  C539  1  0.895700  0.467000  0.849000  1.0  0.1493
  C  C540  1  0.913900  0.470100  0.895600  1.0  -0.1609
  C  C541  1  0.958500  0.495500  0.903500  1.0  0.0809
  C  C542  1  0.983200  0.514300  0.863600  1.0  -0.2392
  C  C543  1  0.961500  0.510400  0.818000  1.0  0.1497
  C  C544  1  0.979700  0.499400  0.952600  1.0  0.0037
  C  C545  1  0.028600  0.485300  0.961000  1.0  -0.1562
  C  C546  1  0.049400  0.484900  0.006800  1.0  -0.0408
  C  C547  1  0.099600  0.463500  0.012000  1.0  0.0523
  C  C548  1  0.138300  0.479700  0.982900  1.0  -0.2373
  C  C549  1  0.183600  0.455400  0.985200  1.0  0.1266
  C  C550  1  0.155000  0.402000  0.043200  1.0  0.1462
  C  C551  1  0.108300  0.423700  0.042900  1.0  -0.1993
  C  C552  1  0.395700  0.967000  0.349000  1.0  0.1493
  C  C553  1  0.413900  0.970100  0.395600  1.0  -0.1609
  C  C554  1  0.458500  0.995500  0.403500  1.0  0.0809
  C  C555  1  0.483200  0.014300  0.363600  1.0  -0.2392
  C  C556  1  0.461500  0.010400  0.318000  1.0  0.1497
  C  C557  1  0.479700  0.999400  0.452600  1.0  0.0037
  C  C558  1  0.528600  0.985300  0.461000  1.0  -0.1562
  C  C559  1  0.549400  0.984900  0.506800  1.0  -0.0408
  C  C560  1  0.599600  0.963500  0.512000  1.0  0.0523
  C  C561  1  0.638300  0.979700  0.482900  1.0  -0.2373
  C  C562  1  0.683600  0.955400  0.485200  1.0  0.1266
  C  C563  1  0.655000  0.902000  0.543200  1.0  0.1462
  C  C564  1  0.608300  0.923700  0.542900  1.0  -0.1993
  C  C565  1  0.217000  0.854300  0.099000  1.0  0.1524
  C  C566  1  0.220100  0.836100  0.145600  1.0  -0.1597
  C  C567  1  0.245500  0.791500  0.153500  1.0  0.081
  C  C568  1  0.264300  0.766800  0.113600  1.0  -0.2408
  C  C569  1  0.260400  0.788500  0.068000  1.0  0.1483
  C  C570  1  0.249400  0.770300  0.202600  1.0  0.0029
  C  C571  1  0.235300  0.721400  0.211000  1.0  -0.1558
  C  C572  1  0.234900  0.700600  0.256800  1.0  -0.0413
  C  C573  1  0.213500  0.650400  0.262000  1.0  0.0527
  C  C574  1  0.229700  0.611700  0.232900  1.0  -0.2367
  C  C575  1  0.205400  0.566400  0.235200  1.0  0.128
  C  C576  1  0.152000  0.595000  0.293200  1.0  0.1451
  C  C577  1  0.173700  0.641700  0.292900  1.0  -0.1958
  C  C578  1  0.717000  0.354300  0.599000  1.0  0.1524
  C  C579  1  0.720100  0.336100  0.645600  1.0  -0.1597
  C  C580  1  0.745500  0.291500  0.653500  1.0  0.081
  C  C581  1  0.764300  0.266800  0.613600  1.0  -0.2408
  C  C582  1  0.760400  0.288500  0.568000  1.0  0.1483
  C  C583  1  0.749400  0.270300  0.702600  1.0  0.0029
  C  C584  1  0.735300  0.221400  0.711000  1.0  -0.156
  C  C585  1  0.734900  0.200600  0.756800  1.0  -0.0413
  C  C586  1  0.713500  0.150400  0.762000  1.0  0.0525
  C  C587  1  0.729700  0.111700  0.732900  1.0  -0.2367
  C  C588  1  0.705400  0.066400  0.735200  1.0  0.1304
  C  C589  1  0.652000  0.095000  0.793200  1.0  0.1454
  C  C590  1  0.673700  0.141700  0.792900  1.0  -0.1997
  C  C591  1  0.283000  0.145700  0.599000  1.0  0.1527
  C  C592  1  0.279900  0.163900  0.645600  1.0  -0.159
  C  C593  1  0.254500  0.208500  0.653500  1.0  0.081
  C  C594  1  0.235700  0.233200  0.613600  1.0  -0.2397
  C  C595  1  0.239600  0.211500  0.568000  1.0  0.1479
  C  C596  1  0.250600  0.229700  0.702600  1.0  0.0035
  C  C597  1  0.264700  0.278600  0.711000  1.0  -0.1564
  C  C598  1  0.265100  0.299400  0.756800  1.0  -0.041
  C  C599  1  0.286500  0.349600  0.762000  1.0  0.0524
  C  C600  1  0.270300  0.388300  0.732900  1.0  -0.2388
  C  C601  1  0.294600  0.433600  0.735200  1.0  0.1286
  C  C602  1  0.348000  0.405000  0.793200  1.0  0.1466
  C  C603  1  0.326300  0.358300  0.792900  1.0  -0.1943
  C  C604  1  0.783000  0.645700  0.099000  1.0  0.1527
  C  C605  1  0.779900  0.663900  0.145600  1.0  -0.159
  C  C606  1  0.754500  0.708500  0.153500  1.0  0.081
  C  C607  1  0.735700  0.733200  0.113600  1.0  -0.2397
  C  C608  1  0.739600  0.711500  0.068000  1.0  0.1479
  C  C609  1  0.750600  0.729700  0.202600  1.0  0.0035
  C  C610  1  0.764700  0.778600  0.211000  1.0  -0.1566
  C  C611  1  0.765100  0.799400  0.256800  1.0  -0.041
  C  C612  1  0.786500  0.849600  0.262000  1.0  0.0522
  C  C613  1  0.770300  0.888300  0.232900  1.0  -0.2389
  C  C614  1  0.794600  0.933600  0.235200  1.0  0.1286
  C  C615  1  0.848000  0.905000  0.293200  1.0  0.1466
  C  C616  1  0.826300  0.858300  0.292900  1.0  -0.1981
  C  C617  1  0.895700  0.533000  0.651000  1.0  0.1492
  C  C618  1  0.913900  0.529900  0.604400  1.0  -0.1611
  C  C619  1  0.958500  0.504500  0.596500  1.0  0.081
  C  C620  1  0.983200  0.485700  0.636400  1.0  -0.2396
  C  C621  1  0.961500  0.489600  0.682000  1.0  0.1502
  C  C622  1  0.979700  0.500600  0.547400  1.0  0.0034
  C  C623  1  0.028600  0.514700  0.539000  1.0  -0.1571
  C  C624  1  0.049400  0.515100  0.493200  1.0  -0.0411
  C  C625  1  0.099600  0.536500  0.488000  1.0  0.0531
  C  C626  1  0.138300  0.520300  0.517100  1.0  -0.2368
  C  C627  1  0.183600  0.544600  0.514800  1.0  0.1263
  C  C628  1  0.155000  0.598000  0.456800  1.0  0.1457
  C  C629  1  0.108300  0.576300  0.457100  1.0  -0.2016
  C  C630  1  0.395700  0.033000  0.151000  1.0  0.1492
  C  C631  1  0.413900  0.029900  0.104400  1.0  -0.1611
  C  C632  1  0.458500  0.004500  0.096500  1.0  0.081
  C  C633  1  0.483200  0.985700  0.136400  1.0  -0.2396
  C  C634  1  0.461500  0.989600  0.182000  1.0  0.1502
  C  C635  1  0.479700  0.000600  0.047400  1.0  0.0034
  C  C636  1  0.528600  0.014700  0.039000  1.0  -0.1571
  C  C637  1  0.549400  0.015100  0.993200  1.0  -0.0411
  C  C638  1  0.599600  0.036500  0.988000  1.0  0.0531
  C  C639  1  0.638300  0.020300  0.017100  1.0  -0.2368
  C  C640  1  0.683600  0.044600  0.014800  1.0  0.1263
  C  C641  1  0.655000  0.098000  0.956800  1.0  0.1457
  C  C642  1  0.608300  0.076300  0.957100  1.0  -0.2016
  C  C643  1  0.604300  0.467000  0.151000  1.0  0.1486
  C  C644  1  0.586100  0.470100  0.104400  1.0  -0.1614
  C  C645  1  0.541500  0.495500  0.096500  1.0  0.0815
  C  C646  1  0.516800  0.514300  0.136400  1.0  -0.2406
  C  C647  1  0.538500  0.510400  0.182000  1.0  0.149
  C  C648  1  0.520300  0.499400  0.047400  1.0  0.0023
  C  C649  1  0.471400  0.485300  0.039000  1.0  -0.1557
  C  C650  1  0.450600  0.484900  0.993200  1.0  -0.0416
  C  C651  1  0.400400  0.463500  0.988000  1.0  0.0524
  C  C652  1  0.361700  0.479700  0.017100  1.0  -0.2392
  C  C653  1  0.316400  0.455400  0.014800  1.0  0.1256
  C  C654  1  0.345000  0.402000  0.956800  1.0  0.1439
  C  C655  1  0.391700  0.423700  0.957100  1.0  -0.2013
  C  C656  1  0.104300  0.967000  0.651000  1.0  0.1486
  C  C657  1  0.086100  0.970100  0.604400  1.0  -0.1614
  C  C658  1  0.041500  0.995500  0.596500  1.0  0.0815
  C  C659  1  0.016800  0.014300  0.636400  1.0  -0.2406
  C  C660  1  0.038500  0.010400  0.682000  1.0  0.149
  C  C661  1  0.020300  0.999400  0.547400  1.0  0.0023
  C  C662  1  0.971400  0.985300  0.539000  1.0  -0.1557
  C  C663  1  0.950600  0.984900  0.493200  1.0  -0.0416
  C  C664  1  0.900400  0.963500  0.488000  1.0  0.0524
  C  C665  1  0.861700  0.979700  0.517100  1.0  -0.2392
  C  C666  1  0.816400  0.955400  0.514800  1.0  0.1256
  C  C667  1  0.845000  0.902000  0.456800  1.0  0.1439
  C  C668  1  0.891700  0.923700  0.457100  1.0  -0.2013
  C  C669  1  0.283000  0.854300  0.901000  1.0  0.1529
  C  C670  1  0.279900  0.836100  0.854400  1.0  -0.1576
  C  C671  1  0.254500  0.791500  0.846500  1.0  0.0813
  C  C672  1  0.235700  0.766800  0.886400  1.0  -0.2404
  C  C673  1  0.239600  0.788500  0.932000  1.0  0.1484
  C  C674  1  0.250600  0.770300  0.797400  1.0  0.0034
  C  C675  1  0.264700  0.721400  0.789000  1.0  -0.1561
  C  C676  1  0.265100  0.700600  0.743200  1.0  -0.0416
  C  C677  1  0.286500  0.650400  0.738000  1.0  0.0532
  C  C678  1  0.270300  0.611700  0.767100  1.0  -0.2388
  C  C679  1  0.294600  0.566400  0.764800  1.0  0.1294
  C  C680  1  0.348000  0.595000  0.706800  1.0  0.1467
  C  C681  1  0.326300  0.641700  0.707100  1.0  -0.195
  C  C682  1  0.783000  0.354300  0.401000  1.0  0.1529
  C  C683  1  0.779900  0.336100  0.354400  1.0  -0.1576
  C  C684  1  0.754500  0.291500  0.346500  1.0  0.0813
  C  C685  1  0.735700  0.266800  0.386400  1.0  -0.2404
  C  C686  1  0.739600  0.288500  0.432000  1.0  0.1484
  C  C687  1  0.750600  0.270300  0.297400  1.0  0.0034
  C  C688  1  0.764700  0.221400  0.289000  1.0  -0.1563
  C  C689  1  0.765100  0.200600  0.243200  1.0  -0.0416
  C  C690  1  0.786500  0.150400  0.238000  1.0  0.053
  C  C691  1  0.770300  0.111700  0.267100  1.0  -0.2388
  C  C692  1  0.794600  0.066400  0.264800  1.0  0.1294
  C  C693  1  0.848000  0.095000  0.206800  1.0  0.1468
  C  C694  1  0.826300  0.141700  0.207100  1.0  -0.1991
  C  C695  1  0.217000  0.145700  0.401000  1.0  0.1533
  C  C696  1  0.220100  0.163900  0.354400  1.0  -0.1576
  C  C697  1  0.245500  0.208500  0.346500  1.0  0.0815
  C  C698  1  0.264300  0.233200  0.386400  1.0  -0.2418
  C  C699  1  0.260400  0.211500  0.432000  1.0  0.1483
  C  C700  1  0.249400  0.229700  0.297400  1.0  0.0024
  C  C701  1  0.235300  0.278600  0.289000  1.0  -0.1569
  C  C702  1  0.234900  0.299400  0.243200  1.0  -0.0415
  C  C703  1  0.213500  0.349600  0.238000  1.0  0.0531
  C  C704  1  0.229700  0.388300  0.267100  1.0  -0.2371
  C  C705  1  0.205400  0.433600  0.264800  1.0  0.1281
  C  C706  1  0.152000  0.405000  0.206800  1.0  0.1453
  C  C707  1  0.173700  0.358300  0.207100  1.0  -0.1956
  C  C708  1  0.717000  0.645700  0.901000  1.0  0.1533
  C  C709  1  0.720100  0.663900  0.854400  1.0  -0.1576
  C  C710  1  0.745500  0.708500  0.846500  1.0  0.0815
  C  C711  1  0.764300  0.733200  0.886400  1.0  -0.2418
  C  C712  1  0.760400  0.711500  0.932000  1.0  0.1483
  C  C713  1  0.749400  0.729700  0.797400  1.0  0.0024
  C  C714  1  0.735300  0.778600  0.789000  1.0  -0.1571
  C  C715  1  0.734900  0.799400  0.743200  1.0  -0.0415
  C  C716  1  0.713500  0.849600  0.738000  1.0  0.0529
  C  C717  1  0.729700  0.888300  0.767100  1.0  -0.2371
  C  C718  1  0.705400  0.933600  0.764800  1.0  0.1304
  C  C719  1  0.652000  0.905000  0.706800  1.0  0.1455
  C  C720  1  0.673700  0.858300  0.707100  1.0  -0.1992
  N  N721  1  0.418500  0.487700  0.689700  1.0  -0.3574
  N  N722  1  0.691900  0.416600  0.485500  1.0  -0.3413
  N  N723  1  0.918500  0.987700  0.189700  1.0  -0.3574
  N  N724  1  0.191900  0.916600  0.985500  1.0  -0.3413
  N  N725  1  0.081500  0.512300  0.189700  1.0  -0.3566
  N  N726  1  0.808100  0.583400  0.985500  1.0  -0.3431
  N  N727  1  0.581500  0.012300  0.689700  1.0  -0.3568
  N  N728  1  0.308100  0.083400  0.485500  1.0  -0.3431
  N  N729  1  0.762300  0.168500  0.939700  1.0  -0.3573
  N  N730  1  0.833400  0.441900  0.735500  1.0  -0.3417
  N  N731  1  0.262300  0.668500  0.439700  1.0  -0.3573
  N  N732  1  0.333400  0.941900  0.235500  1.0  -0.3417
  N  N733  1  0.737700  0.831500  0.439700  1.0  -0.3586
  N  N734  1  0.666667  0.558100  0.235500  1.0  -0.3372
  N  N735  1  0.237700  0.331500  0.939700  1.0  -0.3586
  N  N736  1  0.166600  0.058100  0.735500  1.0  -0.3416
  N  N737  1  0.081500  0.487700  0.310300  1.0  -0.3582
  N  N738  1  0.808100  0.416600  0.514500  1.0  -0.3431
  N  N739  1  0.581500  0.987700  0.810300  1.0  -0.3584
  N  N740  1  0.308100  0.916600  0.014500  1.0  -0.3431
  N  N741  1  0.418500  0.512300  0.810300  1.0  -0.3574
  N  N742  1  0.691900  0.583400  0.014500  1.0  -0.3416
  N  N743  1  0.918500  0.012300  0.310300  1.0  -0.3574
  N  N744  1  0.191900  0.083400  0.514500  1.0  -0.3416
  N  N745  1  0.737700  0.168500  0.060300  1.0  -0.3598
  N  N746  1  0.666667  0.441900  0.264500  1.0  -0.3365
  N  N747  1  0.237700  0.668500  0.560300  1.0  -0.3598
  N  N748  1  0.166600  0.941900  0.764500  1.0  -0.3411
  N  N749  1  0.762300  0.831500  0.560300  1.0  -0.3584
  N  N750  1  0.833400  0.558100  0.764500  1.0  -0.342
  N  N751  1  0.262300  0.331500  0.060300  1.0  -0.3584
  N  N752  1  0.333400  0.058100  0.264500  1.0  -0.342
  N  N753  1  0.581500  0.512300  0.310300  1.0  -0.357
  N  N754  1  0.308100  0.583400  0.514500  1.0  -0.343
  N  N755  1  0.081500  0.012300  0.810300  1.0  -0.3569
  N  N756  1  0.808100  0.083400  0.014500  1.0  -0.343
  N  N757  1  0.918500  0.487700  0.810300  1.0  -0.3592
  N  N758  1  0.191900  0.416600  0.014500  1.0  -0.3414
  N  N759  1  0.418500  0.987700  0.310300  1.0  -0.3592
  N  N760  1  0.691900  0.916600  0.514500  1.0  -0.3414
  N  N761  1  0.237700  0.831500  0.060300  1.0  -0.3591
  N  N762  1  0.166600  0.558100  0.264500  1.0  -0.3418
  N  N763  1  0.737700  0.331500  0.560300  1.0  -0.3591
  N  N764  1  0.666667  0.058100  0.764500  1.0  -0.3374
  N  N765  1  0.262300  0.168500  0.560300  1.0  -0.3592
  N  N766  1  0.333400  0.441900  0.764500  1.0  -0.3415
  N  N767  1  0.762300  0.668500  0.060300  1.0  -0.3592
  N  N768  1  0.833400  0.941900  0.264500  1.0  -0.3416
  N  N769  1  0.918500  0.512300  0.689700  1.0  -0.3566
  N  N770  1  0.191900  0.583400  0.485500  1.0  -0.3418
  N  N771  1  0.418500  0.012300  0.189700  1.0  -0.3566
  N  N772  1  0.691900  0.083400  0.985500  1.0  -0.3418
  N  N773  1  0.581500  0.487700  0.189700  1.0  -0.3572
  N  N774  1  0.308100  0.416600  0.985500  1.0  -0.343
  N  N775  1  0.081500  0.987700  0.689700  1.0  -0.357
  N  N776  1  0.808100  0.916600  0.485500  1.0  -0.343
  N  N777  1  0.262300  0.831500  0.939700  1.0  -0.3575
  N  N778  1  0.333400  0.558100  0.735500  1.0  -0.3417
  N  N779  1  0.762300  0.331500  0.439700  1.0  -0.3575
  N  N780  1  0.833400  0.058100  0.235500  1.0  -0.3417
  N  N781  1  0.237700  0.168500  0.439700  1.0  -0.3585
  N  N782  1  0.166600  0.441900  0.235500  1.0  -0.3413
  N  N783  1  0.737700  0.668500  0.939700  1.0  -0.3585
  N  N784  1  0.666667  0.941900  0.735500  1.0  -0.3367
