# generated using pymatgen
data_Zn3H12C16(N5O2)4
_symmetry_space_group_name_H-M   'P 1'
_cell_length_a   41.39300000
_cell_length_b   41.39300000
_cell_length_c   41.39300000
_cell_angle_alpha   90.00000000
_cell_angle_beta   90.00000000
_cell_angle_gamma   90.00000000
_symmetry_Int_Tables_number   1
_chemical_formula_structural   Zn3H12C16(N5O2)4
_chemical_formula_sum   'Zn144 H576 C768 N960 O384'
_cell_volume   70921.95692546
_cell_formula_units_Z   48
loop_
 _symmetry_equiv_pos_site_id
 _symmetry_equiv_pos_as_xyz
  1  'x, y, z'
loop_
 _atom_site_type_symbol
 _atom_site_label
 _atom_site_symmetry_multiplicity
 _atom_site_fract_x
 _atom_site_fract_y
 _atom_site_fract_z
 _atom_site_occupancy
 _atom_site_charge
  Zn  Zn1  1  0.703880  0.877580  0.033510  1.0  0.9368
  Zn  Zn2  1  0.703880  0.377580  0.533510  1.0  0.9368
  Zn  Zn3  1  0.203880  0.877580  0.533510  1.0  0.9368
  Zn  Zn4  1  0.203880  0.377580  0.033510  1.0  0.9368
  Zn  Zn5  1  0.546120  0.372420  0.033510  1.0  0.937
  Zn  Zn6  1  0.546120  0.872420  0.533510  1.0  0.937
  Zn  Zn7  1  0.046120  0.372420  0.533510  1.0  0.937
  Zn  Zn8  1  0.046120  0.872420  0.033510  1.0  0.937
  Zn  Zn9  1  0.546120  0.877580  0.216490  1.0  0.9375
  Zn  Zn10  1  0.546120  0.377580  0.716490  1.0  0.9375
  Zn  Zn11  1  0.046120  0.877580  0.716490  1.0  0.9375
  Zn  Zn12  1  0.046120  0.377580  0.216490  1.0  0.9375
  Zn  Zn13  1  0.703880  0.372420  0.216490  1.0  0.9377
  Zn  Zn14  1  0.703880  0.872420  0.716490  1.0  0.9377
  Zn  Zn15  1  0.203880  0.372420  0.716490  1.0  0.9377
  Zn  Zn16  1  0.203880  0.872420  0.216490  1.0  0.9377
  Zn  Zn17  1  0.033510  0.703880  0.877580  1.0  0.9349
  Zn  Zn18  1  0.033510  0.203880  0.377580  1.0  0.9349
  Zn  Zn19  1  0.533510  0.703880  0.377580  1.0  0.9349
  Zn  Zn20  1  0.533510  0.203880  0.877580  1.0  0.9349
  Zn  Zn21  1  0.033510  0.546120  0.372420  1.0  0.935
  Zn  Zn22  1  0.033510  0.046120  0.872420  1.0  0.935
  Zn  Zn23  1  0.533510  0.546120  0.872420  1.0  0.935
  Zn  Zn24  1  0.533510  0.046120  0.372420  1.0  0.935
  Zn  Zn25  1  0.216490  0.546120  0.877580  1.0  0.9339
  Zn  Zn26  1  0.216490  0.046120  0.377580  1.0  0.9339
  Zn  Zn27  1  0.716490  0.546120  0.377580  1.0  0.9339
  Zn  Zn28  1  0.716490  0.046120  0.877580  1.0  0.9339
  Zn  Zn29  1  0.216490  0.703880  0.372420  1.0  0.9339
  Zn  Zn30  1  0.216490  0.203880  0.872420  1.0  0.9339
  Zn  Zn31  1  0.716490  0.703880  0.872420  1.0  0.9339
  Zn  Zn32  1  0.716490  0.203880  0.372420  1.0  0.9339
  Zn  Zn33  1  0.877580  0.033510  0.703880  1.0  0.9361
  Zn  Zn34  1  0.877580  0.533510  0.203880  1.0  0.9361
  Zn  Zn35  1  0.377580  0.033510  0.203880  1.0  0.9361
  Zn  Zn36  1  0.377580  0.533510  0.703880  1.0  0.9361
  Zn  Zn37  1  0.372420  0.033510  0.546120  1.0  0.9351
  Zn  Zn38  1  0.372420  0.533510  0.046120  1.0  0.9351
  Zn  Zn39  1  0.872420  0.033510  0.046120  1.0  0.9351
  Zn  Zn40  1  0.872420  0.533510  0.546120  1.0  0.9351
  Zn  Zn41  1  0.877580  0.216490  0.546120  1.0  0.9364
  Zn  Zn42  1  0.877580  0.716490  0.046120  1.0  0.9364
  Zn  Zn43  1  0.377580  0.216490  0.046120  1.0  0.9364
  Zn  Zn44  1  0.377580  0.716490  0.546120  1.0  0.9364
  Zn  Zn45  1  0.372420  0.216490  0.703880  1.0  0.9356
  Zn  Zn46  1  0.372420  0.716490  0.203880  1.0  0.9356
  Zn  Zn47  1  0.872420  0.216490  0.203880  1.0  0.9356
  Zn  Zn48  1  0.872420  0.716490  0.703880  1.0  0.9356
  Zn  Zn49  1  0.296120  0.122420  0.966490  1.0  0.9362
  Zn  Zn50  1  0.296120  0.622420  0.466490  1.0  0.9362
  Zn  Zn51  1  0.796120  0.122420  0.466490  1.0  0.9362
  Zn  Zn52  1  0.796120  0.622420  0.966490  1.0  0.9362
  Zn  Zn53  1  0.453880  0.627580  0.966490  1.0  0.936
  Zn  Zn54  1  0.453880  0.127580  0.466490  1.0  0.936
  Zn  Zn55  1  0.953880  0.627580  0.466490  1.0  0.936
  Zn  Zn56  1  0.953880  0.127580  0.966490  1.0  0.936
  Zn  Zn57  1  0.453880  0.122420  0.783510  1.0  0.9356
  Zn  Zn58  1  0.453880  0.622420  0.283510  1.0  0.9356
  Zn  Zn59  1  0.953880  0.122420  0.283510  1.0  0.9356
  Zn  Zn60  1  0.953880  0.622420  0.783510  1.0  0.9356
  Zn  Zn61  1  0.296120  0.627580  0.783510  1.0  0.9351
  Zn  Zn62  1  0.296120  0.127580  0.283510  1.0  0.9351
  Zn  Zn63  1  0.796120  0.627580  0.283510  1.0  0.9351
  Zn  Zn64  1  0.796120  0.127580  0.783510  1.0  0.9351
  Zn  Zn65  1  0.966490  0.296120  0.122420  1.0  0.9324
  Zn  Zn66  1  0.966490  0.796120  0.622420  1.0  0.9324
  Zn  Zn67  1  0.466490  0.296120  0.622420  1.0  0.9324
  Zn  Zn68  1  0.466490  0.796120  0.122420  1.0  0.9324
  Zn  Zn69  1  0.966490  0.453880  0.627580  1.0  0.9323
  Zn  Zn70  1  0.966490  0.953880  0.127580  1.0  0.9323
  Zn  Zn71  1  0.466490  0.453880  0.127580  1.0  0.9323
  Zn  Zn72  1  0.466490  0.953880  0.627580  1.0  0.9323
  Zn  Zn73  1  0.783510  0.453880  0.122420  1.0  0.9335
  Zn  Zn74  1  0.783510  0.953880  0.622420  1.0  0.9335
  Zn  Zn75  1  0.283510  0.453880  0.622420  1.0  0.9335
  Zn  Zn76  1  0.283510  0.953880  0.122420  1.0  0.9335
  Zn  Zn77  1  0.783510  0.296120  0.627580  1.0  0.9334
  Zn  Zn78  1  0.783510  0.796120  0.127580  1.0  0.9334
  Zn  Zn79  1  0.283510  0.296120  0.127580  1.0  0.9334
  Zn  Zn80  1  0.283510  0.796120  0.627580  1.0  0.9334
  Zn  Zn81  1  0.122420  0.966490  0.296120  1.0  0.934
  Zn  Zn82  1  0.122420  0.466490  0.796120  1.0  0.934
  Zn  Zn83  1  0.622420  0.966490  0.796120  1.0  0.934
  Zn  Zn84  1  0.622420  0.466490  0.296120  1.0  0.934
  Zn  Zn85  1  0.627580  0.966490  0.453880  1.0  0.9351
  Zn  Zn86  1  0.627580  0.466490  0.953880  1.0  0.9351
  Zn  Zn87  1  0.127580  0.966490  0.953880  1.0  0.9351
  Zn  Zn88  1  0.127580  0.466490  0.453880  1.0  0.9351
  Zn  Zn89  1  0.122420  0.783510  0.453880  1.0  0.9337
  Zn  Zn90  1  0.122420  0.283510  0.953880  1.0  0.9337
  Zn  Zn91  1  0.622420  0.783510  0.953880  1.0  0.9337
  Zn  Zn92  1  0.622420  0.283510  0.453880  1.0  0.9337
  Zn  Zn93  1  0.627580  0.783510  0.296120  1.0  0.9347
  Zn  Zn94  1  0.627580  0.283510  0.796120  1.0  0.9347
  Zn  Zn95  1  0.127580  0.783510  0.796120  1.0  0.9347
  Zn  Zn96  1  0.127580  0.283510  0.296120  1.0  0.9347
  Zn  Zn97  1  0.625000  0.963840  0.125000  1.0  1.0501
  Zn  Zn98  1  0.625000  0.463840  0.625000  1.0  1.0501
  Zn  Zn99  1  0.125000  0.963840  0.625000  1.0  1.0501
  Zn  Zn100  1  0.125000  0.463840  0.125000  1.0  1.0501
  Zn  Zn101  1  0.625000  0.286160  0.125000  1.0  1.05
  Zn  Zn102  1  0.625000  0.786160  0.625000  1.0  1.05
  Zn  Zn103  1  0.125000  0.286160  0.625000  1.0  1.05
  Zn  Zn104  1  0.125000  0.786160  0.125000  1.0  1.05
  Zn  Zn105  1  0.125000  0.625000  0.963840  1.0  1.0504
  Zn  Zn106  1  0.125000  0.125000  0.463840  1.0  1.0504
  Zn  Zn107  1  0.625000  0.625000  0.463840  1.0  1.0504
  Zn  Zn108  1  0.625000  0.125000  0.963840  1.0  1.0504
  Zn  Zn109  1  0.125000  0.625000  0.286160  1.0  1.05
  Zn  Zn110  1  0.125000  0.125000  0.786160  1.0  1.05
  Zn  Zn111  1  0.625000  0.625000  0.786160  1.0  1.05
  Zn  Zn112  1  0.625000  0.125000  0.286160  1.0  1.05
  Zn  Zn113  1  0.963840  0.125000  0.625000  1.0  1.0504
  Zn  Zn114  1  0.963840  0.625000  0.125000  1.0  1.0504
  Zn  Zn115  1  0.463840  0.125000  0.125000  1.0  1.0504
  Zn  Zn116  1  0.463840  0.625000  0.625000  1.0  1.0504
  Zn  Zn117  1  0.286160  0.125000  0.625000  1.0  1.0491
  Zn  Zn118  1  0.286160  0.625000  0.125000  1.0  1.0491
  Zn  Zn119  1  0.786160  0.125000  0.125000  1.0  1.0491
  Zn  Zn120  1  0.786160  0.625000  0.625000  1.0  1.0491
  Zn  Zn121  1  0.375000  0.036160  0.875000  1.0  1.05
  Zn  Zn122  1  0.375000  0.536160  0.375000  1.0  1.05
  Zn  Zn123  1  0.875000  0.036160  0.375000  1.0  1.05
  Zn  Zn124  1  0.875000  0.536160  0.875000  1.0  1.05
  Zn  Zn125  1  0.375000  0.713840  0.875000  1.0  1.0501
  Zn  Zn126  1  0.375000  0.213840  0.375000  1.0  1.0501
  Zn  Zn127  1  0.875000  0.713840  0.375000  1.0  1.0501
  Zn  Zn128  1  0.875000  0.213840  0.875000  1.0  1.0501
  Zn  Zn129  1  0.875000  0.375000  0.036160  1.0  1.05
  Zn  Zn130  1  0.875000  0.875000  0.536160  1.0  1.05
  Zn  Zn131  1  0.375000  0.375000  0.536160  1.0  1.05
  Zn  Zn132  1  0.375000  0.875000  0.036160  1.0  1.05
  Zn  Zn133  1  0.875000  0.375000  0.713840  1.0  1.0504
  Zn  Zn134  1  0.875000  0.875000  0.213840  1.0  1.0504
  Zn  Zn135  1  0.375000  0.375000  0.213840  1.0  1.0504
  Zn  Zn136  1  0.375000  0.875000  0.713840  1.0  1.0504
  Zn  Zn137  1  0.036160  0.875000  0.375000  1.0  1.0491
  Zn  Zn138  1  0.036160  0.375000  0.875000  1.0  1.0491
  Zn  Zn139  1  0.536160  0.875000  0.875000  1.0  1.0491
  Zn  Zn140  1  0.536160  0.375000  0.375000  1.0  1.0491
  Zn  Zn141  1  0.713840  0.875000  0.375000  1.0  1.0504
  Zn  Zn142  1  0.713840  0.375000  0.875000  1.0  1.0504
  Zn  Zn143  1  0.213840  0.875000  0.875000  1.0  1.0504
  Zn  Zn144  1  0.213840  0.375000  0.375000  1.0  1.0504
  H  H145  1  0.696400  0.966400  0.093700  1.0  0.3537
  H  H146  1  0.716800  0.944300  0.073900  1.0  0.3597
  H  H147  1  0.632300  0.847000  0.040000  1.0  0.3606
  H  H148  1  0.612900  0.823000  0.021500  1.0  0.3666
  H  H149  1  0.797700  0.966000  0.026800  1.0  0.1319
  H  H150  1  0.607600  0.030700  0.052500  1.0  0.1341
  H  H151  1  0.696400  0.466400  0.593700  1.0  0.3537
  H  H152  1  0.716800  0.444300  0.573900  1.0  0.3597
  H  H153  1  0.632300  0.347000  0.540000  1.0  0.3606
  H  H154  1  0.612900  0.323000  0.521500  1.0  0.3666
  H  H155  1  0.797700  0.466000  0.526800  1.0  0.1319
  H  H156  1  0.607600  0.530700  0.552500  1.0  0.1341
  H  H157  1  0.196400  0.966400  0.593700  1.0  0.3537
  H  H158  1  0.216800  0.944300  0.573900  1.0  0.3597
  H  H159  1  0.132300  0.847000  0.540000  1.0  0.3606
  H  H160  1  0.112900  0.823000  0.521500  1.0  0.3666
  H  H161  1  0.297700  0.966000  0.526800  1.0  0.1319
  H  H162  1  0.107600  0.030700  0.552500  1.0  0.1341
  H  H163  1  0.196400  0.466400  0.093700  1.0  0.3537
  H  H164  1  0.216800  0.444300  0.073900  1.0  0.3597
  H  H165  1  0.132300  0.347000  0.040000  1.0  0.3606
  H  H166  1  0.112900  0.323000  0.021500  1.0  0.3666
  H  H167  1  0.297700  0.466000  0.026800  1.0  0.1319
  H  H168  1  0.107600  0.530700  0.052500  1.0  0.1341
  H  H169  1  0.553600  0.283600  0.093700  1.0  0.3562
  H  H170  1  0.533200  0.305700  0.073900  1.0  0.3588
  H  H171  1  0.617700  0.403000  0.040000  1.0  0.3605
  H  H172  1  0.637100  0.427000  0.021500  1.0  0.3663
  H  H173  1  0.452300  0.284000  0.026800  1.0  0.1319
  H  H174  1  0.642400  0.219300  0.052500  1.0  0.1344
  H  H175  1  0.553600  0.783600  0.593700  1.0  0.3562
  H  H176  1  0.533200  0.805700  0.573900  1.0  0.3588
  H  H177  1  0.617700  0.903000  0.540000  1.0  0.3605
  H  H178  1  0.637100  0.927000  0.521500  1.0  0.3663
  H  H179  1  0.452300  0.784000  0.526800  1.0  0.1319
  H  H180  1  0.642400  0.719300  0.552500  1.0  0.1344
  H  H181  1  0.053600  0.283600  0.593700  1.0  0.3562
  H  H182  1  0.033200  0.305700  0.573900  1.0  0.3588
  H  H183  1  0.117700  0.403000  0.540000  1.0  0.3605
  H  H184  1  0.137100  0.427000  0.521500  1.0  0.3663
  H  H185  1  0.952300  0.284000  0.526800  1.0  0.1319
  H  H186  1  0.142400  0.219300  0.552500  1.0  0.1344
  H  H187  1  0.053600  0.783600  0.093700  1.0  0.3562
  H  H188  1  0.033200  0.805700  0.073900  1.0  0.3588
  H  H189  1  0.117700  0.903000  0.040000  1.0  0.3605
  H  H190  1  0.137100  0.927000  0.021500  1.0  0.3663
  H  H191  1  0.952300  0.784000  0.026800  1.0  0.1319
  H  H192  1  0.142400  0.719300  0.052500  1.0  0.1344
  H  H193  1  0.553600  0.966400  0.156300  1.0  0.3538
  H  H194  1  0.533200  0.944300  0.176100  1.0  0.359
  H  H195  1  0.617700  0.847000  0.210000  1.0  0.3607
  H  H196  1  0.637100  0.823000  0.228500  1.0  0.3673
  H  H197  1  0.452300  0.966000  0.223200  1.0  0.1321
  H  H198  1  0.642400  0.030700  0.197500  1.0  0.1343
  H  H199  1  0.553600  0.466400  0.656300  1.0  0.3538
  H  H200  1  0.533200  0.444300  0.676100  1.0  0.359
  H  H201  1  0.617700  0.347000  0.710000  1.0  0.3607
  H  H202  1  0.637100  0.323000  0.728500  1.0  0.3673
  H  H203  1  0.452300  0.466000  0.723200  1.0  0.1321
  H  H204  1  0.642400  0.530700  0.697500  1.0  0.1343
  H  H205  1  0.053600  0.966400  0.656300  1.0  0.3538
  H  H206  1  0.033200  0.944300  0.676100  1.0  0.359
  H  H207  1  0.117700  0.847000  0.710000  1.0  0.3607
  H  H208  1  0.137100  0.823000  0.728500  1.0  0.3673
  H  H209  1  0.952300  0.966000  0.723200  1.0  0.1321
  H  H210  1  0.142400  0.030700  0.697500  1.0  0.1343
  H  H211  1  0.053600  0.466400  0.156300  1.0  0.3538
  H  H212  1  0.033200  0.444300  0.176100  1.0  0.359
  H  H213  1  0.117700  0.347000  0.210000  1.0  0.3607
  H  H214  1  0.137100  0.323000  0.228500  1.0  0.3673
  H  H215  1  0.952300  0.466000  0.223200  1.0  0.1321
  H  H216  1  0.142400  0.530700  0.197500  1.0  0.1343
  H  H217  1  0.696400  0.283600  0.156300  1.0  0.3552
  H  H218  1  0.716800  0.305700  0.176100  1.0  0.36
  H  H219  1  0.632300  0.403000  0.210000  1.0  0.3611
  H  H220  1  0.612900  0.427000  0.228500  1.0  0.3656
  H  H221  1  0.797700  0.284000  0.223200  1.0  0.132
  H  H222  1  0.607600  0.219300  0.197500  1.0  0.1342
  H  H223  1  0.696400  0.783600  0.656300  1.0  0.3552
  H  H224  1  0.716800  0.805700  0.676100  1.0  0.36
  H  H225  1  0.632300  0.903000  0.710000  1.0  0.3611
  H  H226  1  0.612900  0.927000  0.728500  1.0  0.3656
  H  H227  1  0.797700  0.784000  0.723200  1.0  0.132
  H  H228  1  0.607600  0.719300  0.697500  1.0  0.1342
  H  H229  1  0.196400  0.283600  0.656300  1.0  0.3552
  H  H230  1  0.216800  0.305700  0.676100  1.0  0.36
  H  H231  1  0.132300  0.403000  0.710000  1.0  0.3611
  H  H232  1  0.112900  0.427000  0.728500  1.0  0.3656
  H  H233  1  0.297700  0.284000  0.723200  1.0  0.132
  H  H234  1  0.107600  0.219300  0.697500  1.0  0.1342
  H  H235  1  0.196400  0.783600  0.156300  1.0  0.3552
  H  H236  1  0.216800  0.805700  0.176100  1.0  0.36
  H  H237  1  0.132300  0.903000  0.210000  1.0  0.3611
  H  H238  1  0.112900  0.927000  0.228500  1.0  0.3656
  H  H239  1  0.297700  0.784000  0.223200  1.0  0.132
  H  H240  1  0.107600  0.719300  0.197500  1.0  0.1342
  H  H241  1  0.093700  0.696400  0.966400  1.0  0.3578
  H  H242  1  0.073900  0.716800  0.944300  1.0  0.3593
  H  H243  1  0.040000  0.632300  0.847000  1.0  0.3587
  H  H244  1  0.021500  0.612900  0.823000  1.0  0.3646
  H  H245  1  0.026800  0.797700  0.966000  1.0  0.1326
  H  H246  1  0.052500  0.607600  0.030700  1.0  0.1338
  H  H247  1  0.093700  0.196400  0.466400  1.0  0.3578
  H  H248  1  0.073900  0.216800  0.444300  1.0  0.3593
  H  H249  1  0.040000  0.132300  0.347000  1.0  0.3587
  H  H250  1  0.021500  0.112900  0.323000  1.0  0.3646
  H  H251  1  0.026800  0.297700  0.466000  1.0  0.1326
  H  H252  1  0.052500  0.107600  0.530700  1.0  0.1338
  H  H253  1  0.593700  0.696400  0.466400  1.0  0.3578
  H  H254  1  0.573900  0.716800  0.444300  1.0  0.3593
  H  H255  1  0.540000  0.632300  0.347000  1.0  0.3587
  H  H256  1  0.521500  0.612900  0.323000  1.0  0.3646
  H  H257  1  0.526800  0.797700  0.466000  1.0  0.1326
  H  H258  1  0.552500  0.607600  0.530700  1.0  0.1338
  H  H259  1  0.593700  0.196400  0.966400  1.0  0.3578
  H  H260  1  0.573900  0.216800  0.944300  1.0  0.3593
  H  H261  1  0.540000  0.132300  0.847000  1.0  0.3587
  H  H262  1  0.521500  0.112900  0.823000  1.0  0.3646
  H  H263  1  0.526800  0.297700  0.966000  1.0  0.1326
  H  H264  1  0.552500  0.107600  0.030700  1.0  0.1338
  H  H265  1  0.093700  0.553600  0.283600  1.0  0.3576
  H  H266  1  0.073900  0.533200  0.305700  1.0  0.359
  H  H267  1  0.040000  0.617700  0.403000  1.0  0.3576
  H  H268  1  0.021500  0.637100  0.427000  1.0  0.3646
  H  H269  1  0.026800  0.452300  0.284000  1.0  0.1322
  H  H270  1  0.052500  0.642400  0.219300  1.0  0.1333
  H  H271  1  0.093700  0.053600  0.783600  1.0  0.3576
  H  H272  1  0.073900  0.033200  0.805700  1.0  0.359
  H  H273  1  0.040000  0.117700  0.903000  1.0  0.3576
  H  H274  1  0.021500  0.137100  0.927000  1.0  0.3646
  H  H275  1  0.026800  0.952300  0.784000  1.0  0.1322
  H  H276  1  0.052500  0.142400  0.719300  1.0  0.1333
  H  H277  1  0.593700  0.553600  0.783600  1.0  0.3576
  H  H278  1  0.573900  0.533200  0.805700  1.0  0.359
  H  H279  1  0.540000  0.617700  0.903000  1.0  0.3576
  H  H280  1  0.521500  0.637100  0.927000  1.0  0.3646
  H  H281  1  0.526800  0.452300  0.784000  1.0  0.1322
  H  H282  1  0.552500  0.642400  0.719300  1.0  0.1333
  H  H283  1  0.593700  0.053600  0.283600  1.0  0.3576
  H  H284  1  0.573900  0.033200  0.305700  1.0  0.359
  H  H285  1  0.540000  0.117700  0.403000  1.0  0.3576
  H  H286  1  0.521500  0.137100  0.427000  1.0  0.3646
  H  H287  1  0.526800  0.952300  0.284000  1.0  0.1322
  H  H288  1  0.552500  0.142400  0.219300  1.0  0.1333
  H  H289  1  0.156300  0.553600  0.966400  1.0  0.3582
  H  H290  1  0.176100  0.533200  0.944300  1.0  0.3596
  H  H291  1  0.210000  0.617700  0.847000  1.0  0.3579
  H  H292  1  0.228500  0.637100  0.823000  1.0  0.3638
  H  H293  1  0.223200  0.452300  0.966000  1.0  0.1321
  H  H294  1  0.197500  0.642400  0.030700  1.0  0.1336
  H  H295  1  0.156300  0.053600  0.466400  1.0  0.3582
  H  H296  1  0.176100  0.033200  0.444300  1.0  0.3596
  H  H297  1  0.210000  0.117700  0.347000  1.0  0.3579
  H  H298  1  0.228500  0.137100  0.323000  1.0  0.3638
  H  H299  1  0.223200  0.952300  0.466000  1.0  0.1321
  H  H300  1  0.197500  0.142400  0.530700  1.0  0.1336
  H  H301  1  0.656300  0.553600  0.466400  1.0  0.3582
  H  H302  1  0.676100  0.533200  0.444300  1.0  0.3596
  H  H303  1  0.710000  0.617700  0.347000  1.0  0.3579
  H  H304  1  0.728500  0.637100  0.323000  1.0  0.3638
  H  H305  1  0.723200  0.452300  0.466000  1.0  0.1321
  H  H306  1  0.697500  0.642400  0.530700  1.0  0.1336
  H  H307  1  0.656300  0.053600  0.966400  1.0  0.3582
  H  H308  1  0.676100  0.033200  0.944300  1.0  0.3596
  H  H309  1  0.710000  0.117700  0.847000  1.0  0.3579
  H  H310  1  0.728500  0.137100  0.823000  1.0  0.3638
  H  H311  1  0.723200  0.952300  0.966000  1.0  0.1321
  H  H312  1  0.697500  0.142400  0.030700  1.0  0.1336
  H  H313  1  0.156300  0.696400  0.283600  1.0  0.3573
  H  H314  1  0.176100  0.716800  0.305700  1.0  0.3596
  H  H315  1  0.210000  0.632300  0.403000  1.0  0.3569
  H  H316  1  0.228500  0.612900  0.427000  1.0  0.3656
  H  H317  1  0.223200  0.797700  0.284000  1.0  0.132
  H  H318  1  0.197500  0.607600  0.219300  1.0  0.1335
  H  H319  1  0.156300  0.196400  0.783600  1.0  0.3573
  H  H320  1  0.176100  0.216800  0.805700  1.0  0.3596
  H  H321  1  0.210000  0.132300  0.903000  1.0  0.3569
  H  H322  1  0.228500  0.112900  0.927000  1.0  0.3656
  H  H323  1  0.223200  0.297700  0.784000  1.0  0.132
  H  H324  1  0.197500  0.107600  0.719300  1.0  0.1335
  H  H325  1  0.656300  0.696400  0.783600  1.0  0.3573
  H  H326  1  0.676100  0.716800  0.805700  1.0  0.3596
  H  H327  1  0.710000  0.632300  0.903000  1.0  0.3569
  H  H328  1  0.728500  0.612900  0.927000  1.0  0.3656
  H  H329  1  0.723200  0.797700  0.784000  1.0  0.132
  H  H330  1  0.697500  0.607600  0.719300  1.0  0.1335
  H  H331  1  0.656300  0.196400  0.283600  1.0  0.3573
  H  H332  1  0.676100  0.216800  0.305700  1.0  0.3596
  H  H333  1  0.710000  0.132300  0.403000  1.0  0.3569
  H  H334  1  0.728500  0.112900  0.427000  1.0  0.3656
  H  H335  1  0.723200  0.297700  0.284000  1.0  0.132
  H  H336  1  0.697500  0.107600  0.219300  1.0  0.1335
  H  H337  1  0.966400  0.093700  0.696400  1.0  0.3567
  H  H338  1  0.944300  0.073900  0.716800  1.0  0.3609
  H  H339  1  0.847000  0.040000  0.632300  1.0  0.3615
  H  H340  1  0.823000  0.021500  0.612900  1.0  0.3673
  H  H341  1  0.966000  0.026800  0.797700  1.0  0.1317
  H  H342  1  0.030700  0.052500  0.607600  1.0  0.1347
  H  H343  1  0.966400  0.593700  0.196400  1.0  0.3567
  H  H344  1  0.944300  0.573900  0.216800  1.0  0.3609
  H  H345  1  0.847000  0.540000  0.132300  1.0  0.3615
  H  H346  1  0.823000  0.521500  0.112900  1.0  0.3673
  H  H347  1  0.966000  0.526800  0.297700  1.0  0.1317
  H  H348  1  0.030700  0.552500  0.107600  1.0  0.1347
  H  H349  1  0.466400  0.093700  0.196400  1.0  0.3567
  H  H350  1  0.444300  0.073900  0.216800  1.0  0.3609
  H  H351  1  0.347000  0.040000  0.132300  1.0  0.3615
  H  H352  1  0.323000  0.021500  0.112900  1.0  0.3673
  H  H353  1  0.466000  0.026800  0.297700  1.0  0.1317
  H  H354  1  0.530700  0.052500  0.107600  1.0  0.1347
  H  H355  1  0.466400  0.593700  0.696400  1.0  0.3567
  H  H356  1  0.444300  0.573900  0.716800  1.0  0.3609
  H  H357  1  0.347000  0.540000  0.632300  1.0  0.3615
  H  H358  1  0.323000  0.521500  0.612900  1.0  0.3673
  H  H359  1  0.466000  0.526800  0.797700  1.0  0.1317
  H  H360  1  0.530700  0.552500  0.607600  1.0  0.1347
  H  H361  1  0.283600  0.093700  0.553600  1.0  0.3549
  H  H362  1  0.305700  0.073900  0.533200  1.0  0.3607
  H  H363  1  0.403000  0.040000  0.617700  1.0  0.3607
  H  H364  1  0.427000  0.021500  0.637100  1.0  0.3697
  H  H365  1  0.284000  0.026800  0.452300  1.0  0.1315
  H  H366  1  0.219300  0.052500  0.642400  1.0  0.1349
  H  H367  1  0.283600  0.593700  0.053600  1.0  0.3549
  H  H368  1  0.305700  0.573900  0.033200  1.0  0.3607
  H  H369  1  0.403000  0.540000  0.117700  1.0  0.3607
  H  H370  1  0.427000  0.521500  0.137100  1.0  0.3697
  H  H371  1  0.284000  0.526800  0.952300  1.0  0.1315
  H  H372  1  0.219300  0.552500  0.142400  1.0  0.1349
  H  H373  1  0.783600  0.093700  0.053600  1.0  0.3549
  H  H374  1  0.805700  0.073900  0.033200  1.0  0.3607
  H  H375  1  0.903000  0.040000  0.117700  1.0  0.3607
  H  H376  1  0.927000  0.021500  0.137100  1.0  0.3697
  H  H377  1  0.784000  0.026800  0.952300  1.0  0.1315
  H  H378  1  0.719300  0.052500  0.142400  1.0  0.1349
  H  H379  1  0.783600  0.593700  0.553600  1.0  0.3549
  H  H380  1  0.805700  0.573900  0.533200  1.0  0.3607
  H  H381  1  0.903000  0.540000  0.617700  1.0  0.3607
  H  H382  1  0.927000  0.521500  0.637100  1.0  0.3697
  H  H383  1  0.784000  0.526800  0.452300  1.0  0.1315
  H  H384  1  0.719300  0.552500  0.642400  1.0  0.1349
  H  H385  1  0.966400  0.156300  0.553600  1.0  0.3572
  H  H386  1  0.944300  0.176100  0.533200  1.0  0.3608
  H  H387  1  0.847000  0.210000  0.617700  1.0  0.3624
  H  H388  1  0.823000  0.228500  0.637100  1.0  0.3687
  H  H389  1  0.966000  0.223200  0.452300  1.0  0.1314
  H  H390  1  0.030700  0.197500  0.642400  1.0  0.1347
  H  H391  1  0.966400  0.656300  0.053600  1.0  0.3572
  H  H392  1  0.944300  0.676100  0.033200  1.0  0.3608
  H  H393  1  0.847000  0.710000  0.117700  1.0  0.3624
  H  H394  1  0.823000  0.728500  0.137100  1.0  0.3687
  H  H395  1  0.966000  0.723200  0.952300  1.0  0.1314
  H  H396  1  0.030700  0.697500  0.142400  1.0  0.1347
  H  H397  1  0.466400  0.156300  0.053600  1.0  0.3572
  H  H398  1  0.444300  0.176100  0.033200  1.0  0.3608
  H  H399  1  0.347000  0.210000  0.117700  1.0  0.3624
  H  H400  1  0.323000  0.228500  0.137100  1.0  0.3687
  H  H401  1  0.466000  0.223200  0.952300  1.0  0.1314
  H  H402  1  0.530700  0.197500  0.142400  1.0  0.1347
  H  H403  1  0.466400  0.656300  0.553600  1.0  0.3572
  H  H404  1  0.444300  0.676100  0.533200  1.0  0.3608
  H  H405  1  0.347000  0.710000  0.617700  1.0  0.3624
  H  H406  1  0.323000  0.728500  0.637100  1.0  0.3687
  H  H407  1  0.466000  0.723200  0.452300  1.0  0.1314
  H  H408  1  0.530700  0.697500  0.642400  1.0  0.1347
  H  H409  1  0.283600  0.156300  0.696400  1.0  0.3572
  H  H410  1  0.305700  0.176100  0.716800  1.0  0.3609
  H  H411  1  0.403000  0.210000  0.632300  1.0  0.3618
  H  H412  1  0.427000  0.228500  0.612900  1.0  0.3682
  H  H413  1  0.284000  0.223200  0.797700  1.0  0.1312
  H  H414  1  0.219300  0.197500  0.607600  1.0  0.1348
  H  H415  1  0.283600  0.656300  0.196400  1.0  0.3572
  H  H416  1  0.305700  0.676100  0.216800  1.0  0.3609
  H  H417  1  0.403000  0.710000  0.132300  1.0  0.3618
  H  H418  1  0.427000  0.728500  0.112900  1.0  0.3682
  H  H419  1  0.284000  0.723200  0.297700  1.0  0.1312
  H  H420  1  0.219300  0.697500  0.107600  1.0  0.1348
  H  H421  1  0.783600  0.156300  0.196400  1.0  0.3572
  H  H422  1  0.805700  0.176100  0.216800  1.0  0.3609
  H  H423  1  0.903000  0.210000  0.132300  1.0  0.3618
  H  H424  1  0.927000  0.228500  0.112900  1.0  0.3682
  H  H425  1  0.784000  0.223200  0.297700  1.0  0.1312
  H  H426  1  0.719300  0.197500  0.107600  1.0  0.1348
  H  H427  1  0.783600  0.656300  0.696400  1.0  0.3572
  H  H428  1  0.805700  0.676100  0.716800  1.0  0.3609
  H  H429  1  0.903000  0.710000  0.632300  1.0  0.3618
  H  H430  1  0.927000  0.728500  0.612900  1.0  0.3682
  H  H431  1  0.784000  0.723200  0.797700  1.0  0.1312
  H  H432  1  0.719300  0.697500  0.607600  1.0  0.1348
  H  H433  1  0.303600  0.033600  0.906300  1.0  0.3555
  H  H434  1  0.283200  0.055700  0.926100  1.0  0.3586
  H  H435  1  0.367700  0.153000  0.960000  1.0  0.3606
  H  H436  1  0.387100  0.177000  0.978500  1.0  0.3669
  H  H437  1  0.202300  0.034000  0.973200  1.0  0.1318
  H  H438  1  0.392400  0.969300  0.947500  1.0  0.134
  H  H439  1  0.303600  0.533600  0.406300  1.0  0.3555
  H  H440  1  0.283200  0.555700  0.426100  1.0  0.3586
  H  H441  1  0.367700  0.653000  0.460000  1.0  0.3606
  H  H442  1  0.387100  0.677000  0.478500  1.0  0.3669
  H  H443  1  0.202300  0.534000  0.473200  1.0  0.1318
  H  H444  1  0.392400  0.469300  0.447500  1.0  0.134
  H  H445  1  0.803600  0.033600  0.406300  1.0  0.3555
  H  H446  1  0.783200  0.055700  0.426100  1.0  0.3586
  H  H447  1  0.867700  0.153000  0.460000  1.0  0.3606
  H  H448  1  0.887100  0.177000  0.478500  1.0  0.3669
  H  H449  1  0.702300  0.034000  0.473200  1.0  0.1318
  H  H450  1  0.892400  0.969300  0.447500  1.0  0.134
  H  H451  1  0.803600  0.533600  0.906300  1.0  0.3555
  H  H452  1  0.783200  0.555700  0.926100  1.0  0.3586
  H  H453  1  0.867700  0.653000  0.960000  1.0  0.3606
  H  H454  1  0.887100  0.677000  0.978500  1.0  0.3669
  H  H455  1  0.702300  0.534000  0.973200  1.0  0.1318
  H  H456  1  0.892400  0.469300  0.947500  1.0  0.134
  H  H457  1  0.446400  0.716400  0.906300  1.0  0.3537
  H  H458  1  0.466800  0.694300  0.926100  1.0  0.3599
  H  H459  1  0.382300  0.597000  0.960000  1.0  0.3606
  H  H460  1  0.362900  0.573000  0.978500  1.0  0.3661
  H  H461  1  0.547700  0.716000  0.973200  1.0  0.1323
  H  H462  1  0.357600  0.780700  0.947500  1.0  0.1338
  H  H463  1  0.446400  0.216400  0.406300  1.0  0.3537
  H  H464  1  0.466800  0.194300  0.426100  1.0  0.3599
  H  H465  1  0.382300  0.097000  0.460000  1.0  0.3606
  H  H466  1  0.362900  0.073000  0.478500  1.0  0.3661
  H  H467  1  0.547700  0.216000  0.473200  1.0  0.1323
  H  H468  1  0.357600  0.280700  0.447500  1.0  0.1338
  H  H469  1  0.946400  0.716400  0.406300  1.0  0.3537
  H  H470  1  0.966800  0.694300  0.426100  1.0  0.3599
  H  H471  1  0.882300  0.597000  0.460000  1.0  0.3606
  H  H472  1  0.862900  0.573000  0.478500  1.0  0.3661
  H  H473  1  0.047700  0.716000  0.473200  1.0  0.1323
  H  H474  1  0.857600  0.780700  0.447500  1.0  0.1338
  H  H475  1  0.946400  0.216400  0.906300  1.0  0.3537
  H  H476  1  0.966800  0.194300  0.926100  1.0  0.3599
  H  H477  1  0.882300  0.097000  0.960000  1.0  0.3606
  H  H478  1  0.862900  0.073000  0.978500  1.0  0.3661
  H  H479  1  0.047700  0.216000  0.973200  1.0  0.1323
  H  H480  1  0.857600  0.280700  0.947500  1.0  0.1338
  H  H481  1  0.446400  0.033600  0.843700  1.0  0.3553
  H  H482  1  0.466800  0.055700  0.823900  1.0  0.36
  H  H483  1  0.382300  0.153000  0.790000  1.0  0.3613
  H  H484  1  0.362900  0.177000  0.771500  1.0  0.3658
  H  H485  1  0.547700  0.034000  0.776800  1.0  0.1317
  H  H486  1  0.357600  0.969300  0.802500  1.0  0.1343
  H  H487  1  0.446400  0.533600  0.343700  1.0  0.3553
  H  H488  1  0.466800  0.555700  0.323900  1.0  0.36
  H  H489  1  0.382300  0.653000  0.290000  1.0  0.3613
  H  H490  1  0.362900  0.677000  0.271500  1.0  0.3658
  H  H491  1  0.547700  0.534000  0.276800  1.0  0.1317
  H  H492  1  0.357600  0.469300  0.302500  1.0  0.1343
  H  H493  1  0.946400  0.033600  0.343700  1.0  0.3553
  H  H494  1  0.966800  0.055700  0.323900  1.0  0.36
  H  H495  1  0.882300  0.153000  0.290000  1.0  0.3613
  H  H496  1  0.862900  0.177000  0.271500  1.0  0.3658
  H  H497  1  0.047700  0.034000  0.276800  1.0  0.1317
  H  H498  1  0.857600  0.969300  0.302500  1.0  0.1343
  H  H499  1  0.946400  0.533600  0.843700  1.0  0.3553
  H  H500  1  0.966800  0.555700  0.823900  1.0  0.36
  H  H501  1  0.882300  0.653000  0.790000  1.0  0.3613
  H  H502  1  0.862900  0.677000  0.771500  1.0  0.3658
  H  H503  1  0.047700  0.534000  0.776800  1.0  0.1317
  H  H504  1  0.857600  0.469300  0.802500  1.0  0.1343
  H  H505  1  0.303600  0.716400  0.843700  1.0  0.3542
  H  H506  1  0.283200  0.694300  0.823900  1.0  0.359
  H  H507  1  0.367700  0.597000  0.790000  1.0  0.3603
  H  H508  1  0.387100  0.573000  0.771500  1.0  0.3675
  H  H509  1  0.202300  0.716000  0.776800  1.0  0.132
  H  H510  1  0.392400  0.780700  0.802500  1.0  0.1346
  H  H511  1  0.303600  0.216400  0.343700  1.0  0.3542
  H  H512  1  0.283200  0.194300  0.323900  1.0  0.359
  H  H513  1  0.367700  0.097000  0.290000  1.0  0.3603
  H  H514  1  0.387100  0.073000  0.271500  1.0  0.3675
  H  H515  1  0.202300  0.216000  0.276800  1.0  0.132
  H  H516  1  0.392400  0.280700  0.302500  1.0  0.1346
  H  H517  1  0.803600  0.716400  0.343700  1.0  0.3542
  H  H518  1  0.783200  0.694300  0.323900  1.0  0.359
  H  H519  1  0.867700  0.597000  0.290000  1.0  0.3603
  H  H520  1  0.887100  0.573000  0.271500  1.0  0.3675
  H  H521  1  0.702300  0.716000  0.276800  1.0  0.132
  H  H522  1  0.892400  0.780700  0.302500  1.0  0.1346
  H  H523  1  0.803600  0.216400  0.843700  1.0  0.3542
  H  H524  1  0.783200  0.194300  0.823900  1.0  0.359
  H  H525  1  0.867700  0.097000  0.790000  1.0  0.3603
  H  H526  1  0.887100  0.073000  0.771500  1.0  0.3675
  H  H527  1  0.702300  0.216000  0.776800  1.0  0.132
  H  H528  1  0.892400  0.280700  0.802500  1.0  0.1346
  H  H529  1  0.906300  0.303600  0.033600  1.0  0.3573
  H  H530  1  0.926100  0.283200  0.055700  1.0  0.3593
  H  H531  1  0.960000  0.367700  0.153000  1.0  0.3569
  H  H532  1  0.978500  0.387100  0.177000  1.0  0.3644
  H  H533  1  0.973200  0.202300  0.034000  1.0  0.132
  H  H534  1  0.947500  0.392400  0.969300  1.0  0.1332
  H  H535  1  0.906300  0.803600  0.533600  1.0  0.3573
  H  H536  1  0.926100  0.783200  0.555700  1.0  0.3593
  H  H537  1  0.960000  0.867700  0.653000  1.0  0.3569
  H  H538  1  0.978500  0.887100  0.677000  1.0  0.3644
  H  H539  1  0.973200  0.702300  0.534000  1.0  0.132
  H  H540  1  0.947500  0.892400  0.469300  1.0  0.1332
  H  H541  1  0.406300  0.303600  0.533600  1.0  0.3573
  H  H542  1  0.426100  0.283200  0.555700  1.0  0.3593
  H  H543  1  0.460000  0.367700  0.653000  1.0  0.3569
  H  H544  1  0.478500  0.387100  0.677000  1.0  0.3644
  H  H545  1  0.473200  0.202300  0.534000  1.0  0.132
  H  H546  1  0.447500  0.392400  0.469300  1.0  0.1332
  H  H547  1  0.406300  0.803600  0.033600  1.0  0.3573
  H  H548  1  0.426100  0.783200  0.055700  1.0  0.3593
  H  H549  1  0.460000  0.867700  0.153000  1.0  0.3569
  H  H550  1  0.478500  0.887100  0.177000  1.0  0.3644
  H  H551  1  0.473200  0.702300  0.034000  1.0  0.132
  H  H552  1  0.447500  0.892400  0.969300  1.0  0.1332
  H  H553  1  0.906300  0.446400  0.716400  1.0  0.358
  H  H554  1  0.926100  0.466800  0.694300  1.0  0.3602
  H  H555  1  0.960000  0.382300  0.597000  1.0  0.3582
  H  H556  1  0.978500  0.362900  0.573000  1.0  0.3642
  H  H557  1  0.973200  0.547700  0.716000  1.0  0.1321
  H  H558  1  0.947500  0.357600  0.780700  1.0  0.1337
  H  H559  1  0.906300  0.946400  0.216400  1.0  0.358
  H  H560  1  0.926100  0.966800  0.194300  1.0  0.3602
  H  H561  1  0.960000  0.882300  0.097000  1.0  0.3582
  H  H562  1  0.978500  0.862900  0.073000  1.0  0.3642
  H  H563  1  0.973200  0.047700  0.216000  1.0  0.1321
  H  H564  1  0.947500  0.857600  0.280700  1.0  0.1337
  H  H565  1  0.406300  0.446400  0.216400  1.0  0.358
  H  H566  1  0.426100  0.466800  0.194300  1.0  0.3602
  H  H567  1  0.460000  0.382300  0.097000  1.0  0.3582
  H  H568  1  0.478500  0.362900  0.073000  1.0  0.3642
  H  H569  1  0.473200  0.547700  0.216000  1.0  0.1321
  H  H570  1  0.447500  0.357600  0.280700  1.0  0.1337
  H  H571  1  0.406300  0.946400  0.716400  1.0  0.358
  H  H572  1  0.426100  0.966800  0.694300  1.0  0.3602
  H  H573  1  0.460000  0.882300  0.597000  1.0  0.3582
  H  H574  1  0.478500  0.862900  0.573000  1.0  0.3642
  H  H575  1  0.473200  0.047700  0.716000  1.0  0.1321
  H  H576  1  0.447500  0.857600  0.780700  1.0  0.1337
  H  H577  1  0.843700  0.446400  0.033600  1.0  0.3573
  H  H578  1  0.823900  0.466800  0.055700  1.0  0.3589
  H  H579  1  0.790000  0.382300  0.153000  1.0  0.358
  H  H580  1  0.771500  0.362900  0.177000  1.0  0.3654
  H  H581  1  0.776800  0.547700  0.034000  1.0  0.1324
  H  H582  1  0.802500  0.357600  0.969300  1.0  0.1333
  H  H583  1  0.843700  0.946400  0.533600  1.0  0.3573
  H  H584  1  0.823900  0.966800  0.555700  1.0  0.3589
  H  H585  1  0.790000  0.882300  0.653000  1.0  0.358
  H  H586  1  0.771500  0.862900  0.677000  1.0  0.3654
  H  H587  1  0.776800  0.047700  0.534000  1.0  0.1324
  H  H588  1  0.802500  0.857600  0.469300  1.0  0.1333
  H  H589  1  0.343700  0.446400  0.533600  1.0  0.3573
  H  H590  1  0.323900  0.466800  0.555700  1.0  0.3589
  H  H591  1  0.290000  0.382300  0.653000  1.0  0.358
  H  H592  1  0.271500  0.362900  0.677000  1.0  0.3654
  H  H593  1  0.276800  0.547700  0.534000  1.0  0.1324
  H  H594  1  0.302500  0.357600  0.469300  1.0  0.1333
  H  H595  1  0.343700  0.946400  0.033600  1.0  0.3573
  H  H596  1  0.323900  0.966800  0.055700  1.0  0.3589
  H  H597  1  0.290000  0.882300  0.153000  1.0  0.358
  H  H598  1  0.271500  0.862900  0.177000  1.0  0.3654
  H  H599  1  0.276800  0.047700  0.034000  1.0  0.1324
  H  H600  1  0.302500  0.857600  0.969300  1.0  0.1333
  H  H601  1  0.843700  0.303600  0.716400  1.0  0.3582
  H  H602  1  0.823900  0.283200  0.694300  1.0  0.3592
  H  H603  1  0.790000  0.367700  0.597000  1.0  0.3578
  H  H604  1  0.771500  0.387100  0.573000  1.0  0.3643
  H  H605  1  0.776800  0.202300  0.716000  1.0  0.1324
  H  H606  1  0.802500  0.392400  0.780700  1.0  0.1338
  H  H607  1  0.843700  0.803600  0.216400  1.0  0.3582
  H  H608  1  0.823900  0.783200  0.194300  1.0  0.3592
  H  H609  1  0.790000  0.867700  0.097000  1.0  0.3578
  H  H610  1  0.771500  0.887100  0.073000  1.0  0.3643
  H  H611  1  0.776800  0.702300  0.216000  1.0  0.1324
  H  H612  1  0.802500  0.892400  0.280700  1.0  0.1338
  H  H613  1  0.343700  0.303600  0.216400  1.0  0.3582
  H  H614  1  0.323900  0.283200  0.194300  1.0  0.3592
  H  H615  1  0.290000  0.367700  0.097000  1.0  0.3578
  H  H616  1  0.271500  0.387100  0.073000  1.0  0.3643
  H  H617  1  0.276800  0.202300  0.216000  1.0  0.1324
  H  H618  1  0.302500  0.392400  0.280700  1.0  0.1338
  H  H619  1  0.343700  0.803600  0.716400  1.0  0.3582
  H  H620  1  0.323900  0.783200  0.694300  1.0  0.3592
  H  H621  1  0.290000  0.867700  0.597000  1.0  0.3578
  H  H622  1  0.271500  0.887100  0.573000  1.0  0.3643
  H  H623  1  0.276800  0.702300  0.716000  1.0  0.1324
  H  H624  1  0.302500  0.892400  0.780700  1.0  0.1338
  H  H625  1  0.033600  0.906300  0.303600  1.0  0.3557
  H  H626  1  0.055700  0.926100  0.283200  1.0  0.3608
  H  H627  1  0.153000  0.960000  0.367700  1.0  0.3622
  H  H628  1  0.177000  0.978500  0.387100  1.0  0.3694
  H  H629  1  0.034000  0.973200  0.202300  1.0  0.1313
  H  H630  1  0.969300  0.947500  0.392400  1.0  0.1349
  H  H631  1  0.033600  0.406300  0.803600  1.0  0.3557
  H  H632  1  0.055700  0.426100  0.783200  1.0  0.3608
  H  H633  1  0.153000  0.460000  0.867700  1.0  0.3622
  H  H634  1  0.177000  0.478500  0.887100  1.0  0.3694
  H  H635  1  0.034000  0.473200  0.702300  1.0  0.1313
  H  H636  1  0.969300  0.447500  0.892400  1.0  0.1349
  H  H637  1  0.533600  0.906300  0.803600  1.0  0.3557
  H  H638  1  0.555700  0.926100  0.783200  1.0  0.3608
  H  H639  1  0.653000  0.960000  0.867700  1.0  0.3622
  H  H640  1  0.677000  0.978500  0.887100  1.0  0.3694
  H  H641  1  0.534000  0.973200  0.702300  1.0  0.1313
  H  H642  1  0.469300  0.947500  0.892400  1.0  0.1349
  H  H643  1  0.533600  0.406300  0.303600  1.0  0.3557
  H  H644  1  0.555700  0.426100  0.283200  1.0  0.3608
  H  H645  1  0.653000  0.460000  0.367700  1.0  0.3622
  H  H646  1  0.677000  0.478500  0.387100  1.0  0.3694
  H  H647  1  0.534000  0.473200  0.202300  1.0  0.1313
  H  H648  1  0.469300  0.447500  0.392400  1.0  0.1349
  H  H649  1  0.716400  0.906300  0.446400  1.0  0.3586
  H  H650  1  0.694300  0.926100  0.466800  1.0  0.3611
  H  H651  1  0.597000  0.960000  0.382300  1.0  0.3617
  H  H652  1  0.573000  0.978500  0.362900  1.0  0.3676
  H  H653  1  0.716000  0.973200  0.547700  1.0  0.1316
  H  H654  1  0.780700  0.947500  0.357600  1.0  0.1347
  H  H655  1  0.716400  0.406300  0.946400  1.0  0.3586
  H  H656  1  0.694300  0.426100  0.966800  1.0  0.3611
  H  H657  1  0.597000  0.460000  0.882300  1.0  0.3617
  H  H658  1  0.573000  0.478500  0.862900  1.0  0.3676
  H  H659  1  0.716000  0.473200  0.047700  1.0  0.1316
  H  H660  1  0.780700  0.447500  0.857600  1.0  0.1347
  H  H661  1  0.216400  0.906300  0.946400  1.0  0.3586
  H  H662  1  0.194300  0.926100  0.966800  1.0  0.3611
  H  H663  1  0.097000  0.960000  0.882300  1.0  0.3617
  H  H664  1  0.073000  0.978500  0.862900  1.0  0.3676
  H  H665  1  0.216000  0.973200  0.047700  1.0  0.1316
  H  H666  1  0.280700  0.947500  0.857600  1.0  0.1347
  H  H667  1  0.216400  0.406300  0.446400  1.0  0.3586
  H  H668  1  0.194300  0.426100  0.466800  1.0  0.3611
  H  H669  1  0.097000  0.460000  0.382300  1.0  0.3617
  H  H670  1  0.073000  0.478500  0.362900  1.0  0.3676
  H  H671  1  0.216000  0.473200  0.547700  1.0  0.1316
  H  H672  1  0.280700  0.447500  0.357600  1.0  0.1347
  H  H673  1  0.033600  0.843700  0.446400  1.0  0.3558
  H  H674  1  0.055700  0.823900  0.466800  1.0  0.3608
  H  H675  1  0.153000  0.790000  0.382300  1.0  0.3604
  H  H676  1  0.177000  0.771500  0.362900  1.0  0.3676
  H  H677  1  0.034000  0.776800  0.547700  1.0  0.1311
  H  H678  1  0.969300  0.802500  0.357600  1.0  0.1348
  H  H679  1  0.033600  0.343700  0.946400  1.0  0.3558
  H  H680  1  0.055700  0.323900  0.966800  1.0  0.3608
  H  H681  1  0.153000  0.290000  0.882300  1.0  0.3604
  H  H682  1  0.177000  0.271500  0.862900  1.0  0.3676
  H  H683  1  0.034000  0.276800  0.047700  1.0  0.1311
  H  H684  1  0.969300  0.302500  0.857600  1.0  0.1348
  H  H685  1  0.533600  0.843700  0.946400  1.0  0.3558
  H  H686  1  0.555700  0.823900  0.966800  1.0  0.3608
  H  H687  1  0.653000  0.790000  0.882300  1.0  0.3604
  H  H688  1  0.677000  0.771500  0.862900  1.0  0.3676
  H  H689  1  0.534000  0.776800  0.047700  1.0  0.1311
  H  H690  1  0.469300  0.802500  0.857600  1.0  0.1348
  H  H691  1  0.533600  0.343700  0.446400  1.0  0.3558
  H  H692  1  0.555700  0.323900  0.466800  1.0  0.3608
  H  H693  1  0.653000  0.290000  0.382300  1.0  0.3604
  H  H694  1  0.677000  0.271500  0.362900  1.0  0.3676
  H  H695  1  0.534000  0.276800  0.547700  1.0  0.1311
  H  H696  1  0.469300  0.302500  0.357600  1.0  0.1348
  H  H697  1  0.716400  0.843700  0.303600  1.0  0.3561
  H  H698  1  0.694300  0.823900  0.283200  1.0  0.3605
  H  H699  1  0.597000  0.790000  0.367700  1.0  0.3619
  H  H700  1  0.573000  0.771500  0.387100  1.0  0.3691
  H  H701  1  0.716000  0.776800  0.202300  1.0  0.132
  H  H702  1  0.780700  0.802500  0.392400  1.0  0.1348
  H  H703  1  0.716400  0.343700  0.803600  1.0  0.3561
  H  H704  1  0.694300  0.323900  0.783200  1.0  0.3605
  H  H705  1  0.597000  0.290000  0.867700  1.0  0.3619
  H  H706  1  0.573000  0.271500  0.887100  1.0  0.3691
  H  H707  1  0.716000  0.276800  0.702300  1.0  0.132
  H  H708  1  0.780700  0.302500  0.892400  1.0  0.1348
  H  H709  1  0.216400  0.843700  0.803600  1.0  0.3561
  H  H710  1  0.194300  0.823900  0.783200  1.0  0.3605
  H  H711  1  0.097000  0.790000  0.867700  1.0  0.3619
  H  H712  1  0.073000  0.771500  0.887100  1.0  0.3691
  H  H713  1  0.216000  0.776800  0.702300  1.0  0.132
  H  H714  1  0.280700  0.802500  0.892400  1.0  0.1348
  H  H715  1  0.216400  0.343700  0.303600  1.0  0.3561
  H  H716  1  0.194300  0.323900  0.283200  1.0  0.3605
  H  H717  1  0.097000  0.290000  0.367700  1.0  0.3619
  H  H718  1  0.073000  0.271500  0.387100  1.0  0.3691
  H  H719  1  0.216000  0.276800  0.202300  1.0  0.132
  H  H720  1  0.280700  0.302500  0.392400  1.0  0.1348
  C  C721  1  0.759000  0.954770  0.998730  1.0  -0.1183
  C  C722  1  0.747590  0.926560  0.019500  1.0  0.63
  C  C723  1  0.653960  0.832750  0.000860  1.0  0.4737
  C  C724  1  0.674000  0.927970  0.081000  1.0  0.4373
  C  C725  1  0.786040  0.972210  0.008570  1.0  0.0458
  C  C726  1  0.589600  0.043500  0.056700  1.0  0.0274
  C  C727  1  0.569900  0.037000  0.082200  1.0  -0.1283
  C  C728  1  0.577500  0.008500  0.103900  1.0  0.7319
  C  C729  1  0.759000  0.454770  0.498730  1.0  -0.1183
  C  C730  1  0.747590  0.426560  0.519500  1.0  0.63
  C  C731  1  0.653960  0.332750  0.500860  1.0  0.4737
  C  C732  1  0.674000  0.427970  0.581000  1.0  0.4373
  C  C733  1  0.786040  0.472210  0.508570  1.0  0.0458
  C  C734  1  0.589600  0.543500  0.556700  1.0  0.0274
  C  C735  1  0.569900  0.537000  0.582200  1.0  -0.1283
  C  C736  1  0.577500  0.508500  0.603900  1.0  0.7319
  C  C737  1  0.259000  0.954770  0.498730  1.0  -0.1183
  C  C738  1  0.247590  0.926560  0.519500  1.0  0.63
  C  C739  1  0.153960  0.832750  0.500860  1.0  0.4737
  C  C740  1  0.174000  0.927970  0.581000  1.0  0.4373
  C  C741  1  0.286040  0.972210  0.508570  1.0  0.0458
  C  C742  1  0.089600  0.043500  0.556700  1.0  0.0274
  C  C743  1  0.069900  0.037000  0.582200  1.0  -0.1283
  C  C744  1  0.077500  0.008500  0.603900  1.0  0.7319
  C  C745  1  0.259000  0.454770  0.998730  1.0  -0.1183
  C  C746  1  0.247590  0.426560  0.019500  1.0  0.63
  C  C747  1  0.153960  0.332750  0.000860  1.0  0.4737
  C  C748  1  0.174000  0.427970  0.081000  1.0  0.4373
  C  C749  1  0.286040  0.472210  0.008570  1.0  0.0458
  C  C750  1  0.089600  0.543500  0.056700  1.0  0.0274
  C  C751  1  0.069900  0.537000  0.082200  1.0  -0.1283
  C  C752  1  0.077500  0.508500  0.103900  1.0  0.7319
  C  C753  1  0.491000  0.295230  0.998730  1.0  -0.1173
  C  C754  1  0.502410  0.323440  0.019500  1.0  0.6293
  C  C755  1  0.596040  0.417250  0.000860  1.0  0.4759
  C  C756  1  0.576000  0.322030  0.081000  1.0  0.437
  C  C757  1  0.463960  0.277790  0.008570  1.0  0.0451
  C  C758  1  0.660400  0.206500  0.056700  1.0  0.0283
  C  C759  1  0.680100  0.213000  0.082200  1.0  -0.128
  C  C760  1  0.672500  0.241500  0.103900  1.0  0.7321
  C  C761  1  0.491000  0.795230  0.498730  1.0  -0.1173
  C  C762  1  0.502410  0.823440  0.519500  1.0  0.6293
  C  C763  1  0.596040  0.917250  0.500860  1.0  0.4759
  C  C764  1  0.576000  0.822030  0.581000  1.0  0.437
  C  C765  1  0.463960  0.777790  0.508570  1.0  0.0451
  C  C766  1  0.660400  0.706500  0.556700  1.0  0.0283
  C  C767  1  0.680100  0.713000  0.582200  1.0  -0.128
  C  C768  1  0.672500  0.741500  0.603900  1.0  0.7321
  C  C769  1  0.991000  0.295230  0.498730  1.0  -0.1173
  C  C770  1  0.002410  0.323440  0.519500  1.0  0.6293
  C  C771  1  0.096040  0.417250  0.500860  1.0  0.4759
  C  C772  1  0.076000  0.322030  0.581000  1.0  0.437
  C  C773  1  0.963960  0.277790  0.508570  1.0  0.0451
  C  C774  1  0.160400  0.206500  0.556700  1.0  0.0283
  C  C775  1  0.180100  0.213000  0.582200  1.0  -0.128
  C  C776  1  0.172500  0.241500  0.603900  1.0  0.7321
  C  C777  1  0.991000  0.795230  0.998730  1.0  -0.1173
  C  C778  1  0.002410  0.823440  0.019500  1.0  0.6293
  C  C779  1  0.096040  0.917250  0.000860  1.0  0.4759
  C  C780  1  0.076000  0.822030  0.081000  1.0  0.437
  C  C781  1  0.963960  0.777790  0.008570  1.0  0.0451
  C  C782  1  0.160400  0.706500  0.056700  1.0  0.0283
  C  C783  1  0.180100  0.713000  0.082200  1.0  -0.128
  C  C784  1  0.172500  0.741500  0.103900  1.0  0.7321
  C  C785  1  0.491000  0.954770  0.251270  1.0  -0.1184
  C  C786  1  0.502410  0.926560  0.230500  1.0  0.629
  C  C787  1  0.596040  0.832750  0.249140  1.0  0.4758
  C  C788  1  0.576000  0.927970  0.169000  1.0  0.4368
  C  C789  1  0.463960  0.972210  0.241430  1.0  0.0457
  C  C790  1  0.660400  0.043500  0.193300  1.0  0.0287
  C  C791  1  0.680100  0.037000  0.167800  1.0  -0.1285
  C  C792  1  0.672500  0.008500  0.146100  1.0  0.732
  C  C793  1  0.491000  0.454770  0.751270  1.0  -0.1184
  C  C794  1  0.502410  0.426560  0.730500  1.0  0.629
  C  C795  1  0.596040  0.332750  0.749140  1.0  0.4758
  C  C796  1  0.576000  0.427970  0.669000  1.0  0.4368
  C  C797  1  0.463960  0.472210  0.741430  1.0  0.0457
  C  C798  1  0.660400  0.543500  0.693300  1.0  0.0287
  C  C799  1  0.680100  0.537000  0.667800  1.0  -0.1285
  C  C800  1  0.672500  0.508500  0.646100  1.0  0.732
  C  C801  1  0.991000  0.954770  0.751270  1.0  -0.1184
  C  C802  1  0.002410  0.926560  0.730500  1.0  0.629
  C  C803  1  0.096040  0.832750  0.749140  1.0  0.4758
  C  C804  1  0.076000  0.927970  0.669000  1.0  0.4368
  C  C805  1  0.963960  0.972210  0.741430  1.0  0.0457
  C  C806  1  0.160400  0.043500  0.693300  1.0  0.0287
  C  C807  1  0.180100  0.037000  0.667800  1.0  -0.1285
  C  C808  1  0.172500  0.008500  0.646100  1.0  0.732
  C  C809  1  0.991000  0.454770  0.251270  1.0  -0.1184
  C  C810  1  0.002410  0.426560  0.230500  1.0  0.629
  C  C811  1  0.096040  0.332750  0.249140  1.0  0.4758
  C  C812  1  0.076000  0.427970  0.169000  1.0  0.4368
  C  C813  1  0.963960  0.472210  0.241430  1.0  0.0457
  C  C814  1  0.160400  0.543500  0.193300  1.0  0.0287
  C  C815  1  0.180100  0.537000  0.167800  1.0  -0.1285
  C  C816  1  0.172500  0.508500  0.146100  1.0  0.732
  C  C817  1  0.759000  0.295230  0.251270  1.0  -0.1181
  C  C818  1  0.747590  0.323440  0.230500  1.0  0.6298
  C  C819  1  0.653960  0.417250  0.249140  1.0  0.4733
  C  C820  1  0.674000  0.322030  0.169000  1.0  0.4373
  C  C821  1  0.786040  0.277790  0.241430  1.0  0.046
  C  C822  1  0.589600  0.206500  0.193300  1.0  0.0276
  C  C823  1  0.569900  0.213000  0.167800  1.0  -0.1281
  C  C824  1  0.577500  0.241500  0.146100  1.0  0.7312
  C  C825  1  0.759000  0.795230  0.751270  1.0  -0.1181
  C  C826  1  0.747590  0.823440  0.730500  1.0  0.6298
  C  C827  1  0.653960  0.917250  0.749140  1.0  0.4733
  C  C828  1  0.674000  0.822030  0.669000  1.0  0.4373
  C  C829  1  0.786040  0.777790  0.741430  1.0  0.046
  C  C830  1  0.589600  0.706500  0.693300  1.0  0.0276
  C  C831  1  0.569900  0.713000  0.667800  1.0  -0.1281
  C  C832  1  0.577500  0.741500  0.646100  1.0  0.7312
  C  C833  1  0.259000  0.295230  0.751270  1.0  -0.1181
  C  C834  1  0.247590  0.323440  0.730500  1.0  0.6298
  C  C835  1  0.153960  0.417250  0.749140  1.0  0.4733
  C  C836  1  0.174000  0.322030  0.669000  1.0  0.4373
  C  C837  1  0.286040  0.277790  0.741430  1.0  0.046
  C  C838  1  0.089600  0.206500  0.693300  1.0  0.0276
  C  C839  1  0.069900  0.213000  0.667800  1.0  -0.1281
  C  C840  1  0.077500  0.241500  0.646100  1.0  0.7312
  C  C841  1  0.259000  0.795230  0.251270  1.0  -0.1181
  C  C842  1  0.247590  0.823440  0.230500  1.0  0.6298
  C  C843  1  0.153960  0.917250  0.249140  1.0  0.4733
  C  C844  1  0.174000  0.822030  0.169000  1.0  0.4373
  C  C845  1  0.286040  0.777790  0.241430  1.0  0.046
  C  C846  1  0.089600  0.706500  0.193300  1.0  0.0276
  C  C847  1  0.069900  0.713000  0.167800  1.0  -0.1281
  C  C848  1  0.077500  0.741500  0.146100  1.0  0.7312
  C  C849  1  0.998730  0.759000  0.954770  1.0  -0.1166
  C  C850  1  0.019500  0.747590  0.926560  1.0  0.6299
  C  C851  1  0.000860  0.653960  0.832750  1.0  0.4753
  C  C852  1  0.081000  0.674000  0.927970  1.0  0.4379
  C  C853  1  0.008570  0.786040  0.972210  1.0  0.0448
  C  C854  1  0.056700  0.589600  0.043500  1.0  0.0273
  C  C855  1  0.082200  0.569900  0.037000  1.0  -0.1284
  C  C856  1  0.103900  0.577500  0.008500  1.0  0.7304
  C  C857  1  0.998730  0.259000  0.454770  1.0  -0.1166
  C  C858  1  0.019500  0.247590  0.426560  1.0  0.6299
  C  C859  1  0.000860  0.153960  0.332750  1.0  0.4753
  C  C860  1  0.081000  0.174000  0.427970  1.0  0.4379
  C  C861  1  0.008570  0.286040  0.472210  1.0  0.0448
  C  C862  1  0.056700  0.089600  0.543500  1.0  0.0273
  C  C863  1  0.082200  0.069900  0.537000  1.0  -0.1284
  C  C864  1  0.103900  0.077500  0.508500  1.0  0.7304
  C  C865  1  0.498730  0.759000  0.454770  1.0  -0.1166
  C  C866  1  0.519500  0.747590  0.426560  1.0  0.6299
  C  C867  1  0.500860  0.653960  0.332750  1.0  0.4753
  C  C868  1  0.581000  0.674000  0.427970  1.0  0.4379
  C  C869  1  0.508570  0.786040  0.472210  1.0  0.0448
  C  C870  1  0.556700  0.589600  0.543500  1.0  0.0273
  C  C871  1  0.582200  0.569900  0.537000  1.0  -0.1284
  C  C872  1  0.603900  0.577500  0.508500  1.0  0.7304
  C  C873  1  0.498730  0.259000  0.954770  1.0  -0.1166
  C  C874  1  0.519500  0.247590  0.926560  1.0  0.6299
  C  C875  1  0.500860  0.153960  0.832750  1.0  0.4753
  C  C876  1  0.581000  0.174000  0.927970  1.0  0.4379
  C  C877  1  0.508570  0.286040  0.972210  1.0  0.0448
  C  C878  1  0.556700  0.089600  0.043500  1.0  0.0273
  C  C879  1  0.582200  0.069900  0.037000  1.0  -0.1284
  C  C880  1  0.603900  0.077500  0.008500  1.0  0.7304
  C  C881  1  0.998730  0.491000  0.295230  1.0  -0.1163
  C  C882  1  0.019500  0.502410  0.323440  1.0  0.6279
  C  C883  1  0.000860  0.596040  0.417250  1.0  0.4755
  C  C884  1  0.081000  0.576000  0.322030  1.0  0.438
  C  C885  1  0.008570  0.463960  0.277790  1.0  0.0457
  C  C886  1  0.056700  0.660400  0.206500  1.0  0.0276
  C  C887  1  0.082200  0.680100  0.213000  1.0  -0.1295
  C  C888  1  0.103900  0.672500  0.241500  1.0  0.7309
  C  C889  1  0.998730  0.991000  0.795230  1.0  -0.1163
  C  C890  1  0.019500  0.002410  0.823440  1.0  0.6279
  C  C891  1  0.000860  0.096040  0.917250  1.0  0.4755
  C  C892  1  0.081000  0.076000  0.822030  1.0  0.438
  C  C893  1  0.008570  0.963960  0.777790  1.0  0.0457
  C  C894  1  0.056700  0.160400  0.706500  1.0  0.0276
  C  C895  1  0.082200  0.180100  0.713000  1.0  -0.1295
  C  C896  1  0.103900  0.172500  0.741500  1.0  0.7309
  C  C897  1  0.498730  0.491000  0.795230  1.0  -0.1163
  C  C898  1  0.519500  0.502410  0.823440  1.0  0.6279
  C  C899  1  0.500860  0.596040  0.917250  1.0  0.4755
  C  C900  1  0.581000  0.576000  0.822030  1.0  0.438
  C  C901  1  0.508570  0.463960  0.777790  1.0  0.0457
  C  C902  1  0.556700  0.660400  0.706500  1.0  0.0276
  C  C903  1  0.582200  0.680100  0.713000  1.0  -0.1295
  C  C904  1  0.603900  0.672500  0.741500  1.0  0.7309
  C  C905  1  0.498730  0.991000  0.295230  1.0  -0.1163
  C  C906  1  0.519500  0.002410  0.323440  1.0  0.6279
  C  C907  1  0.500860  0.096040  0.417250  1.0  0.4755
  C  C908  1  0.581000  0.076000  0.322030  1.0  0.438
  C  C909  1  0.508570  0.963960  0.277790  1.0  0.0457
  C  C910  1  0.556700  0.160400  0.206500  1.0  0.0276
  C  C911  1  0.582200  0.180100  0.213000  1.0  -0.1295
  C  C912  1  0.603900  0.172500  0.241500  1.0  0.7309
  C  C913  1  0.251270  0.491000  0.954770  1.0  -0.1173
  C  C914  1  0.230500  0.502410  0.926560  1.0  0.6287
  C  C915  1  0.249140  0.596040  0.832750  1.0  0.475
  C  C916  1  0.169000  0.576000  0.927970  1.0  0.4373
  C  C917  1  0.241430  0.463960  0.972210  1.0  0.0455
  C  C918  1  0.193300  0.660400  0.043500  1.0  0.0272
  C  C919  1  0.167800  0.680100  0.037000  1.0  -0.128
  C  C920  1  0.146100  0.672500  0.008500  1.0  0.7306
  C  C921  1  0.251270  0.991000  0.454770  1.0  -0.1173
  C  C922  1  0.230500  0.002410  0.426560  1.0  0.6287
  C  C923  1  0.249140  0.096040  0.332750  1.0  0.475
  C  C924  1  0.169000  0.076000  0.427970  1.0  0.4373
  C  C925  1  0.241430  0.963960  0.472210  1.0  0.0455
  C  C926  1  0.193300  0.160400  0.543500  1.0  0.0272
  C  C927  1  0.167800  0.180100  0.537000  1.0  -0.128
  C  C928  1  0.146100  0.172500  0.508500  1.0  0.7306
  C  C929  1  0.751270  0.491000  0.454770  1.0  -0.1173
  C  C930  1  0.730500  0.502410  0.426560  1.0  0.6287
  C  C931  1  0.749140  0.596040  0.332750  1.0  0.475
  C  C932  1  0.669000  0.576000  0.427970  1.0  0.4373
  C  C933  1  0.741430  0.463960  0.472210  1.0  0.0455
  C  C934  1  0.693300  0.660400  0.543500  1.0  0.0272
  C  C935  1  0.667800  0.680100  0.537000  1.0  -0.128
  C  C936  1  0.646100  0.672500  0.508500  1.0  0.7306
  C  C937  1  0.751270  0.991000  0.954770  1.0  -0.1173
  C  C938  1  0.730500  0.002410  0.926560  1.0  0.6287
  C  C939  1  0.749140  0.096040  0.832750  1.0  0.475
  C  C940  1  0.669000  0.076000  0.927970  1.0  0.4373
  C  C941  1  0.741430  0.963960  0.972210  1.0  0.0455
  C  C942  1  0.693300  0.160400  0.043500  1.0  0.0272
  C  C943  1  0.667800  0.180100  0.037000  1.0  -0.128
  C  C944  1  0.646100  0.172500  0.008500  1.0  0.7306
  C  C945  1  0.251270  0.759000  0.295230  1.0  -0.1165
  C  C946  1  0.230500  0.747590  0.323440  1.0  0.6277
  C  C947  1  0.249140  0.653960  0.417250  1.0  0.4754
  C  C948  1  0.169000  0.674000  0.322030  1.0  0.4372
  C  C949  1  0.241430  0.786040  0.277790  1.0  0.0458
  C  C950  1  0.193300  0.589600  0.206500  1.0  0.0281
  C  C951  1  0.167800  0.569900  0.213000  1.0  -0.1292
  C  C952  1  0.146100  0.577500  0.241500  1.0  0.7308
  C  C953  1  0.251270  0.259000  0.795230  1.0  -0.1165
  C  C954  1  0.230500  0.247590  0.823440  1.0  0.6277
  C  C955  1  0.249140  0.153960  0.917250  1.0  0.4754
  C  C956  1  0.169000  0.174000  0.822030  1.0  0.4372
  C  C957  1  0.241430  0.286040  0.777790  1.0  0.0458
  C  C958  1  0.193300  0.089600  0.706500  1.0  0.0281
  C  C959  1  0.167800  0.069900  0.713000  1.0  -0.1292
  C  C960  1  0.146100  0.077500  0.741500  1.0  0.7308
  C  C961  1  0.751270  0.759000  0.795230  1.0  -0.1165
  C  C962  1  0.730500  0.747590  0.823440  1.0  0.6277
  C  C963  1  0.749140  0.653960  0.917250  1.0  0.4754
  C  C964  1  0.669000  0.674000  0.822030  1.0  0.4372
  C  C965  1  0.741430  0.786040  0.777790  1.0  0.0458
  C  C966  1  0.693300  0.589600  0.706500  1.0  0.0281
  C  C967  1  0.667800  0.569900  0.713000  1.0  -0.1292
  C  C968  1  0.646100  0.577500  0.741500  1.0  0.7308
  C  C969  1  0.751270  0.259000  0.295230  1.0  -0.1165
  C  C970  1  0.730500  0.247590  0.323440  1.0  0.6277
  C  C971  1  0.749140  0.153960  0.417250  1.0  0.4754
  C  C972  1  0.669000  0.174000  0.322030  1.0  0.4372
  C  C973  1  0.741430  0.286040  0.277790  1.0  0.0458
  C  C974  1  0.693300  0.089600  0.206500  1.0  0.0281
  C  C975  1  0.667800  0.069900  0.213000  1.0  -0.1292
  C  C976  1  0.646100  0.077500  0.241500  1.0  0.7308
  C  C977  1  0.954770  0.998730  0.759000  1.0  -0.1186
  C  C978  1  0.926560  0.019500  0.747590  1.0  0.6301
  C  C979  1  0.832750  0.000860  0.653960  1.0  0.4746
  C  C980  1  0.927970  0.081000  0.674000  1.0  0.4367
  C  C981  1  0.972210  0.008570  0.786040  1.0  0.046
  C  C982  1  0.043500  0.056700  0.589600  1.0  0.0273
  C  C983  1  0.037000  0.082200  0.569900  1.0  -0.1285
  C  C984  1  0.008500  0.103900  0.577500  1.0  0.7298
  C  C985  1  0.954770  0.498730  0.259000  1.0  -0.1186
  C  C986  1  0.926560  0.519500  0.247590  1.0  0.6301
  C  C987  1  0.832750  0.500860  0.153960  1.0  0.4746
  C  C988  1  0.927970  0.581000  0.174000  1.0  0.4367
  C  C989  1  0.972210  0.508570  0.286040  1.0  0.046
  C  C990  1  0.043500  0.556700  0.089600  1.0  0.0273
  C  C991  1  0.037000  0.582200  0.069900  1.0  -0.1285
  C  C992  1  0.008500  0.603900  0.077500  1.0  0.7298
  C  C993  1  0.454770  0.998730  0.259000  1.0  -0.1186
  C  C994  1  0.426560  0.019500  0.247590  1.0  0.6301
  C  C995  1  0.332750  0.000860  0.153960  1.0  0.4746
  C  C996  1  0.427970  0.081000  0.174000  1.0  0.4367
  C  C997  1  0.472210  0.008570  0.286040  1.0  0.046
  C  C998  1  0.543500  0.056700  0.089600  1.0  0.0273
  C  C999  1  0.537000  0.082200  0.069900  1.0  -0.1285
  C  C1000  1  0.508500  0.103900  0.077500  1.0  0.7298
  C  C1001  1  0.454770  0.498730  0.759000  1.0  -0.1186
  C  C1002  1  0.426560  0.519500  0.747590  1.0  0.6301
  C  C1003  1  0.332750  0.500860  0.653960  1.0  0.4746
  C  C1004  1  0.427970  0.581000  0.674000  1.0  0.4367
  C  C1005  1  0.472210  0.508570  0.786040  1.0  0.046
  C  C1006  1  0.543500  0.556700  0.589600  1.0  0.0273
  C  C1007  1  0.537000  0.582200  0.569900  1.0  -0.1285
  C  C1008  1  0.508500  0.603900  0.577500  1.0  0.7298
  C  C1009  1  0.295230  0.998730  0.491000  1.0  -0.1179
  C  C1010  1  0.323440  0.019500  0.502410  1.0  0.6293
  C  C1011  1  0.417250  0.000860  0.596040  1.0  0.4754
  C  C1012  1  0.322030  0.081000  0.576000  1.0  0.4345
  C  C1013  1  0.277790  0.008570  0.463960  1.0  0.0462
  C  C1014  1  0.206500  0.056700  0.660400  1.0  0.026
  C  C1015  1  0.213000  0.082200  0.680100  1.0  -0.1295
  C  C1016  1  0.241500  0.103900  0.672500  1.0  0.7311
  C  C1017  1  0.295230  0.498730  0.991000  1.0  -0.1179
  C  C1018  1  0.323440  0.519500  0.002410  1.0  0.6293
  C  C1019  1  0.417250  0.500860  0.096040  1.0  0.4754
  C  C1020  1  0.322030  0.581000  0.076000  1.0  0.4345
  C  C1021  1  0.277790  0.508570  0.963960  1.0  0.0462
  C  C1022  1  0.206500  0.556700  0.160400  1.0  0.026
  C  C1023  1  0.213000  0.582200  0.180100  1.0  -0.1295
  C  C1024  1  0.241500  0.603900  0.172500  1.0  0.7311
  C  C1025  1  0.795230  0.998730  0.991000  1.0  -0.1179
  C  C1026  1  0.823440  0.019500  0.002410  1.0  0.6293
  C  C1027  1  0.917250  0.000860  0.096040  1.0  0.4754
  C  C1028  1  0.822030  0.081000  0.076000  1.0  0.4345
  C  C1029  1  0.777790  0.008570  0.963960  1.0  0.0462
  C  C1030  1  0.706500  0.056700  0.160400  1.0  0.026
  C  C1031  1  0.713000  0.082200  0.180100  1.0  -0.1295
  C  C1032  1  0.741500  0.103900  0.172500  1.0  0.7311
  C  C1033  1  0.795230  0.498730  0.491000  1.0  -0.1179
  C  C1034  1  0.823440  0.519500  0.502410  1.0  0.6293
  C  C1035  1  0.917250  0.500860  0.596040  1.0  0.4754
  C  C1036  1  0.822030  0.581000  0.576000  1.0  0.4345
  C  C1037  1  0.777790  0.508570  0.463960  1.0  0.0462
  C  C1038  1  0.706500  0.556700  0.660400  1.0  0.026
  C  C1039  1  0.713000  0.582200  0.680100  1.0  -0.1295
  C  C1040  1  0.741500  0.603900  0.672500  1.0  0.7311
  C  C1041  1  0.954770  0.251270  0.491000  1.0  -0.1182
  C  C1042  1  0.926560  0.230500  0.502410  1.0  0.6298
  C  C1043  1  0.832750  0.249140  0.596040  1.0  0.4753
  C  C1044  1  0.927970  0.169000  0.576000  1.0  0.4335
  C  C1045  1  0.972210  0.241430  0.463960  1.0  0.0464
  C  C1046  1  0.043500  0.193300  0.660400  1.0  0.0275
  C  C1047  1  0.037000  0.167800  0.680100  1.0  -0.1291
  C  C1048  1  0.008500  0.146100  0.672500  1.0  0.7297
  C  C1049  1  0.954770  0.751270  0.991000  1.0  -0.1182
  C  C1050  1  0.926560  0.730500  0.002410  1.0  0.6298
  C  C1051  1  0.832750  0.749140  0.096040  1.0  0.4753
  C  C1052  1  0.927970  0.669000  0.076000  1.0  0.4335
  C  C1053  1  0.972210  0.741430  0.963960  1.0  0.0464
  C  C1054  1  0.043500  0.693300  0.160400  1.0  0.0275
  C  C1055  1  0.037000  0.667800  0.180100  1.0  -0.1291
  C  C1056  1  0.008500  0.646100  0.172500  1.0  0.7297
  C  C1057  1  0.454770  0.251270  0.991000  1.0  -0.1182
  C  C1058  1  0.426560  0.230500  0.002410  1.0  0.6298
  C  C1059  1  0.332750  0.249140  0.096040  1.0  0.4753
  C  C1060  1  0.427970  0.169000  0.076000  1.0  0.4335
  C  C1061  1  0.472210  0.241430  0.963960  1.0  0.0464
  C  C1062  1  0.543500  0.193300  0.160400  1.0  0.0275
  C  C1063  1  0.537000  0.167800  0.180100  1.0  -0.1291
  C  C1064  1  0.508500  0.146100  0.172500  1.0  0.7297
  C  C1065  1  0.454770  0.751270  0.491000  1.0  -0.1182
  C  C1066  1  0.426560  0.730500  0.502410  1.0  0.6298
  C  C1067  1  0.332750  0.749140  0.596040  1.0  0.4753
  C  C1068  1  0.427970  0.669000  0.576000  1.0  0.4335
  C  C1069  1  0.472210  0.741430  0.463960  1.0  0.0464
  C  C1070  1  0.543500  0.693300  0.660400  1.0  0.0275
  C  C1071  1  0.537000  0.667800  0.680100  1.0  -0.1291
  C  C1072  1  0.508500  0.646100  0.672500  1.0  0.7297
  C  C1073  1  0.295230  0.251270  0.759000  1.0  -0.1176
  C  C1074  1  0.323440  0.230500  0.747590  1.0  0.6299
  C  C1075  1  0.417250  0.249140  0.653960  1.0  0.4746
  C  C1076  1  0.322030  0.169000  0.674000  1.0  0.4361
  C  C1077  1  0.277790  0.241430  0.786040  1.0  0.0469
  C  C1078  1  0.206500  0.193300  0.589600  1.0  0.0262
  C  C1079  1  0.213000  0.167800  0.569900  1.0  -0.1293
  C  C1080  1  0.241500  0.146100  0.577500  1.0  0.7303
  C  C1081  1  0.295230  0.751270  0.259000  1.0  -0.1176
  C  C1082  1  0.323440  0.730500  0.247590  1.0  0.6299
  C  C1083  1  0.417250  0.749140  0.153960  1.0  0.4746
  C  C1084  1  0.322030  0.669000  0.174000  1.0  0.4361
  C  C1085  1  0.277790  0.741430  0.286040  1.0  0.0469
  C  C1086  1  0.206500  0.693300  0.089600  1.0  0.0262
  C  C1087  1  0.213000  0.667800  0.069900  1.0  -0.1293
  C  C1088  1  0.241500  0.646100  0.077500  1.0  0.7303
  C  C1089  1  0.795230  0.251270  0.259000  1.0  -0.1176
  C  C1090  1  0.823440  0.230500  0.247590  1.0  0.6299
  C  C1091  1  0.917250  0.249140  0.153960  1.0  0.4746
  C  C1092  1  0.822030  0.169000  0.174000  1.0  0.4361
  C  C1093  1  0.777790  0.241430  0.286040  1.0  0.0469
  C  C1094  1  0.706500  0.193300  0.089600  1.0  0.0262
  C  C1095  1  0.713000  0.167800  0.069900  1.0  -0.1293
  C  C1096  1  0.741500  0.146100  0.077500  1.0  0.7303
  C  C1097  1  0.795230  0.751270  0.759000  1.0  -0.1176
  C  C1098  1  0.823440  0.730500  0.747590  1.0  0.6299
  C  C1099  1  0.917250  0.749140  0.653960  1.0  0.4746
  C  C1100  1  0.822030  0.669000  0.674000  1.0  0.4361
  C  C1101  1  0.777790  0.741430  0.786040  1.0  0.0469
  C  C1102  1  0.706500  0.693300  0.589600  1.0  0.0262
  C  C1103  1  0.713000  0.667800  0.569900  1.0  -0.1293
  C  C1104  1  0.741500  0.646100  0.577500  1.0  0.7303
  C  C1105  1  0.241000  0.045230  0.001270  1.0  -0.1177
  C  C1106  1  0.252410  0.073440  0.980500  1.0  0.6293
  C  C1107  1  0.346040  0.167250  0.999140  1.0  0.4757
  C  C1108  1  0.326000  0.072030  0.919000  1.0  0.4369
  C  C1109  1  0.213960  0.027790  0.991430  1.0  0.0458
  C  C1110  1  0.410400  0.956500  0.943300  1.0  0.0285
  C  C1111  1  0.430100  0.963000  0.917800  1.0  -0.1281
  C  C1112  1  0.422500  0.991500  0.896100  1.0  0.7316
  C  C1113  1  0.241000  0.545230  0.501270  1.0  -0.1177
  C  C1114  1  0.252410  0.573440  0.480500  1.0  0.6293
  C  C1115  1  0.346040  0.667250  0.499140  1.0  0.4757
  C  C1116  1  0.326000  0.572030  0.419000  1.0  0.4369
  C  C1117  1  0.213960  0.527790  0.491430  1.0  0.0458
  C  C1118  1  0.410400  0.456500  0.443300  1.0  0.0285
  C  C1119  1  0.430100  0.463000  0.417800  1.0  -0.1281
  C  C1120  1  0.422500  0.491500  0.396100  1.0  0.7316
  C  C1121  1  0.741000  0.045230  0.501270  1.0  -0.1177
  C  C1122  1  0.752410  0.073440  0.480500  1.0  0.6293
  C  C1123  1  0.846040  0.167250  0.499140  1.0  0.4757
  C  C1124  1  0.826000  0.072030  0.419000  1.0  0.4369
  C  C1125  1  0.713960  0.027790  0.491430  1.0  0.0458
  C  C1126  1  0.910400  0.956500  0.443300  1.0  0.0285
  C  C1127  1  0.930100  0.963000  0.417800  1.0  -0.1281
  C  C1128  1  0.922500  0.991500  0.396100  1.0  0.7316
  C  C1129  1  0.741000  0.545230  0.001270  1.0  -0.1177
  C  C1130  1  0.752410  0.573440  0.980500  1.0  0.6293
  C  C1131  1  0.846040  0.667250  0.999140  1.0  0.4757
  C  C1132  1  0.826000  0.572030  0.919000  1.0  0.4369
  C  C1133  1  0.713960  0.527790  0.991430  1.0  0.0458
  C  C1134  1  0.910400  0.456500  0.943300  1.0  0.0285
  C  C1135  1  0.930100  0.463000  0.917800  1.0  -0.1281
  C  C1136  1  0.922500  0.491500  0.896100  1.0  0.7316
  C  C1137  1  0.509000  0.704770  0.001270  1.0  -0.1186
  C  C1138  1  0.497590  0.676560  0.980500  1.0  0.63
  C  C1139  1  0.403960  0.582750  0.999140  1.0  0.4735
  C  C1140  1  0.424000  0.677970  0.919000  1.0  0.4371
  C  C1141  1  0.536040  0.722210  0.991430  1.0  0.0458
  C  C1142  1  0.339600  0.793500  0.943300  1.0  0.0273
  C  C1143  1  0.319900  0.787000  0.917800  1.0  -0.1287
  C  C1144  1  0.327500  0.758500  0.896100  1.0  0.7314
  C  C1145  1  0.509000  0.204770  0.501270  1.0  -0.1186
  C  C1146  1  0.497590  0.176560  0.480500  1.0  0.63
  C  C1147  1  0.403960  0.082750  0.499140  1.0  0.4735
  C  C1148  1  0.424000  0.177970  0.419000  1.0  0.4371
  C  C1149  1  0.536040  0.222210  0.491430  1.0  0.0458
  C  C1150  1  0.339600  0.293500  0.443300  1.0  0.0273
  C  C1151  1  0.319900  0.287000  0.417800  1.0  -0.1287
  C  C1152  1  0.327500  0.258500  0.396100  1.0  0.7314
  C  C1153  1  0.009000  0.704770  0.501270  1.0  -0.1186
  C  C1154  1  0.997590  0.676560  0.480500  1.0  0.63
  C  C1155  1  0.903960  0.582750  0.499140  1.0  0.4735
  C  C1156  1  0.924000  0.677970  0.419000  1.0  0.4371
  C  C1157  1  0.036040  0.722210  0.491430  1.0  0.0458
  C  C1158  1  0.839600  0.793500  0.443300  1.0  0.0273
  C  C1159  1  0.819900  0.787000  0.417800  1.0  -0.1287
  C  C1160  1  0.827500  0.758500  0.396100  1.0  0.7314
  C  C1161  1  0.009000  0.204770  0.001270  1.0  -0.1186
  C  C1162  1  0.997590  0.176560  0.980500  1.0  0.63
  C  C1163  1  0.903960  0.082750  0.999140  1.0  0.4735
  C  C1164  1  0.924000  0.177970  0.919000  1.0  0.4371
  C  C1165  1  0.036040  0.222210  0.991430  1.0  0.0458
  C  C1166  1  0.839600  0.293500  0.943300  1.0  0.0273
  C  C1167  1  0.819900  0.287000  0.917800  1.0  -0.1287
  C  C1168  1  0.827500  0.258500  0.896100  1.0  0.7314
  C  C1169  1  0.509000  0.045230  0.748730  1.0  -0.1177
  C  C1170  1  0.497590  0.073440  0.769500  1.0  0.63
  C  C1171  1  0.403960  0.167250  0.750860  1.0  0.4735
  C  C1172  1  0.424000  0.072030  0.831000  1.0  0.4374
  C  C1173  1  0.536040  0.027790  0.758570  1.0  0.0454
  C  C1174  1  0.339600  0.956500  0.806700  1.0  0.0279
  C  C1175  1  0.319900  0.963000  0.832200  1.0  -0.1277
  C  C1176  1  0.327500  0.991500  0.853900  1.0  0.7316
  C  C1177  1  0.509000  0.545230  0.248730  1.0  -0.1177
  C  C1178  1  0.497590  0.573440  0.269500  1.0  0.63
  C  C1179  1  0.403960  0.667250  0.250860  1.0  0.4735
  C  C1180  1  0.424000  0.572030  0.331000  1.0  0.4374
  C  C1181  1  0.536040  0.527790  0.258570  1.0  0.0454
  C  C1182  1  0.339600  0.456500  0.306700  1.0  0.0279
  C  C1183  1  0.319900  0.463000  0.332200  1.0  -0.1277
  C  C1184  1  0.327500  0.491500  0.353900  1.0  0.7316
  C  C1185  1  0.009000  0.045230  0.248730  1.0  -0.1177
  C  C1186  1  0.997590  0.073440  0.269500  1.0  0.63
  C  C1187  1  0.903960  0.167250  0.250860  1.0  0.4735
  C  C1188  1  0.924000  0.072030  0.331000  1.0  0.4374
  C  C1189  1  0.036040  0.027790  0.258570  1.0  0.0454
  C  C1190  1  0.839600  0.956500  0.306700  1.0  0.0279
  C  C1191  1  0.819900  0.963000  0.332200  1.0  -0.1277
  C  C1192  1  0.827500  0.991500  0.353900  1.0  0.7316
  C  C1193  1  0.009000  0.545230  0.748730  1.0  -0.1177
  C  C1194  1  0.997590  0.573440  0.769500  1.0  0.63
  C  C1195  1  0.903960  0.667250  0.750860  1.0  0.4735
  C  C1196  1  0.924000  0.572030  0.831000  1.0  0.4374
  C  C1197  1  0.036040  0.527790  0.758570  1.0  0.0454
  C  C1198  1  0.839600  0.456500  0.806700  1.0  0.0279
  C  C1199  1  0.819900  0.463000  0.832200  1.0  -0.1277
  C  C1200  1  0.827500  0.491500  0.853900  1.0  0.7316
  C  C1201  1  0.241000  0.704770  0.748730  1.0  -0.1181
  C  C1202  1  0.252410  0.676560  0.769500  1.0  0.6289
  C  C1203  1  0.346040  0.582750  0.750860  1.0  0.4761
  C  C1204  1  0.326000  0.677970  0.831000  1.0  0.4368
  C  C1205  1  0.213960  0.722210  0.758570  1.0  0.0455
  C  C1206  1  0.410400  0.793500  0.806700  1.0  0.0284
  C  C1207  1  0.430100  0.787000  0.832200  1.0  -0.1285
  C  C1208  1  0.422500  0.758500  0.853900  1.0  0.7325
  C  C1209  1  0.241000  0.204770  0.248730  1.0  -0.1181
  C  C1210  1  0.252410  0.176560  0.269500  1.0  0.6289
  C  C1211  1  0.346040  0.082750  0.250860  1.0  0.4761
  C  C1212  1  0.326000  0.177970  0.331000  1.0  0.4368
  C  C1213  1  0.213960  0.222210  0.258570  1.0  0.0455
  C  C1214  1  0.410400  0.293500  0.306700  1.0  0.0284
  C  C1215  1  0.430100  0.287000  0.332200  1.0  -0.1285
  C  C1216  1  0.422500  0.258500  0.353900  1.0  0.7325
  C  C1217  1  0.741000  0.704770  0.248730  1.0  -0.1181
  C  C1218  1  0.752410  0.676560  0.269500  1.0  0.6289
  C  C1219  1  0.846040  0.582750  0.250860  1.0  0.4761
  C  C1220  1  0.826000  0.677970  0.331000  1.0  0.4368
  C  C1221  1  0.713960  0.722210  0.258570  1.0  0.0455
  C  C1222  1  0.910400  0.793500  0.306700  1.0  0.0284
  C  C1223  1  0.930100  0.787000  0.332200  1.0  -0.1285
  C  C1224  1  0.922500  0.758500  0.353900  1.0  0.7325
  C  C1225  1  0.741000  0.204770  0.748730  1.0  -0.1181
  C  C1226  1  0.752410  0.176560  0.769500  1.0  0.6289
  C  C1227  1  0.846040  0.082750  0.750860  1.0  0.4761
  C  C1228  1  0.826000  0.177970  0.831000  1.0  0.4368
  C  C1229  1  0.713960  0.222210  0.758570  1.0  0.0455
  C  C1230  1  0.910400  0.293500  0.806700  1.0  0.0284
  C  C1231  1  0.930100  0.287000  0.832200  1.0  -0.1285
  C  C1232  1  0.922500  0.258500  0.853900  1.0  0.7325
  C  C1233  1  0.001270  0.241000  0.045230  1.0  -0.1166
  C  C1234  1  0.980500  0.252410  0.073440  1.0  0.6277
  C  C1235  1  0.999140  0.346040  0.167250  1.0  0.4754
  C  C1236  1  0.919000  0.326000  0.072030  1.0  0.4373
  C  C1237  1  0.991430  0.213960  0.027790  1.0  0.0465
  C  C1238  1  0.943300  0.410400  0.956500  1.0  0.0282
  C  C1239  1  0.917800  0.430100  0.963000  1.0  -0.1291
  C  C1240  1  0.896100  0.422500  0.991500  1.0  0.7305
  C  C1241  1  0.001270  0.741000  0.545230  1.0  -0.1166
  C  C1242  1  0.980500  0.752410  0.573440  1.0  0.6277
  C  C1243  1  0.999140  0.846040  0.667250  1.0  0.4754
  C  C1244  1  0.919000  0.826000  0.572030  1.0  0.4373
  C  C1245  1  0.991430  0.713960  0.527790  1.0  0.0465
  C  C1246  1  0.943300  0.910400  0.456500  1.0  0.0282
  C  C1247  1  0.917800  0.930100  0.463000  1.0  -0.1291
  C  C1248  1  0.896100  0.922500  0.491500  1.0  0.7305
  C  C1249  1  0.501270  0.241000  0.545230  1.0  -0.1166
  C  C1250  1  0.480500  0.252410  0.573440  1.0  0.6277
  C  C1251  1  0.499140  0.346040  0.667250  1.0  0.4754
  C  C1252  1  0.419000  0.326000  0.572030  1.0  0.4373
  C  C1253  1  0.491430  0.213960  0.527790  1.0  0.0465
  C  C1254  1  0.443300  0.410400  0.456500  1.0  0.0282
  C  C1255  1  0.417800  0.430100  0.463000  1.0  -0.1291
  C  C1256  1  0.396100  0.422500  0.491500  1.0  0.7305
  C  C1257  1  0.501270  0.741000  0.045230  1.0  -0.1166
  C  C1258  1  0.480500  0.752410  0.073440  1.0  0.6277
  C  C1259  1  0.499140  0.846040  0.167250  1.0  0.4754
  C  C1260  1  0.419000  0.826000  0.072030  1.0  0.4373
  C  C1261  1  0.491430  0.713960  0.027790  1.0  0.0465
  C  C1262  1  0.443300  0.910400  0.956500  1.0  0.0282
  C  C1263  1  0.417800  0.930100  0.963000  1.0  -0.1291
  C  C1264  1  0.396100  0.922500  0.991500  1.0  0.7305
  C  C1265  1  0.001270  0.509000  0.704770  1.0  -0.1171
  C  C1266  1  0.980500  0.497590  0.676560  1.0  0.6294
  C  C1267  1  0.999140  0.403960  0.582750  1.0  0.475
  C  C1268  1  0.919000  0.424000  0.677970  1.0  0.4371
  C  C1269  1  0.991430  0.536040  0.722210  1.0  0.0454
  C  C1270  1  0.943300  0.339600  0.793500  1.0  0.028
  C  C1271  1  0.917800  0.319900  0.787000  1.0  -0.1282
  C  C1272  1  0.896100  0.327500  0.758500  1.0  0.7306
  C  C1273  1  0.001270  0.009000  0.204770  1.0  -0.1171
  C  C1274  1  0.980500  0.997590  0.176560  1.0  0.6294
  C  C1275  1  0.999140  0.903960  0.082750  1.0  0.475
  C  C1276  1  0.919000  0.924000  0.177970  1.0  0.4371
  C  C1277  1  0.991430  0.036040  0.222210  1.0  0.0454
  C  C1278  1  0.943300  0.839600  0.293500  1.0  0.028
  C  C1279  1  0.917800  0.819900  0.287000  1.0  -0.1282
  C  C1280  1  0.896100  0.827500  0.258500  1.0  0.7306
  C  C1281  1  0.501270  0.509000  0.204770  1.0  -0.1171
  C  C1282  1  0.480500  0.497590  0.176560  1.0  0.6294
  C  C1283  1  0.499140  0.403960  0.082750  1.0  0.475
  C  C1284  1  0.419000  0.424000  0.177970  1.0  0.4371
  C  C1285  1  0.491430  0.536040  0.222210  1.0  0.0454
  C  C1286  1  0.443300  0.339600  0.293500  1.0  0.028
  C  C1287  1  0.417800  0.319900  0.287000  1.0  -0.1282
  C  C1288  1  0.396100  0.327500  0.258500  1.0  0.7306
  C  C1289  1  0.501270  0.009000  0.704770  1.0  -0.1171
  C  C1290  1  0.480500  0.997590  0.676560  1.0  0.6294
  C  C1291  1  0.499140  0.903960  0.582750  1.0  0.475
  C  C1292  1  0.419000  0.924000  0.677970  1.0  0.4371
  C  C1293  1  0.491430  0.036040  0.722210  1.0  0.0454
  C  C1294  1  0.443300  0.839600  0.793500  1.0  0.028
  C  C1295  1  0.417800  0.819900  0.787000  1.0  -0.1282
  C  C1296  1  0.396100  0.827500  0.758500  1.0  0.7306
  C  C1297  1  0.748730  0.509000  0.045230  1.0  -0.1161
  C  C1298  1  0.769500  0.497590  0.073440  1.0  0.6277
  C  C1299  1  0.750860  0.403960  0.167250  1.0  0.4756
  C  C1300  1  0.831000  0.424000  0.072030  1.0  0.4379
  C  C1301  1  0.758570  0.536040  0.027790  1.0  0.045
  C  C1302  1  0.806700  0.339600  0.956500  1.0  0.0271
  C  C1303  1  0.832200  0.319900  0.963000  1.0  -0.1295
  C  C1304  1  0.853900  0.327500  0.991500  1.0  0.731
  C  C1305  1  0.748730  0.009000  0.545230  1.0  -0.1161
  C  C1306  1  0.769500  0.997590  0.573440  1.0  0.6277
  C  C1307  1  0.750860  0.903960  0.667250  1.0  0.4756
  C  C1308  1  0.831000  0.924000  0.572030  1.0  0.4379
  C  C1309  1  0.758570  0.036040  0.527790  1.0  0.045
  C  C1310  1  0.806700  0.839600  0.456500  1.0  0.0271
  C  C1311  1  0.832200  0.819900  0.463000  1.0  -0.1295
  C  C1312  1  0.853900  0.827500  0.491500  1.0  0.731
  C  C1313  1  0.248730  0.509000  0.545230  1.0  -0.1161
  C  C1314  1  0.269500  0.497590  0.573440  1.0  0.6277
  C  C1315  1  0.250860  0.403960  0.667250  1.0  0.4756
  C  C1316  1  0.331000  0.424000  0.572030  1.0  0.4379
  C  C1317  1  0.258570  0.536040  0.527790  1.0  0.045
  C  C1318  1  0.306700  0.339600  0.456500  1.0  0.0271
  C  C1319  1  0.332200  0.319900  0.463000  1.0  -0.1295
  C  C1320  1  0.353900  0.327500  0.491500  1.0  0.731
  C  C1321  1  0.248730  0.009000  0.045230  1.0  -0.1161
  C  C1322  1  0.269500  0.997590  0.073440  1.0  0.6277
  C  C1323  1  0.250860  0.903960  0.167250  1.0  0.4756
  C  C1324  1  0.331000  0.924000  0.072030  1.0  0.4379
  C  C1325  1  0.258570  0.036040  0.027790  1.0  0.045
  C  C1326  1  0.306700  0.839600  0.956500  1.0  0.0271
  C  C1327  1  0.332200  0.819900  0.963000  1.0  -0.1295
  C  C1328  1  0.353900  0.827500  0.991500  1.0  0.731
  C  C1329  1  0.748730  0.241000  0.704770  1.0  -0.117
  C  C1330  1  0.769500  0.252410  0.676560  1.0  0.6291
  C  C1331  1  0.750860  0.346040  0.582750  1.0  0.4752
  C  C1332  1  0.831000  0.326000  0.677970  1.0  0.4381
  C  C1333  1  0.758570  0.213960  0.722210  1.0  0.0448
  C  C1334  1  0.806700  0.410400  0.793500  1.0  0.0269
  C  C1335  1  0.832200  0.430100  0.787000  1.0  -0.1283
  C  C1336  1  0.853900  0.422500  0.758500  1.0  0.7306
  C  C1337  1  0.748730  0.741000  0.204770  1.0  -0.117
  C  C1338  1  0.769500  0.752410  0.176560  1.0  0.6291
  C  C1339  1  0.750860  0.846040  0.082750  1.0  0.4752
  C  C1340  1  0.831000  0.826000  0.177970  1.0  0.4381
  C  C1341  1  0.758570  0.713960  0.222210  1.0  0.0448
  C  C1342  1  0.806700  0.910400  0.293500  1.0  0.0269
  C  C1343  1  0.832200  0.930100  0.287000  1.0  -0.1283
  C  C1344  1  0.853900  0.922500  0.258500  1.0  0.7306
  C  C1345  1  0.248730  0.241000  0.204770  1.0  -0.117
  C  C1346  1  0.269500  0.252410  0.176560  1.0  0.6291
  C  C1347  1  0.250860  0.346040  0.082750  1.0  0.4752
  C  C1348  1  0.331000  0.326000  0.177970  1.0  0.4381
  C  C1349  1  0.258570  0.213960  0.222210  1.0  0.0448
  C  C1350  1  0.306700  0.410400  0.293500  1.0  0.0269
  C  C1351  1  0.332200  0.430100  0.287000  1.0  -0.1283
  C  C1352  1  0.353900  0.422500  0.258500  1.0  0.7306
  C  C1353  1  0.248730  0.741000  0.704770  1.0  -0.117
  C  C1354  1  0.269500  0.752410  0.676560  1.0  0.6291
  C  C1355  1  0.250860  0.846040  0.582750  1.0  0.4752
  C  C1356  1  0.331000  0.826000  0.677970  1.0  0.4381
  C  C1357  1  0.258570  0.713960  0.722210  1.0  0.0448
  C  C1358  1  0.306700  0.910400  0.793500  1.0  0.0269
  C  C1359  1  0.332200  0.930100  0.787000  1.0  -0.1283
  C  C1360  1  0.353900  0.922500  0.758500  1.0  0.7306
  C  C1361  1  0.045230  0.001270  0.241000  1.0  -0.1173
  C  C1362  1  0.073440  0.980500  0.252410  1.0  0.6296
  C  C1363  1  0.167250  0.999140  0.346040  1.0  0.4754
  C  C1364  1  0.072030  0.919000  0.326000  1.0  0.4338
  C  C1365  1  0.027790  0.991430  0.213960  1.0  0.0468
  C  C1366  1  0.956500  0.943300  0.410400  1.0  0.0263
  C  C1367  1  0.963000  0.917800  0.430100  1.0  -0.1295
  C  C1368  1  0.991500  0.896100  0.422500  1.0  0.7307
  C  C1369  1  0.045230  0.501270  0.741000  1.0  -0.1173
  C  C1370  1  0.073440  0.480500  0.752410  1.0  0.6296
  C  C1371  1  0.167250  0.499140  0.846040  1.0  0.4754
  C  C1372  1  0.072030  0.419000  0.826000  1.0  0.4338
  C  C1373  1  0.027790  0.491430  0.713960  1.0  0.0468
  C  C1374  1  0.956500  0.443300  0.910400  1.0  0.0263
  C  C1375  1  0.963000  0.417800  0.930100  1.0  -0.1295
  C  C1376  1  0.991500  0.396100  0.922500  1.0  0.7307
  C  C1377  1  0.545230  0.001270  0.741000  1.0  -0.1173
  C  C1378  1  0.573440  0.980500  0.752410  1.0  0.6296
  C  C1379  1  0.667250  0.999140  0.846040  1.0  0.4754
  C  C1380  1  0.572030  0.919000  0.826000  1.0  0.4338
  C  C1381  1  0.527790  0.991430  0.713960  1.0  0.0468
  C  C1382  1  0.456500  0.943300  0.910400  1.0  0.0263
  C  C1383  1  0.463000  0.917800  0.930100  1.0  -0.1295
  C  C1384  1  0.491500  0.896100  0.922500  1.0  0.7307
  C  C1385  1  0.545230  0.501270  0.241000  1.0  -0.1173
  C  C1386  1  0.573440  0.480500  0.252410  1.0  0.6296
  C  C1387  1  0.667250  0.499140  0.346040  1.0  0.4754
  C  C1388  1  0.572030  0.419000  0.326000  1.0  0.4338
  C  C1389  1  0.527790  0.491430  0.213960  1.0  0.0468
  C  C1390  1  0.456500  0.443300  0.410400  1.0  0.0263
  C  C1391  1  0.463000  0.417800  0.430100  1.0  -0.1295
  C  C1392  1  0.491500  0.396100  0.422500  1.0  0.7307
  C  C1393  1  0.704770  0.001270  0.509000  1.0  -0.1184
  C  C1394  1  0.676560  0.980500  0.497590  1.0  0.6301
  C  C1395  1  0.582750  0.999140  0.403960  1.0  0.4746
  C  C1396  1  0.677970  0.919000  0.424000  1.0  0.4358
  C  C1397  1  0.722210  0.991430  0.536040  1.0  0.0463
  C  C1398  1  0.793500  0.943300  0.339600  1.0  0.027
  C  C1399  1  0.787000  0.917800  0.319900  1.0  -0.129
  C  C1400  1  0.758500  0.896100  0.327500  1.0  0.7296
  C  C1401  1  0.704770  0.501270  0.009000  1.0  -0.1184
  C  C1402  1  0.676560  0.480500  0.997590  1.0  0.6301
  C  C1403  1  0.582750  0.499140  0.903960  1.0  0.4746
  C  C1404  1  0.677970  0.419000  0.924000  1.0  0.4358
  C  C1405  1  0.722210  0.491430  0.036040  1.0  0.0463
  C  C1406  1  0.793500  0.443300  0.839600  1.0  0.027
  C  C1407  1  0.787000  0.417800  0.819900  1.0  -0.129
  C  C1408  1  0.758500  0.396100  0.827500  1.0  0.7296
  C  C1409  1  0.204770  0.001270  0.009000  1.0  -0.1184
  C  C1410  1  0.176560  0.980500  0.997590  1.0  0.6301
  C  C1411  1  0.082750  0.999140  0.903960  1.0  0.4746
  C  C1412  1  0.177970  0.919000  0.924000  1.0  0.4358
  C  C1413  1  0.222210  0.991430  0.036040  1.0  0.0463
  C  C1414  1  0.293500  0.943300  0.839600  1.0  0.027
  C  C1415  1  0.287000  0.917800  0.819900  1.0  -0.129
  C  C1416  1  0.258500  0.896100  0.827500  1.0  0.7296
  C  C1417  1  0.204770  0.501270  0.509000  1.0  -0.1184
  C  C1418  1  0.176560  0.480500  0.497590  1.0  0.6301
  C  C1419  1  0.082750  0.499140  0.403960  1.0  0.4746
  C  C1420  1  0.177970  0.419000  0.424000  1.0  0.4358
  C  C1421  1  0.222210  0.491430  0.536040  1.0  0.0463
  C  C1422  1  0.293500  0.443300  0.339600  1.0  0.027
  C  C1423  1  0.287000  0.417800  0.319900  1.0  -0.129
  C  C1424  1  0.258500  0.396100  0.327500  1.0  0.7296
  C  C1425  1  0.045230  0.748730  0.509000  1.0  -0.1182
  C  C1426  1  0.073440  0.769500  0.497590  1.0  0.6298
  C  C1427  1  0.167250  0.750860  0.403960  1.0  0.4747
  C  C1428  1  0.072030  0.831000  0.424000  1.0  0.4369
  C  C1429  1  0.027790  0.758570  0.536040  1.0  0.0468
  C  C1430  1  0.956500  0.806700  0.339600  1.0  0.0263
  C  C1431  1  0.963000  0.832200  0.319900  1.0  -0.1292
  C  C1432  1  0.991500  0.853900  0.327500  1.0  0.7308
  C  C1433  1  0.045230  0.248730  0.009000  1.0  -0.1182
  C  C1434  1  0.073440  0.269500  0.997590  1.0  0.6298
  C  C1435  1  0.167250  0.250860  0.903960  1.0  0.4747
  C  C1436  1  0.072030  0.331000  0.924000  1.0  0.4369
  C  C1437  1  0.027790  0.258570  0.036040  1.0  0.0468
  C  C1438  1  0.956500  0.306700  0.839600  1.0  0.0263
  C  C1439  1  0.963000  0.332200  0.819900  1.0  -0.1292
  C  C1440  1  0.991500  0.353900  0.827500  1.0  0.7308
  C  C1441  1  0.545230  0.748730  0.009000  1.0  -0.1182
  C  C1442  1  0.573440  0.769500  0.997590  1.0  0.6298
  C  C1443  1  0.667250  0.750860  0.903960  1.0  0.4747
  C  C1444  1  0.572030  0.831000  0.924000  1.0  0.4369
  C  C1445  1  0.527790  0.758570  0.036040  1.0  0.0468
  C  C1446  1  0.456500  0.806700  0.839600  1.0  0.0263
  C  C1447  1  0.463000  0.832200  0.819900  1.0  -0.1292
  C  C1448  1  0.491500  0.853900  0.827500  1.0  0.7308
  C  C1449  1  0.545230  0.248730  0.509000  1.0  -0.1182
  C  C1450  1  0.573440  0.269500  0.497590  1.0  0.6298
  C  C1451  1  0.667250  0.250860  0.403960  1.0  0.4747
  C  C1452  1  0.572030  0.331000  0.424000  1.0  0.4369
  C  C1453  1  0.527790  0.258570  0.536040  1.0  0.0468
  C  C1454  1  0.456500  0.306700  0.339600  1.0  0.0263
  C  C1455  1  0.463000  0.332200  0.319900  1.0  -0.1292
  C  C1456  1  0.491500  0.353900  0.327500  1.0  0.7308
  C  C1457  1  0.704770  0.748730  0.241000  1.0  -0.1183
  C  C1458  1  0.676560  0.769500  0.252410  1.0  0.6295
  C  C1459  1  0.582750  0.750860  0.346040  1.0  0.4753
  C  C1460  1  0.677970  0.831000  0.326000  1.0  0.4343
  C  C1461  1  0.722210  0.758570  0.213960  1.0  0.046
  C  C1462  1  0.793500  0.806700  0.410400  1.0  0.0274
  C  C1463  1  0.787000  0.832200  0.430100  1.0  -0.1286
  C  C1464  1  0.758500  0.853900  0.422500  1.0  0.7299
  C  C1465  1  0.704770  0.248730  0.741000  1.0  -0.1183
  C  C1466  1  0.676560  0.269500  0.752410  1.0  0.6295
  C  C1467  1  0.582750  0.250860  0.846040  1.0  0.4753
  C  C1468  1  0.677970  0.331000  0.826000  1.0  0.4343
  C  C1469  1  0.722210  0.258570  0.713960  1.0  0.046
  C  C1470  1  0.793500  0.306700  0.910400  1.0  0.0274
  C  C1471  1  0.787000  0.332200  0.930100  1.0  -0.1286
  C  C1472  1  0.758500  0.353900  0.922500  1.0  0.7299
  C  C1473  1  0.204770  0.748730  0.741000  1.0  -0.1183
  C  C1474  1  0.176560  0.769500  0.752410  1.0  0.6295
  C  C1475  1  0.082750  0.750860  0.846040  1.0  0.4753
  C  C1476  1  0.177970  0.831000  0.826000  1.0  0.4343
  C  C1477  1  0.222210  0.758570  0.713960  1.0  0.046
  C  C1478  1  0.293500  0.806700  0.910400  1.0  0.0274
  C  C1479  1  0.287000  0.832200  0.930100  1.0  -0.1286
  C  C1480  1  0.258500  0.853900  0.922500  1.0  0.7299
  C  C1481  1  0.204770  0.248730  0.241000  1.0  -0.1183
  C  C1482  1  0.176560  0.269500  0.252410  1.0  0.6295
  C  C1483  1  0.082750  0.250860  0.346040  1.0  0.4753
  C  C1484  1  0.177970  0.331000  0.326000  1.0  0.4343
  C  C1485  1  0.222210  0.258570  0.213960  1.0  0.046
  C  C1486  1  0.293500  0.306700  0.410400  1.0  0.0274
  C  C1487  1  0.287000  0.332200  0.430100  1.0  -0.1286
  C  C1488  1  0.258500  0.353900  0.422500  1.0  0.7299
  N  N1489  1  0.681060  0.849180  0.001890  1.0  -0.2439
  N  N1490  1  0.673170  0.902600  0.060700  1.0  -0.341
  N  N1491  1  0.653820  0.811640  0.976300  1.0  -0.3805
  N  N1492  1  0.699100  0.838000  0.977000  1.0  -0.0811
  N  N1493  1  0.698700  0.948700  0.083100  1.0  -0.7001
  N  N1494  1  0.630100  0.834500  0.023600  1.0  -0.7256
  N  N1495  1  0.646160  0.933270  0.094300  1.0  -0.2953
  N  N1496  1  0.626700  0.909200  0.082900  1.0  -0.1014
  N  N1497  1  0.682600  0.817000  0.961500  1.0  -0.0779
  N  N1498  1  0.643000  0.890800  0.064900  1.0  -0.1565
  N  N1499  1  0.681060  0.349180  0.501890  1.0  -0.2439
  N  N1500  1  0.673170  0.402600  0.560700  1.0  -0.341
  N  N1501  1  0.653820  0.311640  0.476300  1.0  -0.3805
  N  N1502  1  0.699100  0.338000  0.477000  1.0  -0.0811
  N  N1503  1  0.698700  0.448700  0.583100  1.0  -0.7001
  N  N1504  1  0.630100  0.334500  0.523600  1.0  -0.7256
  N  N1505  1  0.646160  0.433270  0.594300  1.0  -0.2953
  N  N1506  1  0.626700  0.409200  0.582900  1.0  -0.1014
  N  N1507  1  0.682600  0.317000  0.461500  1.0  -0.0779
  N  N1508  1  0.643000  0.390800  0.564900  1.0  -0.1565
  N  N1509  1  0.181060  0.849180  0.501890  1.0  -0.2439
  N  N1510  1  0.173170  0.902600  0.560700  1.0  -0.341
  N  N1511  1  0.153820  0.811640  0.476300  1.0  -0.3805
  N  N1512  1  0.199100  0.838000  0.477000  1.0  -0.0811
  N  N1513  1  0.198700  0.948700  0.583100  1.0  -0.7001
  N  N1514  1  0.130100  0.834500  0.523600  1.0  -0.7256
  N  N1515  1  0.146160  0.933270  0.594300  1.0  -0.2953
  N  N1516  1  0.126700  0.909200  0.582900  1.0  -0.1014
  N  N1517  1  0.182600  0.817000  0.461500  1.0  -0.0779
  N  N1518  1  0.143000  0.890800  0.564900  1.0  -0.1565
  N  N1519  1  0.181060  0.349180  0.001890  1.0  -0.2439
  N  N1520  1  0.173170  0.402600  0.060700  1.0  -0.341
  N  N1521  1  0.153820  0.311640  0.976300  1.0  -0.3805
  N  N1522  1  0.199100  0.338000  0.977000  1.0  -0.0811
  N  N1523  1  0.198700  0.448700  0.083100  1.0  -0.7001
  N  N1524  1  0.130100  0.334500  0.023600  1.0  -0.7256
  N  N1525  1  0.146160  0.433270  0.094300  1.0  -0.2953
  N  N1526  1  0.126700  0.409200  0.082900  1.0  -0.1014
  N  N1527  1  0.182600  0.317000  0.961500  1.0  -0.0779
  N  N1528  1  0.143000  0.390800  0.064900  1.0  -0.1565
  N  N1529  1  0.568940  0.400820  0.001890  1.0  -0.2423
  N  N1530  1  0.576830  0.347400  0.060700  1.0  -0.3408
  N  N1531  1  0.596180  0.438360  0.976300  1.0  -0.3816
  N  N1532  1  0.550900  0.412000  0.977000  1.0  -0.0805
  N  N1533  1  0.551300  0.301300  0.083100  1.0  -0.7002
  N  N1534  1  0.619900  0.415500  0.023600  1.0  -0.724
  N  N1535  1  0.603840  0.316730  0.094300  1.0  -0.2948
  N  N1536  1  0.623300  0.340800  0.082900  1.0  -0.0977
  N  N1537  1  0.567400  0.433000  0.961500  1.0  -0.0776
  N  N1538  1  0.607000  0.359200  0.064900  1.0  -0.1605
  N  N1539  1  0.568940  0.900820  0.501890  1.0  -0.2423
  N  N1540  1  0.576830  0.847400  0.560700  1.0  -0.3408
  N  N1541  1  0.596180  0.938360  0.476300  1.0  -0.3816
  N  N1542  1  0.550900  0.912000  0.477000  1.0  -0.0805
  N  N1543  1  0.551300  0.801300  0.583100  1.0  -0.7002
  N  N1544  1  0.619900  0.915500  0.523600  1.0  -0.724
  N  N1545  1  0.603840  0.816730  0.594300  1.0  -0.2948
  N  N1546  1  0.623300  0.840800  0.582900  1.0  -0.0977
  N  N1547  1  0.567400  0.933000  0.461500  1.0  -0.0776
  N  N1548  1  0.607000  0.859200  0.564900  1.0  -0.1605
  N  N1549  1  0.068940  0.400820  0.501890  1.0  -0.2423
  N  N1550  1  0.076830  0.347400  0.560700  1.0  -0.3408
  N  N1551  1  0.096180  0.438360  0.476300  1.0  -0.3816
  N  N1552  1  0.050900  0.412000  0.477000  1.0  -0.0805
  N  N1553  1  0.051300  0.301300  0.583100  1.0  -0.7002
  N  N1554  1  0.119900  0.415500  0.523600  1.0  -0.724
  N  N1555  1  0.103840  0.316730  0.594300  1.0  -0.2948
  N  N1556  1  0.123300  0.340800  0.582900  1.0  -0.0977
  N  N1557  1  0.067400  0.433000  0.461500  1.0  -0.0776
  N  N1558  1  0.107000  0.359200  0.564900  1.0  -0.1605
  N  N1559  1  0.068940  0.900820  0.001890  1.0  -0.2423
  N  N1560  1  0.076830  0.847400  0.060700  1.0  -0.3408
  N  N1561  1  0.096180  0.938360  0.976300  1.0  -0.3816
  N  N1562  1  0.050900  0.912000  0.977000  1.0  -0.0805
  N  N1563  1  0.051300  0.801300  0.083100  1.0  -0.7002
  N  N1564  1  0.119900  0.915500  0.023600  1.0  -0.724
  N  N1565  1  0.103840  0.816730  0.094300  1.0  -0.2948
  N  N1566  1  0.123300  0.840800  0.082900  1.0  -0.0977
  N  N1567  1  0.067400  0.933000  0.961500  1.0  -0.0776
  N  N1568  1  0.107000  0.859200  0.064900  1.0  -0.1605
  N  N1569  1  0.568940  0.849180  0.248110  1.0  -0.2425
  N  N1570  1  0.576830  0.902600  0.189300  1.0  -0.3408
  N  N1571  1  0.596180  0.811640  0.273700  1.0  -0.3808
  N  N1572  1  0.550900  0.838000  0.273000  1.0  -0.0802
  N  N1573  1  0.551300  0.948700  0.166900  1.0  -0.7016
  N  N1574  1  0.619900  0.834500  0.226400  1.0  -0.7233
  N  N1575  1  0.603840  0.933270  0.155700  1.0  -0.2944
  N  N1576  1  0.623300  0.909200  0.167100  1.0  -0.0971
  N  N1577  1  0.567400  0.817000  0.288500  1.0  -0.0781
  N  N1578  1  0.607000  0.890800  0.185100  1.0  -0.1604
  N  N1579  1  0.568940  0.349180  0.748110  1.0  -0.2425
  N  N1580  1  0.576830  0.402600  0.689300  1.0  -0.3408
  N  N1581  1  0.596180  0.311640  0.773700  1.0  -0.3808
  N  N1582  1  0.550900  0.338000  0.773000  1.0  -0.0802
  N  N1583  1  0.551300  0.448700  0.666900  1.0  -0.7016
  N  N1584  1  0.619900  0.334500  0.726400  1.0  -0.7233
  N  N1585  1  0.603840  0.433270  0.655700  1.0  -0.2944
  N  N1586  1  0.623300  0.409200  0.667100  1.0  -0.0971
  N  N1587  1  0.567400  0.317000  0.788500  1.0  -0.0781
  N  N1588  1  0.607000  0.390800  0.685100  1.0  -0.1604
  N  N1589  1  0.068940  0.849180  0.748110  1.0  -0.2425
  N  N1590  1  0.076830  0.902600  0.689300  1.0  -0.3408
  N  N1591  1  0.096180  0.811640  0.773700  1.0  -0.3808
  N  N1592  1  0.050900  0.838000  0.773000  1.0  -0.0802
  N  N1593  1  0.051300  0.948700  0.666900  1.0  -0.7016
  N  N1594  1  0.119900  0.834500  0.726400  1.0  -0.7233
  N  N1595  1  0.103840  0.933270  0.655700  1.0  -0.2944
  N  N1596  1  0.123300  0.909200  0.667100  1.0  -0.0971
  N  N1597  1  0.067400  0.817000  0.788500  1.0  -0.0781
  N  N1598  1  0.107000  0.890800  0.685100  1.0  -0.1604
  N  N1599  1  0.068940  0.349180  0.248110  1.0  -0.2425
  N  N1600  1  0.076830  0.402600  0.189300  1.0  -0.3408
  N  N1601  1  0.096180  0.311640  0.273700  1.0  -0.3808
  N  N1602  1  0.050900  0.338000  0.273000  1.0  -0.0802
  N  N1603  1  0.051300  0.448700  0.166900  1.0  -0.7016
  N  N1604  1  0.119900  0.334500  0.226400  1.0  -0.7233
  N  N1605  1  0.103840  0.433270  0.155700  1.0  -0.2944
  N  N1606  1  0.123300  0.409200  0.167100  1.0  -0.0971
  N  N1607  1  0.067400  0.317000  0.288500  1.0  -0.0781
  N  N1608  1  0.107000  0.390800  0.185100  1.0  -0.1604
  N  N1609  1  0.681060  0.400820  0.248110  1.0  -0.2426
  N  N1610  1  0.673170  0.347400  0.189300  1.0  -0.3412
  N  N1611  1  0.653820  0.438360  0.273700  1.0  -0.3816
  N  N1612  1  0.699100  0.412000  0.273000  1.0  -0.0804
  N  N1613  1  0.698700  0.301300  0.166900  1.0  -0.7005
  N  N1614  1  0.630100  0.415500  0.226400  1.0  -0.724
  N  N1615  1  0.646160  0.316730  0.155700  1.0  -0.2964
  N  N1616  1  0.626700  0.340800  0.167100  1.0  -0.1005
  N  N1617  1  0.682600  0.433000  0.288500  1.0  -0.0766
  N  N1618  1  0.643000  0.359200  0.185100  1.0  -0.1586
  N  N1619  1  0.681060  0.900820  0.748110  1.0  -0.2426
  N  N1620  1  0.673170  0.847400  0.689300  1.0  -0.3412
  N  N1621  1  0.653820  0.938360  0.773700  1.0  -0.3816
  N  N1622  1  0.699100  0.912000  0.773000  1.0  -0.0804
  N  N1623  1  0.698700  0.801300  0.666900  1.0  -0.7005
  N  N1624  1  0.630100  0.915500  0.726400  1.0  -0.724
  N  N1625  1  0.646160  0.816730  0.655700  1.0  -0.2964
  N  N1626  1  0.626700  0.840800  0.667100  1.0  -0.1005
  N  N1627  1  0.682600  0.933000  0.788500  1.0  -0.0766
  N  N1628  1  0.643000  0.859200  0.685100  1.0  -0.1586
  N  N1629  1  0.181060  0.400820  0.748110  1.0  -0.2426
  N  N1630  1  0.173170  0.347400  0.689300  1.0  -0.3412
  N  N1631  1  0.153820  0.438360  0.773700  1.0  -0.3816
  N  N1632  1  0.199100  0.412000  0.773000  1.0  -0.0804
  N  N1633  1  0.198700  0.301300  0.666900  1.0  -0.7005
  N  N1634  1  0.130100  0.415500  0.726400  1.0  -0.724
  N  N1635  1  0.146160  0.316730  0.655700  1.0  -0.2964
  N  N1636  1  0.126700  0.340800  0.667100  1.0  -0.1005
  N  N1637  1  0.182600  0.433000  0.788500  1.0  -0.0766
  N  N1638  1  0.143000  0.359200  0.685100  1.0  -0.1586
  N  N1639  1  0.181060  0.900820  0.248110  1.0  -0.2426
  N  N1640  1  0.173170  0.847400  0.189300  1.0  -0.3412
  N  N1641  1  0.153820  0.938360  0.273700  1.0  -0.3816
  N  N1642  1  0.199100  0.912000  0.273000  1.0  -0.0804
  N  N1643  1  0.198700  0.801300  0.166900  1.0  -0.7005
  N  N1644  1  0.130100  0.915500  0.226400  1.0  -0.724
  N  N1645  1  0.146160  0.816730  0.155700  1.0  -0.2964
  N  N1646  1  0.126700  0.840800  0.167100  1.0  -0.1005
  N  N1647  1  0.182600  0.933000  0.288500  1.0  -0.0766
  N  N1648  1  0.143000  0.859200  0.185100  1.0  -0.1586
  N  N1649  1  0.001890  0.681060  0.849180  1.0  -0.2445
  N  N1650  1  0.060700  0.673170  0.902600  1.0  -0.34
  N  N1651  1  0.976300  0.653820  0.811640  1.0  -0.3804
  N  N1652  1  0.977000  0.699100  0.838000  1.0  -0.0833
  N  N1653  1  0.083100  0.698700  0.948700  1.0  -0.703
  N  N1654  1  0.023600  0.630100  0.834500  1.0  -0.7217
  N  N1655  1  0.094300  0.646160  0.933270  1.0  -0.2971
  N  N1656  1  0.082900  0.626700  0.909200  1.0  -0.0969
  N  N1657  1  0.961500  0.682600  0.817000  1.0  -0.0832
  N  N1658  1  0.064900  0.643000  0.890800  1.0  -0.1606
  N  N1659  1  0.001890  0.181060  0.349180  1.0  -0.2445
  N  N1660  1  0.060700  0.173170  0.402600  1.0  -0.34
  N  N1661  1  0.976300  0.153820  0.311640  1.0  -0.3804
  N  N1662  1  0.977000  0.199100  0.338000  1.0  -0.0833
  N  N1663  1  0.083100  0.198700  0.448700  1.0  -0.703
  N  N1664  1  0.023600  0.130100  0.334500  1.0  -0.7217
  N  N1665  1  0.094300  0.146160  0.433270  1.0  -0.2971
  N  N1666  1  0.082900  0.126700  0.409200  1.0  -0.0969
  N  N1667  1  0.961500  0.182600  0.317000  1.0  -0.0832
  N  N1668  1  0.064900  0.143000  0.390800  1.0  -0.1606
  N  N1669  1  0.501890  0.681060  0.349180  1.0  -0.2445
  N  N1670  1  0.560700  0.673170  0.402600  1.0  -0.34
  N  N1671  1  0.476300  0.653820  0.311640  1.0  -0.3804
  N  N1672  1  0.477000  0.699100  0.338000  1.0  -0.0833
  N  N1673  1  0.583100  0.698700  0.448700  1.0  -0.703
  N  N1674  1  0.523600  0.630100  0.334500  1.0  -0.7217
  N  N1675  1  0.594300  0.646160  0.433270  1.0  -0.2971
  N  N1676  1  0.582900  0.626700  0.409200  1.0  -0.0969
  N  N1677  1  0.461500  0.682600  0.317000  1.0  -0.0832
  N  N1678  1  0.564900  0.643000  0.390800  1.0  -0.1606
  N  N1679  1  0.501890  0.181060  0.849180  1.0  -0.2445
  N  N1680  1  0.560700  0.173170  0.902600  1.0  -0.34
  N  N1681  1  0.476300  0.153820  0.811640  1.0  -0.3804
  N  N1682  1  0.477000  0.199100  0.838000  1.0  -0.0833
  N  N1683  1  0.583100  0.198700  0.948700  1.0  -0.703
  N  N1684  1  0.523600  0.130100  0.834500  1.0  -0.7217
  N  N1685  1  0.594300  0.146160  0.933270  1.0  -0.2971
  N  N1686  1  0.582900  0.126700  0.909200  1.0  -0.0969
  N  N1687  1  0.461500  0.182600  0.817000  1.0  -0.0832
  N  N1688  1  0.564900  0.143000  0.890800  1.0  -0.1606
  N  N1689  1  0.001890  0.568940  0.400820  1.0  -0.2436
  N  N1690  1  0.060700  0.576830  0.347400  1.0  -0.3407
  N  N1691  1  0.976300  0.596180  0.438360  1.0  -0.3808
  N  N1692  1  0.977000  0.550900  0.412000  1.0  -0.0809
  N  N1693  1  0.083100  0.551300  0.301300  1.0  -0.7022
  N  N1694  1  0.023600  0.619900  0.415500  1.0  -0.7223
  N  N1695  1  0.094300  0.603840  0.316730  1.0  -0.298
  N  N1696  1  0.082900  0.623300  0.340800  1.0  -0.098
  N  N1697  1  0.961500  0.567400  0.433000  1.0  -0.083
  N  N1698  1  0.064900  0.607000  0.359200  1.0  -0.1599
  N  N1699  1  0.001890  0.068940  0.900820  1.0  -0.2436
  N  N1700  1  0.060700  0.076830  0.847400  1.0  -0.3407
  N  N1701  1  0.976300  0.096180  0.938360  1.0  -0.3808
  N  N1702  1  0.977000  0.050900  0.912000  1.0  -0.0809
  N  N1703  1  0.083100  0.051300  0.801300  1.0  -0.7022
  N  N1704  1  0.023600  0.119900  0.915500  1.0  -0.7223
  N  N1705  1  0.094300  0.103840  0.816730  1.0  -0.298
  N  N1706  1  0.082900  0.123300  0.840800  1.0  -0.098
  N  N1707  1  0.961500  0.067400  0.933000  1.0  -0.083
  N  N1708  1  0.064900  0.107000  0.859200  1.0  -0.1599
  N  N1709  1  0.501890  0.568940  0.900820  1.0  -0.2436
  N  N1710  1  0.560700  0.576830  0.847400  1.0  -0.3407
  N  N1711  1  0.476300  0.596180  0.938360  1.0  -0.3808
  N  N1712  1  0.477000  0.550900  0.912000  1.0  -0.0809
  N  N1713  1  0.583100  0.551300  0.801300  1.0  -0.7022
  N  N1714  1  0.523600  0.619900  0.915500  1.0  -0.7223
  N  N1715  1  0.594300  0.603840  0.816730  1.0  -0.298
  N  N1716  1  0.582900  0.623300  0.840800  1.0  -0.098
  N  N1717  1  0.461500  0.567400  0.933000  1.0  -0.083
  N  N1718  1  0.564900  0.607000  0.859200  1.0  -0.1599
  N  N1719  1  0.501890  0.068940  0.400820  1.0  -0.2436
  N  N1720  1  0.560700  0.076830  0.347400  1.0  -0.3407
  N  N1721  1  0.476300  0.096180  0.438360  1.0  -0.3808
  N  N1722  1  0.477000  0.050900  0.412000  1.0  -0.0809
  N  N1723  1  0.583100  0.051300  0.301300  1.0  -0.7022
  N  N1724  1  0.523600  0.119900  0.415500  1.0  -0.7223
  N  N1725  1  0.594300  0.103840  0.316730  1.0  -0.298
  N  N1726  1  0.582900  0.123300  0.340800  1.0  -0.098
  N  N1727  1  0.461500  0.067400  0.433000  1.0  -0.083
  N  N1728  1  0.564900  0.107000  0.359200  1.0  -0.1599
  N  N1729  1  0.248110  0.568940  0.849180  1.0  -0.2436
  N  N1730  1  0.189300  0.576830  0.902600  1.0  -0.3401
  N  N1731  1  0.273700  0.596180  0.811640  1.0  -0.3801
  N  N1732  1  0.273000  0.550900  0.838000  1.0  -0.0821
  N  N1733  1  0.166900  0.551300  0.948700  1.0  -0.7027
  N  N1734  1  0.226400  0.619900  0.834500  1.0  -0.7234
  N  N1735  1  0.155700  0.603840  0.933270  1.0  -0.2956
  N  N1736  1  0.167100  0.623300  0.909200  1.0  -0.0953
  N  N1737  1  0.288500  0.567400  0.817000  1.0  -0.0805
  N  N1738  1  0.185100  0.607000  0.890800  1.0  -0.1598
  N  N1739  1  0.248110  0.068940  0.349180  1.0  -0.2436
  N  N1740  1  0.189300  0.076830  0.402600  1.0  -0.3401
  N  N1741  1  0.273700  0.096180  0.311640  1.0  -0.3801
  N  N1742  1  0.273000  0.050900  0.338000  1.0  -0.0821
  N  N1743  1  0.166900  0.051300  0.448700  1.0  -0.7027
  N  N1744  1  0.226400  0.119900  0.334500  1.0  -0.7234
  N  N1745  1  0.155700  0.103840  0.433270  1.0  -0.2956
  N  N1746  1  0.167100  0.123300  0.409200  1.0  -0.0953
  N  N1747  1  0.288500  0.067400  0.317000  1.0  -0.0805
  N  N1748  1  0.185100  0.107000  0.390800  1.0  -0.1598
  N  N1749  1  0.748110  0.568940  0.349180  1.0  -0.2436
  N  N1750  1  0.689300  0.576830  0.402600  1.0  -0.3401
  N  N1751  1  0.773700  0.596180  0.311640  1.0  -0.3801
  N  N1752  1  0.773000  0.550900  0.338000  1.0  -0.0821
  N  N1753  1  0.666900  0.551300  0.448700  1.0  -0.7027
  N  N1754  1  0.726400  0.619900  0.334500  1.0  -0.7234
  N  N1755  1  0.655700  0.603840  0.433270  1.0  -0.2956
  N  N1756  1  0.667100  0.623300  0.409200  1.0  -0.0953
  N  N1757  1  0.788500  0.567400  0.317000  1.0  -0.0805
  N  N1758  1  0.685100  0.607000  0.390800  1.0  -0.1598
  N  N1759  1  0.748110  0.068940  0.849180  1.0  -0.2436
  N  N1760  1  0.689300  0.076830  0.902600  1.0  -0.3401
  N  N1761  1  0.773700  0.096180  0.811640  1.0  -0.3801
  N  N1762  1  0.773000  0.050900  0.838000  1.0  -0.0821
  N  N1763  1  0.666900  0.051300  0.948700  1.0  -0.7027
  N  N1764  1  0.726400  0.119900  0.834500  1.0  -0.7234
  N  N1765  1  0.655700  0.103840  0.933270  1.0  -0.2956
  N  N1766  1  0.667100  0.123300  0.909200  1.0  -0.0953
  N  N1767  1  0.788500  0.067400  0.817000  1.0  -0.0805
  N  N1768  1  0.685100  0.107000  0.890800  1.0  -0.1598
  N  N1769  1  0.248110  0.681060  0.400820  1.0  -0.2438
  N  N1770  1  0.189300  0.673170  0.347400  1.0  -0.3407
  N  N1771  1  0.273700  0.653820  0.438360  1.0  -0.3798
  N  N1772  1  0.273000  0.699100  0.412000  1.0  -0.0813
  N  N1773  1  0.166900  0.698700  0.301300  1.0  -0.7033
  N  N1774  1  0.226400  0.630100  0.415500  1.0  -0.7227
  N  N1775  1  0.155700  0.646160  0.316730  1.0  -0.2964
  N  N1776  1  0.167100  0.626700  0.340800  1.0  -0.096
  N  N1777  1  0.288500  0.682600  0.433000  1.0  -0.0814
  N  N1778  1  0.185100  0.643000  0.359200  1.0  -0.1589
  N  N1779  1  0.248110  0.181060  0.900820  1.0  -0.2438
  N  N1780  1  0.189300  0.173170  0.847400  1.0  -0.3407
  N  N1781  1  0.273700  0.153820  0.938360  1.0  -0.3798
  N  N1782  1  0.273000  0.199100  0.912000  1.0  -0.0813
  N  N1783  1  0.166900  0.198700  0.801300  1.0  -0.7033
  N  N1784  1  0.226400  0.130100  0.915500  1.0  -0.7227
  N  N1785  1  0.155700  0.146160  0.816730  1.0  -0.2964
  N  N1786  1  0.167100  0.126700  0.840800  1.0  -0.096
  N  N1787  1  0.288500  0.182600  0.933000  1.0  -0.0814
  N  N1788  1  0.185100  0.143000  0.859200  1.0  -0.1589
  N  N1789  1  0.748110  0.681060  0.900820  1.0  -0.2438
  N  N1790  1  0.689300  0.673170  0.847400  1.0  -0.3407
  N  N1791  1  0.773700  0.653820  0.938360  1.0  -0.3798
  N  N1792  1  0.773000  0.699100  0.912000  1.0  -0.0813
  N  N1793  1  0.666900  0.698700  0.801300  1.0  -0.7033
  N  N1794  1  0.726400  0.630100  0.915500  1.0  -0.7227
  N  N1795  1  0.655700  0.646160  0.816730  1.0  -0.2964
  N  N1796  1  0.667100  0.626700  0.840800  1.0  -0.096
  N  N1797  1  0.788500  0.682600  0.933000  1.0  -0.0814
  N  N1798  1  0.685100  0.643000  0.859200  1.0  -0.1589
  N  N1799  1  0.748110  0.181060  0.400820  1.0  -0.2438
  N  N1800  1  0.689300  0.173170  0.347400  1.0  -0.3407
  N  N1801  1  0.773700  0.153820  0.438360  1.0  -0.3798
  N  N1802  1  0.773000  0.199100  0.412000  1.0  -0.0813
  N  N1803  1  0.666900  0.198700  0.301300  1.0  -0.7033
  N  N1804  1  0.726400  0.130100  0.415500  1.0  -0.7227
  N  N1805  1  0.655700  0.146160  0.316730  1.0  -0.2964
  N  N1806  1  0.667100  0.126700  0.340800  1.0  -0.096
  N  N1807  1  0.788500  0.182600  0.433000  1.0  -0.0814
  N  N1808  1  0.685100  0.143000  0.359200  1.0  -0.1589
  N  N1809  1  0.849180  0.001890  0.681060  1.0  -0.2432
  N  N1810  1  0.902600  0.060700  0.673170  1.0  -0.3398
  N  N1811  1  0.811640  0.976300  0.653820  1.0  -0.3814
  N  N1812  1  0.838000  0.977000  0.699100  1.0  -0.0738
  N  N1813  1  0.948700  0.083100  0.698700  1.0  -0.7012
  N  N1814  1  0.834500  0.023600  0.630100  1.0  -0.7248
  N  N1815  1  0.933270  0.094300  0.646160  1.0  -0.2962
  N  N1816  1  0.909200  0.082900  0.626700  1.0  -0.0966
  N  N1817  1  0.817000  0.961500  0.682600  1.0  -0.08
  N  N1818  1  0.890800  0.064900  0.643000  1.0  -0.159
  N  N1819  1  0.849180  0.501890  0.181060  1.0  -0.2432
  N  N1820  1  0.902600  0.560700  0.173170  1.0  -0.3398
  N  N1821  1  0.811640  0.476300  0.153820  1.0  -0.3814
  N  N1822  1  0.838000  0.477000  0.199100  1.0  -0.0738
  N  N1823  1  0.948700  0.583100  0.198700  1.0  -0.7012
  N  N1824  1  0.834500  0.523600  0.130100  1.0  -0.7248
  N  N1825  1  0.933270  0.594300  0.146160  1.0  -0.2962
  N  N1826  1  0.909200  0.582900  0.126700  1.0  -0.0966
  N  N1827  1  0.817000  0.461500  0.182600  1.0  -0.08
  N  N1828  1  0.890800  0.564900  0.143000  1.0  -0.159
  N  N1829  1  0.349180  0.001890  0.181060  1.0  -0.2432
  N  N1830  1  0.402600  0.060700  0.173170  1.0  -0.3398
  N  N1831  1  0.311640  0.976300  0.153820  1.0  -0.3814
  N  N1832  1  0.338000  0.977000  0.199100  1.0  -0.0738
  N  N1833  1  0.448700  0.083100  0.198700  1.0  -0.7012
  N  N1834  1  0.334500  0.023600  0.130100  1.0  -0.7248
  N  N1835  1  0.433270  0.094300  0.146160  1.0  -0.2962
  N  N1836  1  0.409200  0.082900  0.126700  1.0  -0.0966
  N  N1837  1  0.317000  0.961500  0.182600  1.0  -0.08
  N  N1838  1  0.390800  0.064900  0.143000  1.0  -0.159
  N  N1839  1  0.349180  0.501890  0.681060  1.0  -0.2432
  N  N1840  1  0.402600  0.560700  0.673170  1.0  -0.3398
  N  N1841  1  0.311640  0.476300  0.653820  1.0  -0.3814
  N  N1842  1  0.338000  0.477000  0.699100  1.0  -0.0738
  N  N1843  1  0.448700  0.583100  0.698700  1.0  -0.7012
  N  N1844  1  0.334500  0.523600  0.630100  1.0  -0.7248
  N  N1845  1  0.433270  0.594300  0.646160  1.0  -0.2962
  N  N1846  1  0.409200  0.582900  0.626700  1.0  -0.0966
  N  N1847  1  0.317000  0.461500  0.682600  1.0  -0.08
  N  N1848  1  0.390800  0.564900  0.643000  1.0  -0.159
  N  N1849  1  0.400820  0.001890  0.568940  1.0  -0.2439
  N  N1850  1  0.347400  0.060700  0.576830  1.0  -0.3386
  N  N1851  1  0.438360  0.976300  0.596180  1.0  -0.3826
  N  N1852  1  0.412000  0.977000  0.550900  1.0  -0.0751
  N  N1853  1  0.301300  0.083100  0.551300  1.0  -0.7026
  N  N1854  1  0.415500  0.023600  0.619900  1.0  -0.7275
  N  N1855  1  0.316730  0.094300  0.603840  1.0  -0.2946
  N  N1856  1  0.340800  0.082900  0.623300  1.0  -0.0945
  N  N1857  1  0.433000  0.961500  0.567400  1.0  -0.0796
  N  N1858  1  0.359200  0.064900  0.607000  1.0  -0.1586
  N  N1859  1  0.400820  0.501890  0.068940  1.0  -0.2439
  N  N1860  1  0.347400  0.560700  0.076830  1.0  -0.3386
  N  N1861  1  0.438360  0.476300  0.096180  1.0  -0.3826
  N  N1862  1  0.412000  0.477000  0.050900  1.0  -0.0751
  N  N1863  1  0.301300  0.583100  0.051300  1.0  -0.7026
  N  N1864  1  0.415500  0.523600  0.119900  1.0  -0.7275
  N  N1865  1  0.316730  0.594300  0.103840  1.0  -0.2946
  N  N1866  1  0.340800  0.582900  0.123300  1.0  -0.0945
  N  N1867  1  0.433000  0.461500  0.067400  1.0  -0.0796
  N  N1868  1  0.359200  0.564900  0.107000  1.0  -0.1586
  N  N1869  1  0.900820  0.001890  0.068940  1.0  -0.2439
  N  N1870  1  0.847400  0.060700  0.076830  1.0  -0.3386
  N  N1871  1  0.938360  0.976300  0.096180  1.0  -0.3826
  N  N1872  1  0.912000  0.977000  0.050900  1.0  -0.0751
  N  N1873  1  0.801300  0.083100  0.051300  1.0  -0.7026
  N  N1874  1  0.915500  0.023600  0.119900  1.0  -0.7275
  N  N1875  1  0.816730  0.094300  0.103840  1.0  -0.2946
  N  N1876  1  0.840800  0.082900  0.123300  1.0  -0.0945
  N  N1877  1  0.933000  0.961500  0.067400  1.0  -0.0796
  N  N1878  1  0.859200  0.064900  0.107000  1.0  -0.1586
  N  N1879  1  0.900820  0.501890  0.568940  1.0  -0.2439
  N  N1880  1  0.847400  0.560700  0.576830  1.0  -0.3386
  N  N1881  1  0.938360  0.476300  0.596180  1.0  -0.3826
  N  N1882  1  0.912000  0.477000  0.550900  1.0  -0.0751
  N  N1883  1  0.801300  0.583100  0.551300  1.0  -0.7026
  N  N1884  1  0.915500  0.523600  0.619900  1.0  -0.7275
  N  N1885  1  0.816730  0.594300  0.603840  1.0  -0.2946
  N  N1886  1  0.840800  0.582900  0.623300  1.0  -0.0945
  N  N1887  1  0.933000  0.461500  0.567400  1.0  -0.0796
  N  N1888  1  0.859200  0.564900  0.607000  1.0  -0.1586
  N  N1889  1  0.849180  0.248110  0.568940  1.0  -0.2442
  N  N1890  1  0.902600  0.189300  0.576830  1.0  -0.3383
  N  N1891  1  0.811640  0.273700  0.596180  1.0  -0.381
  N  N1892  1  0.838000  0.273000  0.550900  1.0  -0.0766
  N  N1893  1  0.948700  0.166900  0.551300  1.0  -0.7017
  N  N1894  1  0.834500  0.226400  0.619900  1.0  -0.728
  N  N1895  1  0.933270  0.155700  0.603840  1.0  -0.2968
  N  N1896  1  0.909200  0.167100  0.623300  1.0  -0.0962
  N  N1897  1  0.817000  0.288500  0.567400  1.0  -0.0823
  N  N1898  1  0.890800  0.185100  0.607000  1.0  -0.159
  N  N1899  1  0.849180  0.748110  0.068940  1.0  -0.2442
  N  N1900  1  0.902600  0.689300  0.076830  1.0  -0.3383
  N  N1901  1  0.811640  0.773700  0.096180  1.0  -0.381
  N  N1902  1  0.838000  0.773000  0.050900  1.0  -0.0766
  N  N1903  1  0.948700  0.666900  0.051300  1.0  -0.7017
  N  N1904  1  0.834500  0.726400  0.119900  1.0  -0.728
  N  N1905  1  0.933270  0.655700  0.103840  1.0  -0.2968
  N  N1906  1  0.909200  0.667100  0.123300  1.0  -0.0962
  N  N1907  1  0.817000  0.788500  0.067400  1.0  -0.0823
  N  N1908  1  0.890800  0.685100  0.107000  1.0  -0.159
  N  N1909  1  0.349180  0.248110  0.068940  1.0  -0.2442
  N  N1910  1  0.402600  0.189300  0.076830  1.0  -0.3383
  N  N1911  1  0.311640  0.273700  0.096180  1.0  -0.381
  N  N1912  1  0.338000  0.273000  0.050900  1.0  -0.0766
  N  N1913  1  0.448700  0.166900  0.051300  1.0  -0.7017
  N  N1914  1  0.334500  0.226400  0.119900  1.0  -0.728
  N  N1915  1  0.433270  0.155700  0.103840  1.0  -0.2968
  N  N1916  1  0.409200  0.167100  0.123300  1.0  -0.0962
  N  N1917  1  0.317000  0.288500  0.067400  1.0  -0.0823
  N  N1918  1  0.390800  0.185100  0.107000  1.0  -0.159
  N  N1919  1  0.349180  0.748110  0.568940  1.0  -0.2442
  N  N1920  1  0.402600  0.689300  0.576830  1.0  -0.3383
  N  N1921  1  0.311640  0.773700  0.596180  1.0  -0.381
  N  N1922  1  0.338000  0.773000  0.550900  1.0  -0.0766
  N  N1923  1  0.448700  0.666900  0.551300  1.0  -0.7017
  N  N1924  1  0.334500  0.726400  0.619900  1.0  -0.728
  N  N1925  1  0.433270  0.655700  0.603840  1.0  -0.2968
  N  N1926  1  0.409200  0.667100  0.623300  1.0  -0.0962
  N  N1927  1  0.317000  0.788500  0.567400  1.0  -0.0823
  N  N1928  1  0.390800  0.685100  0.607000  1.0  -0.159
  N  N1929  1  0.400820  0.248110  0.681060  1.0  -0.2445
  N  N1930  1  0.347400  0.189300  0.673170  1.0  -0.3397
  N  N1931  1  0.438360  0.273700  0.653820  1.0  -0.3832
  N  N1932  1  0.412000  0.273000  0.699100  1.0  -0.0756
  N  N1933  1  0.301300  0.166900  0.698700  1.0  -0.7007
  N  N1934  1  0.415500  0.226400  0.630100  1.0  -0.7256
  N  N1935  1  0.316730  0.155700  0.646160  1.0  -0.2945
  N  N1936  1  0.340800  0.167100  0.626700  1.0  -0.0958
  N  N1937  1  0.433000  0.288500  0.682600  1.0  -0.0782
  N  N1938  1  0.359200  0.185100  0.643000  1.0  -0.1592
  N  N1939  1  0.400820  0.748110  0.181060  1.0  -0.2445
  N  N1940  1  0.347400  0.689300  0.173170  1.0  -0.3397
  N  N1941  1  0.438360  0.773700  0.153820  1.0  -0.3832
  N  N1942  1  0.412000  0.773000  0.199100  1.0  -0.0756
  N  N1943  1  0.301300  0.666900  0.198700  1.0  -0.7007
  N  N1944  1  0.415500  0.726400  0.130100  1.0  -0.7256
  N  N1945  1  0.316730  0.655700  0.146160  1.0  -0.2945
  N  N1946  1  0.340800  0.667100  0.126700  1.0  -0.0958
  N  N1947  1  0.433000  0.788500  0.182600  1.0  -0.0782
  N  N1948  1  0.359200  0.685100  0.143000  1.0  -0.1592
  N  N1949  1  0.900820  0.248110  0.181060  1.0  -0.2445
  N  N1950  1  0.847400  0.189300  0.173170  1.0  -0.3397
  N  N1951  1  0.938360  0.273700  0.153820  1.0  -0.3832
  N  N1952  1  0.912000  0.273000  0.199100  1.0  -0.0756
  N  N1953  1  0.801300  0.166900  0.198700  1.0  -0.7007
  N  N1954  1  0.915500  0.226400  0.130100  1.0  -0.7256
  N  N1955  1  0.816730  0.155700  0.146160  1.0  -0.2945
  N  N1956  1  0.840800  0.167100  0.126700  1.0  -0.0958
  N  N1957  1  0.933000  0.288500  0.182600  1.0  -0.0782
  N  N1958  1  0.859200  0.185100  0.143000  1.0  -0.1592
  N  N1959  1  0.900820  0.748110  0.681060  1.0  -0.2445
  N  N1960  1  0.847400  0.689300  0.673170  1.0  -0.3397
  N  N1961  1  0.938360  0.773700  0.653820  1.0  -0.3832
  N  N1962  1  0.912000  0.773000  0.699100  1.0  -0.0756
  N  N1963  1  0.801300  0.666900  0.698700  1.0  -0.7007
  N  N1964  1  0.915500  0.726400  0.630100  1.0  -0.7256
  N  N1965  1  0.816730  0.655700  0.646160  1.0  -0.2945
  N  N1966  1  0.840800  0.667100  0.626700  1.0  -0.0958
  N  N1967  1  0.933000  0.788500  0.682600  1.0  -0.0782
  N  N1968  1  0.859200  0.685100  0.643000  1.0  -0.1592
  N  N1969  1  0.318940  0.150820  0.998110  1.0  -0.2425
  N  N1970  1  0.326830  0.097400  0.939300  1.0  -0.3412
  N  N1971  1  0.346180  0.188360  0.023700  1.0  -0.3823
  N  N1972  1  0.300900  0.162000  0.023000  1.0  -0.0795
  N  N1973  1  0.301300  0.051300  0.916900  1.0  -0.7009
  N  N1974  1  0.369900  0.165500  0.976400  1.0  -0.7234
  N  N1975  1  0.353840  0.066730  0.905700  1.0  -0.2954
  N  N1976  1  0.373300  0.090800  0.917100  1.0  -0.0973
  N  N1977  1  0.317400  0.183000  0.038500  1.0  -0.078
  N  N1978  1  0.357000  0.109200  0.935100  1.0  -0.1612
  N  N1979  1  0.318940  0.650820  0.498110  1.0  -0.2425
  N  N1980  1  0.326830  0.597400  0.439300  1.0  -0.3412
  N  N1981  1  0.346180  0.688360  0.523700  1.0  -0.3823
  N  N1982  1  0.300900  0.662000  0.523000  1.0  -0.0795
  N  N1983  1  0.301300  0.551300  0.416900  1.0  -0.7009
  N  N1984  1  0.369900  0.665500  0.476400  1.0  -0.7234
  N  N1985  1  0.353840  0.566730  0.405700  1.0  -0.2954
  N  N1986  1  0.373300  0.590800  0.417100  1.0  -0.0973
  N  N1987  1  0.317400  0.683000  0.538500  1.0  -0.078
  N  N1988  1  0.357000  0.609200  0.435100  1.0  -0.1612
  N  N1989  1  0.818940  0.150820  0.498110  1.0  -0.2425
  N  N1990  1  0.826830  0.097400  0.439300  1.0  -0.3412
  N  N1991  1  0.846180  0.188360  0.523700  1.0  -0.3823
  N  N1992  1  0.800900  0.162000  0.523000  1.0  -0.0795
  N  N1993  1  0.801300  0.051300  0.416900  1.0  -0.7009
  N  N1994  1  0.869900  0.165500  0.476400  1.0  -0.7234
  N  N1995  1  0.853840  0.066730  0.405700  1.0  -0.2954
  N  N1996  1  0.873300  0.090800  0.417100  1.0  -0.0973
  N  N1997  1  0.817400  0.183000  0.538500  1.0  -0.078
  N  N1998  1  0.857000  0.109200  0.435100  1.0  -0.1612
  N  N1999  1  0.818940  0.650820  0.998110  1.0  -0.2425
  N  N2000  1  0.826830  0.597400  0.939300  1.0  -0.3412
  N  N2001  1  0.846180  0.688360  0.023700  1.0  -0.3823
  N  N2002  1  0.800900  0.662000  0.023000  1.0  -0.0795
  N  N2003  1  0.801300  0.551300  0.916900  1.0  -0.7009
  N  N2004  1  0.869900  0.665500  0.976400  1.0  -0.7234
  N  N2005  1  0.853840  0.566730  0.905700  1.0  -0.2954
  N  N2006  1  0.873300  0.590800  0.917100  1.0  -0.0973
  N  N2007  1  0.817400  0.683000  0.038500  1.0  -0.078
  N  N2008  1  0.857000  0.609200  0.935100  1.0  -0.1612
  N  N2009  1  0.431060  0.599180  0.998110  1.0  -0.2435
  N  N2010  1  0.423170  0.652600  0.939300  1.0  -0.3411
  N  N2011  1  0.403820  0.561640  0.023700  1.0  -0.3806
  N  N2012  1  0.449100  0.588000  0.023000  1.0  -0.0812
  N  N2013  1  0.448700  0.698700  0.916900  1.0  -0.7004
  N  N2014  1  0.380100  0.584500  0.976400  1.0  -0.7237
  N  N2015  1  0.396160  0.683270  0.905700  1.0  -0.2954
  N  N2016  1  0.376700  0.659200  0.917100  1.0  -0.1011
  N  N2017  1  0.432600  0.567000  0.038500  1.0  -0.0767
  N  N2018  1  0.393000  0.640800  0.935100  1.0  -0.1567
  N  N2019  1  0.431060  0.099180  0.498110  1.0  -0.2435
  N  N2020  1  0.423170  0.152600  0.439300  1.0  -0.3411
  N  N2021  1  0.403820  0.061640  0.523700  1.0  -0.3806
  N  N2022  1  0.449100  0.088000  0.523000  1.0  -0.0812
  N  N2023  1  0.448700  0.198700  0.416900  1.0  -0.7004
  N  N2024  1  0.380100  0.084500  0.476400  1.0  -0.7237
  N  N2025  1  0.396160  0.183270  0.405700  1.0  -0.2954
  N  N2026  1  0.376700  0.159200  0.417100  1.0  -0.1011
  N  N2027  1  0.432600  0.067000  0.538500  1.0  -0.0767
  N  N2028  1  0.393000  0.140800  0.435100  1.0  -0.1567
  N  N2029  1  0.931060  0.599180  0.498110  1.0  -0.2435
  N  N2030  1  0.923170  0.652600  0.439300  1.0  -0.3411
  N  N2031  1  0.903820  0.561640  0.523700  1.0  -0.3806
  N  N2032  1  0.949100  0.588000  0.523000  1.0  -0.0812
  N  N2033  1  0.948700  0.698700  0.416900  1.0  -0.7004
  N  N2034  1  0.880100  0.584500  0.476400  1.0  -0.7237
  N  N2035  1  0.896160  0.683270  0.405700  1.0  -0.2954
  N  N2036  1  0.876700  0.659200  0.417100  1.0  -0.1011
  N  N2037  1  0.932600  0.567000  0.538500  1.0  -0.0767
  N  N2038  1  0.893000  0.640800  0.435100  1.0  -0.1567
  N  N2039  1  0.931060  0.099180  0.998110  1.0  -0.2435
  N  N2040  1  0.923170  0.152600  0.939300  1.0  -0.3411
  N  N2041  1  0.903820  0.061640  0.023700  1.0  -0.3806
  N  N2042  1  0.949100  0.088000  0.023000  1.0  -0.0812
  N  N2043  1  0.948700  0.198700  0.916900  1.0  -0.7004
  N  N2044  1  0.880100  0.084500  0.976400  1.0  -0.7237
  N  N2045  1  0.896160  0.183270  0.905700  1.0  -0.2954
  N  N2046  1  0.876700  0.159200  0.917100  1.0  -0.1011
  N  N2047  1  0.932600  0.067000  0.038500  1.0  -0.0767
  N  N2048  1  0.893000  0.140800  0.935100  1.0  -0.1567
  N  N2049  1  0.431060  0.150820  0.751890  1.0  -0.2427
  N  N2050  1  0.423170  0.097400  0.810700  1.0  -0.3408
  N  N2051  1  0.403820  0.188360  0.726300  1.0  -0.3811
  N  N2052  1  0.449100  0.162000  0.727000  1.0  -0.0804
  N  N2053  1  0.448700  0.051300  0.833100  1.0  -0.7001
  N  N2054  1  0.380100  0.165500  0.773600  1.0  -0.7254
  N  N2055  1  0.396160  0.066730  0.844300  1.0  -0.2959
  N  N2056  1  0.376700  0.090800  0.832900  1.0  -0.1006
  N  N2057  1  0.432600  0.183000  0.711500  1.0  -0.0767
  N  N2058  1  0.393000  0.109200  0.814900  1.0  -0.1576
  N  N2059  1  0.431060  0.650820  0.251890  1.0  -0.2427
  N  N2060  1  0.423170  0.597400  0.310700  1.0  -0.3408
  N  N2061  1  0.403820  0.688360  0.226300  1.0  -0.3811
  N  N2062  1  0.449100  0.662000  0.227000  1.0  -0.0804
  N  N2063  1  0.448700  0.551300  0.333100  1.0  -0.7001
  N  N2064  1  0.380100  0.665500  0.273600  1.0  -0.7254
  N  N2065  1  0.396160  0.566730  0.344300  1.0  -0.2959
  N  N2066  1  0.376700  0.590800  0.332900  1.0  -0.1006
  N  N2067  1  0.432600  0.683000  0.211500  1.0  -0.0767
  N  N2068  1  0.393000  0.609200  0.314900  1.0  -0.1576
  N  N2069  1  0.931060  0.150820  0.251890  1.0  -0.2427
  N  N2070  1  0.923170  0.097400  0.310700  1.0  -0.3408
  N  N2071  1  0.903820  0.188360  0.226300  1.0  -0.3811
  N  N2072  1  0.949100  0.162000  0.227000  1.0  -0.0804
  N  N2073  1  0.948700  0.051300  0.333100  1.0  -0.7001
  N  N2074  1  0.880100  0.165500  0.273600  1.0  -0.7254
  N  N2075  1  0.896160  0.066730  0.344300  1.0  -0.2959
  N  N2076  1  0.876700  0.090800  0.332900  1.0  -0.1006
  N  N2077  1  0.932600  0.183000  0.211500  1.0  -0.0767
  N  N2078  1  0.893000  0.109200  0.314900  1.0  -0.1576
  N  N2079  1  0.931060  0.650820  0.751890  1.0  -0.2427
  N  N2080  1  0.923170  0.597400  0.810700  1.0  -0.3408
  N  N2081  1  0.903820  0.688360  0.726300  1.0  -0.3811
  N  N2082  1  0.949100  0.662000  0.727000  1.0  -0.0804
  N  N2083  1  0.948700  0.551300  0.833100  1.0  -0.7001
  N  N2084  1  0.880100  0.665500  0.773600  1.0  -0.7254
  N  N2085  1  0.896160  0.566730  0.844300  1.0  -0.2959
  N  N2086  1  0.876700  0.590800  0.832900  1.0  -0.1006
  N  N2087  1  0.932600  0.683000  0.711500  1.0  -0.0767
  N  N2088  1  0.893000  0.609200  0.814900  1.0  -0.1576
  N  N2089  1  0.318940  0.599180  0.751890  1.0  -0.2429
  N  N2090  1  0.326830  0.652600  0.810700  1.0  -0.3407
  N  N2091  1  0.346180  0.561640  0.726300  1.0  -0.3803
  N  N2092  1  0.300900  0.588000  0.727000  1.0  -0.0803
  N  N2093  1  0.301300  0.698700  0.833100  1.0  -0.7014
  N  N2094  1  0.369900  0.584500  0.773600  1.0  -0.7243
  N  N2095  1  0.353840  0.683270  0.844300  1.0  -0.2942
  N  N2096  1  0.373300  0.659200  0.832900  1.0  -0.0974
  N  N2097  1  0.317400  0.567000  0.711500  1.0  -0.079
  N  N2098  1  0.357000  0.640800  0.814900  1.0  -0.1601
  N  N2099  1  0.318940  0.099180  0.251890  1.0  -0.2429
  N  N2100  1  0.326830  0.152600  0.310700  1.0  -0.3407
  N  N2101  1  0.346180  0.061640  0.226300  1.0  -0.3803
  N  N2102  1  0.300900  0.088000  0.227000  1.0  -0.0803
  N  N2103  1  0.301300  0.198700  0.333100  1.0  -0.7014
  N  N2104  1  0.369900  0.084500  0.273600  1.0  -0.7243
  N  N2105  1  0.353840  0.183270  0.344300  1.0  -0.2942
  N  N2106  1  0.373300  0.159200  0.332900  1.0  -0.0974
  N  N2107  1  0.317400  0.067000  0.211500  1.0  -0.079
  N  N2108  1  0.357000  0.140800  0.314900  1.0  -0.1601
  N  N2109  1  0.818940  0.599180  0.251890  1.0  -0.2429
  N  N2110  1  0.826830  0.652600  0.310700  1.0  -0.3407
  N  N2111  1  0.846180  0.561640  0.226300  1.0  -0.3803
  N  N2112  1  0.800900  0.588000  0.227000  1.0  -0.0803
  N  N2113  1  0.801300  0.698700  0.333100  1.0  -0.7014
  N  N2114  1  0.869900  0.584500  0.273600  1.0  -0.7243
  N  N2115  1  0.853840  0.683270  0.344300  1.0  -0.2942
  N  N2116  1  0.873300  0.659200  0.332900  1.0  -0.0974
  N  N2117  1  0.817400  0.567000  0.211500  1.0  -0.079
  N  N2118  1  0.857000  0.640800  0.314900  1.0  -0.1601
  N  N2119  1  0.818940  0.099180  0.751890  1.0  -0.2429
  N  N2120  1  0.826830  0.152600  0.810700  1.0  -0.3407
  N  N2121  1  0.846180  0.061640  0.726300  1.0  -0.3803
  N  N2122  1  0.800900  0.088000  0.727000  1.0  -0.0803
  N  N2123  1  0.801300  0.198700  0.833100  1.0  -0.7014
  N  N2124  1  0.869900  0.084500  0.773600  1.0  -0.7243
  N  N2125  1  0.853840  0.183270  0.844300  1.0  -0.2942
  N  N2126  1  0.873300  0.159200  0.832900  1.0  -0.0974
  N  N2127  1  0.817400  0.067000  0.711500  1.0  -0.079
  N  N2128  1  0.857000  0.140800  0.814900  1.0  -0.1601
  N  N2129  1  0.998110  0.318940  0.150820  1.0  -0.2435
  N  N2130  1  0.939300  0.326830  0.097400  1.0  -0.3408
  N  N2131  1  0.023700  0.346180  0.188360  1.0  -0.3799
  N  N2132  1  0.023000  0.300900  0.162000  1.0  -0.0814
  N  N2133  1  0.916900  0.301300  0.051300  1.0  -0.702
  N  N2134  1  0.976400  0.369900  0.165500  1.0  -0.7231
  N  N2135  1  0.905700  0.353840  0.066730  1.0  -0.2962
  N  N2136  1  0.917100  0.373300  0.090800  1.0  -0.0956
  N  N2137  1  0.038500  0.317400  0.183000  1.0  -0.0806
  N  N2138  1  0.935100  0.357000  0.109200  1.0  -0.1591
  N  N2139  1  0.998110  0.818940  0.650820  1.0  -0.2435
  N  N2140  1  0.939300  0.826830  0.597400  1.0  -0.3408
  N  N2141  1  0.023700  0.846180  0.688360  1.0  -0.3799
  N  N2142  1  0.023000  0.800900  0.662000  1.0  -0.0814
  N  N2143  1  0.916900  0.801300  0.551300  1.0  -0.702
  N  N2144  1  0.976400  0.869900  0.665500  1.0  -0.7231
  N  N2145  1  0.905700  0.853840  0.566730  1.0  -0.2962
  N  N2146  1  0.917100  0.873300  0.590800  1.0  -0.0956
  N  N2147  1  0.038500  0.817400  0.683000  1.0  -0.0806
  N  N2148  1  0.935100  0.857000  0.609200  1.0  -0.1591
  N  N2149  1  0.498110  0.318940  0.650820  1.0  -0.2435
  N  N2150  1  0.439300  0.326830  0.597400  1.0  -0.3408
  N  N2151  1  0.523700  0.346180  0.688360  1.0  -0.3799
  N  N2152  1  0.523000  0.300900  0.662000  1.0  -0.0814
  N  N2153  1  0.416900  0.301300  0.551300  1.0  -0.702
  N  N2154  1  0.476400  0.369900  0.665500  1.0  -0.7231
  N  N2155  1  0.405700  0.353840  0.566730  1.0  -0.2962
  N  N2156  1  0.417100  0.373300  0.590800  1.0  -0.0956
  N  N2157  1  0.538500  0.317400  0.683000  1.0  -0.0806
  N  N2158  1  0.435100  0.357000  0.609200  1.0  -0.1591
  N  N2159  1  0.498110  0.818940  0.150820  1.0  -0.2435
  N  N2160  1  0.439300  0.826830  0.097400  1.0  -0.3408
  N  N2161  1  0.523700  0.846180  0.188360  1.0  -0.3799
  N  N2162  1  0.523000  0.800900  0.162000  1.0  -0.0814
  N  N2163  1  0.416900  0.801300  0.051300  1.0  -0.702
  N  N2164  1  0.476400  0.869900  0.165500  1.0  -0.7231
  N  N2165  1  0.405700  0.853840  0.066730  1.0  -0.2962
  N  N2166  1  0.417100  0.873300  0.090800  1.0  -0.0956
  N  N2167  1  0.538500  0.817400  0.183000  1.0  -0.0806
  N  N2168  1  0.435100  0.857000  0.109200  1.0  -0.1591
  N  N2169  1  0.998110  0.431060  0.599180  1.0  -0.2443
  N  N2170  1  0.939300  0.423170  0.652600  1.0  -0.3403
  N  N2171  1  0.023700  0.403820  0.561640  1.0  -0.3802
  N  N2172  1  0.023000  0.449100  0.588000  1.0  -0.0814
  N  N2173  1  0.916900  0.448700  0.698700  1.0  -0.7036
  N  N2174  1  0.976400  0.380100  0.584500  1.0  -0.7228
  N  N2175  1  0.905700  0.396160  0.683270  1.0  -0.2957
  N  N2176  1  0.917100  0.376700  0.659200  1.0  -0.096
  N  N2177  1  0.038500  0.432600  0.567000  1.0  -0.0813
  N  N2178  1  0.935100  0.393000  0.640800  1.0  -0.1602
  N  N2179  1  0.998110  0.931060  0.099180  1.0  -0.2443
  N  N2180  1  0.939300  0.923170  0.152600  1.0  -0.3403
  N  N2181  1  0.023700  0.903820  0.061640  1.0  -0.3802
  N  N2182  1  0.023000  0.949100  0.088000  1.0  -0.0814
  N  N2183  1  0.916900  0.948700  0.198700  1.0  -0.7036
  N  N2184  1  0.976400  0.880100  0.084500  1.0  -0.7228
  N  N2185  1  0.905700  0.896160  0.183270  1.0  -0.2957
  N  N2186  1  0.917100  0.876700  0.159200  1.0  -0.096
  N  N2187  1  0.038500  0.932600  0.067000  1.0  -0.0813
  N  N2188  1  0.935100  0.893000  0.140800  1.0  -0.1602
  N  N2189  1  0.498110  0.431060  0.099180  1.0  -0.2443
  N  N2190  1  0.439300  0.423170  0.152600  1.0  -0.3403
  N  N2191  1  0.523700  0.403820  0.061640  1.0  -0.3802
  N  N2192  1  0.523000  0.449100  0.088000  1.0  -0.0814
  N  N2193  1  0.416900  0.448700  0.198700  1.0  -0.7036
  N  N2194  1  0.476400  0.380100  0.084500  1.0  -0.7228
  N  N2195  1  0.405700  0.396160  0.183270  1.0  -0.2957
  N  N2196  1  0.417100  0.376700  0.159200  1.0  -0.096
  N  N2197  1  0.538500  0.432600  0.067000  1.0  -0.0813
  N  N2198  1  0.435100  0.393000  0.140800  1.0  -0.1602
  N  N2199  1  0.498110  0.931060  0.599180  1.0  -0.2443
  N  N2200  1  0.439300  0.923170  0.652600  1.0  -0.3403
  N  N2201  1  0.523700  0.903820  0.561640  1.0  -0.3802
  N  N2202  1  0.523000  0.949100  0.588000  1.0  -0.0814
  N  N2203  1  0.416900  0.948700  0.698700  1.0  -0.7036
  N  N2204  1  0.476400  0.880100  0.584500  1.0  -0.7228
  N  N2205  1  0.405700  0.896160  0.683270  1.0  -0.2957
  N  N2206  1  0.417100  0.876700  0.659200  1.0  -0.096
  N  N2207  1  0.538500  0.932600  0.567000  1.0  -0.0813
  N  N2208  1  0.435100  0.893000  0.640800  1.0  -0.1602
  N  N2209  1  0.751890  0.431060  0.150820  1.0  -0.2443
  N  N2210  1  0.810700  0.423170  0.097400  1.0  -0.3405
  N  N2211  1  0.726300  0.403820  0.188360  1.0  -0.3798
  N  N2212  1  0.727000  0.449100  0.162000  1.0  -0.083
  N  N2213  1  0.833100  0.448700  0.051300  1.0  -0.7032
  N  N2214  1  0.773600  0.380100  0.165500  1.0  -0.7215
  N  N2215  1  0.844300  0.396160  0.066730  1.0  -0.2979
  N  N2216  1  0.832900  0.376700  0.090800  1.0  -0.097
  N  N2217  1  0.711500  0.432600  0.183000  1.0  -0.0834
  N  N2218  1  0.814900  0.393000  0.109200  1.0  -0.1596
  N  N2219  1  0.751890  0.931060  0.650820  1.0  -0.2443
  N  N2220  1  0.810700  0.923170  0.597400  1.0  -0.3405
  N  N2221  1  0.726300  0.903820  0.688360  1.0  -0.3798
  N  N2222  1  0.727000  0.949100  0.662000  1.0  -0.083
  N  N2223  1  0.833100  0.948700  0.551300  1.0  -0.7032
  N  N2224  1  0.773600  0.880100  0.665500  1.0  -0.7215
  N  N2225  1  0.844300  0.896160  0.566730  1.0  -0.2979
  N  N2226  1  0.832900  0.876700  0.590800  1.0  -0.097
  N  N2227  1  0.711500  0.932600  0.683000  1.0  -0.0834
  N  N2228  1  0.814900  0.893000  0.609200  1.0  -0.1596
  N  N2229  1  0.251890  0.431060  0.650820  1.0  -0.2443
  N  N2230  1  0.310700  0.423170  0.597400  1.0  -0.3405
  N  N2231  1  0.226300  0.403820  0.688360  1.0  -0.3798
  N  N2232  1  0.227000  0.449100  0.662000  1.0  -0.083
  N  N2233  1  0.333100  0.448700  0.551300  1.0  -0.7032
  N  N2234  1  0.273600  0.380100  0.665500  1.0  -0.7215
  N  N2235  1  0.344300  0.396160  0.566730  1.0  -0.2979
  N  N2236  1  0.332900  0.376700  0.590800  1.0  -0.097
  N  N2237  1  0.211500  0.432600  0.683000  1.0  -0.0834
  N  N2238  1  0.314900  0.393000  0.609200  1.0  -0.1596
  N  N2239  1  0.251890  0.931060  0.150820  1.0  -0.2443
  N  N2240  1  0.310700  0.923170  0.097400  1.0  -0.3405
  N  N2241  1  0.226300  0.903820  0.188360  1.0  -0.3798
  N  N2242  1  0.227000  0.949100  0.162000  1.0  -0.083
  N  N2243  1  0.333100  0.948700  0.051300  1.0  -0.7032
  N  N2244  1  0.273600  0.880100  0.165500  1.0  -0.7215
  N  N2245  1  0.344300  0.896160  0.066730  1.0  -0.2979
  N  N2246  1  0.332900  0.876700  0.090800  1.0  -0.097
  N  N2247  1  0.211500  0.932600  0.183000  1.0  -0.0834
  N  N2248  1  0.314900  0.893000  0.109200  1.0  -0.1596
  N  N2249  1  0.751890  0.318940  0.599180  1.0  -0.2431
  N  N2250  1  0.810700  0.326830  0.652600  1.0  -0.3402
  N  N2251  1  0.726300  0.346180  0.561640  1.0  -0.3809
  N  N2252  1  0.727000  0.300900  0.588000  1.0  -0.0808
  N  N2253  1  0.833100  0.301300  0.698700  1.0  -0.7023
  N  N2254  1  0.773600  0.369900  0.584500  1.0  -0.7227
  N  N2255  1  0.844300  0.353840  0.683270  1.0  -0.2968
  N  N2256  1  0.832900  0.373300  0.659200  1.0  -0.097
  N  N2257  1  0.711500  0.317400  0.567000  1.0  -0.0825
  N  N2258  1  0.814900  0.357000  0.640800  1.0  -0.1601
  N  N2259  1  0.751890  0.818940  0.099180  1.0  -0.2431
  N  N2260  1  0.810700  0.826830  0.152600  1.0  -0.3402
  N  N2261  1  0.726300  0.846180  0.061640  1.0  -0.3809
  N  N2262  1  0.727000  0.800900  0.088000  1.0  -0.0808
  N  N2263  1  0.833100  0.801300  0.198700  1.0  -0.7023
  N  N2264  1  0.773600  0.869900  0.084500  1.0  -0.7227
  N  N2265  1  0.844300  0.853840  0.183270  1.0  -0.2968
  N  N2266  1  0.832900  0.873300  0.159200  1.0  -0.097
  N  N2267  1  0.711500  0.817400  0.067000  1.0  -0.0825
  N  N2268  1  0.814900  0.857000  0.140800  1.0  -0.1601
  N  N2269  1  0.251890  0.318940  0.099180  1.0  -0.2431
  N  N2270  1  0.310700  0.326830  0.152600  1.0  -0.3402
  N  N2271  1  0.226300  0.346180  0.061640  1.0  -0.3809
  N  N2272  1  0.227000  0.300900  0.088000  1.0  -0.0808
  N  N2273  1  0.333100  0.301300  0.198700  1.0  -0.7023
  N  N2274  1  0.273600  0.369900  0.084500  1.0  -0.7227
  N  N2275  1  0.344300  0.353840  0.183270  1.0  -0.2968
  N  N2276  1  0.332900  0.373300  0.159200  1.0  -0.097
  N  N2277  1  0.211500  0.317400  0.067000  1.0  -0.0825
  N  N2278  1  0.314900  0.357000  0.140800  1.0  -0.1601
  N  N2279  1  0.251890  0.818940  0.599180  1.0  -0.2431
  N  N2280  1  0.310700  0.826830  0.652600  1.0  -0.3402
  N  N2281  1  0.226300  0.846180  0.561640  1.0  -0.3809
  N  N2282  1  0.227000  0.800900  0.588000  1.0  -0.0808
  N  N2283  1  0.333100  0.801300  0.698700  1.0  -0.7023
  N  N2284  1  0.273600  0.869900  0.584500  1.0  -0.7227
  N  N2285  1  0.344300  0.853840  0.683270  1.0  -0.2968
  N  N2286  1  0.332900  0.873300  0.659200  1.0  -0.097
  N  N2287  1  0.211500  0.817400  0.567000  1.0  -0.0825
  N  N2288  1  0.314900  0.857000  0.640800  1.0  -0.1601
  N  N2289  1  0.150820  0.998110  0.318940  1.0  -0.2442
  N  N2290  1  0.097400  0.939300  0.326830  1.0  -0.3387
  N  N2291  1  0.188360  0.023700  0.346180  1.0  -0.3823
  N  N2292  1  0.162000  0.023000  0.300900  1.0  -0.0773
  N  N2293  1  0.051300  0.916900  0.301300  1.0  -0.7023
  N  N2294  1  0.165500  0.976400  0.369900  1.0  -0.7278
  N  N2295  1  0.066730  0.905700  0.353840  1.0  -0.2946
  N  N2296  1  0.090800  0.917100  0.373300  1.0  -0.094
  N  N2297  1  0.183000  0.038500  0.317400  1.0  -0.0815
  N  N2298  1  0.109200  0.935100  0.357000  1.0  -0.1587
  N  N2299  1  0.150820  0.498110  0.818940  1.0  -0.2442
  N  N2300  1  0.097400  0.439300  0.826830  1.0  -0.3387
  N  N2301  1  0.188360  0.523700  0.846180  1.0  -0.3823
  N  N2302  1  0.162000  0.523000  0.800900  1.0  -0.0773
  N  N2303  1  0.051300  0.416900  0.801300  1.0  -0.7023
  N  N2304  1  0.165500  0.476400  0.869900  1.0  -0.7278
  N  N2305  1  0.066730  0.405700  0.853840  1.0  -0.2946
  N  N2306  1  0.090800  0.417100  0.873300  1.0  -0.094
  N  N2307  1  0.183000  0.538500  0.817400  1.0  -0.0815
  N  N2308  1  0.109200  0.435100  0.857000  1.0  -0.1587
  N  N2309  1  0.650820  0.998110  0.818940  1.0  -0.2442
  N  N2310  1  0.597400  0.939300  0.826830  1.0  -0.3387
  N  N2311  1  0.688360  0.023700  0.846180  1.0  -0.3823
  N  N2312  1  0.662000  0.023000  0.800900  1.0  -0.0773
  N  N2313  1  0.551300  0.916900  0.801300  1.0  -0.7023
  N  N2314  1  0.665500  0.976400  0.869900  1.0  -0.7278
  N  N2315  1  0.566730  0.905700  0.853840  1.0  -0.2946
  N  N2316  1  0.590800  0.917100  0.873300  1.0  -0.094
  N  N2317  1  0.683000  0.038500  0.817400  1.0  -0.0815
  N  N2318  1  0.609200  0.935100  0.857000  1.0  -0.1587
  N  N2319  1  0.650820  0.498110  0.318940  1.0  -0.2442
  N  N2320  1  0.597400  0.439300  0.326830  1.0  -0.3387
  N  N2321  1  0.688360  0.523700  0.346180  1.0  -0.3823
  N  N2322  1  0.662000  0.523000  0.300900  1.0  -0.0773
  N  N2323  1  0.551300  0.416900  0.301300  1.0  -0.7023
  N  N2324  1  0.665500  0.476400  0.369900  1.0  -0.7278
  N  N2325  1  0.566730  0.405700  0.353840  1.0  -0.2946
  N  N2326  1  0.590800  0.417100  0.373300  1.0  -0.094
  N  N2327  1  0.683000  0.538500  0.317400  1.0  -0.0815
  N  N2328  1  0.609200  0.435100  0.357000  1.0  -0.1587
  N  N2329  1  0.599180  0.998110  0.431060  1.0  -0.2437
  N  N2330  1  0.652600  0.939300  0.423170  1.0  -0.3397
  N  N2331  1  0.561640  0.023700  0.403820  1.0  -0.3813
  N  N2332  1  0.588000  0.023000  0.449100  1.0  -0.0741
  N  N2333  1  0.698700  0.916900  0.448700  1.0  -0.7004
  N  N2334  1  0.584500  0.976400  0.380100  1.0  -0.7259
  N  N2335  1  0.683270  0.905700  0.396160  1.0  -0.2966
  N  N2336  1  0.659200  0.917100  0.376700  1.0  -0.0964
  N  N2337  1  0.567000  0.038500  0.432600  1.0  -0.0799
  N  N2338  1  0.640800  0.935100  0.393000  1.0  -0.1577
  N  N2339  1  0.599180  0.498110  0.931060  1.0  -0.2437
  N  N2340  1  0.652600  0.439300  0.923170  1.0  -0.3397
  N  N2341  1  0.561640  0.523700  0.903820  1.0  -0.3813
  N  N2342  1  0.588000  0.523000  0.949100  1.0  -0.0741
  N  N2343  1  0.698700  0.416900  0.948700  1.0  -0.7004
  N  N2344  1  0.584500  0.476400  0.880100  1.0  -0.7259
  N  N2345  1  0.683270  0.405700  0.896160  1.0  -0.2966
  N  N2346  1  0.659200  0.417100  0.876700  1.0  -0.0964
  N  N2347  1  0.567000  0.538500  0.932600  1.0  -0.0799
  N  N2348  1  0.640800  0.435100  0.893000  1.0  -0.1577
  N  N2349  1  0.099180  0.998110  0.931060  1.0  -0.2437
  N  N2350  1  0.152600  0.939300  0.923170  1.0  -0.3397
  N  N2351  1  0.061640  0.023700  0.903820  1.0  -0.3813
  N  N2352  1  0.088000  0.023000  0.949100  1.0  -0.0741
  N  N2353  1  0.198700  0.916900  0.948700  1.0  -0.7004
  N  N2354  1  0.084500  0.976400  0.880100  1.0  -0.7259
  N  N2355  1  0.183270  0.905700  0.896160  1.0  -0.2966
  N  N2356  1  0.159200  0.917100  0.876700  1.0  -0.0964
  N  N2357  1  0.067000  0.038500  0.932600  1.0  -0.0799
  N  N2358  1  0.140800  0.935100  0.893000  1.0  -0.1577
  N  N2359  1  0.099180  0.498110  0.431060  1.0  -0.2437
  N  N2360  1  0.152600  0.439300  0.423170  1.0  -0.3397
  N  N2361  1  0.061640  0.523700  0.403820  1.0  -0.3813
  N  N2362  1  0.088000  0.523000  0.449100  1.0  -0.0741
  N  N2363  1  0.198700  0.416900  0.448700  1.0  -0.7004
  N  N2364  1  0.084500  0.476400  0.380100  1.0  -0.7259
  N  N2365  1  0.183270  0.405700  0.396160  1.0  -0.2966
  N  N2366  1  0.159200  0.417100  0.376700  1.0  -0.0964
  N  N2367  1  0.067000  0.538500  0.432600  1.0  -0.0799
  N  N2368  1  0.140800  0.435100  0.393000  1.0  -0.1577
  N  N2369  1  0.150820  0.751890  0.431060  1.0  -0.2442
  N  N2370  1  0.097400  0.810700  0.423170  1.0  -0.3397
  N  N2371  1  0.188360  0.726300  0.403820  1.0  -0.3831
  N  N2372  1  0.162000  0.727000  0.449100  1.0  -0.0745
  N  N2373  1  0.051300  0.833100  0.448700  1.0  -0.7017
  N  N2374  1  0.165500  0.773600  0.380100  1.0  -0.7246
  N  N2375  1  0.066730  0.844300  0.396160  1.0  -0.2939
  N  N2376  1  0.090800  0.832900  0.376700  1.0  -0.0958
  N  N2377  1  0.183000  0.711500  0.432600  1.0  -0.0785
  N  N2378  1  0.109200  0.814900  0.393000  1.0  -0.1599
  N  N2379  1  0.150820  0.251890  0.931060  1.0  -0.2442
  N  N2380  1  0.097400  0.310700  0.923170  1.0  -0.3397
  N  N2381  1  0.188360  0.226300  0.903820  1.0  -0.3831
  N  N2382  1  0.162000  0.227000  0.949100  1.0  -0.0745
  N  N2383  1  0.051300  0.333100  0.948700  1.0  -0.7017
  N  N2384  1  0.165500  0.273600  0.880100  1.0  -0.7246
  N  N2385  1  0.066730  0.344300  0.896160  1.0  -0.2939
  N  N2386  1  0.090800  0.332900  0.876700  1.0  -0.0958
  N  N2387  1  0.183000  0.211500  0.932600  1.0  -0.0785
  N  N2388  1  0.109200  0.314900  0.893000  1.0  -0.1599
  N  N2389  1  0.650820  0.751890  0.931060  1.0  -0.2442
  N  N2390  1  0.597400  0.810700  0.923170  1.0  -0.3397
  N  N2391  1  0.688360  0.726300  0.903820  1.0  -0.3831
  N  N2392  1  0.662000  0.727000  0.949100  1.0  -0.0745
  N  N2393  1  0.551300  0.833100  0.948700  1.0  -0.7017
  N  N2394  1  0.665500  0.773600  0.880100  1.0  -0.7246
  N  N2395  1  0.566730  0.844300  0.896160  1.0  -0.2939
  N  N2396  1  0.590800  0.832900  0.876700  1.0  -0.0958
  N  N2397  1  0.683000  0.711500  0.932600  1.0  -0.0785
  N  N2398  1  0.609200  0.814900  0.893000  1.0  -0.1599
  N  N2399  1  0.650820  0.251890  0.431060  1.0  -0.2442
  N  N2400  1  0.597400  0.310700  0.423170  1.0  -0.3397
  N  N2401  1  0.688360  0.226300  0.403820  1.0  -0.3831
  N  N2402  1  0.662000  0.227000  0.449100  1.0  -0.0745
  N  N2403  1  0.551300  0.333100  0.448700  1.0  -0.7017
  N  N2404  1  0.665500  0.273600  0.380100  1.0  -0.7246
  N  N2405  1  0.566730  0.344300  0.396160  1.0  -0.2939
  N  N2406  1  0.590800  0.332900  0.376700  1.0  -0.0958
  N  N2407  1  0.683000  0.211500  0.432600  1.0  -0.0785
  N  N2408  1  0.609200  0.314900  0.393000  1.0  -0.1599
  N  N2409  1  0.599180  0.751890  0.318940  1.0  -0.2439
  N  N2410  1  0.652600  0.810700  0.326830  1.0  -0.3384
  N  N2411  1  0.561640  0.726300  0.346180  1.0  -0.3817
  N  N2412  1  0.588000  0.727000  0.300900  1.0  -0.0745
  N  N2413  1  0.698700  0.833100  0.301300  1.0  -0.7018
  N  N2414  1  0.584500  0.773600  0.369900  1.0  -0.7275
  N  N2415  1  0.683270  0.844300  0.353840  1.0  -0.2969
  N  N2416  1  0.659200  0.832900  0.373300  1.0  -0.0971
  N  N2417  1  0.567000  0.711500  0.317400  1.0  -0.0809
  N  N2418  1  0.640800  0.814900  0.357000  1.0  -0.1596
  N  N2419  1  0.599180  0.251890  0.818940  1.0  -0.2439
  N  N2420  1  0.652600  0.310700  0.826830  1.0  -0.3384
  N  N2421  1  0.561640  0.226300  0.846180  1.0  -0.3817
  N  N2422  1  0.588000  0.227000  0.800900  1.0  -0.0745
  N  N2423  1  0.698700  0.333100  0.801300  1.0  -0.7018
  N  N2424  1  0.584500  0.273600  0.869900  1.0  -0.7275
  N  N2425  1  0.683270  0.344300  0.853840  1.0  -0.2969
  N  N2426  1  0.659200  0.332900  0.873300  1.0  -0.0971
  N  N2427  1  0.567000  0.211500  0.817400  1.0  -0.0809
  N  N2428  1  0.640800  0.314900  0.857000  1.0  -0.1596
  N  N2429  1  0.099180  0.751890  0.818940  1.0  -0.2439
  N  N2430  1  0.152600  0.810700  0.826830  1.0  -0.3384
  N  N2431  1  0.061640  0.726300  0.846180  1.0  -0.3817
  N  N2432  1  0.088000  0.727000  0.800900  1.0  -0.0745
  N  N2433  1  0.198700  0.833100  0.801300  1.0  -0.7018
  N  N2434  1  0.084500  0.773600  0.869900  1.0  -0.7275
  N  N2435  1  0.183270  0.844300  0.853840  1.0  -0.2969
  N  N2436  1  0.159200  0.832900  0.873300  1.0  -0.0971
  N  N2437  1  0.067000  0.711500  0.817400  1.0  -0.0809
  N  N2438  1  0.140800  0.814900  0.857000  1.0  -0.1596
  N  N2439  1  0.099180  0.251890  0.318940  1.0  -0.2439
  N  N2440  1  0.152600  0.310700  0.326830  1.0  -0.3384
  N  N2441  1  0.061640  0.226300  0.346180  1.0  -0.3817
  N  N2442  1  0.088000  0.227000  0.300900  1.0  -0.0745
  N  N2443  1  0.198700  0.333100  0.301300  1.0  -0.7018
  N  N2444  1  0.084500  0.273600  0.369900  1.0  -0.7275
  N  N2445  1  0.183270  0.344300  0.353840  1.0  -0.2969
  N  N2446  1  0.159200  0.332900  0.373300  1.0  -0.0971
  N  N2447  1  0.067000  0.211500  0.317400  1.0  -0.0809
  N  N2448  1  0.140800  0.314900  0.357000  1.0  -0.1596
  O  O2449  1  0.726740  0.908170  0.006060  1.0  -0.5853
  O  O2450  1  0.756350  0.924340  0.047670  1.0  -0.4867
  O  O2451  1  0.602600  0.992200  0.096400  1.0  -0.6013
  O  O2452  1  0.560500  0.003100  0.127900  1.0  -0.4892
  O  O2453  1  0.726740  0.408170  0.506060  1.0  -0.5853
  O  O2454  1  0.756350  0.424340  0.547670  1.0  -0.4867
  O  O2455  1  0.602600  0.492200  0.596400  1.0  -0.6013
  O  O2456  1  0.560500  0.503100  0.627900  1.0  -0.4892
  O  O2457  1  0.226740  0.908170  0.506060  1.0  -0.5853
  O  O2458  1  0.256350  0.924340  0.547670  1.0  -0.4867
  O  O2459  1  0.102600  0.992200  0.596400  1.0  -0.6013
  O  O2460  1  0.060500  0.003100  0.627900  1.0  -0.4892
  O  O2461  1  0.226740  0.408170  0.006060  1.0  -0.5853
  O  O2462  1  0.256350  0.424340  0.047670  1.0  -0.4867
  O  O2463  1  0.102600  0.492200  0.096400  1.0  -0.6013
  O  O2464  1  0.060500  0.503100  0.127900  1.0  -0.4892
  O  O2465  1  0.523260  0.341830  0.006060  1.0  -0.5851
  O  O2466  1  0.493650  0.325660  0.047670  1.0  -0.4861
  O  O2467  1  0.647400  0.257800  0.096400  1.0  -0.6009
  O  O2468  1  0.689500  0.246900  0.127900  1.0  -0.4882
  O  O2469  1  0.523260  0.841830  0.506060  1.0  -0.5851
  O  O2470  1  0.493650  0.825660  0.547670  1.0  -0.4861
  O  O2471  1  0.647400  0.757800  0.596400  1.0  -0.6009
  O  O2472  1  0.689500  0.746900  0.627900  1.0  -0.4882
  O  O2473  1  0.023260  0.341830  0.506060  1.0  -0.5851
  O  O2474  1  0.993650  0.325660  0.547670  1.0  -0.4861
  O  O2475  1  0.147400  0.257800  0.596400  1.0  -0.6009
  O  O2476  1  0.189500  0.246900  0.627900  1.0  -0.4882
  O  O2477  1  0.023260  0.841830  0.006060  1.0  -0.5851
  O  O2478  1  0.993650  0.825660  0.047670  1.0  -0.4861
  O  O2479  1  0.147400  0.757800  0.096400  1.0  -0.6009
  O  O2480  1  0.189500  0.746900  0.127900  1.0  -0.4882
  O  O2481  1  0.523260  0.908170  0.243940  1.0  -0.5844
  O  O2482  1  0.493650  0.924340  0.202330  1.0  -0.4865
  O  O2483  1  0.647400  0.992200  0.153600  1.0  -0.6018
  O  O2484  1  0.689500  0.003100  0.122100  1.0  -0.4878
  O  O2485  1  0.523260  0.408170  0.743940  1.0  -0.5844
  O  O2486  1  0.493650  0.424340  0.702330  1.0  -0.4865
  O  O2487  1  0.647400  0.492200  0.653600  1.0  -0.6018
  O  O2488  1  0.689500  0.503100  0.622100  1.0  -0.4878
  O  O2489  1  0.023260  0.908170  0.743940  1.0  -0.5844
  O  O2490  1  0.993650  0.924340  0.702330  1.0  -0.4865
  O  O2491  1  0.147400  0.992200  0.653600  1.0  -0.6018
  O  O2492  1  0.189500  0.003100  0.622100  1.0  -0.4878
  O  O2493  1  0.023260  0.408170  0.243940  1.0  -0.5844
  O  O2494  1  0.993650  0.424340  0.202330  1.0  -0.4865
  O  O2495  1  0.147400  0.492200  0.153600  1.0  -0.6018
  O  O2496  1  0.189500  0.503100  0.122100  1.0  -0.4878
  O  O2497  1  0.726740  0.341830  0.243940  1.0  -0.5849
  O  O2498  1  0.756350  0.325660  0.202330  1.0  -0.4879
  O  O2499  1  0.602600  0.257800  0.153600  1.0  -0.6018
  O  O2500  1  0.560500  0.246900  0.122100  1.0  -0.4891
  O  O2501  1  0.726740  0.841830  0.743940  1.0  -0.5849
  O  O2502  1  0.756350  0.825660  0.702330  1.0  -0.4879
  O  O2503  1  0.602600  0.757800  0.653600  1.0  -0.6018
  O  O2504  1  0.560500  0.746900  0.622100  1.0  -0.4891
  O  O2505  1  0.226740  0.341830  0.743940  1.0  -0.5849
  O  O2506  1  0.256350  0.325660  0.702330  1.0  -0.4879
  O  O2507  1  0.102600  0.257800  0.653600  1.0  -0.6018
  O  O2508  1  0.060500  0.246900  0.622100  1.0  -0.4891
  O  O2509  1  0.226740  0.841830  0.243940  1.0  -0.5849
  O  O2510  1  0.256350  0.825660  0.202330  1.0  -0.4879
  O  O2511  1  0.102600  0.757800  0.153600  1.0  -0.6018
  O  O2512  1  0.060500  0.746900  0.122100  1.0  -0.4891
  O  O2513  1  0.006060  0.726740  0.908170  1.0  -0.5867
  O  O2514  1  0.047670  0.756350  0.924340  1.0  -0.4874
  O  O2515  1  0.096400  0.602600  0.992200  1.0  -0.6029
  O  O2516  1  0.127900  0.560500  0.003100  1.0  -0.4901
  O  O2517  1  0.006060  0.226740  0.408170  1.0  -0.5867
  O  O2518  1  0.047670  0.256350  0.424340  1.0  -0.4874
  O  O2519  1  0.096400  0.102600  0.492200  1.0  -0.6029
  O  O2520  1  0.127900  0.060500  0.503100  1.0  -0.4901
  O  O2521  1  0.506060  0.726740  0.408170  1.0  -0.5867
  O  O2522  1  0.547670  0.756350  0.424340  1.0  -0.4874
  O  O2523  1  0.596400  0.602600  0.492200  1.0  -0.6029
  O  O2524  1  0.627900  0.560500  0.503100  1.0  -0.4901
  O  O2525  1  0.506060  0.226740  0.908170  1.0  -0.5867
  O  O2526  1  0.547670  0.256350  0.924340  1.0  -0.4874
  O  O2527  1  0.596400  0.102600  0.992200  1.0  -0.6029
  O  O2528  1  0.627900  0.060500  0.003100  1.0  -0.4901
  O  O2529  1  0.006060  0.523260  0.341830  1.0  -0.5862
  O  O2530  1  0.047670  0.493650  0.325660  1.0  -0.4871
  O  O2531  1  0.096400  0.647400  0.257800  1.0  -0.6033
  O  O2532  1  0.127900  0.689500  0.246900  1.0  -0.4911
  O  O2533  1  0.006060  0.023260  0.841830  1.0  -0.5862
  O  O2534  1  0.047670  0.993650  0.825660  1.0  -0.4871
  O  O2535  1  0.096400  0.147400  0.757800  1.0  -0.6033
  O  O2536  1  0.127900  0.189500  0.746900  1.0  -0.4911
  O  O2537  1  0.506060  0.523260  0.841830  1.0  -0.5862
  O  O2538  1  0.547670  0.493650  0.825660  1.0  -0.4871
  O  O2539  1  0.596400  0.647400  0.757800  1.0  -0.6033
  O  O2540  1  0.627900  0.689500  0.746900  1.0  -0.4911
  O  O2541  1  0.506060  0.023260  0.341830  1.0  -0.5862
  O  O2542  1  0.547670  0.993650  0.325660  1.0  -0.4871
  O  O2543  1  0.596400  0.147400  0.257800  1.0  -0.6033
  O  O2544  1  0.627900  0.189500  0.246900  1.0  -0.4911
  O  O2545  1  0.243940  0.523260  0.908170  1.0  -0.5872
  O  O2546  1  0.202330  0.493650  0.924340  1.0  -0.4869
  O  O2547  1  0.153600  0.647400  0.992200  1.0  -0.6033
  O  O2548  1  0.122100  0.689500  0.003100  1.0  -0.4915
  O  O2549  1  0.243940  0.023260  0.408170  1.0  -0.5872
  O  O2550  1  0.202330  0.993650  0.424340  1.0  -0.4869
  O  O2551  1  0.153600  0.147400  0.492200  1.0  -0.6033
  O  O2552  1  0.122100  0.189500  0.503100  1.0  -0.4915
  O  O2553  1  0.743940  0.523260  0.408170  1.0  -0.5872
  O  O2554  1  0.702330  0.493650  0.424340  1.0  -0.4869
  O  O2555  1  0.653600  0.647400  0.492200  1.0  -0.6033
  O  O2556  1  0.622100  0.689500  0.503100  1.0  -0.4915
  O  O2557  1  0.743940  0.023260  0.908170  1.0  -0.5872
  O  O2558  1  0.702330  0.993650  0.924340  1.0  -0.4869
  O  O2559  1  0.653600  0.147400  0.992200  1.0  -0.6033
  O  O2560  1  0.622100  0.189500  0.003100  1.0  -0.4915
  O  O2561  1  0.243940  0.726740  0.341830  1.0  -0.587
  O  O2562  1  0.202330  0.756350  0.325660  1.0  -0.4862
  O  O2563  1  0.153600  0.602600  0.257800  1.0  -0.6032
  O  O2564  1  0.122100  0.560500  0.246900  1.0  -0.4914
  O  O2565  1  0.243940  0.226740  0.841830  1.0  -0.587
  O  O2566  1  0.202330  0.256350  0.825660  1.0  -0.4862
  O  O2567  1  0.153600  0.102600  0.757800  1.0  -0.6032
  O  O2568  1  0.122100  0.060500  0.746900  1.0  -0.4914
  O  O2569  1  0.743940  0.726740  0.841830  1.0  -0.587
  O  O2570  1  0.702330  0.756350  0.825660  1.0  -0.4862
  O  O2571  1  0.653600  0.602600  0.757800  1.0  -0.6032
  O  O2572  1  0.622100  0.560500  0.746900  1.0  -0.4914
  O  O2573  1  0.743940  0.226740  0.341830  1.0  -0.587
  O  O2574  1  0.702330  0.256350  0.325660  1.0  -0.4862
  O  O2575  1  0.653600  0.102600  0.257800  1.0  -0.6032
  O  O2576  1  0.622100  0.060500  0.246900  1.0  -0.4914
  O  O2577  1  0.908170  0.006060  0.726740  1.0  -0.5887
  O  O2578  1  0.924340  0.047670  0.756350  1.0  -0.4857
  O  O2579  1  0.992200  0.096400  0.602600  1.0  -0.6033
  O  O2580  1  0.003100  0.127900  0.560500  1.0  -0.489
  O  O2581  1  0.908170  0.506060  0.226740  1.0  -0.5887
  O  O2582  1  0.924340  0.547670  0.256350  1.0  -0.4857
  O  O2583  1  0.992200  0.596400  0.102600  1.0  -0.6033
  O  O2584  1  0.003100  0.627900  0.060500  1.0  -0.489
  O  O2585  1  0.408170  0.006060  0.226740  1.0  -0.5887
  O  O2586  1  0.424340  0.047670  0.256350  1.0  -0.4857
  O  O2587  1  0.492200  0.096400  0.102600  1.0  -0.6033
  O  O2588  1  0.503100  0.127900  0.060500  1.0  -0.489
  O  O2589  1  0.408170  0.506060  0.726740  1.0  -0.5887
  O  O2590  1  0.424340  0.547670  0.756350  1.0  -0.4857
  O  O2591  1  0.492200  0.596400  0.602600  1.0  -0.6033
  O  O2592  1  0.503100  0.627900  0.560500  1.0  -0.489
  O  O2593  1  0.341830  0.006060  0.523260  1.0  -0.5872
  O  O2594  1  0.325660  0.047670  0.493650  1.0  -0.4861
  O  O2595  1  0.257800  0.096400  0.647400  1.0  -0.6039
  O  O2596  1  0.246900  0.127900  0.689500  1.0  -0.489
  O  O2597  1  0.341830  0.506060  0.023260  1.0  -0.5872
  O  O2598  1  0.325660  0.547670  0.993650  1.0  -0.4861
  O  O2599  1  0.257800  0.596400  0.147400  1.0  -0.6039
  O  O2600  1  0.246900  0.627900  0.189500  1.0  -0.489
  O  O2601  1  0.841830  0.006060  0.023260  1.0  -0.5872
  O  O2602  1  0.825660  0.047670  0.993650  1.0  -0.4861
  O  O2603  1  0.757800  0.096400  0.147400  1.0  -0.6039
  O  O2604  1  0.746900  0.127900  0.189500  1.0  -0.489
  O  O2605  1  0.841830  0.506060  0.523260  1.0  -0.5872
  O  O2606  1  0.825660  0.547670  0.493650  1.0  -0.4861
  O  O2607  1  0.757800  0.596400  0.647400  1.0  -0.6039
  O  O2608  1  0.746900  0.627900  0.689500  1.0  -0.489
  O  O2609  1  0.908170  0.243940  0.523260  1.0  -0.5887
  O  O2610  1  0.924340  0.202330  0.493650  1.0  -0.4869
  O  O2611  1  0.992200  0.153600  0.647400  1.0  -0.6041
  O  O2612  1  0.003100  0.122100  0.689500  1.0  -0.4877
  O  O2613  1  0.908170  0.743940  0.023260  1.0  -0.5887
  O  O2614  1  0.924340  0.702330  0.993650  1.0  -0.4869
  O  O2615  1  0.992200  0.653600  0.147400  1.0  -0.6041
  O  O2616  1  0.003100  0.622100  0.189500  1.0  -0.4877
  O  O2617  1  0.408170  0.243940  0.023260  1.0  -0.5887
  O  O2618  1  0.424340  0.202330  0.993650  1.0  -0.4869
  O  O2619  1  0.492200  0.153600  0.147400  1.0  -0.6041
  O  O2620  1  0.503100  0.122100  0.189500  1.0  -0.4877
  O  O2621  1  0.408170  0.743940  0.523260  1.0  -0.5887
  O  O2622  1  0.424340  0.702330  0.493650  1.0  -0.4869
  O  O2623  1  0.492200  0.653600  0.647400  1.0  -0.6041
  O  O2624  1  0.503100  0.622100  0.689500  1.0  -0.4877
  O  O2625  1  0.341830  0.243940  0.726740  1.0  -0.5885
  O  O2626  1  0.325660  0.202330  0.756350  1.0  -0.4864
  O  O2627  1  0.257800  0.153600  0.602600  1.0  -0.6035
  O  O2628  1  0.246900  0.122100  0.560500  1.0  -0.488
  O  O2629  1  0.341830  0.743940  0.226740  1.0  -0.5885
  O  O2630  1  0.325660  0.702330  0.256350  1.0  -0.4864
  O  O2631  1  0.257800  0.653600  0.102600  1.0  -0.6035
  O  O2632  1  0.246900  0.622100  0.060500  1.0  -0.488
  O  O2633  1  0.841830  0.243940  0.226740  1.0  -0.5885
  O  O2634  1  0.825660  0.202330  0.256350  1.0  -0.4864
  O  O2635  1  0.757800  0.153600  0.102600  1.0  -0.6035
  O  O2636  1  0.746900  0.122100  0.060500  1.0  -0.488
  O  O2637  1  0.841830  0.743940  0.726740  1.0  -0.5885
  O  O2638  1  0.825660  0.702330  0.756350  1.0  -0.4864
  O  O2639  1  0.757800  0.653600  0.602600  1.0  -0.6035
  O  O2640  1  0.746900  0.622100  0.560500  1.0  -0.488
  O  O2641  1  0.273260  0.091830  0.993940  1.0  -0.5841
  O  O2642  1  0.243650  0.075660  0.952330  1.0  -0.4874
  O  O2643  1  0.397400  0.007800  0.903600  1.0  -0.6016
  O  O2644  1  0.439500  0.996900  0.872100  1.0  -0.4881
  O  O2645  1  0.273260  0.591830  0.493940  1.0  -0.5841
  O  O2646  1  0.243650  0.575660  0.452330  1.0  -0.4874
  O  O2647  1  0.397400  0.507800  0.403600  1.0  -0.6016
  O  O2648  1  0.439500  0.496900  0.372100  1.0  -0.4881
  O  O2649  1  0.773260  0.091830  0.493940  1.0  -0.5841
  O  O2650  1  0.743650  0.075660  0.452330  1.0  -0.4874
  O  O2651  1  0.897400  0.007800  0.403600  1.0  -0.6016
  O  O2652  1  0.939500  0.996900  0.372100  1.0  -0.4881
  O  O2653  1  0.773260  0.591830  0.993940  1.0  -0.5841
  O  O2654  1  0.743650  0.575660  0.952330  1.0  -0.4874
  O  O2655  1  0.897400  0.507800  0.903600  1.0  -0.6016
  O  O2656  1  0.939500  0.496900  0.872100  1.0  -0.4881
  O  O2657  1  0.476740  0.658170  0.993940  1.0  -0.5856
  O  O2658  1  0.506350  0.674340  0.952330  1.0  -0.4873
  O  O2659  1  0.352600  0.742200  0.903600  1.0  -0.6019
  O  O2660  1  0.310500  0.753100  0.872100  1.0  -0.4886
  O  O2661  1  0.476740  0.158170  0.493940  1.0  -0.5856
  O  O2662  1  0.506350  0.174340  0.452330  1.0  -0.4873
  O  O2663  1  0.352600  0.242200  0.403600  1.0  -0.6019
  O  O2664  1  0.310500  0.253100  0.372100  1.0  -0.4886
  O  O2665  1  0.976740  0.658170  0.493940  1.0  -0.5856
  O  O2666  1  0.006350  0.674340  0.452330  1.0  -0.4873
  O  O2667  1  0.852600  0.742200  0.403600  1.0  -0.6019
  O  O2668  1  0.810500  0.753100  0.372100  1.0  -0.4886
  O  O2669  1  0.976740  0.158170  0.993940  1.0  -0.5856
  O  O2670  1  0.006350  0.174340  0.952330  1.0  -0.4873
  O  O2671  1  0.852600  0.242200  0.903600  1.0  -0.6019
  O  O2672  1  0.810500  0.253100  0.872100  1.0  -0.4886
  O  O2673  1  0.476740  0.091830  0.756060  1.0  -0.5856
  O  O2674  1  0.506350  0.075660  0.797670  1.0  -0.4869
  O  O2675  1  0.352600  0.007800  0.846400  1.0  -0.6008
  O  O2676  1  0.310500  0.996900  0.877900  1.0  -0.4898
  O  O2677  1  0.476740  0.591830  0.256060  1.0  -0.5856
  O  O2678  1  0.506350  0.575660  0.297670  1.0  -0.4869
  O  O2679  1  0.352600  0.507800  0.346400  1.0  -0.6008
  O  O2680  1  0.310500  0.496900  0.377900  1.0  -0.4898
  O  O2681  1  0.976740  0.091830  0.256060  1.0  -0.5856
  O  O2682  1  0.006350  0.075660  0.297670  1.0  -0.4869
  O  O2683  1  0.852600  0.007800  0.346400  1.0  -0.6008
  O  O2684  1  0.810500  0.996900  0.377900  1.0  -0.4898
  O  O2685  1  0.976740  0.591830  0.756060  1.0  -0.5856
  O  O2686  1  0.006350  0.575660  0.797670  1.0  -0.4869
  O  O2687  1  0.852600  0.507800  0.846400  1.0  -0.6008
  O  O2688  1  0.810500  0.496900  0.877900  1.0  -0.4898
  O  O2689  1  0.273260  0.658170  0.756060  1.0  -0.5846
  O  O2690  1  0.243650  0.674340  0.797670  1.0  -0.486
  O  O2691  1  0.397400  0.742200  0.846400  1.0  -0.6013
  O  O2692  1  0.439500  0.753100  0.877900  1.0  -0.4878
  O  O2693  1  0.273260  0.158170  0.256060  1.0  -0.5846
  O  O2694  1  0.243650  0.174340  0.297670  1.0  -0.486
  O  O2695  1  0.397400  0.242200  0.346400  1.0  -0.6013
  O  O2696  1  0.439500  0.253100  0.377900  1.0  -0.4878
  O  O2697  1  0.773260  0.658170  0.256060  1.0  -0.5846
  O  O2698  1  0.743650  0.674340  0.297670  1.0  -0.486
  O  O2699  1  0.897400  0.742200  0.346400  1.0  -0.6013
  O  O2700  1  0.939500  0.753100  0.377900  1.0  -0.4878
  O  O2701  1  0.773260  0.158170  0.756060  1.0  -0.5846
  O  O2702  1  0.743650  0.174340  0.797670  1.0  -0.486
  O  O2703  1  0.897400  0.242200  0.846400  1.0  -0.6013
  O  O2704  1  0.939500  0.253100  0.877900  1.0  -0.4878
  O  O2705  1  0.993940  0.273260  0.091830  1.0  -0.5867
  O  O2706  1  0.952330  0.243650  0.075660  1.0  -0.4867
  O  O2707  1  0.903600  0.397400  0.007800  1.0  -0.6035
  O  O2708  1  0.872100  0.439500  0.996900  1.0  -0.4913
  O  O2709  1  0.993940  0.773260  0.591830  1.0  -0.5867
  O  O2710  1  0.952330  0.743650  0.575660  1.0  -0.4867
  O  O2711  1  0.903600  0.897400  0.507800  1.0  -0.6035
  O  O2712  1  0.872100  0.939500  0.496900  1.0  -0.4913
  O  O2713  1  0.493940  0.273260  0.591830  1.0  -0.5867
  O  O2714  1  0.452330  0.243650  0.575660  1.0  -0.4867
  O  O2715  1  0.403600  0.397400  0.507800  1.0  -0.6035
  O  O2716  1  0.372100  0.439500  0.496900  1.0  -0.4913
  O  O2717  1  0.493940  0.773260  0.091830  1.0  -0.5867
  O  O2718  1  0.452330  0.743650  0.075660  1.0  -0.4867
  O  O2719  1  0.403600  0.897400  0.007800  1.0  -0.6035
  O  O2720  1  0.372100  0.939500  0.996900  1.0  -0.4913
  O  O2721  1  0.993940  0.476740  0.658170  1.0  -0.5871
  O  O2722  1  0.952330  0.506350  0.674340  1.0  -0.4867
  O  O2723  1  0.903600  0.352600  0.742200  1.0  -0.6029
  O  O2724  1  0.872100  0.310500  0.753100  1.0  -0.4912
  O  O2725  1  0.993940  0.976740  0.158170  1.0  -0.5871
  O  O2726  1  0.952330  0.006350  0.174340  1.0  -0.4867
  O  O2727  1  0.903600  0.852600  0.242200  1.0  -0.6029
  O  O2728  1  0.872100  0.810500  0.253100  1.0  -0.4912
  O  O2729  1  0.493940  0.476740  0.158170  1.0  -0.5871
  O  O2730  1  0.452330  0.506350  0.174340  1.0  -0.4867
  O  O2731  1  0.403600  0.352600  0.242200  1.0  -0.6029
  O  O2732  1  0.372100  0.310500  0.253100  1.0  -0.4912
  O  O2733  1  0.493940  0.976740  0.658170  1.0  -0.5871
  O  O2734  1  0.452330  0.006350  0.674340  1.0  -0.4867
  O  O2735  1  0.403600  0.852600  0.742200  1.0  -0.6029
  O  O2736  1  0.372100  0.810500  0.753100  1.0  -0.4912
  O  O2737  1  0.756060  0.476740  0.091830  1.0  -0.5867
  O  O2738  1  0.797670  0.506350  0.075660  1.0  -0.4873
  O  O2739  1  0.846400  0.352600  0.007800  1.0  -0.6034
  O  O2740  1  0.877900  0.310500  0.996900  1.0  -0.4906
  O  O2741  1  0.756060  0.976740  0.591830  1.0  -0.5867
  O  O2742  1  0.797670  0.006350  0.575660  1.0  -0.4873
  O  O2743  1  0.846400  0.852600  0.507800  1.0  -0.6034
  O  O2744  1  0.877900  0.810500  0.496900  1.0  -0.4906
  O  O2745  1  0.256060  0.476740  0.591830  1.0  -0.5867
  O  O2746  1  0.297670  0.506350  0.575660  1.0  -0.4873
  O  O2747  1  0.346400  0.352600  0.507800  1.0  -0.6034
  O  O2748  1  0.377900  0.310500  0.496900  1.0  -0.4906
  O  O2749  1  0.256060  0.976740  0.091830  1.0  -0.5867
  O  O2750  1  0.297670  0.006350  0.075660  1.0  -0.4873
  O  O2751  1  0.346400  0.852600  0.007800  1.0  -0.6034
  O  O2752  1  0.377900  0.810500  0.996900  1.0  -0.4906
  O  O2753  1  0.756060  0.273260  0.658170  1.0  -0.5866
  O  O2754  1  0.797670  0.243650  0.674340  1.0  -0.4872
  O  O2755  1  0.846400  0.397400  0.742200  1.0  -0.6031
  O  O2756  1  0.877900  0.439500  0.753100  1.0  -0.491
  O  O2757  1  0.756060  0.773260  0.158170  1.0  -0.5866
  O  O2758  1  0.797670  0.743650  0.174340  1.0  -0.4872
  O  O2759  1  0.846400  0.897400  0.242200  1.0  -0.6031
  O  O2760  1  0.877900  0.939500  0.253100  1.0  -0.491
  O  O2761  1  0.256060  0.273260  0.158170  1.0  -0.5866
  O  O2762  1  0.297670  0.243650  0.174340  1.0  -0.4872
  O  O2763  1  0.346400  0.397400  0.242200  1.0  -0.6031
  O  O2764  1  0.377900  0.439500  0.253100  1.0  -0.491
  O  O2765  1  0.256060  0.773260  0.658170  1.0  -0.5866
  O  O2766  1  0.297670  0.743650  0.674340  1.0  -0.4872
  O  O2767  1  0.346400  0.897400  0.742200  1.0  -0.6031
  O  O2768  1  0.377900  0.939500  0.753100  1.0  -0.491
  O  O2769  1  0.091830  0.993940  0.273260  1.0  -0.5872
  O  O2770  1  0.075660  0.952330  0.243650  1.0  -0.4869
  O  O2771  1  0.007800  0.903600  0.397400  1.0  -0.6042
  O  O2772  1  0.996900  0.872100  0.439500  1.0  -0.4879
  O  O2773  1  0.091830  0.493940  0.773260  1.0  -0.5872
  O  O2774  1  0.075660  0.452330  0.743650  1.0  -0.4869
  O  O2775  1  0.007800  0.403600  0.897400  1.0  -0.6042
  O  O2776  1  0.996900  0.372100  0.939500  1.0  -0.4879
  O  O2777  1  0.591830  0.993940  0.773260  1.0  -0.5872
  O  O2778  1  0.575660  0.952330  0.743650  1.0  -0.4869
  O  O2779  1  0.507800  0.903600  0.897400  1.0  -0.6042
  O  O2780  1  0.496900  0.872100  0.939500  1.0  -0.4879
  O  O2781  1  0.591830  0.493940  0.273260  1.0  -0.5872
  O  O2782  1  0.575660  0.452330  0.243650  1.0  -0.4869
  O  O2783  1  0.507800  0.403600  0.397400  1.0  -0.6042
  O  O2784  1  0.496900  0.372100  0.439500  1.0  -0.4879
  O  O2785  1  0.658170  0.993940  0.476740  1.0  -0.5898
  O  O2786  1  0.674340  0.952330  0.506350  1.0  -0.4861
  O  O2787  1  0.742200  0.903600  0.352600  1.0  -0.6035
  O  O2788  1  0.753100  0.872100  0.310500  1.0  -0.4878
  O  O2789  1  0.658170  0.493940  0.976740  1.0  -0.5898
  O  O2790  1  0.674340  0.452330  0.006350  1.0  -0.4861
  O  O2791  1  0.742200  0.403600  0.852600  1.0  -0.6035
  O  O2792  1  0.753100  0.372100  0.810500  1.0  -0.4878
  O  O2793  1  0.158170  0.993940  0.976740  1.0  -0.5898
  O  O2794  1  0.174340  0.952330  0.006350  1.0  -0.4861
  O  O2795  1  0.242200  0.903600  0.852600  1.0  -0.6035
  O  O2796  1  0.253100  0.872100  0.810500  1.0  -0.4878
  O  O2797  1  0.158170  0.493940  0.476740  1.0  -0.5898
  O  O2798  1  0.174340  0.452330  0.506350  1.0  -0.4861
  O  O2799  1  0.242200  0.403600  0.352600  1.0  -0.6035
  O  O2800  1  0.253100  0.372100  0.310500  1.0  -0.4878
  O  O2801  1  0.091830  0.756060  0.476740  1.0  -0.5877
  O  O2802  1  0.075660  0.797670  0.506350  1.0  -0.486
  O  O2803  1  0.007800  0.846400  0.352600  1.0  -0.6032
  O  O2804  1  0.996900  0.877900  0.310500  1.0  -0.4894
  O  O2805  1  0.091830  0.256060  0.976740  1.0  -0.5877
  O  O2806  1  0.075660  0.297670  0.006350  1.0  -0.486
  O  O2807  1  0.007800  0.346400  0.852600  1.0  -0.6032
  O  O2808  1  0.996900  0.377900  0.810500  1.0  -0.4894
  O  O2809  1  0.591830  0.756060  0.976740  1.0  -0.5877
  O  O2810  1  0.575660  0.797670  0.006350  1.0  -0.486
  O  O2811  1  0.507800  0.846400  0.852600  1.0  -0.6032
  O  O2812  1  0.496900  0.877900  0.810500  1.0  -0.4894
  O  O2813  1  0.591830  0.256060  0.476740  1.0  -0.5877
  O  O2814  1  0.575660  0.297670  0.506350  1.0  -0.486
  O  O2815  1  0.507800  0.346400  0.352600  1.0  -0.6032
  O  O2816  1  0.496900  0.377900  0.310500  1.0  -0.4894
  O  O2817  1  0.658170  0.756060  0.273260  1.0  -0.5885
  O  O2818  1  0.674340  0.797670  0.243650  1.0  -0.4864
  O  O2819  1  0.742200  0.846400  0.397400  1.0  -0.604
  O  O2820  1  0.753100  0.877900  0.439500  1.0  -0.4891
  O  O2821  1  0.658170  0.256060  0.773260  1.0  -0.5885
  O  O2822  1  0.674340  0.297670  0.743650  1.0  -0.4864
  O  O2823  1  0.742200  0.346400  0.897400  1.0  -0.604
  O  O2824  1  0.753100  0.377900  0.939500  1.0  -0.4891
  O  O2825  1  0.158170  0.756060  0.773260  1.0  -0.5885
  O  O2826  1  0.174340  0.797670  0.743650  1.0  -0.4864
  O  O2827  1  0.242200  0.846400  0.897400  1.0  -0.604
  O  O2828  1  0.253100  0.877900  0.939500  1.0  -0.4891
  O  O2829  1  0.158170  0.256060  0.273260  1.0  -0.5885
  O  O2830  1  0.174340  0.297670  0.243650  1.0  -0.4864
  O  O2831  1  0.242200  0.346400  0.397400  1.0  -0.604
  O  O2832  1  0.253100  0.377900  0.439500  1.0  -0.4891
