# generated using pymatgen
data_CoH16C26(SN5)2
_symmetry_space_group_name_H-M   'P 1'
_cell_length_a   36.79300000
_cell_length_b   36.79300000
_cell_length_c   36.79300000
_cell_angle_alpha   90.00000000
_cell_angle_beta   90.00000000
_cell_angle_gamma   90.00000000
_symmetry_Int_Tables_number   1
_chemical_formula_structural   CoH16C26(SN5)2
_chemical_formula_sum   'Co24 H384 C624 S48 N240'
_cell_volume   49807.59836926
_cell_formula_units_Z   24
loop_
 _symmetry_equiv_pos_site_id
 _symmetry_equiv_pos_as_xyz
  1  'x, y, z'
loop_
 _atom_site_type_symbol
 _atom_site_label
 _atom_site_symmetry_multiplicity
 _atom_site_fract_x
 _atom_site_fract_y
 _atom_site_fract_z
 _atom_site_occupancy
 _atom_site_charge
  Co  Co1  1  0.250000  0.000000  0.250000  1.0  0.531
  Co  Co2  1  0.250000  0.500000  0.750000  1.0  0.531
  Co  Co3  1  0.750000  0.000000  0.250000  1.0  0.531
  Co  Co4  1  0.750000  0.500000  0.750000  1.0  0.531
  Co  Co5  1  0.250000  0.500000  0.250000  1.0  0.531
  Co  Co6  1  0.750000  0.000000  0.750000  1.0  0.531
  Co  Co7  1  0.750000  0.500000  0.250000  1.0  0.531
  Co  Co8  1  0.250000  0.000000  0.750000  1.0  0.531
  Co  Co9  1  0.250000  0.250000  0.000000  1.0  0.531
  Co  Co10  1  0.250000  0.750000  0.500000  1.0  0.531
  Co  Co11  1  0.250000  0.750000  0.000000  1.0  0.531
  Co  Co12  1  0.250000  0.250000  0.500000  1.0  0.531
  Co  Co13  1  0.750000  0.750000  0.000000  1.0  0.531
  Co  Co14  1  0.750000  0.250000  0.500000  1.0  0.531
  Co  Co15  1  0.750000  0.250000  0.000000  1.0  0.531
  Co  Co16  1  0.750000  0.750000  0.500000  1.0  0.531
  Co  Co17  1  0.000000  0.250000  0.250000  1.0  0.531
  Co  Co18  1  0.500000  0.250000  0.750000  1.0  0.531
  Co  Co19  1  0.000000  0.250000  0.750000  1.0  0.531
  Co  Co20  1  0.500000  0.250000  0.250000  1.0  0.531
  Co  Co21  1  0.000000  0.750000  0.750000  1.0  0.531
  Co  Co22  1  0.500000  0.750000  0.250000  1.0  0.531
  Co  Co23  1  0.000000  0.750000  0.250000  1.0  0.531
  Co  Co24  1  0.500000  0.750000  0.750000  1.0  0.531
  H  H25  1  0.254600  0.042900  0.181700  1.0  0.1113
  H  H26  1  0.223000  0.088500  0.150500  1.0  0.0867
  H  H27  1  0.254600  0.542900  0.681700  1.0  0.1113
  H  H28  1  0.223000  0.588500  0.650500  1.0  0.0867
  H  H29  1  0.754600  0.042900  0.681700  1.0  0.1113
  H  H30  1  0.723000  0.088500  0.650500  1.0  0.0867
  H  H31  1  0.754600  0.542900  0.181700  1.0  0.1113
  H  H32  1  0.723000  0.588500  0.150500  1.0  0.0867
  H  H33  1  0.745400  0.957100  0.181700  1.0  0.1104
  H  H34  1  0.777000  0.911500  0.150500  1.0  0.0869
  H  H35  1  0.745400  0.457100  0.681700  1.0  0.1104
  H  H36  1  0.777000  0.411500  0.650500  1.0  0.0869
  H  H37  1  0.245400  0.957100  0.681700  1.0  0.1104
  H  H38  1  0.277000  0.911500  0.650500  1.0  0.0869
  H  H39  1  0.245400  0.457100  0.181700  1.0  0.1104
  H  H40  1  0.277000  0.411500  0.150500  1.0  0.0869
  H  H41  1  0.745400  0.042900  0.818300  1.0  0.1105
  H  H42  1  0.777000  0.088500  0.849500  1.0  0.0863
  H  H43  1  0.745400  0.542900  0.318300  1.0  0.1105
  H  H44  1  0.777000  0.588500  0.349500  1.0  0.0863
  H  H45  1  0.245400  0.042900  0.318300  1.0  0.1105
  H  H46  1  0.277000  0.088500  0.349500  1.0  0.0863
  H  H47  1  0.245400  0.542900  0.818300  1.0  0.1105
  H  H48  1  0.277000  0.588500  0.849500  1.0  0.0863
  H  H49  1  0.254600  0.957100  0.818300  1.0  0.1111
  H  H50  1  0.223000  0.911500  0.849500  1.0  0.086
  H  H51  1  0.254600  0.457100  0.318300  1.0  0.1111
  H  H52  1  0.223000  0.411500  0.349500  1.0  0.086
  H  H53  1  0.754600  0.957100  0.318300  1.0  0.1111
  H  H54  1  0.723000  0.911500  0.349500  1.0  0.086
  H  H55  1  0.754600  0.457100  0.818300  1.0  0.1111
  H  H56  1  0.723000  0.411500  0.849500  1.0  0.086
  H  H57  1  0.181700  0.254600  0.042900  1.0  0.1109
  H  H58  1  0.150500  0.223000  0.088500  1.0  0.0863
  H  H59  1  0.181700  0.754600  0.542900  1.0  0.1109
  H  H60  1  0.150500  0.723000  0.588500  1.0  0.0863
  H  H61  1  0.681700  0.254600  0.542900  1.0  0.1109
  H  H62  1  0.650500  0.223000  0.588500  1.0  0.0863
  H  H63  1  0.681700  0.754600  0.042900  1.0  0.1109
  H  H64  1  0.650500  0.723000  0.088500  1.0  0.0863
  H  H65  1  0.181700  0.745400  0.957100  1.0  0.1097
  H  H66  1  0.150500  0.777000  0.911500  1.0  0.0878
  H  H67  1  0.181700  0.245400  0.457100  1.0  0.1097
  H  H68  1  0.150500  0.277000  0.411500  1.0  0.0878
  H  H69  1  0.681700  0.745400  0.457100  1.0  0.1097
  H  H70  1  0.650500  0.777000  0.411500  1.0  0.0878
  H  H71  1  0.681700  0.245400  0.957100  1.0  0.1097
  H  H72  1  0.650500  0.277000  0.911500  1.0  0.0878
  H  H73  1  0.818300  0.745400  0.042900  1.0  0.1119
  H  H74  1  0.849500  0.777000  0.088500  1.0  0.0877
  H  H75  1  0.818300  0.245400  0.542900  1.0  0.1119
  H  H76  1  0.849500  0.277000  0.588500  1.0  0.0877
  H  H77  1  0.318300  0.745400  0.542900  1.0  0.1119
  H  H78  1  0.349500  0.777000  0.588500  1.0  0.0877
  H  H79  1  0.318300  0.245400  0.042900  1.0  0.1119
  H  H80  1  0.349500  0.277000  0.088500  1.0  0.0877
  H  H81  1  0.818300  0.254600  0.957100  1.0  0.1102
  H  H82  1  0.849500  0.223000  0.911500  1.0  0.0878
  H  H83  1  0.818300  0.754600  0.457100  1.0  0.1102
  H  H84  1  0.849500  0.723000  0.411500  1.0  0.0878
  H  H85  1  0.318300  0.254600  0.457100  1.0  0.1102
  H  H86  1  0.349500  0.223000  0.411500  1.0  0.0878
  H  H87  1  0.318300  0.754600  0.957100  1.0  0.1102
  H  H88  1  0.349500  0.723000  0.911500  1.0  0.0878
  H  H89  1  0.042900  0.181700  0.254600  1.0  0.112
  H  H90  1  0.088500  0.150500  0.223000  1.0  0.0868
  H  H91  1  0.042900  0.681700  0.754600  1.0  0.112
  H  H92  1  0.088500  0.650500  0.723000  1.0  0.0868
  H  H93  1  0.542900  0.181700  0.754600  1.0  0.112
  H  H94  1  0.588500  0.150500  0.723000  1.0  0.0868
  H  H95  1  0.542900  0.681700  0.254600  1.0  0.112
  H  H96  1  0.588500  0.650500  0.223000  1.0  0.0868
  H  H97  1  0.957100  0.181700  0.745400  1.0  0.113
  H  H98  1  0.911500  0.150500  0.777000  1.0  0.0878
  H  H99  1  0.957100  0.681700  0.245400  1.0  0.113
  H  H100  1  0.911500  0.650500  0.277000  1.0  0.0878
  H  H101  1  0.457100  0.181700  0.245400  1.0  0.113
  H  H102  1  0.411500  0.150500  0.277000  1.0  0.0878
  H  H103  1  0.457100  0.681700  0.745400  1.0  0.113
  H  H104  1  0.411500  0.650500  0.777000  1.0  0.0878
  H  H105  1  0.042900  0.818300  0.745400  1.0  0.1131
  H  H106  1  0.088500  0.849500  0.777000  1.0  0.0874
  H  H107  1  0.042900  0.318300  0.245400  1.0  0.1131
  H  H108  1  0.088500  0.349500  0.277000  1.0  0.0874
  H  H109  1  0.542900  0.818300  0.245400  1.0  0.1131
  H  H110  1  0.588500  0.849500  0.277000  1.0  0.0874
  H  H111  1  0.542900  0.318300  0.745400  1.0  0.1131
  H  H112  1  0.588500  0.349500  0.777000  1.0  0.0874
  H  H113  1  0.957100  0.818300  0.254600  1.0  0.1118
  H  H114  1  0.911500  0.849500  0.223000  1.0  0.087
  H  H115  1  0.957100  0.318300  0.754600  1.0  0.1118
  H  H116  1  0.911500  0.349500  0.723000  1.0  0.087
  H  H117  1  0.457100  0.818300  0.754600  1.0  0.1118
  H  H118  1  0.411500  0.849500  0.723000  1.0  0.087
  H  H119  1  0.457100  0.318300  0.254600  1.0  0.1118
  H  H120  1  0.411500  0.349500  0.223000  1.0  0.087
  H  H121  1  0.042900  0.254600  0.818300  1.0  0.1127
  H  H122  1  0.088500  0.223000  0.849500  1.0  0.0867
  H  H123  1  0.042900  0.754600  0.318300  1.0  0.1127
  H  H124  1  0.088500  0.723000  0.349500  1.0  0.0867
  H  H125  1  0.542900  0.254600  0.318300  1.0  0.1127
  H  H126  1  0.588500  0.223000  0.349500  1.0  0.0867
  H  H127  1  0.542900  0.754600  0.818300  1.0  0.1127
  H  H128  1  0.588500  0.723000  0.849500  1.0  0.0867
  H  H129  1  0.957100  0.745400  0.818300  1.0  0.1127
  H  H130  1  0.911500  0.777000  0.849500  1.0  0.0869
  H  H131  1  0.957100  0.245400  0.318300  1.0  0.1127
  H  H132  1  0.911500  0.277000  0.349500  1.0  0.0869
  H  H133  1  0.457100  0.745400  0.318300  1.0  0.1127
  H  H134  1  0.411500  0.777000  0.349500  1.0  0.0869
  H  H135  1  0.457100  0.245400  0.818300  1.0  0.1127
  H  H136  1  0.411500  0.277000  0.849500  1.0  0.0869
  H  H137  1  0.042900  0.745400  0.181700  1.0  0.113
  H  H138  1  0.088500  0.777000  0.150500  1.0  0.0877
  H  H139  1  0.042900  0.245400  0.681700  1.0  0.113
  H  H140  1  0.088500  0.277000  0.650500  1.0  0.0877
  H  H141  1  0.542900  0.745400  0.681700  1.0  0.113
  H  H142  1  0.588500  0.777000  0.650500  1.0  0.0877
  H  H143  1  0.542900  0.245400  0.181700  1.0  0.113
  H  H144  1  0.588500  0.277000  0.150500  1.0  0.0877
  H  H145  1  0.957100  0.254600  0.181700  1.0  0.1123
  H  H146  1  0.911500  0.223000  0.150500  1.0  0.087
  H  H147  1  0.957100  0.754600  0.681700  1.0  0.1123
  H  H148  1  0.911500  0.723000  0.650500  1.0  0.087
  H  H149  1  0.457100  0.254600  0.681700  1.0  0.1123
  H  H150  1  0.411500  0.223000  0.650500  1.0  0.087
  H  H151  1  0.457100  0.754600  0.181700  1.0  0.1123
  H  H152  1  0.411500  0.723000  0.150500  1.0  0.087
  H  H153  1  0.254600  0.181700  0.957100  1.0  0.1086
  H  H154  1  0.223000  0.150500  0.911500  1.0  0.0877
  H  H155  1  0.254600  0.681700  0.457100  1.0  0.1086
  H  H156  1  0.223000  0.650500  0.411500  1.0  0.0877
  H  H157  1  0.754600  0.181700  0.457100  1.0  0.1086
  H  H158  1  0.723000  0.150500  0.411500  1.0  0.0877
  H  H159  1  0.754600  0.681700  0.957100  1.0  0.1086
  H  H160  1  0.723000  0.650500  0.911500  1.0  0.0877
  H  H161  1  0.745400  0.181700  0.042900  1.0  0.1102
  H  H162  1  0.777000  0.150500  0.088500  1.0  0.0871
  H  H163  1  0.745400  0.681700  0.542900  1.0  0.1102
  H  H164  1  0.777000  0.650500  0.588500  1.0  0.0871
  H  H165  1  0.245400  0.181700  0.542900  1.0  0.1102
  H  H166  1  0.277000  0.150500  0.588500  1.0  0.0871
  H  H167  1  0.245400  0.681700  0.042900  1.0  0.1102
  H  H168  1  0.277000  0.650500  0.088500  1.0  0.0871
  H  H169  1  0.745400  0.818300  0.957100  1.0  0.1092
  H  H170  1  0.777000  0.849500  0.911500  1.0  0.0874
  H  H171  1  0.745400  0.318300  0.457100  1.0  0.1092
  H  H172  1  0.777000  0.349500  0.411500  1.0  0.0874
  H  H173  1  0.245400  0.818300  0.457100  1.0  0.1092
  H  H174  1  0.277000  0.849500  0.411500  1.0  0.0874
  H  H175  1  0.245400  0.318300  0.957100  1.0  0.1092
  H  H176  1  0.277000  0.349500  0.911500  1.0  0.0874
  H  H177  1  0.254600  0.818300  0.042900  1.0  0.11
  H  H178  1  0.223000  0.849500  0.088500  1.0  0.0865
  H  H179  1  0.254600  0.318300  0.542900  1.0  0.11
  H  H180  1  0.223000  0.349500  0.588500  1.0  0.0865
  H  H181  1  0.754600  0.818300  0.542900  1.0  0.11
  H  H182  1  0.723000  0.849500  0.588500  1.0  0.0865
  H  H183  1  0.754600  0.318300  0.042900  1.0  0.11
  H  H184  1  0.723000  0.349500  0.088500  1.0  0.0865
  H  H185  1  0.181700  0.042900  0.745400  1.0  0.1122
  H  H186  1  0.150500  0.088500  0.777000  1.0  0.0861
  H  H187  1  0.181700  0.542900  0.245400  1.0  0.1122
  H  H188  1  0.150500  0.588500  0.277000  1.0  0.0861
  H  H189  1  0.681700  0.042900  0.245400  1.0  0.1122
  H  H190  1  0.650500  0.088500  0.277000  1.0  0.0861
  H  H191  1  0.681700  0.542900  0.745400  1.0  0.1122
  H  H192  1  0.650500  0.588500  0.777000  1.0  0.0861
  H  H193  1  0.181700  0.957100  0.254600  1.0  0.111
  H  H194  1  0.150500  0.911500  0.223000  1.0  0.0856
  H  H195  1  0.181700  0.457100  0.754600  1.0  0.111
  H  H196  1  0.150500  0.411500  0.723000  1.0  0.0856
  H  H197  1  0.681700  0.957100  0.754600  1.0  0.111
  H  H198  1  0.650500  0.911500  0.723000  1.0  0.0856
  H  H199  1  0.681700  0.457100  0.254600  1.0  0.111
  H  H200  1  0.650500  0.411500  0.223000  1.0  0.0856
  H  H201  1  0.818300  0.042900  0.254600  1.0  0.1123
  H  H202  1  0.849500  0.088500  0.223000  1.0  0.0867
  H  H203  1  0.818300  0.542900  0.754600  1.0  0.1123
  H  H204  1  0.849500  0.588500  0.723000  1.0  0.0867
  H  H205  1  0.318300  0.042900  0.754600  1.0  0.1123
  H  H206  1  0.349500  0.088500  0.723000  1.0  0.0867
  H  H207  1  0.318300  0.542900  0.254600  1.0  0.1123
  H  H208  1  0.349500  0.588500  0.223000  1.0  0.0867
  H  H209  1  0.818300  0.957100  0.745400  1.0  0.1126
  H  H210  1  0.849500  0.911500  0.777000  1.0  0.0872
  H  H211  1  0.818300  0.457100  0.245400  1.0  0.1126
  H  H212  1  0.849500  0.411500  0.277000  1.0  0.0872
  H  H213  1  0.318300  0.957100  0.245400  1.0  0.1126
  H  H214  1  0.349500  0.911500  0.277000  1.0  0.0872
  H  H215  1  0.318300  0.457100  0.745400  1.0  0.1126
  H  H216  1  0.349500  0.411500  0.777000  1.0  0.0872
  H  H217  1  0.745400  0.957100  0.818300  1.0  0.11
  H  H218  1  0.777000  0.911500  0.849500  1.0  0.0862
  H  H219  1  0.745400  0.457100  0.318300  1.0  0.11
  H  H220  1  0.777000  0.411500  0.349500  1.0  0.0862
  H  H221  1  0.245400  0.957100  0.318300  1.0  0.11
  H  H222  1  0.277000  0.911500  0.349500  1.0  0.0862
  H  H223  1  0.245400  0.457100  0.818300  1.0  0.11
  H  H224  1  0.277000  0.411500  0.849500  1.0  0.0862
  H  H225  1  0.254600  0.042900  0.818300  1.0  0.1109
  H  H226  1  0.223000  0.088500  0.849500  1.0  0.0862
  H  H227  1  0.254600  0.542900  0.318300  1.0  0.1109
  H  H228  1  0.223000  0.588500  0.349500  1.0  0.0862
  H  H229  1  0.754600  0.042900  0.318300  1.0  0.1109
  H  H230  1  0.723000  0.088500  0.349500  1.0  0.0862
  H  H231  1  0.754600  0.542900  0.818300  1.0  0.1109
  H  H232  1  0.723000  0.588500  0.849500  1.0  0.0862
  H  H233  1  0.254600  0.957100  0.181700  1.0  0.1105
  H  H234  1  0.223000  0.911500  0.150500  1.0  0.0866
  H  H235  1  0.254600  0.457100  0.681700  1.0  0.1105
  H  H236  1  0.223000  0.411500  0.650500  1.0  0.0866
  H  H237  1  0.754600  0.957100  0.681700  1.0  0.1105
  H  H238  1  0.723000  0.911500  0.650500  1.0  0.0866
  H  H239  1  0.754600  0.457100  0.181700  1.0  0.1105
  H  H240  1  0.723000  0.411500  0.150500  1.0  0.0866
  H  H241  1  0.745400  0.042900  0.181700  1.0  0.1107
  H  H242  1  0.777000  0.088500  0.150500  1.0  0.0868
  H  H243  1  0.745400  0.542900  0.681700  1.0  0.1107
  H  H244  1  0.777000  0.588500  0.650500  1.0  0.0868
  H  H245  1  0.245400  0.042900  0.681700  1.0  0.1107
  H  H246  1  0.277000  0.088500  0.650500  1.0  0.0868
  H  H247  1  0.245400  0.542900  0.181700  1.0  0.1107
  H  H248  1  0.277000  0.588500  0.150500  1.0  0.0868
  H  H249  1  0.818300  0.745400  0.957100  1.0  0.1104
  H  H250  1  0.849500  0.777000  0.911500  1.0  0.0883
  H  H251  1  0.818300  0.245400  0.457100  1.0  0.1104
  H  H252  1  0.849500  0.277000  0.411500  1.0  0.0883
  H  H253  1  0.318300  0.745400  0.457100  1.0  0.1104
  H  H254  1  0.349500  0.777000  0.411500  1.0  0.0883
  H  H255  1  0.318300  0.245400  0.957100  1.0  0.1104
  H  H256  1  0.349500  0.277000  0.911500  1.0  0.0883
  H  H257  1  0.818300  0.254600  0.042900  1.0  0.1112
  H  H258  1  0.849500  0.223000  0.088500  1.0  0.0871
  H  H259  1  0.818300  0.754600  0.542900  1.0  0.1112
  H  H260  1  0.849500  0.723000  0.588500  1.0  0.0871
  H  H261  1  0.318300  0.254600  0.542900  1.0  0.1112
  H  H262  1  0.349500  0.223000  0.588500  1.0  0.0871
  H  H263  1  0.318300  0.754600  0.042900  1.0  0.1112
  H  H264  1  0.349500  0.723000  0.088500  1.0  0.0871
  H  H265  1  0.181700  0.254600  0.957100  1.0  0.1095
  H  H266  1  0.150500  0.223000  0.911500  1.0  0.087
  H  H267  1  0.181700  0.754600  0.457100  1.0  0.1095
  H  H268  1  0.150500  0.723000  0.411500  1.0  0.087
  H  H269  1  0.681700  0.254600  0.457100  1.0  0.1095
  H  H270  1  0.650500  0.223000  0.411500  1.0  0.087
  H  H271  1  0.681700  0.754600  0.957100  1.0  0.1095
  H  H272  1  0.650500  0.723000  0.911500  1.0  0.087
  H  H273  1  0.181700  0.745400  0.042900  1.0  0.1107
  H  H274  1  0.150500  0.777000  0.088500  1.0  0.087
  H  H275  1  0.181700  0.245400  0.542900  1.0  0.1107
  H  H276  1  0.150500  0.277000  0.588500  1.0  0.087
  H  H277  1  0.681700  0.745400  0.542900  1.0  0.1107
  H  H278  1  0.650500  0.777000  0.588500  1.0  0.087
  H  H279  1  0.681700  0.245400  0.042900  1.0  0.1107
  H  H280  1  0.650500  0.277000  0.088500  1.0  0.087
  H  H281  1  0.957100  0.818300  0.745400  1.0  0.1118
  H  H282  1  0.911500  0.849500  0.777000  1.0  0.0873
  H  H283  1  0.957100  0.318300  0.245400  1.0  0.1118
  H  H284  1  0.911500  0.349500  0.277000  1.0  0.0873
  H  H285  1  0.457100  0.818300  0.245400  1.0  0.1118
  H  H286  1  0.411500  0.849500  0.277000  1.0  0.0873
  H  H287  1  0.457100  0.318300  0.745400  1.0  0.1118
  H  H288  1  0.411500  0.349500  0.777000  1.0  0.0873
  H  H289  1  0.042900  0.818300  0.254600  1.0  0.1122
  H  H290  1  0.088500  0.849500  0.223000  1.0  0.0871
  H  H291  1  0.042900  0.318300  0.754600  1.0  0.1122
  H  H292  1  0.088500  0.349500  0.723000  1.0  0.0871
  H  H293  1  0.542900  0.818300  0.754600  1.0  0.1122
  H  H294  1  0.588500  0.849500  0.723000  1.0  0.0871
  H  H295  1  0.542900  0.318300  0.254600  1.0  0.1122
  H  H296  1  0.588500  0.349500  0.223000  1.0  0.0871
  H  H297  1  0.957100  0.181700  0.254600  1.0  0.112
  H  H298  1  0.911500  0.150500  0.223000  1.0  0.0867
  H  H299  1  0.957100  0.681700  0.754600  1.0  0.112
  H  H300  1  0.911500  0.650500  0.723000  1.0  0.0867
  H  H301  1  0.457100  0.181700  0.754600  1.0  0.112
  H  H302  1  0.411500  0.150500  0.723000  1.0  0.0867
  H  H303  1  0.457100  0.681700  0.254600  1.0  0.112
  H  H304  1  0.411500  0.650500  0.223000  1.0  0.0867
  H  H305  1  0.042900  0.181700  0.745400  1.0  0.1125
  H  H306  1  0.088500  0.150500  0.777000  1.0  0.0879
  H  H307  1  0.042900  0.681700  0.245400  1.0  0.1125
  H  H308  1  0.088500  0.650500  0.277000  1.0  0.0879
  H  H309  1  0.542900  0.181700  0.245400  1.0  0.1125
  H  H310  1  0.588500  0.150500  0.277000  1.0  0.0879
  H  H311  1  0.542900  0.681700  0.745400  1.0  0.1125
  H  H312  1  0.588500  0.650500  0.777000  1.0  0.0879
  H  H313  1  0.957100  0.745400  0.181700  1.0  0.1126
  H  H314  1  0.911500  0.777000  0.150500  1.0  0.0876
  H  H315  1  0.957100  0.245400  0.681700  1.0  0.1126
  H  H316  1  0.911500  0.277000  0.650500  1.0  0.0876
  H  H317  1  0.457100  0.745400  0.681700  1.0  0.1126
  H  H318  1  0.411500  0.777000  0.650500  1.0  0.0876
  H  H319  1  0.457100  0.245400  0.181700  1.0  0.1126
  H  H320  1  0.411500  0.277000  0.150500  1.0  0.0876
  H  H321  1  0.042900  0.254600  0.181700  1.0  0.1129
  H  H322  1  0.088500  0.223000  0.150500  1.0  0.087
  H  H323  1  0.042900  0.754600  0.681700  1.0  0.1129
  H  H324  1  0.088500  0.723000  0.650500  1.0  0.087
  H  H325  1  0.542900  0.254600  0.681700  1.0  0.1129
  H  H326  1  0.588500  0.223000  0.650500  1.0  0.087
  H  H327  1  0.542900  0.754600  0.181700  1.0  0.1129
  H  H328  1  0.588500  0.723000  0.150500  1.0  0.087
  H  H329  1  0.957100  0.254600  0.818300  1.0  0.112
  H  H330  1  0.911500  0.223000  0.849500  1.0  0.0864
  H  H331  1  0.957100  0.754600  0.318300  1.0  0.112
  H  H332  1  0.911500  0.723000  0.349500  1.0  0.0864
  H  H333  1  0.457100  0.254600  0.318300  1.0  0.112
  H  H334  1  0.411500  0.223000  0.349500  1.0  0.0864
  H  H335  1  0.457100  0.754600  0.818300  1.0  0.112
  H  H336  1  0.411500  0.723000  0.849500  1.0  0.0864
  H  H337  1  0.042900  0.745400  0.818300  1.0  0.1124
  H  H338  1  0.088500  0.777000  0.849500  1.0  0.0871
  H  H339  1  0.042900  0.245400  0.318300  1.0  0.1124
  H  H340  1  0.088500  0.277000  0.349500  1.0  0.0871
  H  H341  1  0.542900  0.745400  0.318300  1.0  0.1124
  H  H342  1  0.588500  0.777000  0.349500  1.0  0.0871
  H  H343  1  0.542900  0.245400  0.818300  1.0  0.1124
  H  H344  1  0.588500  0.277000  0.849500  1.0  0.0871
  H  H345  1  0.745400  0.818300  0.042900  1.0  0.1095
  H  H346  1  0.777000  0.849500  0.088500  1.0  0.0869
  H  H347  1  0.745400  0.318300  0.542900  1.0  0.1095
  H  H348  1  0.777000  0.349500  0.588500  1.0  0.0869
  H  H349  1  0.245400  0.818300  0.542900  1.0  0.1095
  H  H350  1  0.277000  0.849500  0.588500  1.0  0.0869
  H  H351  1  0.245400  0.318300  0.042900  1.0  0.1095
  H  H352  1  0.277000  0.349500  0.088500  1.0  0.0869
  H  H353  1  0.254600  0.818300  0.957100  1.0  0.1089
  H  H354  1  0.223000  0.849500  0.911500  1.0  0.0871
  H  H355  1  0.254600  0.318300  0.457100  1.0  0.1089
  H  H356  1  0.223000  0.349500  0.411500  1.0  0.0871
  H  H357  1  0.754600  0.818300  0.457100  1.0  0.1089
  H  H358  1  0.723000  0.849500  0.411500  1.0  0.0871
  H  H359  1  0.754600  0.318300  0.957100  1.0  0.1089
  H  H360  1  0.723000  0.349500  0.911500  1.0  0.0871
  H  H361  1  0.254600  0.181700  0.042900  1.0  0.1096
  H  H362  1  0.223000  0.150500  0.088500  1.0  0.0868
  H  H363  1  0.254600  0.681700  0.542900  1.0  0.1096
  H  H364  1  0.223000  0.650500  0.588500  1.0  0.0868
  H  H365  1  0.754600  0.181700  0.542900  1.0  0.1096
  H  H366  1  0.723000  0.150500  0.588500  1.0  0.0868
  H  H367  1  0.754600  0.681700  0.042900  1.0  0.1096
  H  H368  1  0.723000  0.650500  0.088500  1.0  0.0868
  H  H369  1  0.745400  0.181700  0.957100  1.0  0.1088
  H  H370  1  0.777000  0.150500  0.911500  1.0  0.0879
  H  H371  1  0.745400  0.681700  0.457100  1.0  0.1088
  H  H372  1  0.777000  0.650500  0.411500  1.0  0.0879
  H  H373  1  0.245400  0.181700  0.457100  1.0  0.1088
  H  H374  1  0.277000  0.150500  0.411500  1.0  0.0879
  H  H375  1  0.245400  0.681700  0.957100  1.0  0.1088
  H  H376  1  0.277000  0.650500  0.911500  1.0  0.0879
  H  H377  1  0.818300  0.957100  0.254600  1.0  0.1121
  H  H378  1  0.849500  0.911500  0.223000  1.0  0.0866
  H  H379  1  0.818300  0.457100  0.754600  1.0  0.1121
  H  H380  1  0.849500  0.411500  0.723000  1.0  0.0866
  H  H381  1  0.318300  0.957100  0.754600  1.0  0.1121
  H  H382  1  0.349500  0.911500  0.723000  1.0  0.0866
  H  H383  1  0.318300  0.457100  0.254600  1.0  0.1121
  H  H384  1  0.349500  0.411500  0.223000  1.0  0.0866
  H  H385  1  0.818300  0.042900  0.745400  1.0  0.1131
  H  H386  1  0.849500  0.088500  0.777000  1.0  0.0873
  H  H387  1  0.818300  0.542900  0.245400  1.0  0.1131
  H  H388  1  0.849500  0.588500  0.277000  1.0  0.0873
  H  H389  1  0.318300  0.042900  0.245400  1.0  0.1131
  H  H390  1  0.349500  0.088500  0.277000  1.0  0.0873
  H  H391  1  0.318300  0.542900  0.745400  1.0  0.1131
  H  H392  1  0.349500  0.588500  0.777000  1.0  0.0873
  H  H393  1  0.181700  0.957100  0.745400  1.0  0.111
  H  H394  1  0.150500  0.911500  0.777000  1.0  0.0861
  H  H395  1  0.181700  0.457100  0.245400  1.0  0.111
  H  H396  1  0.150500  0.411500  0.277000  1.0  0.0861
  H  H397  1  0.681700  0.957100  0.245400  1.0  0.111
  H  H398  1  0.650500  0.911500  0.277000  1.0  0.0861
  H  H399  1  0.681700  0.457100  0.745400  1.0  0.111
  H  H400  1  0.650500  0.411500  0.777000  1.0  0.0861
  H  H401  1  0.181700  0.042900  0.254600  1.0  0.1109
  H  H402  1  0.150500  0.088500  0.223000  1.0  0.0857
  H  H403  1  0.181700  0.542900  0.754600  1.0  0.1109
  H  H404  1  0.150500  0.588500  0.723000  1.0  0.0857
  H  H405  1  0.681700  0.042900  0.754600  1.0  0.1109
  H  H406  1  0.650500  0.088500  0.723000  1.0  0.0857
  H  H407  1  0.681700  0.542900  0.254600  1.0  0.1109
  H  H408  1  0.650500  0.588500  0.223000  1.0  0.0857
  C  C409  1  0.232700  0.052300  0.191500  1.0  0.0561
  C  C410  1  0.213200  0.079800  0.172800  1.0  -0.1183
  C  C411  1  0.232700  0.552300  0.691500  1.0  0.0561
  C  C412  1  0.213200  0.579800  0.672800  1.0  -0.1183
  C  C413  1  0.732700  0.052300  0.691500  1.0  0.0561
  C  C414  1  0.713200  0.079800  0.672800  1.0  -0.1183
  C  C415  1  0.732700  0.552300  0.191500  1.0  0.0561
  C  C416  1  0.713200  0.579800  0.172800  1.0  -0.1183
  C  C417  1  0.767300  0.947700  0.191500  1.0  0.055
  C  C418  1  0.786800  0.920200  0.172800  1.0  -0.119
  C  C419  1  0.767300  0.447700  0.691500  1.0  0.055
  C  C420  1  0.786800  0.420200  0.672800  1.0  -0.119
  C  C421  1  0.267300  0.947700  0.691500  1.0  0.055
  C  C422  1  0.286800  0.920200  0.672800  1.0  -0.119
  C  C423  1  0.267300  0.447700  0.191500  1.0  0.055
  C  C424  1  0.286800  0.420200  0.172800  1.0  -0.119
  C  C425  1  0.767300  0.052300  0.808500  1.0  0.0544
  C  C426  1  0.786800  0.079800  0.827200  1.0  -0.1187
  C  C427  1  0.767300  0.552300  0.308500  1.0  0.0544
  C  C428  1  0.786800  0.579800  0.327200  1.0  -0.1187
  C  C429  1  0.267300  0.052300  0.308500  1.0  0.0544
  C  C430  1  0.286800  0.079800  0.327200  1.0  -0.1187
  C  C431  1  0.267300  0.552300  0.808500  1.0  0.0544
  C  C432  1  0.286800  0.579800  0.827200  1.0  -0.1187
  C  C433  1  0.232700  0.947700  0.808500  1.0  0.0583
  C  C434  1  0.213200  0.920200  0.827200  1.0  -0.1176
  C  C435  1  0.232700  0.447700  0.308500  1.0  0.0583
  C  C436  1  0.213200  0.420200  0.327200  1.0  -0.1176
  C  C437  1  0.732700  0.947700  0.308500  1.0  0.0583
  C  C438  1  0.713200  0.920200  0.327200  1.0  -0.1176
  C  C439  1  0.732700  0.447700  0.808500  1.0  0.0583
  C  C440  1  0.713200  0.420200  0.827200  1.0  -0.1176
  C  C441  1  0.191500  0.232700  0.052300  1.0  0.0591
  C  C442  1  0.172800  0.213200  0.079800  1.0  -0.118
  C  C443  1  0.191500  0.732700  0.552300  1.0  0.0591
  C  C444  1  0.172800  0.713200  0.579800  1.0  -0.118
  C  C445  1  0.691500  0.232700  0.552300  1.0  0.0591
  C  C446  1  0.672800  0.213200  0.579800  1.0  -0.118
  C  C447  1  0.691500  0.732700  0.052300  1.0  0.0591
  C  C448  1  0.672800  0.713200  0.079800  1.0  -0.118
  C  C449  1  0.191500  0.767300  0.947700  1.0  0.0599
  C  C450  1  0.172800  0.786800  0.920200  1.0  -0.1167
  C  C451  1  0.191500  0.267300  0.447700  1.0  0.0599
  C  C452  1  0.172800  0.286800  0.420200  1.0  -0.1167
  C  C453  1  0.691500  0.767300  0.447700  1.0  0.0599
  C  C454  1  0.672800  0.786800  0.420200  1.0  -0.1167
  C  C455  1  0.691500  0.267300  0.947700  1.0  0.0599
  C  C456  1  0.672800  0.286800  0.920200  1.0  -0.1167
  C  C457  1  0.808500  0.767300  0.052300  1.0  0.0585
  C  C458  1  0.827200  0.786800  0.079800  1.0  -0.1155
  C  C459  1  0.808500  0.267300  0.552300  1.0  0.0585
  C  C460  1  0.827200  0.286800  0.579800  1.0  -0.1155
  C  C461  1  0.308500  0.767300  0.552300  1.0  0.0585
  C  C462  1  0.327200  0.786800  0.579800  1.0  -0.1155
  C  C463  1  0.308500  0.267300  0.052300  1.0  0.0585
  C  C464  1  0.327200  0.286800  0.079800  1.0  -0.1155
  C  C465  1  0.808500  0.232700  0.947700  1.0  0.0583
  C  C466  1  0.827200  0.213200  0.920200  1.0  -0.115
  C  C467  1  0.808500  0.732700  0.447700  1.0  0.0583
  C  C468  1  0.827200  0.713200  0.420200  1.0  -0.115
  C  C469  1  0.308500  0.232700  0.447700  1.0  0.0583
  C  C470  1  0.327200  0.213200  0.420200  1.0  -0.115
  C  C471  1  0.308500  0.732700  0.947700  1.0  0.0583
  C  C472  1  0.327200  0.713200  0.920200  1.0  -0.115
  C  C473  1  0.052300  0.191500  0.232700  1.0  0.0544
  C  C474  1  0.079800  0.172800  0.213200  1.0  -0.1194
  C  C475  1  0.052300  0.691500  0.732700  1.0  0.0544
  C  C476  1  0.079800  0.672800  0.713200  1.0  -0.1194
  C  C477  1  0.552300  0.191500  0.732700  1.0  0.0544
  C  C478  1  0.579800  0.172800  0.713200  1.0  -0.1194
  C  C479  1  0.552300  0.691500  0.232700  1.0  0.0544
  C  C480  1  0.579800  0.672800  0.213200  1.0  -0.1194
  C  C481  1  0.947700  0.191500  0.767300  1.0  0.057
  C  C482  1  0.920200  0.172800  0.786800  1.0  -0.1207
  C  C483  1  0.947700  0.691500  0.267300  1.0  0.057
  C  C484  1  0.920200  0.672800  0.286800  1.0  -0.1207
  C  C485  1  0.447700  0.191500  0.267300  1.0  0.057
  C  C486  1  0.420200  0.172800  0.286800  1.0  -0.1207
  C  C487  1  0.447700  0.691500  0.767300  1.0  0.057
  C  C488  1  0.420200  0.672800  0.786800  1.0  -0.1207
  C  C489  1  0.052300  0.808500  0.767300  1.0  0.0566
  C  C490  1  0.079800  0.827200  0.786800  1.0  -0.1179
  C  C491  1  0.052300  0.308500  0.267300  1.0  0.0566
  C  C492  1  0.079800  0.327200  0.286800  1.0  -0.1179
  C  C493  1  0.552300  0.808500  0.267300  1.0  0.0566
  C  C494  1  0.579800  0.827200  0.286800  1.0  -0.1179
  C  C495  1  0.552300  0.308500  0.767300  1.0  0.0566
  C  C496  1  0.579800  0.327200  0.786800  1.0  -0.1179
  C  C497  1  0.947700  0.808500  0.232700  1.0  0.0553
  C  C498  1  0.920200  0.827200  0.213200  1.0  -0.1188
  C  C499  1  0.947700  0.308500  0.732700  1.0  0.0553
  C  C500  1  0.920200  0.327200  0.713200  1.0  -0.1188
  C  C501  1  0.447700  0.808500  0.732700  1.0  0.0553
  C  C502  1  0.420200  0.827200  0.713200  1.0  -0.1188
  C  C503  1  0.447700  0.308500  0.232700  1.0  0.0553
  C  C504  1  0.420200  0.327200  0.213200  1.0  -0.1188
  C  C505  1  0.052300  0.232700  0.808500  1.0  0.0534
  C  C506  1  0.079800  0.213200  0.827200  1.0  -0.1172
  C  C507  1  0.052300  0.732700  0.308500  1.0  0.0534
  C  C508  1  0.079800  0.713200  0.327200  1.0  -0.1172
  C  C509  1  0.552300  0.232700  0.308500  1.0  0.0534
  C  C510  1  0.579800  0.213200  0.327200  1.0  -0.1172
  C  C511  1  0.552300  0.732700  0.808500  1.0  0.0534
  C  C512  1  0.579800  0.713200  0.827200  1.0  -0.1172
  C  C513  1  0.947700  0.767300  0.808500  1.0  0.0552
  C  C514  1  0.920200  0.786800  0.827200  1.0  -0.1181
  C  C515  1  0.947700  0.267300  0.308500  1.0  0.0552
  C  C516  1  0.920200  0.286800  0.327200  1.0  -0.1181
  C  C517  1  0.447700  0.767300  0.308500  1.0  0.0552
  C  C518  1  0.420200  0.786800  0.327200  1.0  -0.1181
  C  C519  1  0.447700  0.267300  0.808500  1.0  0.0552
  C  C520  1  0.420200  0.286800  0.827200  1.0  -0.1181
  C  C521  1  0.052300  0.767300  0.191500  1.0  0.0531
  C  C522  1  0.079800  0.786800  0.172800  1.0  -0.1184
  C  C523  1  0.052300  0.267300  0.691500  1.0  0.0531
  C  C524  1  0.079800  0.286800  0.672800  1.0  -0.1184
  C  C525  1  0.552300  0.767300  0.691500  1.0  0.0531
  C  C526  1  0.579800  0.786800  0.672800  1.0  -0.1184
  C  C527  1  0.552300  0.267300  0.191500  1.0  0.0531
  C  C528  1  0.579800  0.286800  0.172800  1.0  -0.1184
  C  C529  1  0.947700  0.232700  0.191500  1.0  0.0543
  C  C530  1  0.920200  0.213200  0.172800  1.0  -0.1188
  C  C531  1  0.947700  0.732700  0.691500  1.0  0.0543
  C  C532  1  0.920200  0.713200  0.672800  1.0  -0.1188
  C  C533  1  0.447700  0.232700  0.691500  1.0  0.0543
  C  C534  1  0.420200  0.213200  0.672800  1.0  -0.1188
  C  C535  1  0.447700  0.732700  0.191500  1.0  0.0543
  C  C536  1  0.420200  0.713200  0.172800  1.0  -0.1188
  C  C537  1  0.232700  0.191500  0.947700  1.0  0.059
  C  C538  1  0.213200  0.172800  0.920200  1.0  -0.1178
  C  C539  1  0.232700  0.691500  0.447700  1.0  0.059
  C  C540  1  0.213200  0.672800  0.420200  1.0  -0.1178
  C  C541  1  0.732700  0.191500  0.447700  1.0  0.059
  C  C542  1  0.713200  0.172800  0.420200  1.0  -0.1178
  C  C543  1  0.732700  0.691500  0.947700  1.0  0.059
  C  C544  1  0.713200  0.672800  0.920200  1.0  -0.1178
  C  C545  1  0.767300  0.191500  0.052300  1.0  0.0563
  C  C546  1  0.786800  0.172800  0.079800  1.0  -0.119
  C  C547  1  0.767300  0.691500  0.552300  1.0  0.0563
  C  C548  1  0.786800  0.672800  0.579800  1.0  -0.119
  C  C549  1  0.267300  0.191500  0.552300  1.0  0.0563
  C  C550  1  0.286800  0.172800  0.579800  1.0  -0.119
  C  C551  1  0.267300  0.691500  0.052300  1.0  0.0563
  C  C552  1  0.286800  0.672800  0.079800  1.0  -0.119
  C  C553  1  0.767300  0.808500  0.947700  1.0  0.0564
  C  C554  1  0.786800  0.827200  0.920200  1.0  -0.1173
  C  C555  1  0.767300  0.308500  0.447700  1.0  0.0564
  C  C556  1  0.786800  0.327200  0.420200  1.0  -0.1173
  C  C557  1  0.267300  0.808500  0.447700  1.0  0.0564
  C  C558  1  0.286800  0.827200  0.420200  1.0  -0.1173
  C  C559  1  0.267300  0.308500  0.947700  1.0  0.0564
  C  C560  1  0.286800  0.327200  0.920200  1.0  -0.1173
  C  C561  1  0.232700  0.808500  0.052300  1.0  0.0594
  C  C562  1  0.213200  0.827200  0.079800  1.0  -0.1159
  C  C563  1  0.232700  0.308500  0.552300  1.0  0.0594
  C  C564  1  0.213200  0.327200  0.579800  1.0  -0.1159
  C  C565  1  0.732700  0.808500  0.552300  1.0  0.0594
  C  C566  1  0.713200  0.827200  0.579800  1.0  -0.1159
  C  C567  1  0.732700  0.308500  0.052300  1.0  0.0594
  C  C568  1  0.713200  0.327200  0.079800  1.0  -0.1159
  C  C569  1  0.191500  0.052300  0.767300  1.0  0.0606
  C  C570  1  0.172800  0.079800  0.786800  1.0  -0.1193
  C  C571  1  0.191500  0.552300  0.267300  1.0  0.0606
  C  C572  1  0.172800  0.579800  0.286800  1.0  -0.1193
  C  C573  1  0.691500  0.052300  0.267300  1.0  0.0606
  C  C574  1  0.672800  0.079800  0.286800  1.0  -0.1193
  C  C575  1  0.691500  0.552300  0.767300  1.0  0.0606
  C  C576  1  0.672800  0.579800  0.786800  1.0  -0.1193
  C  C577  1  0.191500  0.947700  0.232700  1.0  0.0586
  C  C578  1  0.172800  0.920200  0.213200  1.0  -0.1189
  C  C579  1  0.191500  0.447700  0.732700  1.0  0.0586
  C  C580  1  0.172800  0.420200  0.713200  1.0  -0.1189
  C  C581  1  0.691500  0.947700  0.732700  1.0  0.0586
  C  C582  1  0.672800  0.920200  0.713200  1.0  -0.1189
  C  C583  1  0.691500  0.447700  0.232700  1.0  0.0586
  C  C584  1  0.672800  0.420200  0.213200  1.0  -0.1189
  C  C585  1  0.808500  0.052300  0.232700  1.0  0.0574
  C  C586  1  0.827200  0.079800  0.213200  1.0  -0.1172
  C  C587  1  0.808500  0.552300  0.732700  1.0  0.0574
  C  C588  1  0.827200  0.579800  0.713200  1.0  -0.1172
  C  C589  1  0.308500  0.052300  0.732700  1.0  0.0574
  C  C590  1  0.327200  0.079800  0.713200  1.0  -0.1172
  C  C591  1  0.308500  0.552300  0.232700  1.0  0.0574
  C  C592  1  0.327200  0.579800  0.213200  1.0  -0.1172
  C  C593  1  0.808500  0.947700  0.767300  1.0  0.0595
  C  C594  1  0.827200  0.920200  0.786800  1.0  -0.1183
  C  C595  1  0.808500  0.447700  0.267300  1.0  0.0595
  C  C596  1  0.827200  0.420200  0.286800  1.0  -0.1183
  C  C597  1  0.308500  0.947700  0.267300  1.0  0.0595
  C  C598  1  0.327200  0.920200  0.286800  1.0  -0.1183
  C  C599  1  0.308500  0.447700  0.767300  1.0  0.0595
  C  C600  1  0.327200  0.420200  0.786800  1.0  -0.1183
  C  C601  1  0.767300  0.947700  0.808500  1.0  0.0544
  C  C602  1  0.786800  0.920200  0.827200  1.0  -0.1241
  C  C603  1  0.767300  0.447700  0.308500  1.0  0.0544
  C  C604  1  0.786800  0.420200  0.327200  1.0  -0.1241
  C  C605  1  0.267300  0.947700  0.308500  1.0  0.0544
  C  C606  1  0.286800  0.920200  0.327200  1.0  -0.1241
  C  C607  1  0.267300  0.447700  0.808500  1.0  0.0544
  C  C608  1  0.286800  0.420200  0.827200  1.0  -0.1241
  C  C609  1  0.232700  0.052300  0.808500  1.0  0.0584
  C  C610  1  0.213200  0.079800  0.827200  1.0  -0.123
  C  C611  1  0.232700  0.552300  0.308500  1.0  0.0584
  C  C612  1  0.213200  0.579800  0.327200  1.0  -0.123
  C  C613  1  0.732700  0.052300  0.308500  1.0  0.0584
  C  C614  1  0.713200  0.079800  0.327200  1.0  -0.123
  C  C615  1  0.732700  0.552300  0.808500  1.0  0.0584
  C  C616  1  0.713200  0.579800  0.827200  1.0  -0.123
  C  C617  1  0.232700  0.947700  0.191500  1.0  0.0564
  C  C618  1  0.213200  0.920200  0.172800  1.0  -0.1242
  C  C619  1  0.232700  0.447700  0.691500  1.0  0.0564
  C  C620  1  0.213200  0.420200  0.672800  1.0  -0.1242
  C  C621  1  0.732700  0.947700  0.691500  1.0  0.0564
  C  C622  1  0.713200  0.920200  0.672800  1.0  -0.1242
  C  C623  1  0.732700  0.447700  0.191500  1.0  0.0564
  C  C624  1  0.713200  0.420200  0.172800  1.0  -0.1242
  C  C625  1  0.767300  0.052300  0.191500  1.0  0.0546
  C  C626  1  0.786800  0.079800  0.172800  1.0  -0.1244
  C  C627  1  0.767300  0.552300  0.691500  1.0  0.0546
  C  C628  1  0.786800  0.579800  0.672800  1.0  -0.1244
  C  C629  1  0.267300  0.052300  0.691500  1.0  0.0546
  C  C630  1  0.286800  0.079800  0.672800  1.0  -0.1244
  C  C631  1  0.267300  0.552300  0.191500  1.0  0.0546
  C  C632  1  0.286800  0.579800  0.172800  1.0  -0.1244
  C  C633  1  0.808500  0.767300  0.947700  1.0  0.0589
  C  C634  1  0.827200  0.786800  0.920200  1.0  -0.121
  C  C635  1  0.808500  0.267300  0.447700  1.0  0.0589
  C  C636  1  0.827200  0.286800  0.420200  1.0  -0.121
  C  C637  1  0.308500  0.767300  0.447700  1.0  0.0589
  C  C638  1  0.327200  0.786800  0.420200  1.0  -0.121
  C  C639  1  0.308500  0.267300  0.947700  1.0  0.0589
  C  C640  1  0.327200  0.286800  0.920200  1.0  -0.121
  C  C641  1  0.808500  0.232700  0.052300  1.0  0.0573
  C  C642  1  0.827200  0.213200  0.079800  1.0  -0.1205
  C  C643  1  0.808500  0.732700  0.552300  1.0  0.0573
  C  C644  1  0.827200  0.713200  0.579800  1.0  -0.1205
  C  C645  1  0.308500  0.232700  0.552300  1.0  0.0573
  C  C646  1  0.327200  0.213200  0.579800  1.0  -0.1205
  C  C647  1  0.308500  0.732700  0.052300  1.0  0.0573
  C  C648  1  0.327200  0.713200  0.079800  1.0  -0.1205
  C  C649  1  0.191500  0.232700  0.947700  1.0  0.0593
  C  C650  1  0.172800  0.213200  0.920200  1.0  -0.1224
  C  C651  1  0.191500  0.732700  0.447700  1.0  0.0593
  C  C652  1  0.172800  0.713200  0.420200  1.0  -0.1224
  C  C653  1  0.691500  0.232700  0.447700  1.0  0.0593
  C  C654  1  0.672800  0.213200  0.420200  1.0  -0.1224
  C  C655  1  0.691500  0.732700  0.947700  1.0  0.0593
  C  C656  1  0.672800  0.713200  0.920200  1.0  -0.1224
  C  C657  1  0.191500  0.767300  0.052300  1.0  0.0599
  C  C658  1  0.172800  0.786800  0.079800  1.0  -0.1232
  C  C659  1  0.191500  0.267300  0.552300  1.0  0.0599
  C  C660  1  0.172800  0.286800  0.579800  1.0  -0.1232
  C  C661  1  0.691500  0.767300  0.552300  1.0  0.0599
  C  C662  1  0.672800  0.786800  0.579800  1.0  -0.1232
  C  C663  1  0.691500  0.267300  0.052300  1.0  0.0599
  C  C664  1  0.672800  0.286800  0.079800  1.0  -0.1232
  C  C665  1  0.947700  0.808500  0.767300  1.0  0.0574
  C  C666  1  0.920200  0.827200  0.786800  1.0  -0.1246
  C  C667  1  0.947700  0.308500  0.267300  1.0  0.0574
  C  C668  1  0.920200  0.327200  0.286800  1.0  -0.1246
  C  C669  1  0.447700  0.808500  0.267300  1.0  0.0574
  C  C670  1  0.420200  0.827200  0.286800  1.0  -0.1246
  C  C671  1  0.447700  0.308500  0.767300  1.0  0.0574
  C  C672  1  0.420200  0.327200  0.786800  1.0  -0.1246
  C  C673  1  0.052300  0.808500  0.232700  1.0  0.0545
  C  C674  1  0.079800  0.827200  0.213200  1.0  -0.1225
  C  C675  1  0.052300  0.308500  0.732700  1.0  0.0545
  C  C676  1  0.079800  0.327200  0.713200  1.0  -0.1225
  C  C677  1  0.552300  0.808500  0.732700  1.0  0.0545
  C  C678  1  0.579800  0.827200  0.713200  1.0  -0.1225
  C  C679  1  0.552300  0.308500  0.232700  1.0  0.0545
  C  C680  1  0.579800  0.327200  0.213200  1.0  -0.1225
  C  C681  1  0.947700  0.191500  0.232700  1.0  0.0553
  C  C682  1  0.920200  0.172800  0.213200  1.0  -0.1257
  C  C683  1  0.947700  0.691500  0.732700  1.0  0.0553
  C  C684  1  0.920200  0.672800  0.713200  1.0  -0.1257
  C  C685  1  0.447700  0.191500  0.732700  1.0  0.0553
  C  C686  1  0.420200  0.172800  0.713200  1.0  -0.1257
  C  C687  1  0.447700  0.691500  0.232700  1.0  0.0553
  C  C688  1  0.420200  0.672800  0.213200  1.0  -0.1257
  C  C689  1  0.052300  0.191500  0.767300  1.0  0.0563
  C  C690  1  0.079800  0.172800  0.786800  1.0  -0.1259
  C  C691  1  0.052300  0.691500  0.267300  1.0  0.0563
  C  C692  1  0.079800  0.672800  0.286800  1.0  -0.1259
  C  C693  1  0.552300  0.191500  0.267300  1.0  0.0563
  C  C694  1  0.579800  0.172800  0.286800  1.0  -0.1259
  C  C695  1  0.552300  0.691500  0.767300  1.0  0.0563
  C  C696  1  0.579800  0.672800  0.786800  1.0  -0.1259
  C  C697  1  0.947700  0.767300  0.191500  1.0  0.0549
  C  C698  1  0.920200  0.786800  0.172800  1.0  -0.1249
  C  C699  1  0.947700  0.267300  0.691500  1.0  0.0549
  C  C700  1  0.920200  0.286800  0.672800  1.0  -0.1249
  C  C701  1  0.447700  0.767300  0.691500  1.0  0.0549
  C  C702  1  0.420200  0.786800  0.672800  1.0  -0.1249
  C  C703  1  0.447700  0.267300  0.191500  1.0  0.0549
  C  C704  1  0.420200  0.286800  0.172800  1.0  -0.1249
  C  C705  1  0.052300  0.232700  0.191500  1.0  0.0524
  C  C706  1  0.079800  0.213200  0.172800  1.0  -0.123
  C  C707  1  0.052300  0.732700  0.691500  1.0  0.0524
  C  C708  1  0.079800  0.713200  0.672800  1.0  -0.123
  C  C709  1  0.552300  0.232700  0.691500  1.0  0.0524
  C  C710  1  0.579800  0.213200  0.672800  1.0  -0.123
  C  C711  1  0.552300  0.732700  0.191500  1.0  0.0524
  C  C712  1  0.579800  0.713200  0.172800  1.0  -0.123
  C  C713  1  0.947700  0.232700  0.808500  1.0  0.0538
  C  C714  1  0.920200  0.213200  0.827200  1.0  -0.1244
  C  C715  1  0.947700  0.732700  0.308500  1.0  0.0538
  C  C716  1  0.920200  0.713200  0.327200  1.0  -0.1244
  C  C717  1  0.447700  0.232700  0.308500  1.0  0.0538
  C  C718  1  0.420200  0.213200  0.327200  1.0  -0.1244
  C  C719  1  0.447700  0.732700  0.808500  1.0  0.0538
  C  C720  1  0.420200  0.713200  0.827200  1.0  -0.1244
  C  C721  1  0.052300  0.767300  0.808500  1.0  0.055
  C  C722  1  0.079800  0.786800  0.827200  1.0  -0.1219
  C  C723  1  0.052300  0.267300  0.308500  1.0  0.055
  C  C724  1  0.079800  0.286800  0.327200  1.0  -0.1219
  C  C725  1  0.552300  0.767300  0.308500  1.0  0.055
  C  C726  1  0.579800  0.786800  0.327200  1.0  -0.1219
  C  C727  1  0.552300  0.267300  0.808500  1.0  0.055
  C  C728  1  0.579800  0.286800  0.827200  1.0  -0.1219
  C  C729  1  0.767300  0.808500  0.052300  1.0  0.0557
  C  C730  1  0.786800  0.827200  0.079800  1.0  -0.1234
  C  C731  1  0.767300  0.308500  0.552300  1.0  0.0557
  C  C732  1  0.786800  0.327200  0.579800  1.0  -0.1234
  C  C733  1  0.267300  0.808500  0.552300  1.0  0.0557
  C  C734  1  0.286800  0.827200  0.579800  1.0  -0.1234
  C  C735  1  0.267300  0.308500  0.052300  1.0  0.0557
  C  C736  1  0.286800  0.327200  0.079800  1.0  -0.1234
  C  C737  1  0.232700  0.808500  0.947700  1.0  0.0603
  C  C738  1  0.213200  0.827200  0.920200  1.0  -0.1217
  C  C739  1  0.232700  0.308500  0.447700  1.0  0.0603
  C  C740  1  0.213200  0.327200  0.420200  1.0  -0.1217
  C  C741  1  0.732700  0.808500  0.447700  1.0  0.0603
  C  C742  1  0.713200  0.827200  0.420200  1.0  -0.1217
  C  C743  1  0.732700  0.308500  0.947700  1.0  0.0603
  C  C744  1  0.713200  0.327200  0.920200  1.0  -0.1217
  C  C745  1  0.232700  0.191500  0.052300  1.0  0.0587
  C  C746  1  0.213200  0.172800  0.079800  1.0  -0.1241
  C  C747  1  0.232700  0.691500  0.552300  1.0  0.0587
  C  C748  1  0.213200  0.672800  0.579800  1.0  -0.1241
  C  C749  1  0.732700  0.191500  0.552300  1.0  0.0587
  C  C750  1  0.713200  0.172800  0.579800  1.0  -0.1241
  C  C751  1  0.732700  0.691500  0.052300  1.0  0.0587
  C  C752  1  0.713200  0.672800  0.079800  1.0  -0.1241
  C  C753  1  0.767300  0.191500  0.947700  1.0  0.0567
  C  C754  1  0.786800  0.172800  0.920200  1.0  -0.1242
  C  C755  1  0.767300  0.691500  0.447700  1.0  0.0567
  C  C756  1  0.786800  0.672800  0.420200  1.0  -0.1242
  C  C757  1  0.267300  0.191500  0.447700  1.0  0.0567
  C  C758  1  0.286800  0.172800  0.420200  1.0  -0.1242
  C  C759  1  0.267300  0.691500  0.947700  1.0  0.0567
  C  C760  1  0.286800  0.672800  0.920200  1.0  -0.1242
  C  C761  1  0.808500  0.947700  0.232700  1.0  0.0578
  C  C762  1  0.827200  0.920200  0.213200  1.0  -0.1224
  C  C763  1  0.808500  0.447700  0.732700  1.0  0.0578
  C  C764  1  0.827200  0.420200  0.713200  1.0  -0.1224
  C  C765  1  0.308500  0.947700  0.732700  1.0  0.0578
  C  C766  1  0.327200  0.920200  0.713200  1.0  -0.1224
  C  C767  1  0.308500  0.447700  0.232700  1.0  0.0578
  C  C768  1  0.327200  0.420200  0.213200  1.0  -0.1224
  C  C769  1  0.808500  0.052300  0.767300  1.0  0.0592
  C  C770  1  0.827200  0.079800  0.786800  1.0  -0.1235
  C  C771  1  0.808500  0.552300  0.267300  1.0  0.0592
  C  C772  1  0.827200  0.579800  0.286800  1.0  -0.1235
  C  C773  1  0.308500  0.052300  0.267300  1.0  0.0592
  C  C774  1  0.327200  0.079800  0.286800  1.0  -0.1235
  C  C775  1  0.308500  0.552300  0.767300  1.0  0.0592
  C  C776  1  0.327200  0.579800  0.786800  1.0  -0.1235
  C  C777  1  0.191500  0.947700  0.767300  1.0  0.0601
  C  C778  1  0.172800  0.920200  0.786800  1.0  -0.1253
  C  C779  1  0.191500  0.447700  0.267300  1.0  0.0601
  C  C780  1  0.172800  0.420200  0.286800  1.0  -0.1253
  C  C781  1  0.691500  0.947700  0.267300  1.0  0.0601
  C  C782  1  0.672800  0.920200  0.286800  1.0  -0.1253
  C  C783  1  0.691500  0.447700  0.767300  1.0  0.0601
  C  C784  1  0.672800  0.420200  0.786800  1.0  -0.1253
  C  C785  1  0.191500  0.052300  0.232700  1.0  0.0591
  C  C786  1  0.172800  0.079800  0.213200  1.0  -0.1252
  C  C787  1  0.191500  0.552300  0.732700  1.0  0.0591
  C  C788  1  0.172800  0.579800  0.713200  1.0  -0.1252
  C  C789  1  0.691500  0.052300  0.732700  1.0  0.0591
  C  C790  1  0.672800  0.079800  0.713200  1.0  -0.1252
  C  C791  1  0.691500  0.552300  0.232700  1.0  0.0591
  C  C792  1  0.672800  0.579800  0.213200  1.0  -0.1252
  C  C793  1  0.183800  0.093500  0.183800  1.0  0.0602
  C  C794  1  0.183800  0.593500  0.683800  1.0  0.0602
  C  C795  1  0.683800  0.093500  0.683800  1.0  0.0602
  C  C796  1  0.683800  0.593500  0.183800  1.0  0.0602
  C  C797  1  0.816200  0.906500  0.183800  1.0  0.0608
  C  C798  1  0.816200  0.406500  0.683800  1.0  0.0608
  C  C799  1  0.316200  0.906500  0.683800  1.0  0.0608
  C  C800  1  0.316200  0.406500  0.183800  1.0  0.0608
  C  C801  1  0.816200  0.093500  0.816200  1.0  0.0604
  C  C802  1  0.816200  0.593500  0.316200  1.0  0.0604
  C  C803  1  0.316200  0.093500  0.316200  1.0  0.0604
  C  C804  1  0.316200  0.593500  0.816200  1.0  0.0604
  C  C805  1  0.183800  0.906500  0.816200  1.0  0.0598
  C  C806  1  0.183800  0.406500  0.316200  1.0  0.0598
  C  C807  1  0.683800  0.906500  0.316200  1.0  0.0598
  C  C808  1  0.683800  0.406500  0.816200  1.0  0.0598
  C  C809  1  0.183800  0.183800  0.093500  1.0  0.0603
  C  C810  1  0.183800  0.683800  0.593500  1.0  0.0603
  C  C811  1  0.683800  0.183800  0.593500  1.0  0.0603
  C  C812  1  0.683800  0.683800  0.093500  1.0  0.0603
  C  C813  1  0.183800  0.816200  0.906500  1.0  0.059
  C  C814  1  0.183800  0.316200  0.406500  1.0  0.059
  C  C815  1  0.683800  0.816200  0.406500  1.0  0.059
  C  C816  1  0.683800  0.316200  0.906500  1.0  0.059
  C  C817  1  0.816200  0.816200  0.093500  1.0  0.0597
  C  C818  1  0.816200  0.316200  0.593500  1.0  0.0597
  C  C819  1  0.316200  0.816200  0.593500  1.0  0.0597
  C  C820  1  0.316200  0.316200  0.093500  1.0  0.0597
  C  C821  1  0.816200  0.183800  0.906500  1.0  0.0604
  C  C822  1  0.816200  0.683800  0.406500  1.0  0.0604
  C  C823  1  0.316200  0.183800  0.406500  1.0  0.0604
  C  C824  1  0.316200  0.683800  0.906500  1.0  0.0604
  C  C825  1  0.093500  0.183800  0.183800  1.0  0.0566
  C  C826  1  0.093500  0.683800  0.683800  1.0  0.0566
  C  C827  1  0.593500  0.183800  0.683800  1.0  0.0566
  C  C828  1  0.593500  0.683800  0.183800  1.0  0.0566
  C  C829  1  0.906500  0.183800  0.816200  1.0  0.0535
  C  C830  1  0.906500  0.683800  0.316200  1.0  0.0535
  C  C831  1  0.406500  0.183800  0.316200  1.0  0.0535
  C  C832  1  0.406500  0.683800  0.816200  1.0  0.0535
  C  C833  1  0.093500  0.816200  0.816200  1.0  0.0559
  C  C834  1  0.093500  0.316200  0.316200  1.0  0.0559
  C  C835  1  0.593500  0.816200  0.316200  1.0  0.0559
  C  C836  1  0.593500  0.316200  0.816200  1.0  0.0559
  C  C837  1  0.906500  0.816200  0.183800  1.0  0.0528
  C  C838  1  0.906500  0.316200  0.683800  1.0  0.0528
  C  C839  1  0.406500  0.816200  0.683800  1.0  0.0528
  C  C840  1  0.406500  0.316200  0.183800  1.0  0.0528
  C  C841  1  0.093500  0.183800  0.816200  1.0  0.0567
  C  C842  1  0.093500  0.683800  0.316200  1.0  0.0567
  C  C843  1  0.593500  0.183800  0.316200  1.0  0.0567
  C  C844  1  0.593500  0.683800  0.816200  1.0  0.0567
  C  C845  1  0.906500  0.816200  0.816200  1.0  0.0534
  C  C846  1  0.906500  0.316200  0.316200  1.0  0.0534
  C  C847  1  0.406500  0.816200  0.316200  1.0  0.0534
  C  C848  1  0.406500  0.316200  0.816200  1.0  0.0534
  C  C849  1  0.093500  0.816200  0.183800  1.0  0.0559
  C  C850  1  0.093500  0.316200  0.683800  1.0  0.0559
  C  C851  1  0.593500  0.816200  0.683800  1.0  0.0559
  C  C852  1  0.593500  0.316200  0.183800  1.0  0.0559
  C  C853  1  0.906500  0.183800  0.183800  1.0  0.0525
  C  C854  1  0.906500  0.683800  0.683800  1.0  0.0525
  C  C855  1  0.406500  0.183800  0.683800  1.0  0.0525
  C  C856  1  0.406500  0.683800  0.183800  1.0  0.0525
  C  C857  1  0.183800  0.183800  0.906500  1.0  0.0597
  C  C858  1  0.183800  0.683800  0.406500  1.0  0.0597
  C  C859  1  0.683800  0.183800  0.406500  1.0  0.0597
  C  C860  1  0.683800  0.683800  0.906500  1.0  0.0597
  C  C861  1  0.816200  0.183800  0.093500  1.0  0.0611
  C  C862  1  0.816200  0.683800  0.593500  1.0  0.0611
  C  C863  1  0.316200  0.183800  0.593500  1.0  0.0611
  C  C864  1  0.316200  0.683800  0.093500  1.0  0.0611
  C  C865  1  0.816200  0.816200  0.906500  1.0  0.0592
  C  C866  1  0.816200  0.316200  0.406500  1.0  0.0592
  C  C867  1  0.316200  0.816200  0.406500  1.0  0.0592
  C  C868  1  0.316200  0.316200  0.906500  1.0  0.0592
  C  C869  1  0.183800  0.816200  0.093500  1.0  0.0595
  C  C870  1  0.183800  0.316200  0.593500  1.0  0.0595
  C  C871  1  0.683800  0.816200  0.593500  1.0  0.0595
  C  C872  1  0.683800  0.316200  0.093500  1.0  0.0595
  C  C873  1  0.183800  0.093500  0.816200  1.0  0.0605
  C  C874  1  0.183800  0.593500  0.316200  1.0  0.0605
  C  C875  1  0.683800  0.093500  0.316200  1.0  0.0605
  C  C876  1  0.683800  0.593500  0.816200  1.0  0.0605
  C  C877  1  0.183800  0.906500  0.183800  1.0  0.0599
  C  C878  1  0.183800  0.406500  0.683800  1.0  0.0599
  C  C879  1  0.683800  0.906500  0.683800  1.0  0.0599
  C  C880  1  0.683800  0.406500  0.183800  1.0  0.0599
  C  C881  1  0.816200  0.093500  0.183800  1.0  0.0603
  C  C882  1  0.816200  0.593500  0.683800  1.0  0.0603
  C  C883  1  0.316200  0.093500  0.683800  1.0  0.0603
  C  C884  1  0.316200  0.593500  0.183800  1.0  0.0603
  C  C885  1  0.816200  0.906500  0.816200  1.0  0.0608
  C  C886  1  0.816200  0.406500  0.316200  1.0  0.0608
  C  C887  1  0.316200  0.906500  0.316200  1.0  0.0608
  C  C888  1  0.316200  0.406500  0.816200  1.0  0.0608
  C  C889  1  0.185400  0.000000  0.314600  1.0  0.2165
  C  C890  1  0.185400  0.500000  0.814600  1.0  0.2165
  C  C891  1  0.814600  0.000000  0.314600  1.0  0.214
  C  C892  1  0.814600  0.500000  0.814600  1.0  0.214
  C  C893  1  0.314600  0.500000  0.314600  1.0  0.214
  C  C894  1  0.814600  0.000000  0.685400  1.0  0.2165
  C  C895  1  0.814600  0.500000  0.185400  1.0  0.2165
  C  C896  1  0.314600  0.000000  0.185400  1.0  0.2165
  C  C897  1  0.185400  0.000000  0.685400  1.0  0.2161
  C  C898  1  0.185400  0.500000  0.185400  1.0  0.2161
  C  C899  1  0.314600  0.185400  0.000000  1.0  0.2218
  C  C900  1  0.314600  0.685400  0.500000  1.0  0.2218
  C  C901  1  0.314600  0.814600  0.000000  1.0  0.2209
  C  C902  1  0.314600  0.314600  0.500000  1.0  0.2209
  C  C903  1  0.685400  0.814600  0.000000  1.0  0.221
  C  C904  1  0.685400  0.314600  0.500000  1.0  0.221
  C  C905  1  0.185400  0.314600  0.000000  1.0  0.221
  C  C906  1  0.685400  0.185400  0.000000  1.0  0.221
  C  C907  1  0.685400  0.685400  0.500000  1.0  0.221
  C  C908  1  0.185400  0.185400  0.500000  1.0  0.221
  C  C909  1  0.000000  0.314600  0.185400  1.0  0.2108
  C  C910  1  0.500000  0.314600  0.685400  1.0  0.2108
  C  C911  1  0.000000  0.314600  0.814600  1.0  0.2118
  C  C912  1  0.500000  0.314600  0.314600  1.0  0.2118
  C  C913  1  0.000000  0.685400  0.814600  1.0  0.2093
  C  C914  1  0.000000  0.185400  0.314600  1.0  0.2093
  C  C915  1  0.500000  0.685400  0.314600  1.0  0.2093
  C  C916  1  0.000000  0.685400  0.185400  1.0  0.2126
  C  C917  1  0.500000  0.685400  0.685400  1.0  0.2126
  C  C918  1  0.500000  0.185400  0.185400  1.0  0.2126
  C  C919  1  0.000000  0.185400  0.685400  1.0  0.2126
  C  C920  1  0.000000  0.814600  0.685400  1.0  0.2108
  C  C921  1  0.500000  0.814600  0.185400  1.0  0.2108
  C  C922  1  0.000000  0.814600  0.314600  1.0  0.2118
  C  C923  1  0.500000  0.814600  0.814600  1.0  0.2118
  C  C924  1  0.500000  0.185400  0.814600  1.0  0.2093
  C  C925  1  0.185400  0.814600  0.500000  1.0  0.221
  C  C926  1  0.814600  0.314600  0.000000  1.0  0.2209
  C  C927  1  0.814600  0.814600  0.500000  1.0  0.2209
  C  C928  1  0.814600  0.685400  0.000000  1.0  0.2218
  C  C929  1  0.814600  0.185400  0.500000  1.0  0.2218
  C  C930  1  0.185400  0.685400  0.000000  1.0  0.221
  C  C931  1  0.314600  0.000000  0.814600  1.0  0.214
  C  C932  1  0.314600  0.500000  0.685400  1.0  0.2165
  C  C933  1  0.685400  0.000000  0.185400  1.0  0.2161
  C  C934  1  0.685400  0.500000  0.685400  1.0  0.2161
  C  C935  1  0.685400  0.000000  0.814600  1.0  0.2165
  C  C936  1  0.685400  0.500000  0.314600  1.0  0.2165
  C  C937  1  0.179900  0.132000  0.132000  1.0  -0.0313
  C  C938  1  0.179900  0.632000  0.632000  1.0  -0.0313
  C  C939  1  0.679900  0.132000  0.632000  1.0  -0.0313
  C  C940  1  0.679900  0.632000  0.132000  1.0  -0.0313
  C  C941  1  0.820100  0.868000  0.132000  1.0  -0.0311
  C  C942  1  0.820100  0.368000  0.632000  1.0  -0.0311
  C  C943  1  0.320100  0.868000  0.632000  1.0  -0.0311
  C  C944  1  0.320100  0.368000  0.132000  1.0  -0.0311
  C  C945  1  0.820100  0.132000  0.868000  1.0  -0.0319
  C  C946  1  0.820100  0.632000  0.368000  1.0  -0.0319
  C  C947  1  0.320100  0.132000  0.368000  1.0  -0.0319
  C  C948  1  0.320100  0.632000  0.868000  1.0  -0.0319
  C  C949  1  0.179900  0.868000  0.868000  1.0  -0.0325
  C  C950  1  0.179900  0.368000  0.368000  1.0  -0.0325
  C  C951  1  0.679900  0.868000  0.368000  1.0  -0.0325
  C  C952  1  0.679900  0.368000  0.868000  1.0  -0.0325
  C  C953  1  0.132000  0.179900  0.132000  1.0  -0.0296
  C  C954  1  0.132000  0.679900  0.632000  1.0  -0.0296
  C  C955  1  0.632000  0.179900  0.632000  1.0  -0.0296
  C  C956  1  0.632000  0.679900  0.132000  1.0  -0.0296
  C  C957  1  0.132000  0.820100  0.868000  1.0  -0.031
  C  C958  1  0.132000  0.320100  0.368000  1.0  -0.031
  C  C959  1  0.632000  0.820100  0.368000  1.0  -0.031
  C  C960  1  0.632000  0.320100  0.868000  1.0  -0.031
  C  C961  1  0.868000  0.820100  0.132000  1.0  -0.0298
  C  C962  1  0.868000  0.320100  0.632000  1.0  -0.0298
  C  C963  1  0.368000  0.820100  0.632000  1.0  -0.0298
  C  C964  1  0.368000  0.320100  0.132000  1.0  -0.0298
  C  C965  1  0.868000  0.179900  0.868000  1.0  -0.0305
  C  C966  1  0.868000  0.679900  0.368000  1.0  -0.0305
  C  C967  1  0.368000  0.179900  0.368000  1.0  -0.0305
  C  C968  1  0.368000  0.679900  0.868000  1.0  -0.0305
  C  C969  1  0.132000  0.132000  0.179900  1.0  -0.0351
  C  C970  1  0.132000  0.632000  0.679900  1.0  -0.0351
  C  C971  1  0.632000  0.132000  0.679900  1.0  -0.0351
  C  C972  1  0.632000  0.632000  0.179900  1.0  -0.0351
  C  C973  1  0.868000  0.132000  0.820100  1.0  -0.0335
  C  C974  1  0.868000  0.632000  0.320100  1.0  -0.0335
  C  C975  1  0.368000  0.132000  0.320100  1.0  -0.0335
  C  C976  1  0.368000  0.632000  0.820100  1.0  -0.0335
  C  C977  1  0.132000  0.868000  0.820100  1.0  -0.0331
  C  C978  1  0.132000  0.368000  0.320100  1.0  -0.0331
  C  C979  1  0.632000  0.868000  0.320100  1.0  -0.0331
  C  C980  1  0.632000  0.368000  0.820100  1.0  -0.0331
  C  C981  1  0.868000  0.868000  0.179900  1.0  -0.0349
  C  C982  1  0.868000  0.368000  0.679900  1.0  -0.0349
  C  C983  1  0.368000  0.868000  0.679900  1.0  -0.0349
  C  C984  1  0.368000  0.368000  0.179900  1.0  -0.0349
  C  C985  1  0.132000  0.179900  0.868000  1.0  -0.0311
  C  C986  1  0.132000  0.679900  0.368000  1.0  -0.0311
  C  C987  1  0.632000  0.179900  0.368000  1.0  -0.0311
  C  C988  1  0.632000  0.679900  0.868000  1.0  -0.0311
  C  C989  1  0.868000  0.820100  0.868000  1.0  -0.0306
  C  C990  1  0.868000  0.320100  0.368000  1.0  -0.0306
  C  C991  1  0.368000  0.820100  0.368000  1.0  -0.0306
  C  C992  1  0.368000  0.320100  0.868000  1.0  -0.0306
  C  C993  1  0.132000  0.820100  0.132000  1.0  -0.0305
  C  C994  1  0.132000  0.320100  0.632000  1.0  -0.0305
  C  C995  1  0.632000  0.820100  0.632000  1.0  -0.0305
  C  C996  1  0.632000  0.320100  0.132000  1.0  -0.0305
  C  C997  1  0.868000  0.179900  0.132000  1.0  -0.0289
  C  C998  1  0.868000  0.679900  0.632000  1.0  -0.0289
  C  C999  1  0.368000  0.179900  0.632000  1.0  -0.0289
  C  C1000  1  0.368000  0.679900  0.132000  1.0  -0.0289
  C  C1001  1  0.179900  0.132000  0.868000  1.0  -0.0318
  C  C1002  1  0.179900  0.632000  0.368000  1.0  -0.0318
  C  C1003  1  0.679900  0.132000  0.368000  1.0  -0.0318
  C  C1004  1  0.679900  0.632000  0.868000  1.0  -0.0318
  C  C1005  1  0.820100  0.132000  0.132000  1.0  -0.0316
  C  C1006  1  0.820100  0.632000  0.632000  1.0  -0.0316
  C  C1007  1  0.320100  0.132000  0.632000  1.0  -0.0316
  C  C1008  1  0.320100  0.632000  0.132000  1.0  -0.0316
  C  C1009  1  0.820100  0.868000  0.868000  1.0  -0.033
  C  C1010  1  0.820100  0.368000  0.368000  1.0  -0.033
  C  C1011  1  0.320100  0.868000  0.368000  1.0  -0.033
  C  C1012  1  0.320100  0.368000  0.868000  1.0  -0.033
  C  C1013  1  0.179900  0.868000  0.132000  1.0  -0.031
  C  C1014  1  0.179900  0.368000  0.632000  1.0  -0.031
  C  C1015  1  0.679900  0.868000  0.632000  1.0  -0.031
  C  C1016  1  0.679900  0.368000  0.132000  1.0  -0.031
  C  C1017  1  0.132000  0.132000  0.820100  1.0  -0.0339
  C  C1018  1  0.132000  0.632000  0.320100  1.0  -0.0339
  C  C1019  1  0.632000  0.132000  0.320100  1.0  -0.0339
  C  C1020  1  0.632000  0.632000  0.820100  1.0  -0.0339
  C  C1021  1  0.132000  0.868000  0.179900  1.0  -0.036
  C  C1022  1  0.132000  0.368000  0.679900  1.0  -0.036
  C  C1023  1  0.632000  0.868000  0.679900  1.0  -0.036
  C  C1024  1  0.632000  0.368000  0.179900  1.0  -0.036
  C  C1025  1  0.868000  0.132000  0.179900  1.0  -0.034
  C  C1026  1  0.868000  0.632000  0.679900  1.0  -0.034
  C  C1027  1  0.368000  0.132000  0.679900  1.0  -0.034
  C  C1028  1  0.368000  0.632000  0.179900  1.0  -0.034
  C  C1029  1  0.868000  0.868000  0.820100  1.0  -0.0329
  C  C1030  1  0.868000  0.368000  0.320100  1.0  -0.0329
  C  C1031  1  0.368000  0.868000  0.320100  1.0  -0.0329
  C  C1032  1  0.368000  0.368000  0.820100  1.0  -0.0329
  S  S1033  1  0.157960  0.000000  0.342040  1.0  -0.1282
  S  S1034  1  0.157960  0.500000  0.842040  1.0  -0.1282
  S  S1035  1  0.842040  0.000000  0.342040  1.0  -0.1289
  S  S1036  1  0.842040  0.500000  0.842040  1.0  -0.1289
  S  S1037  1  0.342040  0.500000  0.342040  1.0  -0.1289
  S  S1038  1  0.842040  0.000000  0.657960  1.0  -0.1295
  S  S1039  1  0.842040  0.500000  0.157960  1.0  -0.1295
  S  S1040  1  0.342040  0.000000  0.157960  1.0  -0.1295
  S  S1041  1  0.157960  0.000000  0.657960  1.0  -0.13
  S  S1042  1  0.157960  0.500000  0.157960  1.0  -0.13
  S  S1043  1  0.342040  0.157960  0.000000  1.0  -0.1267
  S  S1044  1  0.342040  0.657960  0.500000  1.0  -0.1267
  S  S1045  1  0.342040  0.842040  0.000000  1.0  -0.1267
  S  S1046  1  0.342040  0.342040  0.500000  1.0  -0.1267
  S  S1047  1  0.657960  0.842040  0.000000  1.0  -0.1267
  S  S1048  1  0.657960  0.342040  0.500000  1.0  -0.1267
  S  S1049  1  0.157960  0.342040  0.000000  1.0  -0.1267
  S  S1050  1  0.657960  0.157960  0.000000  1.0  -0.1277
  S  S1051  1  0.657960  0.657960  0.500000  1.0  -0.1277
  S  S1052  1  0.157960  0.157960  0.500000  1.0  -0.1277
  S  S1053  1  0.000000  0.342040  0.157960  1.0  -0.1315
  S  S1054  1  0.500000  0.342040  0.657960  1.0  -0.1315
  S  S1055  1  0.000000  0.342040  0.842040  1.0  -0.1289
  S  S1056  1  0.500000  0.342040  0.342040  1.0  -0.1289
  S  S1057  1  0.000000  0.657960  0.842040  1.0  -0.1305
  S  S1058  1  0.000000  0.157960  0.342040  1.0  -0.1305
  S  S1059  1  0.500000  0.657960  0.342040  1.0  -0.1305
  S  S1060  1  0.000000  0.657960  0.157960  1.0  -0.1309
  S  S1061  1  0.500000  0.657960  0.657960  1.0  -0.1309
  S  S1062  1  0.500000  0.157960  0.157960  1.0  -0.1309
  S  S1063  1  0.000000  0.157960  0.657960  1.0  -0.1309
  S  S1064  1  0.000000  0.842040  0.657960  1.0  -0.1315
  S  S1065  1  0.500000  0.842040  0.157960  1.0  -0.1315
  S  S1066  1  0.000000  0.842040  0.342040  1.0  -0.1289
  S  S1067  1  0.500000  0.842040  0.842040  1.0  -0.1289
  S  S1068  1  0.500000  0.157960  0.842040  1.0  -0.1305
  S  S1069  1  0.157960  0.842040  0.500000  1.0  -0.1267
  S  S1070  1  0.842040  0.342040  0.000000  1.0  -0.1267
  S  S1071  1  0.842040  0.842040  0.500000  1.0  -0.1267
  S  S1072  1  0.842040  0.657960  0.000000  1.0  -0.1267
  S  S1073  1  0.842040  0.157960  0.500000  1.0  -0.1267
  S  S1074  1  0.157960  0.657960  0.000000  1.0  -0.1277
  S  S1075  1  0.342040  0.000000  0.842040  1.0  -0.1289
  S  S1076  1  0.342040  0.500000  0.657960  1.0  -0.1295
  S  S1077  1  0.657960  0.000000  0.157960  1.0  -0.13
  S  S1078  1  0.657960  0.500000  0.657960  1.0  -0.13
  S  S1079  1  0.657960  0.000000  0.842040  1.0  -0.1282
  S  S1080  1  0.657960  0.500000  0.342040  1.0  -0.1282
  N  N1081  1  0.220820  0.040500  0.220820  1.0  -0.1747
  N  N1082  1  0.163200  0.119400  0.163200  1.0  -0.1315
  N  N1083  1  0.220820  0.540500  0.720820  1.0  -0.1747
  N  N1084  1  0.163200  0.619400  0.663200  1.0  -0.1315
  N  N1085  1  0.720820  0.040500  0.720820  1.0  -0.1747
  N  N1086  1  0.663200  0.119400  0.663200  1.0  -0.1315
  N  N1087  1  0.720820  0.540500  0.220820  1.0  -0.1747
  N  N1088  1  0.663200  0.619400  0.163200  1.0  -0.1315
  N  N1089  1  0.779180  0.959500  0.220820  1.0  -0.1739
  N  N1090  1  0.836800  0.880600  0.163200  1.0  -0.1313
  N  N1091  1  0.779180  0.459500  0.720820  1.0  -0.1739
  N  N1092  1  0.836800  0.380600  0.663200  1.0  -0.1313
  N  N1093  1  0.279180  0.959500  0.720820  1.0  -0.1739
  N  N1094  1  0.336800  0.880600  0.663200  1.0  -0.1313
  N  N1095  1  0.279180  0.459500  0.220820  1.0  -0.1739
  N  N1096  1  0.336800  0.380600  0.163200  1.0  -0.1313
  N  N1097  1  0.779180  0.040500  0.779180  1.0  -0.1722
  N  N1098  1  0.836800  0.119400  0.836800  1.0  -0.1316
  N  N1099  1  0.779180  0.540500  0.279180  1.0  -0.1722
  N  N1100  1  0.836800  0.619400  0.336800  1.0  -0.1316
  N  N1101  1  0.279180  0.040500  0.279180  1.0  -0.1722
  N  N1102  1  0.336800  0.119400  0.336800  1.0  -0.1316
  N  N1103  1  0.279180  0.540500  0.779180  1.0  -0.1722
  N  N1104  1  0.336800  0.619400  0.836800  1.0  -0.1316
  N  N1105  1  0.220820  0.959500  0.779180  1.0  -0.1752
  N  N1106  1  0.163200  0.880600  0.836800  1.0  -0.1307
  N  N1107  1  0.220820  0.459500  0.279180  1.0  -0.1752
  N  N1108  1  0.163200  0.380600  0.336800  1.0  -0.1307
  N  N1109  1  0.720820  0.959500  0.279180  1.0  -0.1752
  N  N1110  1  0.663200  0.880600  0.336800  1.0  -0.1307
  N  N1111  1  0.720820  0.459500  0.779180  1.0  -0.1752
  N  N1112  1  0.663200  0.380600  0.836800  1.0  -0.1307
  N  N1113  1  0.220820  0.220820  0.040500  1.0  -0.1741
  N  N1114  1  0.163200  0.163200  0.119400  1.0  -0.1317
  N  N1115  1  0.220820  0.720820  0.540500  1.0  -0.1741
  N  N1116  1  0.163200  0.663200  0.619400  1.0  -0.1317
  N  N1117  1  0.720820  0.220820  0.540500  1.0  -0.1741
  N  N1118  1  0.663200  0.163200  0.619400  1.0  -0.1317
  N  N1119  1  0.720820  0.720820  0.040500  1.0  -0.1741
  N  N1120  1  0.663200  0.663200  0.119400  1.0  -0.1317
  N  N1121  1  0.220820  0.779180  0.959500  1.0  -0.1753
  N  N1122  1  0.163200  0.836800  0.880600  1.0  -0.131
  N  N1123  1  0.220820  0.279180  0.459500  1.0  -0.1753
  N  N1124  1  0.163200  0.336800  0.380600  1.0  -0.131
  N  N1125  1  0.720820  0.779180  0.459500  1.0  -0.1753
  N  N1126  1  0.663200  0.836800  0.380600  1.0  -0.131
  N  N1127  1  0.720820  0.279180  0.959500  1.0  -0.1753
  N  N1128  1  0.663200  0.336800  0.880600  1.0  -0.131
  N  N1129  1  0.779180  0.779180  0.040500  1.0  -0.1721
  N  N1130  1  0.836800  0.836800  0.119400  1.0  -0.131
  N  N1131  1  0.779180  0.279180  0.540500  1.0  -0.1721
  N  N1132  1  0.836800  0.336800  0.619400  1.0  -0.131
  N  N1133  1  0.279180  0.779180  0.540500  1.0  -0.1721
  N  N1134  1  0.336800  0.836800  0.619400  1.0  -0.131
  N  N1135  1  0.279180  0.279180  0.040500  1.0  -0.1721
  N  N1136  1  0.336800  0.336800  0.119400  1.0  -0.131
  N  N1137  1  0.779180  0.220820  0.959500  1.0  -0.1734
  N  N1138  1  0.836800  0.163200  0.880600  1.0  -0.1324
  N  N1139  1  0.779180  0.720820  0.459500  1.0  -0.1734
  N  N1140  1  0.836800  0.663200  0.380600  1.0  -0.1324
  N  N1141  1  0.279180  0.220820  0.459500  1.0  -0.1734
  N  N1142  1  0.336800  0.163200  0.380600  1.0  -0.1324
  N  N1143  1  0.279180  0.720820  0.959500  1.0  -0.1734
  N  N1144  1  0.336800  0.663200  0.880600  1.0  -0.1324
  N  N1145  1  0.040500  0.220820  0.220820  1.0  -0.1723
  N  N1146  1  0.119400  0.163200  0.163200  1.0  -0.1319
  N  N1147  1  0.040500  0.720820  0.720820  1.0  -0.1723
  N  N1148  1  0.119400  0.663200  0.663200  1.0  -0.1319
  N  N1149  1  0.540500  0.220820  0.720820  1.0  -0.1723
  N  N1150  1  0.619400  0.163200  0.663200  1.0  -0.1319
  N  N1151  1  0.540500  0.720820  0.220820  1.0  -0.1723
  N  N1152  1  0.619400  0.663200  0.163200  1.0  -0.1319
  N  N1153  1  0.959500  0.220820  0.779180  1.0  -0.1738
  N  N1154  1  0.880600  0.163200  0.836800  1.0  -0.1316
  N  N1155  1  0.959500  0.720820  0.279180  1.0  -0.1738
  N  N1156  1  0.880600  0.663200  0.336800  1.0  -0.1316
  N  N1157  1  0.459500  0.220820  0.279180  1.0  -0.1738
  N  N1158  1  0.380600  0.163200  0.336800  1.0  -0.1316
  N  N1159  1  0.459500  0.720820  0.779180  1.0  -0.1738
  N  N1160  1  0.380600  0.663200  0.836800  1.0  -0.1316
  N  N1161  1  0.040500  0.779180  0.779180  1.0  -0.1718
  N  N1162  1  0.119400  0.836800  0.836800  1.0  -0.1307
  N  N1163  1  0.040500  0.279180  0.279180  1.0  -0.1718
  N  N1164  1  0.119400  0.336800  0.336800  1.0  -0.1307
  N  N1165  1  0.540500  0.779180  0.279180  1.0  -0.1718
  N  N1166  1  0.619400  0.836800  0.336800  1.0  -0.1307
  N  N1167  1  0.540500  0.279180  0.779180  1.0  -0.1718
  N  N1168  1  0.619400  0.336800  0.836800  1.0  -0.1307
  N  N1169  1  0.959500  0.779180  0.220820  1.0  -0.1741
  N  N1170  1  0.880600  0.836800  0.163200  1.0  -0.1306
  N  N1171  1  0.959500  0.279180  0.720820  1.0  -0.1741
  N  N1172  1  0.880600  0.336800  0.663200  1.0  -0.1306
  N  N1173  1  0.459500  0.779180  0.720820  1.0  -0.1741
  N  N1174  1  0.380600  0.836800  0.663200  1.0  -0.1306
  N  N1175  1  0.459500  0.279180  0.220820  1.0  -0.1741
  N  N1176  1  0.380600  0.336800  0.163200  1.0  -0.1306
  N  N1177  1  0.040500  0.220820  0.779180  1.0  -0.1721
  N  N1178  1  0.119400  0.163200  0.836800  1.0  -0.1317
  N  N1179  1  0.040500  0.720820  0.279180  1.0  -0.1721
  N  N1180  1  0.119400  0.663200  0.336800  1.0  -0.1317
  N  N1181  1  0.540500  0.220820  0.279180  1.0  -0.1721
  N  N1182  1  0.619400  0.163200  0.336800  1.0  -0.1317
  N  N1183  1  0.540500  0.720820  0.779180  1.0  -0.1721
  N  N1184  1  0.619400  0.663200  0.836800  1.0  -0.1317
  N  N1185  1  0.959500  0.779180  0.779180  1.0  -0.1741
  N  N1186  1  0.880600  0.836800  0.836800  1.0  -0.1305
  N  N1187  1  0.959500  0.279180  0.279180  1.0  -0.1741
  N  N1188  1  0.880600  0.336800  0.336800  1.0  -0.1305
  N  N1189  1  0.459500  0.779180  0.279180  1.0  -0.1741
  N  N1190  1  0.380600  0.836800  0.336800  1.0  -0.1305
  N  N1191  1  0.459500  0.279180  0.779180  1.0  -0.1741
  N  N1192  1  0.380600  0.336800  0.836800  1.0  -0.1305
  N  N1193  1  0.040500  0.779180  0.220820  1.0  -0.172
  N  N1194  1  0.119400  0.836800  0.163200  1.0  -0.1309
  N  N1195  1  0.040500  0.279180  0.720820  1.0  -0.172
  N  N1196  1  0.119400  0.336800  0.663200  1.0  -0.1309
  N  N1197  1  0.540500  0.779180  0.720820  1.0  -0.172
  N  N1198  1  0.619400  0.836800  0.663200  1.0  -0.1309
  N  N1199  1  0.540500  0.279180  0.220820  1.0  -0.172
  N  N1200  1  0.619400  0.336800  0.163200  1.0  -0.1309
  N  N1201  1  0.959500  0.220820  0.220820  1.0  -0.1739
  N  N1202  1  0.880600  0.163200  0.163200  1.0  -0.1316
  N  N1203  1  0.959500  0.720820  0.720820  1.0  -0.1739
  N  N1204  1  0.880600  0.663200  0.663200  1.0  -0.1316
  N  N1205  1  0.459500  0.220820  0.720820  1.0  -0.1739
  N  N1206  1  0.380600  0.163200  0.663200  1.0  -0.1316
  N  N1207  1  0.459500  0.720820  0.220820  1.0  -0.1739
  N  N1208  1  0.380600  0.663200  0.163200  1.0  -0.1316
  N  N1209  1  0.220820  0.220820  0.959500  1.0  -0.1748
  N  N1210  1  0.163200  0.163200  0.880600  1.0  -0.1321
  N  N1211  1  0.220820  0.720820  0.459500  1.0  -0.1748
  N  N1212  1  0.163200  0.663200  0.380600  1.0  -0.1321
  N  N1213  1  0.720820  0.220820  0.459500  1.0  -0.1748
  N  N1214  1  0.663200  0.163200  0.380600  1.0  -0.1321
  N  N1215  1  0.720820  0.720820  0.959500  1.0  -0.1748
  N  N1216  1  0.663200  0.663200  0.880600  1.0  -0.1321
  N  N1217  1  0.779180  0.220820  0.040500  1.0  -0.1723
  N  N1218  1  0.836800  0.163200  0.119400  1.0  -0.1319
  N  N1219  1  0.779180  0.720820  0.540500  1.0  -0.1723
  N  N1220  1  0.836800  0.663200  0.619400  1.0  -0.1319
  N  N1221  1  0.279180  0.220820  0.540500  1.0  -0.1723
  N  N1222  1  0.336800  0.163200  0.619400  1.0  -0.1319
  N  N1223  1  0.279180  0.720820  0.040500  1.0  -0.1723
  N  N1224  1  0.336800  0.663200  0.119400  1.0  -0.1319
  N  N1225  1  0.779180  0.779180  0.959500  1.0  -0.1737
  N  N1226  1  0.836800  0.836800  0.880600  1.0  -0.1314
  N  N1227  1  0.779180  0.279180  0.459500  1.0  -0.1737
  N  N1228  1  0.836800  0.336800  0.380600  1.0  -0.1314
  N  N1229  1  0.279180  0.779180  0.459500  1.0  -0.1737
  N  N1230  1  0.336800  0.836800  0.380600  1.0  -0.1314
  N  N1231  1  0.279180  0.279180  0.959500  1.0  -0.1737
  N  N1232  1  0.336800  0.336800  0.880600  1.0  -0.1314
  N  N1233  1  0.220820  0.779180  0.040500  1.0  -0.1748
  N  N1234  1  0.163200  0.836800  0.119400  1.0  -0.1306
  N  N1235  1  0.220820  0.279180  0.540500  1.0  -0.1748
  N  N1236  1  0.163200  0.336800  0.619400  1.0  -0.1306
  N  N1237  1  0.720820  0.779180  0.540500  1.0  -0.1748
  N  N1238  1  0.663200  0.836800  0.619400  1.0  -0.1306
  N  N1239  1  0.720820  0.279180  0.040500  1.0  -0.1748
  N  N1240  1  0.663200  0.336800  0.119400  1.0  -0.1306
  N  N1241  1  0.220820  0.040500  0.779180  1.0  -0.1747
  N  N1242  1  0.163200  0.119400  0.836800  1.0  -0.1313
  N  N1243  1  0.220820  0.540500  0.279180  1.0  -0.1747
  N  N1244  1  0.163200  0.619400  0.336800  1.0  -0.1313
  N  N1245  1  0.720820  0.040500  0.279180  1.0  -0.1747
  N  N1246  1  0.663200  0.119400  0.336800  1.0  -0.1313
  N  N1247  1  0.720820  0.540500  0.779180  1.0  -0.1747
  N  N1248  1  0.663200  0.619400  0.836800  1.0  -0.1313
  N  N1249  1  0.220820  0.959500  0.220820  1.0  -0.1754
  N  N1250  1  0.163200  0.880600  0.163200  1.0  -0.1308
  N  N1251  1  0.220820  0.459500  0.720820  1.0  -0.1754
  N  N1252  1  0.163200  0.380600  0.663200  1.0  -0.1308
  N  N1253  1  0.720820  0.959500  0.720820  1.0  -0.1754
  N  N1254  1  0.663200  0.880600  0.663200  1.0  -0.1308
  N  N1255  1  0.720820  0.459500  0.220820  1.0  -0.1754
  N  N1256  1  0.663200  0.380600  0.163200  1.0  -0.1308
  N  N1257  1  0.779180  0.040500  0.220820  1.0  -0.1723
  N  N1258  1  0.836800  0.119400  0.163200  1.0  -0.1317
  N  N1259  1  0.779180  0.540500  0.720820  1.0  -0.1723
  N  N1260  1  0.836800  0.619400  0.663200  1.0  -0.1317
  N  N1261  1  0.279180  0.040500  0.720820  1.0  -0.1723
  N  N1262  1  0.336800  0.119400  0.663200  1.0  -0.1317
  N  N1263  1  0.279180  0.540500  0.220820  1.0  -0.1723
  N  N1264  1  0.336800  0.619400  0.163200  1.0  -0.1317
  N  N1265  1  0.779180  0.959500  0.779180  1.0  -0.174
  N  N1266  1  0.836800  0.880600  0.836800  1.0  -0.1312
  N  N1267  1  0.779180  0.459500  0.279180  1.0  -0.174
  N  N1268  1  0.836800  0.380600  0.336800  1.0  -0.1312
  N  N1269  1  0.279180  0.959500  0.279180  1.0  -0.174
  N  N1270  1  0.336800  0.880600  0.336800  1.0  -0.1312
  N  N1271  1  0.279180  0.459500  0.779180  1.0  -0.174
  N  N1272  1  0.336800  0.380600  0.836800  1.0  -0.1312
  N  N1273  1  0.208600  0.000000  0.291400  1.0  -0.3346
  N  N1274  1  0.208600  0.500000  0.791400  1.0  -0.3346
  N  N1275  1  0.791400  0.000000  0.291400  1.0  -0.3303
  N  N1276  1  0.791400  0.500000  0.791400  1.0  -0.3303
  N  N1277  1  0.291400  0.500000  0.291400  1.0  -0.3303
  N  N1278  1  0.791400  0.000000  0.708600  1.0  -0.3318
  N  N1279  1  0.791400  0.500000  0.208600  1.0  -0.3318
  N  N1280  1  0.291400  0.000000  0.208600  1.0  -0.3318
  N  N1281  1  0.208600  0.000000  0.708600  1.0  -0.3346
  N  N1282  1  0.208600  0.500000  0.208600  1.0  -0.3346
  N  N1283  1  0.291400  0.208600  0.000000  1.0  -0.33
  N  N1284  1  0.291400  0.708600  0.500000  1.0  -0.33
  N  N1285  1  0.291400  0.791400  0.000000  1.0  -0.3295
  N  N1286  1  0.291400  0.291400  0.500000  1.0  -0.3295
  N  N1287  1  0.708600  0.791400  0.000000  1.0  -0.3328
  N  N1288  1  0.708600  0.291400  0.500000  1.0  -0.3328
  N  N1289  1  0.208600  0.291400  0.000000  1.0  -0.3328
  N  N1290  1  0.708600  0.208600  0.000000  1.0  -0.3336
  N  N1291  1  0.708600  0.708600  0.500000  1.0  -0.3336
  N  N1292  1  0.208600  0.208600  0.500000  1.0  -0.3336
  N  N1293  1  0.000000  0.291400  0.208600  1.0  -0.333
  N  N1294  1  0.500000  0.291400  0.708600  1.0  -0.333
  N  N1295  1  0.000000  0.291400  0.791400  1.0  -0.3324
  N  N1296  1  0.500000  0.291400  0.291400  1.0  -0.3324
  N  N1297  1  0.000000  0.708600  0.791400  1.0  -0.3341
  N  N1298  1  0.000000  0.208600  0.291400  1.0  -0.3341
  N  N1299  1  0.500000  0.708600  0.291400  1.0  -0.3341
  N  N1300  1  0.000000  0.708600  0.208600  1.0  -0.3343
  N  N1301  1  0.500000  0.708600  0.708600  1.0  -0.3343
  N  N1302  1  0.500000  0.208600  0.208600  1.0  -0.3343
  N  N1303  1  0.000000  0.208600  0.708600  1.0  -0.3343
  N  N1304  1  0.000000  0.791400  0.708600  1.0  -0.333
  N  N1305  1  0.500000  0.791400  0.208600  1.0  -0.333
  N  N1306  1  0.000000  0.791400  0.291400  1.0  -0.3324
  N  N1307  1  0.500000  0.791400  0.791400  1.0  -0.3324
  N  N1308  1  0.500000  0.208600  0.791400  1.0  -0.3341
  N  N1309  1  0.208600  0.791400  0.500000  1.0  -0.3328
  N  N1310  1  0.791400  0.291400  0.000000  1.0  -0.3295
  N  N1311  1  0.791400  0.791400  0.500000  1.0  -0.3295
  N  N1312  1  0.791400  0.708600  0.000000  1.0  -0.33
  N  N1313  1  0.791400  0.208600  0.500000  1.0  -0.33
  N  N1314  1  0.208600  0.708600  0.000000  1.0  -0.3336
  N  N1315  1  0.291400  0.000000  0.791400  1.0  -0.3303
  N  N1316  1  0.291400  0.500000  0.708600  1.0  -0.3318
  N  N1317  1  0.708600  0.000000  0.208600  1.0  -0.3346
  N  N1318  1  0.708600  0.500000  0.708600  1.0  -0.3346
  N  N1319  1  0.708600  0.000000  0.791400  1.0  -0.3346
  N  N1320  1  0.708600  0.500000  0.291400  1.0  -0.3346
