# generated using pymatgen
data_Tb3H28(C21O8)2
_symmetry_space_group_name_H-M   'P 1'
_cell_length_a   27.54600000
_cell_length_b   27.54600000
_cell_length_c   27.54600000
_cell_angle_alpha   90.00000000
_cell_angle_beta   90.00000000
_cell_angle_gamma   90.00000000
_symmetry_Int_Tables_number   1
_chemical_formula_structural   Tb3H28(C21O8)2
_chemical_formula_sum   'Tb24 H224 C336 O128'
_cell_volume   20901.41216734
_cell_formula_units_Z   8
loop_
 _symmetry_equiv_pos_site_id
 _symmetry_equiv_pos_as_xyz
  1  'x, y, z'
loop_
 _atom_site_type_symbol
 _atom_site_label
 _atom_site_symmetry_multiplicity
 _atom_site_fract_x
 _atom_site_fract_y
 _atom_site_fract_z
 _atom_site_occupancy
 _atom_site_charge
  Tb  Tb1  1  0.399650  0.500000  0.500000  1.0  2.241
  Tb  Tb2  1  0.399650  0.000000  0.000000  1.0  2.241
  Tb  Tb3  1  0.899650  0.500000  0.000000  1.0  2.241
  Tb  Tb4  1  0.899650  0.000000  0.500000  1.0  2.241
  Tb  Tb5  1  0.600350  0.500000  0.500000  1.0  2.2397
  Tb  Tb6  1  0.600350  0.000000  0.000000  1.0  2.2397
  Tb  Tb7  1  0.100350  0.500000  0.000000  1.0  2.2397
  Tb  Tb8  1  0.100350  0.000000  0.500000  1.0  2.2397
  Tb  Tb9  1  0.500000  0.399650  0.500000  1.0  2.2409
  Tb  Tb10  1  0.500000  0.899650  0.000000  1.0  2.2409
  Tb  Tb11  1  0.000000  0.399650  0.000000  1.0  2.2409
  Tb  Tb12  1  0.000000  0.899650  0.500000  1.0  2.2409
  Tb  Tb13  1  0.500000  0.600350  0.500000  1.0  2.2378
  Tb  Tb14  1  0.500000  0.100350  0.000000  1.0  2.2378
  Tb  Tb15  1  0.000000  0.600350  0.000000  1.0  2.2378
  Tb  Tb16  1  0.000000  0.100350  0.500000  1.0  2.2378
  Tb  Tb17  1  0.500000  0.500000  0.399650  1.0  2.2306
  Tb  Tb18  1  0.500000  0.000000  0.899650  1.0  2.2306
  Tb  Tb19  1  0.000000  0.500000  0.899650  1.0  2.2306
  Tb  Tb20  1  0.000000  0.000000  0.399650  1.0  2.2306
  Tb  Tb21  1  0.500000  0.500000  0.600350  1.0  2.2318
  Tb  Tb22  1  0.500000  0.000000  0.100350  1.0  2.2318
  Tb  Tb23  1  0.000000  0.500000  0.100350  1.0  2.2318
  Tb  Tb24  1  0.000000  0.000000  0.600350  1.0  2.2318
  H  H25  1  0.284200  0.387600  0.500000  1.0  0.1019
  H  H26  1  0.223500  0.327400  0.500000  1.0  0.1471
  H  H27  1  0.284200  0.887600  0.000000  1.0  0.1019
  H  H28  1  0.223500  0.827400  0.000000  1.0  0.1471
  H  H29  1  0.784200  0.387600  0.000000  1.0  0.1019
  H  H30  1  0.723500  0.327400  0.000000  1.0  0.1471
  H  H31  1  0.784200  0.887600  0.500000  1.0  0.1019
  H  H32  1  0.723500  0.827400  0.500000  1.0  0.1471
  H  H33  1  0.715800  0.612400  0.500000  1.0  0.1023
  H  H34  1  0.776500  0.672600  0.500000  1.0  0.1477
  H  H35  1  0.715800  0.112400  0.000000  1.0  0.1023
  H  H36  1  0.776500  0.172600  0.000000  1.0  0.1477
  H  H37  1  0.215800  0.612400  0.000000  1.0  0.1023
  H  H38  1  0.276500  0.672600  0.000000  1.0  0.1477
  H  H39  1  0.215800  0.112400  0.500000  1.0  0.1023
  H  H40  1  0.276500  0.172600  0.500000  1.0  0.1477
  H  H41  1  0.715800  0.387600  0.500000  1.0  0.1023
  H  H42  1  0.776500  0.327400  0.500000  1.0  0.1479
  H  H43  1  0.715800  0.887600  0.000000  1.0  0.1023
  H  H44  1  0.776500  0.827400  0.000000  1.0  0.1479
  H  H45  1  0.215800  0.387600  0.000000  1.0  0.1023
  H  H46  1  0.276500  0.327400  0.000000  1.0  0.1479
  H  H47  1  0.215800  0.887600  0.500000  1.0  0.1023
  H  H48  1  0.276500  0.827400  0.500000  1.0  0.1479
  H  H49  1  0.284200  0.612400  0.500000  1.0  0.1017
  H  H50  1  0.223500  0.672600  0.500000  1.0  0.1476
  H  H51  1  0.284200  0.112400  0.000000  1.0  0.1017
  H  H52  1  0.223500  0.172600  0.000000  1.0  0.1476
  H  H53  1  0.784200  0.612400  0.000000  1.0  0.1017
  H  H54  1  0.723500  0.672600  0.000000  1.0  0.1476
  H  H55  1  0.784200  0.112400  0.500000  1.0  0.1017
  H  H56  1  0.723500  0.172600  0.500000  1.0  0.1476
  H  H57  1  0.500000  0.284200  0.387600  1.0  0.1029
  H  H58  1  0.500000  0.223500  0.327400  1.0  0.1504
  H  H59  1  0.500000  0.784200  0.887600  1.0  0.1029
  H  H60  1  0.500000  0.723500  0.827400  1.0  0.1504
  H  H61  1  0.000000  0.284200  0.887600  1.0  0.1029
  H  H62  1  0.000000  0.223500  0.827400  1.0  0.1504
  H  H63  1  0.000000  0.784200  0.387600  1.0  0.1029
  H  H64  1  0.000000  0.723500  0.327400  1.0  0.1504
  H  H65  1  0.500000  0.715800  0.612400  1.0  0.1025
  H  H66  1  0.500000  0.776500  0.672600  1.0  0.1492
  H  H67  1  0.500000  0.215800  0.112400  1.0  0.1025
  H  H68  1  0.500000  0.276500  0.172600  1.0  0.1492
  H  H69  1  0.000000  0.715800  0.112400  1.0  0.1025
  H  H70  1  0.000000  0.776500  0.172600  1.0  0.1492
  H  H71  1  0.000000  0.215800  0.612400  1.0  0.1025
  H  H72  1  0.000000  0.276500  0.672600  1.0  0.1492
  H  H73  1  0.500000  0.715800  0.387600  1.0  0.1018
  H  H74  1  0.500000  0.776500  0.327400  1.0  0.1503
  H  H75  1  0.500000  0.215800  0.887600  1.0  0.1018
  H  H76  1  0.500000  0.276500  0.827400  1.0  0.1503
  H  H77  1  0.000000  0.715800  0.887600  1.0  0.1018
  H  H78  1  0.000000  0.776500  0.827400  1.0  0.1503
  H  H79  1  0.000000  0.215800  0.387600  1.0  0.1018
  H  H80  1  0.000000  0.276500  0.327400  1.0  0.1503
  H  H81  1  0.500000  0.284200  0.612400  1.0  0.1027
  H  H82  1  0.500000  0.223500  0.672600  1.0  0.1504
  H  H83  1  0.500000  0.784200  0.112400  1.0  0.1027
  H  H84  1  0.500000  0.723500  0.172600  1.0  0.1504
  H  H85  1  0.000000  0.284200  0.112400  1.0  0.1027
  H  H86  1  0.000000  0.223500  0.172600  1.0  0.1504
  H  H87  1  0.000000  0.784200  0.612400  1.0  0.1027
  H  H88  1  0.000000  0.723500  0.672600  1.0  0.1504
  H  H89  1  0.387600  0.500000  0.284200  1.0  0.101
  H  H90  1  0.327400  0.500000  0.223500  1.0  0.1476
  H  H91  1  0.387600  0.000000  0.784200  1.0  0.101
  H  H92  1  0.327400  0.000000  0.723500  1.0  0.1476
  H  H93  1  0.887600  0.500000  0.784200  1.0  0.101
  H  H94  1  0.827400  0.500000  0.723500  1.0  0.1476
  H  H95  1  0.887600  0.000000  0.284200  1.0  0.101
  H  H96  1  0.827400  0.000000  0.223500  1.0  0.1476
  H  H97  1  0.612400  0.500000  0.715800  1.0  0.1003
  H  H98  1  0.672600  0.500000  0.776500  1.0  0.1491
  H  H99  1  0.612400  0.000000  0.215800  1.0  0.1003
  H  H100  1  0.672600  0.000000  0.276500  1.0  0.1491
  H  H101  1  0.112400  0.500000  0.215800  1.0  0.1003
  H  H102  1  0.172600  0.500000  0.276500  1.0  0.1491
  H  H103  1  0.112400  0.000000  0.715800  1.0  0.1003
  H  H104  1  0.172600  0.000000  0.776500  1.0  0.1491
  H  H105  1  0.387600  0.500000  0.715800  1.0  0.1003
  H  H106  1  0.327400  0.500000  0.776500  1.0  0.1486
  H  H107  1  0.387600  0.000000  0.215800  1.0  0.1003
  H  H108  1  0.327400  0.000000  0.276500  1.0  0.1486
  H  H109  1  0.887600  0.500000  0.215800  1.0  0.1003
  H  H110  1  0.827400  0.500000  0.276500  1.0  0.1486
  H  H111  1  0.887600  0.000000  0.715800  1.0  0.1003
  H  H112  1  0.827400  0.000000  0.776500  1.0  0.1486
  H  H113  1  0.612400  0.500000  0.284200  1.0  0.1016
  H  H114  1  0.672600  0.500000  0.223500  1.0  0.1476
  H  H115  1  0.612400  0.000000  0.784200  1.0  0.1016
  H  H116  1  0.672600  0.000000  0.723500  1.0  0.1476
  H  H117  1  0.112400  0.500000  0.784200  1.0  0.1016
  H  H118  1  0.172600  0.500000  0.723500  1.0  0.1476
  H  H119  1  0.112400  0.000000  0.284200  1.0  0.1016
  H  H120  1  0.172600  0.000000  0.223500  1.0  0.1476
  H  H121  1  0.387600  0.284200  0.500000  1.0  0.101
  H  H122  1  0.327400  0.223500  0.500000  1.0  0.1498
  H  H123  1  0.387600  0.784200  0.000000  1.0  0.101
  H  H124  1  0.327400  0.723500  0.000000  1.0  0.1498
  H  H125  1  0.887600  0.284200  0.000000  1.0  0.101
  H  H126  1  0.827400  0.223500  0.000000  1.0  0.1498
  H  H127  1  0.887600  0.784200  0.500000  1.0  0.101
  H  H128  1  0.827400  0.723500  0.500000  1.0  0.1498
  H  H129  1  0.612400  0.715800  0.500000  1.0  0.1003
  H  H130  1  0.672600  0.776500  0.500000  1.0  0.1485
  H  H131  1  0.612400  0.215800  0.000000  1.0  0.1003
  H  H132  1  0.672600  0.276500  0.000000  1.0  0.1485
  H  H133  1  0.112400  0.715800  0.000000  1.0  0.1003
  H  H134  1  0.172600  0.776500  0.000000  1.0  0.1485
  H  H135  1  0.112400  0.215800  0.500000  1.0  0.1003
  H  H136  1  0.172600  0.276500  0.500000  1.0  0.1485
  H  H137  1  0.387600  0.715800  0.500000  1.0  0.1006
  H  H138  1  0.327400  0.776500  0.500000  1.0  0.149
  H  H139  1  0.387600  0.215800  0.000000  1.0  0.1006
  H  H140  1  0.327400  0.276500  0.000000  1.0  0.149
  H  H141  1  0.887600  0.715800  0.000000  1.0  0.1006
  H  H142  1  0.827400  0.776500  0.000000  1.0  0.149
  H  H143  1  0.887600  0.215800  0.500000  1.0  0.1006
  H  H144  1  0.827400  0.276500  0.500000  1.0  0.149
  H  H145  1  0.612400  0.284200  0.500000  1.0  0.1014
  H  H146  1  0.672600  0.223500  0.500000  1.0  0.1494
  H  H147  1  0.612400  0.784200  0.000000  1.0  0.1014
  H  H148  1  0.672600  0.723500  0.000000  1.0  0.1494
  H  H149  1  0.112400  0.284200  0.000000  1.0  0.1014
  H  H150  1  0.172600  0.223500  0.000000  1.0  0.1494
  H  H151  1  0.112400  0.784200  0.500000  1.0  0.1014
  H  H152  1  0.172600  0.723500  0.500000  1.0  0.1494
  H  H153  1  0.284200  0.500000  0.612400  1.0  0.1023
  H  H154  1  0.223500  0.500000  0.672600  1.0  0.147
  H  H155  1  0.284200  0.000000  0.112400  1.0  0.1023
  H  H156  1  0.223500  0.000000  0.172600  1.0  0.147
  H  H157  1  0.784200  0.500000  0.112400  1.0  0.1023
  H  H158  1  0.723500  0.500000  0.172600  1.0  0.147
  H  H159  1  0.784200  0.000000  0.612400  1.0  0.1023
  H  H160  1  0.723500  0.000000  0.672600  1.0  0.147
  H  H161  1  0.715800  0.500000  0.387600  1.0  0.1021
  H  H162  1  0.776500  0.500000  0.327400  1.0  0.1478
  H  H163  1  0.715800  0.000000  0.887600  1.0  0.1021
  H  H164  1  0.776500  0.000000  0.827400  1.0  0.1478
  H  H165  1  0.215800  0.500000  0.887600  1.0  0.1021
  H  H166  1  0.276500  0.500000  0.827400  1.0  0.1478
  H  H167  1  0.215800  0.000000  0.387600  1.0  0.1021
  H  H168  1  0.276500  0.000000  0.327400  1.0  0.1478
  H  H169  1  0.715800  0.500000  0.612400  1.0  0.1027
  H  H170  1  0.776500  0.500000  0.672600  1.0  0.1474
  H  H171  1  0.715800  0.000000  0.112400  1.0  0.1027
  H  H172  1  0.776500  0.000000  0.172600  1.0  0.1474
  H  H173  1  0.215800  0.500000  0.112400  1.0  0.1027
  H  H174  1  0.276500  0.500000  0.172600  1.0  0.1474
  H  H175  1  0.215800  0.000000  0.612400  1.0  0.1027
  H  H176  1  0.276500  0.000000  0.672600  1.0  0.1474
  H  H177  1  0.284200  0.500000  0.387600  1.0  0.1021
  H  H178  1  0.223500  0.500000  0.327400  1.0  0.1474
  H  H179  1  0.284200  0.000000  0.887600  1.0  0.1021
  H  H180  1  0.223500  0.000000  0.827400  1.0  0.1474
  H  H181  1  0.784200  0.500000  0.887600  1.0  0.1021
  H  H182  1  0.723500  0.500000  0.827400  1.0  0.1474
  H  H183  1  0.784200  0.000000  0.387600  1.0  0.1021
  H  H184  1  0.723500  0.000000  0.327400  1.0  0.1474
  H  H185  1  0.500000  0.387600  0.715800  1.0  0.1019
  H  H186  1  0.500000  0.327400  0.776500  1.0  0.1498
  H  H187  1  0.500000  0.887600  0.215800  1.0  0.1019
  H  H188  1  0.500000  0.827400  0.276500  1.0  0.1498
  H  H189  1  0.000000  0.387600  0.215800  1.0  0.1019
  H  H190  1  0.000000  0.327400  0.276500  1.0  0.1498
  H  H191  1  0.000000  0.887600  0.715800  1.0  0.1019
  H  H192  1  0.000000  0.827400  0.776500  1.0  0.1498
  H  H193  1  0.500000  0.612400  0.284200  1.0  0.1021
  H  H194  1  0.500000  0.672600  0.223500  1.0  0.1485
  H  H195  1  0.500000  0.112400  0.784200  1.0  0.1021
  H  H196  1  0.500000  0.172600  0.723500  1.0  0.1485
  H  H197  1  0.000000  0.612400  0.784200  1.0  0.1021
  H  H198  1  0.000000  0.672600  0.723500  1.0  0.1485
  H  H199  1  0.000000  0.112400  0.284200  1.0  0.1021
  H  H200  1  0.000000  0.172600  0.223500  1.0  0.1485
  H  H201  1  0.500000  0.387600  0.284200  1.0  0.1019
  H  H202  1  0.500000  0.327400  0.223500  1.0  0.1479
  H  H203  1  0.500000  0.887600  0.784200  1.0  0.1019
  H  H204  1  0.500000  0.827400  0.723500  1.0  0.1479
  H  H205  1  0.000000  0.387600  0.784200  1.0  0.1019
  H  H206  1  0.000000  0.327400  0.723500  1.0  0.1479
  H  H207  1  0.000000  0.887600  0.284200  1.0  0.1019
  H  H208  1  0.000000  0.827400  0.223500  1.0  0.1479
  H  H209  1  0.500000  0.612400  0.715800  1.0  0.1017
  H  H210  1  0.500000  0.672600  0.776500  1.0  0.1494
  H  H211  1  0.500000  0.112400  0.215800  1.0  0.1017
  H  H212  1  0.500000  0.172600  0.276500  1.0  0.1494
  H  H213  1  0.000000  0.612400  0.215800  1.0  0.1017
  H  H214  1  0.000000  0.672600  0.276500  1.0  0.1494
  H  H215  1  0.000000  0.112400  0.715800  1.0  0.1017
  H  H216  1  0.000000  0.172600  0.776500  1.0  0.1494
  H  H217  1  0.435700  0.435700  0.435700  1.0  0.41
  H  H218  1  0.435700  0.935700  0.935700  1.0  0.41
  H  H219  1  0.935700  0.435700  0.935700  1.0  0.41
  H  H220  1  0.935700  0.935700  0.435700  1.0  0.41
  H  H221  1  0.564300  0.564300  0.435700  1.0  0.4093
  H  H222  1  0.564300  0.064300  0.935700  1.0  0.4093
  H  H223  1  0.064300  0.564300  0.935700  1.0  0.4093
  H  H224  1  0.064300  0.064300  0.435700  1.0  0.4093
  H  H225  1  0.564300  0.435700  0.564300  1.0  0.4096
  H  H226  1  0.564300  0.935700  0.064300  1.0  0.4096
  H  H227  1  0.064300  0.435700  0.064300  1.0  0.4096
  H  H228  1  0.064300  0.935700  0.564300  1.0  0.4096
  H  H229  1  0.435700  0.564300  0.564300  1.0  0.4095
  H  H230  1  0.435700  0.064300  0.064300  1.0  0.4095
  H  H231  1  0.935700  0.564300  0.064300  1.0  0.4095
  H  H232  1  0.935700  0.064300  0.564300  1.0  0.4095
  H  H233  1  0.435700  0.435700  0.564300  1.0  0.4101
  H  H234  1  0.435700  0.935700  0.064300  1.0  0.4101
  H  H235  1  0.935700  0.435700  0.064300  1.0  0.4101
  H  H236  1  0.935700  0.935700  0.564300  1.0  0.4101
  H  H237  1  0.564300  0.564300  0.564300  1.0  0.4092
  H  H238  1  0.564300  0.064300  0.064300  1.0  0.4092
  H  H239  1  0.064300  0.564300  0.064300  1.0  0.4092
  H  H240  1  0.064300  0.064300  0.564300  1.0  0.4092
  H  H241  1  0.435700  0.564300  0.435700  1.0  0.4092
  H  H242  1  0.435700  0.064300  0.935700  1.0  0.4092
  H  H243  1  0.935700  0.564300  0.935700  1.0  0.4092
  H  H244  1  0.935700  0.064300  0.435700  1.0  0.4092
  H  H245  1  0.564300  0.435700  0.435700  1.0  0.4098
  H  H246  1  0.564300  0.935700  0.935700  1.0  0.4098
  H  H247  1  0.064300  0.435700  0.935700  1.0  0.4098
  H  H248  1  0.064300  0.935700  0.435700  1.0  0.4098
  C  C249  1  0.292600  0.354900  0.500000  1.0  -0.0809
  C  C250  1  0.256100  0.318400  0.500000  1.0  -0.137
  C  C251  1  0.292600  0.854900  0.000000  1.0  -0.0809
  C  C252  1  0.256100  0.818400  0.000000  1.0  -0.137
  C  C253  1  0.792600  0.354900  0.000000  1.0  -0.0809
  C  C254  1  0.756100  0.318400  0.000000  1.0  -0.137
  C  C255  1  0.792600  0.854900  0.500000  1.0  -0.0809
  C  C256  1  0.756100  0.818400  0.500000  1.0  -0.137
  C  C257  1  0.707400  0.645100  0.500000  1.0  -0.0794
  C  C258  1  0.743900  0.681600  0.500000  1.0  -0.136
  C  C259  1  0.707400  0.145100  0.000000  1.0  -0.0794
  C  C260  1  0.743900  0.181600  0.000000  1.0  -0.136
  C  C261  1  0.207400  0.645100  0.000000  1.0  -0.0794
  C  C262  1  0.243900  0.681600  0.000000  1.0  -0.136
  C  C263  1  0.207400  0.145100  0.500000  1.0  -0.0794
  C  C264  1  0.243900  0.181600  0.500000  1.0  -0.136
  C  C265  1  0.707400  0.354900  0.500000  1.0  -0.081
  C  C266  1  0.743900  0.318400  0.500000  1.0  -0.1356
  C  C267  1  0.707400  0.854900  0.000000  1.0  -0.081
  C  C268  1  0.743900  0.818400  0.000000  1.0  -0.1356
  C  C269  1  0.207400  0.354900  0.000000  1.0  -0.081
  C  C270  1  0.243900  0.318400  0.000000  1.0  -0.1356
  C  C271  1  0.207400  0.854900  0.500000  1.0  -0.081
  C  C272  1  0.243900  0.818400  0.500000  1.0  -0.1356
  C  C273  1  0.292600  0.645100  0.500000  1.0  -0.0803
  C  C274  1  0.256100  0.681600  0.500000  1.0  -0.137
  C  C275  1  0.292600  0.145100  0.000000  1.0  -0.0803
  C  C276  1  0.256100  0.181600  0.000000  1.0  -0.137
  C  C277  1  0.792600  0.645100  0.000000  1.0  -0.0803
  C  C278  1  0.756100  0.681600  0.000000  1.0  -0.137
  C  C279  1  0.792600  0.145100  0.500000  1.0  -0.0803
  C  C280  1  0.756100  0.181600  0.500000  1.0  -0.137
  C  C281  1  0.500000  0.292600  0.354900  1.0  -0.0738
  C  C282  1  0.500000  0.256100  0.318400  1.0  -0.136
  C  C283  1  0.500000  0.792600  0.854900  1.0  -0.0738
  C  C284  1  0.500000  0.756100  0.818400  1.0  -0.136
  C  C285  1  0.000000  0.292600  0.854900  1.0  -0.0738
  C  C286  1  0.000000  0.256100  0.818400  1.0  -0.136
  C  C287  1  0.000000  0.792600  0.354900  1.0  -0.0738
  C  C288  1  0.000000  0.756100  0.318400  1.0  -0.136
  C  C289  1  0.500000  0.707400  0.645100  1.0  -0.0763
  C  C290  1  0.500000  0.743900  0.681600  1.0  -0.1363
  C  C291  1  0.500000  0.207400  0.145100  1.0  -0.0763
  C  C292  1  0.500000  0.243900  0.181600  1.0  -0.1363
  C  C293  1  0.000000  0.707400  0.145100  1.0  -0.0763
  C  C294  1  0.000000  0.743900  0.181600  1.0  -0.1363
  C  C295  1  0.000000  0.207400  0.645100  1.0  -0.0763
  C  C296  1  0.000000  0.243900  0.681600  1.0  -0.1363
  C  C297  1  0.500000  0.707400  0.354900  1.0  -0.0731
  C  C298  1  0.500000  0.743900  0.318400  1.0  -0.1368
  C  C299  1  0.500000  0.207400  0.854900  1.0  -0.0731
  C  C300  1  0.500000  0.243900  0.818400  1.0  -0.1368
  C  C301  1  0.000000  0.707400  0.854900  1.0  -0.0731
  C  C302  1  0.000000  0.743900  0.818400  1.0  -0.1368
  C  C303  1  0.000000  0.207400  0.354900  1.0  -0.0731
  C  C304  1  0.000000  0.243900  0.318400  1.0  -0.1368
  C  C305  1  0.500000  0.292600  0.645100  1.0  -0.0747
  C  C306  1  0.500000  0.256100  0.681600  1.0  -0.1349
  C  C307  1  0.500000  0.792600  0.145100  1.0  -0.0747
  C  C308  1  0.500000  0.756100  0.181600  1.0  -0.1349
  C  C309  1  0.000000  0.292600  0.145100  1.0  -0.0747
  C  C310  1  0.000000  0.256100  0.181600  1.0  -0.1349
  C  C311  1  0.000000  0.792600  0.645100  1.0  -0.0747
  C  C312  1  0.000000  0.756100  0.681600  1.0  -0.1349
  C  C313  1  0.354900  0.500000  0.292600  1.0  -0.0799
  C  C314  1  0.318400  0.500000  0.256100  1.0  -0.1316
  C  C315  1  0.354900  0.000000  0.792600  1.0  -0.0799
  C  C316  1  0.318400  0.000000  0.756100  1.0  -0.1316
  C  C317  1  0.854900  0.500000  0.792600  1.0  -0.0799
  C  C318  1  0.818400  0.500000  0.756100  1.0  -0.1316
  C  C319  1  0.854900  0.000000  0.292600  1.0  -0.0799
  C  C320  1  0.818400  0.000000  0.256100  1.0  -0.1316
  C  C321  1  0.645100  0.500000  0.707400  1.0  -0.0808
  C  C322  1  0.681600  0.500000  0.743900  1.0  -0.1316
  C  C323  1  0.645100  0.000000  0.207400  1.0  -0.0808
  C  C324  1  0.681600  0.000000  0.243900  1.0  -0.1316
  C  C325  1  0.145100  0.500000  0.207400  1.0  -0.0808
  C  C326  1  0.181600  0.500000  0.243900  1.0  -0.1316
  C  C327  1  0.145100  0.000000  0.707400  1.0  -0.0808
  C  C328  1  0.181600  0.000000  0.743900  1.0  -0.1316
  C  C329  1  0.354900  0.500000  0.707400  1.0  -0.0806
  C  C330  1  0.318400  0.500000  0.743900  1.0  -0.1307
  C  C331  1  0.354900  0.000000  0.207400  1.0  -0.0806
  C  C332  1  0.318400  0.000000  0.243900  1.0  -0.1307
  C  C333  1  0.854900  0.500000  0.207400  1.0  -0.0806
  C  C334  1  0.818400  0.500000  0.243900  1.0  -0.1307
  C  C335  1  0.854900  0.000000  0.707400  1.0  -0.0806
  C  C336  1  0.818400  0.000000  0.743900  1.0  -0.1307
  C  C337  1  0.645100  0.500000  0.292600  1.0  -0.0802
  C  C338  1  0.681600  0.500000  0.256100  1.0  -0.1327
  C  C339  1  0.645100  0.000000  0.792600  1.0  -0.0802
  C  C340  1  0.681600  0.000000  0.756100  1.0  -0.1327
  C  C341  1  0.145100  0.500000  0.792600  1.0  -0.0802
  C  C342  1  0.181600  0.500000  0.756100  1.0  -0.1327
  C  C343  1  0.145100  0.000000  0.292600  1.0  -0.0802
  C  C344  1  0.181600  0.000000  0.256100  1.0  -0.1327
  C  C345  1  0.354900  0.292600  0.500000  1.0  -0.0805
  C  C346  1  0.318400  0.256100  0.500000  1.0  -0.1359
  C  C347  1  0.354900  0.792600  0.000000  1.0  -0.0805
  C  C348  1  0.318400  0.756100  0.000000  1.0  -0.1359
  C  C349  1  0.854900  0.292600  0.000000  1.0  -0.0805
  C  C350  1  0.818400  0.256100  0.000000  1.0  -0.1359
  C  C351  1  0.854900  0.792600  0.500000  1.0  -0.0813
  C  C352  1  0.818400  0.756100  0.500000  1.0  -0.1359
  C  C353  1  0.645100  0.707400  0.500000  1.0  -0.0816
  C  C354  1  0.681600  0.743900  0.500000  1.0  -0.1389
  C  C355  1  0.645100  0.207400  0.000000  1.0  -0.0812
  C  C356  1  0.681600  0.243900  0.000000  1.0  -0.1389
  C  C357  1  0.145100  0.707400  0.000000  1.0  -0.0816
  C  C358  1  0.181600  0.743900  0.000000  1.0  -0.1389
  C  C359  1  0.145100  0.207400  0.500000  1.0  -0.0812
  C  C360  1  0.181600  0.243900  0.500000  1.0  -0.1389
  C  C361  1  0.354900  0.707400  0.500000  1.0  -0.0804
  C  C362  1  0.318400  0.743900  0.500000  1.0  -0.1383
  C  C363  1  0.354900  0.207400  0.000000  1.0  -0.0804
  C  C364  1  0.318400  0.243900  0.000000  1.0  -0.1383
  C  C365  1  0.854900  0.707400  0.000000  1.0  -0.0809
  C  C366  1  0.818400  0.743900  0.000000  1.0  -0.1383
  C  C367  1  0.854900  0.207400  0.500000  1.0  -0.0804
  C  C368  1  0.818400  0.243900  0.500000  1.0  -0.1383
  C  C369  1  0.645100  0.292600  0.500000  1.0  -0.0812
  C  C370  1  0.681600  0.256100  0.500000  1.0  -0.1369
  C  C371  1  0.645100  0.792600  0.000000  1.0  -0.0818
  C  C372  1  0.681600  0.756100  0.000000  1.0  -0.1369
  C  C373  1  0.145100  0.292600  0.000000  1.0  -0.0812
  C  C374  1  0.181600  0.256100  0.000000  1.0  -0.1369
  C  C375  1  0.145100  0.792600  0.500000  1.0  -0.0812
  C  C376  1  0.181600  0.756100  0.500000  1.0  -0.1369
  C  C377  1  0.292600  0.500000  0.645100  1.0  -0.0744
  C  C378  1  0.256100  0.500000  0.681600  1.0  -0.1342
  C  C379  1  0.292600  0.000000  0.145100  1.0  -0.0744
  C  C380  1  0.256100  0.000000  0.181600  1.0  -0.1342
  C  C381  1  0.792600  0.500000  0.145100  1.0  -0.0744
  C  C382  1  0.756100  0.500000  0.181600  1.0  -0.1342
  C  C383  1  0.792600  0.000000  0.645100  1.0  -0.0748
  C  C384  1  0.756100  0.000000  0.681600  1.0  -0.1342
  C  C385  1  0.707400  0.500000  0.354900  1.0  -0.073
  C  C386  1  0.743900  0.500000  0.318400  1.0  -0.1355
  C  C387  1  0.707400  0.000000  0.854900  1.0  -0.0735
  C  C388  1  0.743900  0.000000  0.818400  1.0  -0.1355
  C  C389  1  0.207400  0.500000  0.854900  1.0  -0.0735
  C  C390  1  0.243900  0.500000  0.818400  1.0  -0.1355
  C  C391  1  0.207400  0.000000  0.354900  1.0  -0.073
  C  C392  1  0.243900  0.000000  0.318400  1.0  -0.1355
  C  C393  1  0.707400  0.500000  0.645100  1.0  -0.0751
  C  C394  1  0.743900  0.500000  0.681600  1.0  -0.135
  C  C395  1  0.707400  0.000000  0.145100  1.0  -0.0747
  C  C396  1  0.743900  0.000000  0.181600  1.0  -0.135
  C  C397  1  0.207400  0.500000  0.145100  1.0  -0.0747
  C  C398  1  0.243900  0.500000  0.181600  1.0  -0.135
  C  C399  1  0.207400  0.000000  0.645100  1.0  -0.0747
  C  C400  1  0.243900  0.000000  0.681600  1.0  -0.135
  C  C401  1  0.292600  0.500000  0.354900  1.0  -0.0736
  C  C402  1  0.256100  0.500000  0.318400  1.0  -0.1356
  C  C403  1  0.292600  0.000000  0.854900  1.0  -0.0736
  C  C404  1  0.256100  0.000000  0.818400  1.0  -0.1356
  C  C405  1  0.792600  0.500000  0.854900  1.0  -0.074
  C  C406  1  0.756100  0.500000  0.818400  1.0  -0.1356
  C  C407  1  0.792600  0.000000  0.354900  1.0  -0.0736
  C  C408  1  0.756100  0.000000  0.318400  1.0  -0.1356
  C  C409  1  0.500000  0.354900  0.707400  1.0  -0.0802
  C  C410  1  0.500000  0.318400  0.743900  1.0  -0.1345
  C  C411  1  0.500000  0.854900  0.207400  1.0  -0.0802
  C  C412  1  0.500000  0.818400  0.243900  1.0  -0.1345
  C  C413  1  0.000000  0.354900  0.207400  1.0  -0.0802
  C  C414  1  0.000000  0.318400  0.243900  1.0  -0.1345
  C  C415  1  0.000000  0.854900  0.707400  1.0  -0.0807
  C  C416  1  0.000000  0.818400  0.743900  1.0  -0.1345
  C  C417  1  0.500000  0.645100  0.292600  1.0  -0.0778
  C  C418  1  0.500000  0.681600  0.256100  1.0  -0.1334
  C  C419  1  0.500000  0.145100  0.792600  1.0  -0.0778
  C  C420  1  0.500000  0.181600  0.756100  1.0  -0.1334
  C  C421  1  0.000000  0.645100  0.792600  1.0  -0.0784
  C  C422  1  0.000000  0.681600  0.756100  1.0  -0.1334
  C  C423  1  0.000000  0.145100  0.292600  1.0  -0.0778
  C  C424  1  0.000000  0.181600  0.256100  1.0  -0.1334
  C  C425  1  0.500000  0.354900  0.292600  1.0  -0.0797
  C  C426  1  0.500000  0.318400  0.256100  1.0  -0.1352
  C  C427  1  0.500000  0.854900  0.792600  1.0  -0.0801
  C  C428  1  0.500000  0.818400  0.756100  1.0  -0.1352
  C  C429  1  0.000000  0.354900  0.792600  1.0  -0.0797
  C  C430  1  0.000000  0.318400  0.756100  1.0  -0.1352
  C  C431  1  0.000000  0.854900  0.292600  1.0  -0.0797
  C  C432  1  0.000000  0.818400  0.256100  1.0  -0.1352
  C  C433  1  0.500000  0.645100  0.707400  1.0  -0.0798
  C  C434  1  0.500000  0.681600  0.743900  1.0  -0.1345
  C  C435  1  0.500000  0.145100  0.207400  1.0  -0.0791
  C  C436  1  0.500000  0.181600  0.243900  1.0  -0.1345
  C  C437  1  0.000000  0.645100  0.207400  1.0  -0.0798
  C  C438  1  0.000000  0.681600  0.243900  1.0  -0.1345
  C  C439  1  0.000000  0.145100  0.707400  1.0  -0.0791
  C  C440  1  0.000000  0.181600  0.743900  1.0  -0.1345
  C  C441  1  0.379500  0.379500  0.500000  1.0  0.6759
  C  C442  1  0.340900  0.340900  0.500000  1.0  -0.148
  C  C443  1  0.268700  0.268700  0.500000  1.0  0.0636
  C  C444  1  0.379500  0.879500  0.000000  1.0  0.6759
  C  C445  1  0.340900  0.840900  0.000000  1.0  -0.148
  C  C446  1  0.268700  0.768700  0.000000  1.0  0.0636
  C  C447  1  0.879500  0.379500  0.000000  1.0  0.6759
  C  C448  1  0.840900  0.340900  0.000000  1.0  -0.148
  C  C449  1  0.768700  0.268700  0.000000  1.0  0.0636
  C  C450  1  0.879500  0.879500  0.500000  1.0  0.6759
  C  C451  1  0.840900  0.840900  0.500000  1.0  -0.148
  C  C452  1  0.768700  0.768700  0.500000  1.0  0.0636
  C  C453  1  0.620500  0.620500  0.500000  1.0  0.675
  C  C454  1  0.659100  0.659100  0.500000  1.0  -0.1489
  C  C455  1  0.731300  0.731300  0.500000  1.0  0.0635
  C  C456  1  0.620500  0.120500  0.000000  1.0  0.675
  C  C457  1  0.659100  0.159100  0.000000  1.0  -0.1489
  C  C458  1  0.731300  0.231300  0.000000  1.0  0.0635
  C  C459  1  0.120500  0.620500  0.000000  1.0  0.675
  C  C460  1  0.159100  0.659100  0.000000  1.0  -0.1489
  C  C461  1  0.231300  0.731300  0.000000  1.0  0.0635
  C  C462  1  0.120500  0.120500  0.500000  1.0  0.675
  C  C463  1  0.159100  0.159100  0.500000  1.0  -0.1489
  C  C464  1  0.231300  0.231300  0.500000  1.0  0.0635
  C  C465  1  0.620500  0.379500  0.500000  1.0  0.6761
  C  C466  1  0.659100  0.340900  0.500000  1.0  -0.1492
  C  C467  1  0.731300  0.268700  0.500000  1.0  0.0635
  C  C468  1  0.620500  0.879500  0.000000  1.0  0.6761
  C  C469  1  0.659100  0.840900  0.000000  1.0  -0.1492
  C  C470  1  0.731300  0.768700  0.000000  1.0  0.0635
  C  C471  1  0.120500  0.379500  0.000000  1.0  0.6761
  C  C472  1  0.159100  0.340900  0.000000  1.0  -0.1492
  C  C473  1  0.231300  0.268700  0.000000  1.0  0.0635
  C  C474  1  0.120500  0.879500  0.500000  1.0  0.6761
  C  C475  1  0.159100  0.840900  0.500000  1.0  -0.1492
  C  C476  1  0.231300  0.768700  0.500000  1.0  0.0635
  C  C477  1  0.379500  0.620500  0.500000  1.0  0.6746
  C  C478  1  0.340900  0.659100  0.500000  1.0  -0.1479
  C  C479  1  0.268700  0.731300  0.500000  1.0  0.0635
  C  C480  1  0.379500  0.120500  0.000000  1.0  0.6746
  C  C481  1  0.340900  0.159100  0.000000  1.0  -0.1479
  C  C482  1  0.268700  0.231300  0.000000  1.0  0.0635
  C  C483  1  0.879500  0.620500  0.000000  1.0  0.6746
  C  C484  1  0.840900  0.659100  0.000000  1.0  -0.1479
  C  C485  1  0.768700  0.731300  0.000000  1.0  0.0635
  C  C486  1  0.879500  0.120500  0.500000  1.0  0.6746
  C  C487  1  0.840900  0.159100  0.500000  1.0  -0.1479
  C  C488  1  0.768700  0.231300  0.500000  1.0  0.0635
  C  C489  1  0.500000  0.379500  0.379500  1.0  0.6737
  C  C490  1  0.500000  0.340900  0.340900  1.0  -0.1481
  C  C491  1  0.500000  0.268700  0.268700  1.0  0.0638
  C  C492  1  0.500000  0.879500  0.879500  1.0  0.6737
  C  C493  1  0.500000  0.840900  0.840900  1.0  -0.1481
  C  C494  1  0.500000  0.768700  0.768700  1.0  0.0638
  C  C495  1  0.000000  0.379500  0.879500  1.0  0.6737
  C  C496  1  0.000000  0.340900  0.840900  1.0  -0.1481
  C  C497  1  0.000000  0.268700  0.768700  1.0  0.0638
  C  C498  1  0.000000  0.879500  0.379500  1.0  0.6737
  C  C499  1  0.000000  0.840900  0.340900  1.0  -0.1481
  C  C500  1  0.000000  0.768700  0.268700  1.0  0.0638
  C  C501  1  0.500000  0.620500  0.620500  1.0  0.6724
  C  C502  1  0.500000  0.659100  0.659100  1.0  -0.1485
  C  C503  1  0.500000  0.731300  0.731300  1.0  0.0635
  C  C504  1  0.500000  0.120500  0.120500  1.0  0.6724
  C  C505  1  0.500000  0.159100  0.159100  1.0  -0.1485
  C  C506  1  0.500000  0.231300  0.231300  1.0  0.0635
  C  C507  1  0.000000  0.620500  0.120500  1.0  0.6724
  C  C508  1  0.000000  0.659100  0.159100  1.0  -0.1485
  C  C509  1  0.000000  0.731300  0.231300  1.0  0.0635
  C  C510  1  0.000000  0.120500  0.620500  1.0  0.6724
  C  C511  1  0.000000  0.159100  0.659100  1.0  -0.1485
  C  C512  1  0.000000  0.231300  0.731300  1.0  0.0635
  C  C513  1  0.500000  0.620500  0.379500  1.0  0.6726
  C  C514  1  0.500000  0.659100  0.340900  1.0  -0.148
  C  C515  1  0.500000  0.731300  0.268700  1.0  0.0638
  C  C516  1  0.500000  0.120500  0.879500  1.0  0.6726
  C  C517  1  0.500000  0.159100  0.840900  1.0  -0.148
  C  C518  1  0.500000  0.231300  0.768700  1.0  0.0638
  C  C519  1  0.000000  0.620500  0.879500  1.0  0.6726
  C  C520  1  0.000000  0.659100  0.840900  1.0  -0.148
  C  C521  1  0.000000  0.731300  0.768700  1.0  0.0638
  C  C522  1  0.000000  0.120500  0.379500  1.0  0.6726
  C  C523  1  0.000000  0.159100  0.340900  1.0  -0.148
  C  C524  1  0.000000  0.231300  0.268700  1.0  0.0638
  C  C525  1  0.500000  0.379500  0.620500  1.0  0.6737
  C  C526  1  0.500000  0.340900  0.659100  1.0  -0.1486
  C  C527  1  0.500000  0.268700  0.731300  1.0  0.0636
  C  C528  1  0.500000  0.879500  0.120500  1.0  0.6737
  C  C529  1  0.500000  0.840900  0.159100  1.0  -0.1486
  C  C530  1  0.500000  0.768700  0.231300  1.0  0.0636
  C  C531  1  0.000000  0.379500  0.120500  1.0  0.6737
  C  C532  1  0.000000  0.340900  0.159100  1.0  -0.1486
  C  C533  1  0.000000  0.268700  0.231300  1.0  0.0636
  C  C534  1  0.000000  0.879500  0.620500  1.0  0.6737
  C  C535  1  0.000000  0.840900  0.659100  1.0  -0.1486
  C  C536  1  0.000000  0.768700  0.731300  1.0  0.0636
  C  C537  1  0.379500  0.500000  0.379500  1.0  0.6757
  C  C538  1  0.340900  0.500000  0.340900  1.0  -0.149
  C  C539  1  0.268700  0.500000  0.268700  1.0  0.0636
  C  C540  1  0.379500  0.000000  0.879500  1.0  0.6757
  C  C541  1  0.340900  0.000000  0.840900  1.0  -0.149
  C  C542  1  0.268700  0.000000  0.768700  1.0  0.0636
  C  C543  1  0.879500  0.500000  0.879500  1.0  0.6757
  C  C544  1  0.840900  0.500000  0.840900  1.0  -0.149
  C  C545  1  0.768700  0.500000  0.768700  1.0  0.0636
  C  C546  1  0.879500  0.000000  0.379500  1.0  0.6757
  C  C547  1  0.840900  0.000000  0.340900  1.0  -0.149
  C  C548  1  0.768700  0.000000  0.268700  1.0  0.0636
  C  C549  1  0.620500  0.500000  0.620500  1.0  0.6763
  C  C550  1  0.659100  0.500000  0.659100  1.0  -0.1503
  C  C551  1  0.731300  0.500000  0.731300  1.0  0.0633
  C  C552  1  0.620500  0.000000  0.120500  1.0  0.6763
  C  C553  1  0.659100  0.000000  0.159100  1.0  -0.1503
  C  C554  1  0.731300  0.000000  0.231300  1.0  0.0633
  C  C555  1  0.120500  0.500000  0.120500  1.0  0.6763
  C  C556  1  0.159100  0.500000  0.159100  1.0  -0.1503
  C  C557  1  0.231300  0.500000  0.231300  1.0  0.0633
  C  C558  1  0.120500  0.000000  0.620500  1.0  0.6763
  C  C559  1  0.159100  0.000000  0.659100  1.0  -0.1503
  C  C560  1  0.231300  0.000000  0.731300  1.0  0.0633
  C  C561  1  0.379500  0.500000  0.620500  1.0  0.6753
  C  C562  1  0.340900  0.500000  0.659100  1.0  -0.1492
  C  C563  1  0.268700  0.500000  0.731300  1.0  0.0634
  C  C564  1  0.379500  0.000000  0.120500  1.0  0.6753
  C  C565  1  0.340900  0.000000  0.159100  1.0  -0.1492
  C  C566  1  0.268700  0.000000  0.231300  1.0  0.0634
  C  C567  1  0.879500  0.500000  0.120500  1.0  0.6753
  C  C568  1  0.840900  0.500000  0.159100  1.0  -0.1492
  C  C569  1  0.768700  0.500000  0.231300  1.0  0.0634
  C  C570  1  0.879500  0.000000  0.620500  1.0  0.6753
  C  C571  1  0.840900  0.000000  0.659100  1.0  -0.1492
  C  C572  1  0.768700  0.000000  0.731300  1.0  0.0634
  C  C573  1  0.620500  0.500000  0.379500  1.0  0.6762
  C  C574  1  0.659100  0.500000  0.340900  1.0  -0.15
  C  C575  1  0.731300  0.500000  0.268700  1.0  0.0636
  C  C576  1  0.620500  0.000000  0.879500  1.0  0.6762
  C  C577  1  0.659100  0.000000  0.840900  1.0  -0.15
  C  C578  1  0.731300  0.000000  0.768700  1.0  0.0636
  C  C579  1  0.120500  0.500000  0.879500  1.0  0.6762
  C  C580  1  0.159100  0.500000  0.840900  1.0  -0.15
  C  C581  1  0.231300  0.500000  0.768700  1.0  0.0636
  C  C582  1  0.120500  0.000000  0.379500  1.0  0.6762
  C  C583  1  0.159100  0.000000  0.340900  1.0  -0.15
  C  C584  1  0.231300  0.000000  0.268700  1.0  0.0636
  O  O585  1  0.363600  0.422900  0.500000  1.0  -0.7263
  O  O586  1  0.363600  0.922900  0.000000  1.0  -0.7263
  O  O587  1  0.863600  0.422900  0.000000  1.0  -0.7263
  O  O588  1  0.863600  0.922900  0.500000  1.0  -0.7263
  O  O589  1  0.636400  0.577100  0.500000  1.0  -0.7254
  O  O590  1  0.636400  0.077100  0.000000  1.0  -0.7254
  O  O591  1  0.136400  0.577100  0.000000  1.0  -0.7254
  O  O592  1  0.136400  0.077100  0.500000  1.0  -0.7254
  O  O593  1  0.636400  0.422900  0.500000  1.0  -0.7253
  O  O594  1  0.636400  0.922900  0.000000  1.0  -0.7253
  O  O595  1  0.136400  0.422900  0.000000  1.0  -0.7253
  O  O596  1  0.136400  0.922900  0.500000  1.0  -0.7253
  O  O597  1  0.363600  0.577100  0.500000  1.0  -0.7274
  O  O598  1  0.363600  0.077100  0.000000  1.0  -0.7274
  O  O599  1  0.863600  0.577100  0.000000  1.0  -0.7274
  O  O600  1  0.863600  0.077100  0.500000  1.0  -0.7274
  O  O601  1  0.500000  0.363600  0.422900  1.0  -0.7145
  O  O602  1  0.500000  0.863600  0.922900  1.0  -0.7145
  O  O603  1  0.000000  0.363600  0.922900  1.0  -0.7145
  O  O604  1  0.000000  0.863600  0.422900  1.0  -0.7145
  O  O605  1  0.500000  0.636400  0.577100  1.0  -0.7142
  O  O606  1  0.500000  0.136400  0.077100  1.0  -0.7142
  O  O607  1  0.000000  0.636400  0.077100  1.0  -0.7142
  O  O608  1  0.000000  0.136400  0.577100  1.0  -0.7142
  O  O609  1  0.500000  0.636400  0.422900  1.0  -0.7132
  O  O610  1  0.500000  0.136400  0.922900  1.0  -0.7132
  O  O611  1  0.000000  0.636400  0.922900  1.0  -0.7132
  O  O612  1  0.000000  0.136400  0.422900  1.0  -0.7132
  O  O613  1  0.500000  0.363600  0.577100  1.0  -0.7156
  O  O614  1  0.500000  0.863600  0.077100  1.0  -0.7156
  O  O615  1  0.000000  0.363600  0.077100  1.0  -0.7156
  O  O616  1  0.000000  0.863600  0.577100  1.0  -0.7156
  O  O617  1  0.422900  0.500000  0.363600  1.0  -0.7204
  O  O618  1  0.422900  0.000000  0.863600  1.0  -0.7204
  O  O619  1  0.922900  0.500000  0.863600  1.0  -0.7204
  O  O620  1  0.922900  0.000000  0.363600  1.0  -0.7204
  O  O621  1  0.577100  0.500000  0.636400  1.0  -0.7164
  O  O622  1  0.577100  0.000000  0.136400  1.0  -0.7164
  O  O623  1  0.077100  0.500000  0.136400  1.0  -0.7164
  O  O624  1  0.077100  0.000000  0.636400  1.0  -0.7164
  O  O625  1  0.422900  0.500000  0.636400  1.0  -0.7183
  O  O626  1  0.422900  0.000000  0.136400  1.0  -0.7183
  O  O627  1  0.922900  0.500000  0.136400  1.0  -0.7183
  O  O628  1  0.922900  0.000000  0.636400  1.0  -0.7183
  O  O629  1  0.577100  0.500000  0.363600  1.0  -0.7179
  O  O630  1  0.577100  0.000000  0.863600  1.0  -0.7179
  O  O631  1  0.077100  0.500000  0.863600  1.0  -0.7179
  O  O632  1  0.077100  0.000000  0.363600  1.0  -0.7179
  O  O633  1  0.422900  0.363600  0.500000  1.0  -0.7204
  O  O634  1  0.422900  0.863600  0.000000  1.0  -0.7204
  O  O635  1  0.922900  0.363600  0.000000  1.0  -0.7204
  O  O636  1  0.922900  0.863600  0.500000  1.0  -0.7204
  O  O637  1  0.577100  0.636400  0.500000  1.0  -0.7177
  O  O638  1  0.577100  0.136400  0.000000  1.0  -0.7177
  O  O639  1  0.077100  0.636400  0.000000  1.0  -0.7177
  O  O640  1  0.077100  0.136400  0.500000  1.0  -0.7177
  O  O641  1  0.422900  0.636400  0.500000  1.0  -0.7205
  O  O642  1  0.422900  0.136400  0.000000  1.0  -0.7205
  O  O643  1  0.922900  0.636400  0.000000  1.0  -0.7205
  O  O644  1  0.922900  0.136400  0.500000  1.0  -0.7205
  O  O645  1  0.577100  0.363600  0.500000  1.0  -0.7187
  O  O646  1  0.577100  0.863600  0.000000  1.0  -0.7187
  O  O647  1  0.077100  0.363600  0.000000  1.0  -0.7187
  O  O648  1  0.077100  0.863600  0.500000  1.0  -0.7187
  O  O649  1  0.363600  0.500000  0.577100  1.0  -0.7223
  O  O650  1  0.363600  0.000000  0.077100  1.0  -0.7223
  O  O651  1  0.863600  0.500000  0.077100  1.0  -0.7223
  O  O652  1  0.863600  0.000000  0.577100  1.0  -0.7223
  O  O653  1  0.636400  0.500000  0.422900  1.0  -0.7191
  O  O654  1  0.636400  0.000000  0.922900  1.0  -0.7191
  O  O655  1  0.136400  0.500000  0.922900  1.0  -0.7191
  O  O656  1  0.136400  0.000000  0.422900  1.0  -0.7191
  O  O657  1  0.636400  0.500000  0.577100  1.0  -0.72
  O  O658  1  0.636400  0.000000  0.077100  1.0  -0.72
  O  O659  1  0.136400  0.500000  0.077100  1.0  -0.72
  O  O660  1  0.136400  0.000000  0.577100  1.0  -0.72
  O  O661  1  0.363600  0.500000  0.422900  1.0  -0.7202
  O  O662  1  0.363600  0.000000  0.922900  1.0  -0.7202
  O  O663  1  0.863600  0.500000  0.922900  1.0  -0.7202
  O  O664  1  0.863600  0.000000  0.422900  1.0  -0.7202
  O  O665  1  0.500000  0.422900  0.636400  1.0  -0.7161
  O  O666  1  0.500000  0.922900  0.136400  1.0  -0.7161
  O  O667  1  0.000000  0.422900  0.136400  1.0  -0.7161
  O  O668  1  0.000000  0.922900  0.636400  1.0  -0.7161
  O  O669  1  0.500000  0.577100  0.363600  1.0  -0.7181
  O  O670  1  0.500000  0.077100  0.863600  1.0  -0.7181
  O  O671  1  0.000000  0.577100  0.863600  1.0  -0.7181
  O  O672  1  0.000000  0.077100  0.363600  1.0  -0.7181
  O  O673  1  0.500000  0.422900  0.363600  1.0  -0.7185
  O  O674  1  0.500000  0.922900  0.863600  1.0  -0.7185
  O  O675  1  0.000000  0.422900  0.863600  1.0  -0.7185
  O  O676  1  0.000000  0.922900  0.363600  1.0  -0.7185
  O  O677  1  0.500000  0.577100  0.636400  1.0  -0.7175
  O  O678  1  0.500000  0.077100  0.136400  1.0  -0.7175
  O  O679  1  0.000000  0.577100  0.136400  1.0  -0.7175
  O  O680  1  0.000000  0.077100  0.636400  1.0  -0.7175
  O  O681  1  0.453510  0.453510  0.453510  1.0  -0.924
  O  O682  1  0.453510  0.953510  0.953510  1.0  -0.924
  O  O683  1  0.953510  0.453510  0.953510  1.0  -0.924
  O  O684  1  0.953510  0.953510  0.453510  1.0  -0.924
  O  O685  1  0.546490  0.546490  0.453510  1.0  -0.9233
  O  O686  1  0.546490  0.046490  0.953510  1.0  -0.9233
  O  O687  1  0.046490  0.546490  0.953510  1.0  -0.9233
  O  O688  1  0.046490  0.046490  0.453510  1.0  -0.9233
  O  O689  1  0.546490  0.453510  0.546490  1.0  -0.9237
  O  O690  1  0.546490  0.953510  0.046490  1.0  -0.9237
  O  O691  1  0.046490  0.453510  0.046490  1.0  -0.9237
  O  O692  1  0.046490  0.953510  0.546490  1.0  -0.9237
  O  O693  1  0.453510  0.546490  0.546490  1.0  -0.9256
  O  O694  1  0.453510  0.046490  0.046490  1.0  -0.9256
  O  O695  1  0.953510  0.546490  0.046490  1.0  -0.9256
  O  O696  1  0.953510  0.046490  0.546490  1.0  -0.9256
  O  O697  1  0.453510  0.453510  0.546490  1.0  -0.9253
  O  O698  1  0.453510  0.953510  0.046490  1.0  -0.9253
  O  O699  1  0.953510  0.453510  0.046490  1.0  -0.9253
  O  O700  1  0.953510  0.953510  0.546490  1.0  -0.9253
  O  O701  1  0.546490  0.546490  0.546490  1.0  -0.9241
  O  O702  1  0.546490  0.046490  0.046490  1.0  -0.9241
  O  O703  1  0.046490  0.546490  0.046490  1.0  -0.9241
  O  O704  1  0.046490  0.046490  0.546490  1.0  -0.9241
  O  O705  1  0.453510  0.546490  0.453510  1.0  -0.9244
  O  O706  1  0.453510  0.046490  0.953510  1.0  -0.9244
  O  O707  1  0.953510  0.546490  0.953510  1.0  -0.9244
  O  O708  1  0.953510  0.046490  0.453510  1.0  -0.9244
  O  O709  1  0.546490  0.453510  0.453510  1.0  -0.9227
  O  O710  1  0.546490  0.953510  0.953510  1.0  -0.9227
  O  O711  1  0.046490  0.453510  0.953510  1.0  -0.9227
  O  O712  1  0.046490  0.953510  0.453510  1.0  -0.9227
