# generated using pymatgen
data_NiH16(C12N5)2
_symmetry_space_group_name_H-M   'P 1'
_cell_length_a   30.59400000
_cell_length_b   30.59400000
_cell_length_c   15.96460000
_cell_angle_alpha   90.00000000
_cell_angle_beta   90.00000000
_cell_angle_gamma   120.00000000
_symmetry_Int_Tables_number   1
_chemical_formula_structural   NiH16(C12N5)2
_chemical_formula_sum   'Ni18 H288 C432 N180'
_cell_volume   12940.80216727
_cell_formula_units_Z   18
loop_
 _symmetry_equiv_pos_site_id
 _symmetry_equiv_pos_as_xyz
  1  'x, y, z'
loop_
 _atom_site_type_symbol
 _atom_site_label
 _atom_site_symmetry_multiplicity
 _atom_site_fract_x
 _atom_site_fract_y
 _atom_site_fract_z
 _atom_site_occupancy
 _atom_site_charge
  Ni  Ni1  1  0.500000  0.500000  0.500000  1.0  0.749
  Ni  Ni2  1  0.166670  0.833330  0.833330  1.0  0.7521
  Ni  Ni3  1  0.833330  0.166670  0.166670  1.0  0.7516
  Ni  Ni4  1  0.500000  0.000000  0.500000  1.0  0.7487
  Ni  Ni5  1  0.166670  0.333333  0.833330  1.0  0.7524
  Ni  Ni6  1  0.833330  0.666667  0.166670  1.0  0.7521
  Ni  Ni7  1  0.000000  0.500000  0.500000  1.0  0.7487
  Ni  Ni8  1  0.666667  0.833330  0.833330  1.0  0.7521
  Ni  Ni9  1  0.333333  0.166670  0.166670  1.0  0.7524
  Ni  Ni10  1  0.500000  0.500000  0.000000  1.0  0.749
  Ni  Ni11  1  0.166670  0.833330  0.333333  1.0  0.7524
  Ni  Ni12  1  0.833330  0.166670  0.666667  1.0  0.752
  Ni  Ni13  1  0.000000  0.500000  0.000000  1.0  0.7487
  Ni  Ni14  1  0.666667  0.833330  0.333333  1.0  0.7525
  Ni  Ni15  1  0.333333  0.166670  0.666667  1.0  0.752
  Ni  Ni16  1  0.500000  0.000000  0.000000  1.0  0.7487
  Ni  Ni17  1  0.166670  0.333333  0.333333  1.0  0.752
  Ni  Ni18  1  0.833330  0.666667  0.666667  1.0  0.7525
  H  H19  1  0.614900  0.437400  0.584800  1.0  0.1084
  H  H20  1  0.560500  0.373000  0.674600  1.0  0.1135
  H  H21  1  0.482800  0.366800  0.705500  1.0  0.085
  H  H22  1  0.455700  0.413900  0.634700  1.0  0.0921
  H  H23  1  0.730600  0.656300  0.201900  1.0  0.0613
  H  H24  1  0.663500  0.618400  0.291800  1.0  0.1224
  H  H25  1  0.738700  0.567800  0.423900  1.0  0.1042
  H  H26  1  0.805100  0.613100  0.337200  1.0  0.0532
  H  H27  1  0.281570  0.770730  0.918130  1.0  0.1084
  H  H28  1  0.227170  0.706330  0.007930  1.0  0.1135
  H  H29  1  0.149470  0.700130  0.038830  1.0  0.085
  H  H30  1  0.122370  0.747230  0.968030  1.0  0.0921
  H  H31  1  0.397270  0.989630  0.535230  1.0  0.0613
  H  H32  1  0.330170  0.951730  0.625130  1.0  0.1224
  H  H33  1  0.405370  0.901130  0.757230  1.0  0.1042
  H  H34  1  0.471770  0.946430  0.670530  1.0  0.0526
  H  H35  1  0.948230  0.104070  0.251470  1.0  0.106
  H  H36  1  0.893830  0.039670  0.341270  1.0  0.1144
  H  H37  1  0.816130  0.033470  0.372170  1.0  0.0849
  H  H38  1  0.789030  0.080570  0.301370  1.0  0.0921
  H  H39  1  0.063930  0.322970  0.868570  1.0  0.0614
  H  H40  1  0.996830  0.285070  0.958470  1.0  0.1224
  H  H41  1  0.072030  0.234470  0.090570  1.0  0.1042
  H  H42  1  0.138430  0.279770  0.003870  1.0  0.0526
  H  H43  1  0.562600  0.177500  0.584800  1.0  0.1114
  H  H44  1  0.627000  0.187500  0.674600  1.0  0.1154
  H  H45  1  0.633200  0.116000  0.705500  1.0  0.0856
  H  H46  1  0.586100  0.041800  0.634700  1.0  0.0908
  H  H47  1  0.343700  0.074300  0.201900  1.0  0.0618
  H  H48  1  0.381600  0.045100  0.291800  1.0  0.1213
  H  H49  1  0.432200  0.170900  0.423900  1.0  0.1031
  H  H50  1  0.386900  0.192000  0.337200  1.0  0.0506
  H  H51  1  0.229270  0.510830  0.918130  1.0  0.1114
  H  H52  1  0.293670  0.520830  0.007930  1.0  0.1154
  H  H53  1  0.299870  0.449330  0.038830  1.0  0.0856
  H  H54  1  0.252770  0.375130  0.968030  1.0  0.0908
  H  H55  1  0.010370  0.407630  0.535230  1.0  0.0618
  H  H56  1  0.048270  0.378430  0.625130  1.0  0.1212
  H  H57  1  0.098870  0.504230  0.757230  1.0  0.1031
  H  H58  1  0.053570  0.525330  0.670530  1.0  0.0506
  H  H59  1  0.895930  0.844170  0.251470  1.0  0.1127
  H  H60  1  0.960330  0.854170  0.341270  1.0  0.1144
  H  H61  1  0.966530  0.782670  0.372170  1.0  0.0855
  H  H62  1  0.919430  0.708470  0.301370  1.0  0.0908
  H  H63  1  0.677030  0.740970  0.868570  1.0  0.0618
  H  H64  1  0.714930  0.711770  0.958470  1.0  0.1213
  H  H65  1  0.765530  0.837570  0.090570  1.0  0.1031
  H  H66  1  0.720230  0.858670  0.003870  1.0  0.051
  H  H67  1  0.822500  0.385100  0.584800  1.0  0.1065
  H  H68  1  0.812500  0.439500  0.674600  1.0  0.1147
  H  H69  1  0.884000  0.517200  0.705500  1.0  0.0854
  H  H70  1  0.958200  0.544300  0.634700  1.0  0.0909
  H  H71  1  0.925700  0.269400  0.201900  1.0  0.0613
  H  H72  1  0.954900  0.336500  0.291800  1.0  0.1205
  H  H73  1  0.829100  0.261300  0.423900  1.0  0.1037
  H  H74  1  0.808000  0.194900  0.337200  1.0  0.0508
  H  H75  1  0.489170  0.718430  0.918130  1.0  0.1065
  H  H76  1  0.479170  0.772830  0.007930  1.0  0.1147
  H  H77  1  0.550670  0.850530  0.038830  1.0  0.0854
  H  H78  1  0.624870  0.877630  0.968030  1.0  0.0909
  H  H79  1  0.592370  0.602730  0.535230  1.0  0.0613
  H  H80  1  0.621570  0.669830  0.625130  1.0  0.1205
  H  H81  1  0.495770  0.594630  0.757230  1.0  0.1037
  H  H82  1  0.474670  0.528230  0.670530  1.0  0.0514
  H  H83  1  0.155830  0.051770  0.251470  1.0  0.1078
  H  H84  1  0.145830  0.106170  0.341270  1.0  0.1149
  H  H85  1  0.217330  0.183870  0.372170  1.0  0.0854
  H  H86  1  0.291530  0.210970  0.301370  1.0  0.091
  H  H87  1  0.259030  0.936070  0.868570  1.0  0.0613
  H  H88  1  0.288230  0.003170  0.958470  1.0  0.1205
  H  H89  1  0.162430  0.927970  0.090570  1.0  0.1037
  H  H90  1  0.141330  0.861570  0.003870  1.0  0.0508
  H  H91  1  0.385100  0.562600  0.415200  1.0  0.1095
  H  H92  1  0.439500  0.627000  0.325400  1.0  0.1135
  H  H93  1  0.517200  0.633200  0.294500  1.0  0.0847
  H  H94  1  0.544300  0.586100  0.365300  1.0  0.0912
  H  H95  1  0.269400  0.343700  0.798100  1.0  0.0615
  H  H96  1  0.336500  0.381600  0.708200  1.0  0.1228
  H  H97  1  0.261300  0.432200  0.576100  1.0  0.1038
  H  H98  1  0.194900  0.386900  0.662800  1.0  0.0526
  H  H99  1  0.051770  0.895930  0.748530  1.0  0.1072
  H  H100  1  0.106170  0.960330  0.658730  1.0  0.1146
  H  H101  1  0.183870  0.966530  0.627830  1.0  0.0846
  H  H102  1  0.210970  0.919430  0.698630  1.0  0.0912
  H  H103  1  0.936070  0.677030  0.131430  1.0  0.0615
  H  H104  1  0.003170  0.714930  0.041530  1.0  0.1228
  H  H105  1  0.927970  0.765530  0.909430  1.0  0.1038
  H  H106  1  0.861570  0.720230  0.996130  1.0  0.0521
  H  H107  1  0.718430  0.229270  0.081870  1.0  0.1095
  H  H108  1  0.772830  0.293670  0.992070  1.0  0.1135
  H  H109  1  0.850530  0.299870  0.961170  1.0  0.0847
  H  H110  1  0.877630  0.252770  0.031970  1.0  0.0912
  H  H111  1  0.602730  0.010370  0.464770  1.0  0.0615
  H  H112  1  0.669830  0.048270  0.374870  1.0  0.1228
  H  H113  1  0.594630  0.098870  0.242770  1.0  0.1038
  H  H114  1  0.528230  0.053570  0.329470  1.0  0.0521
  H  H115  1  0.437400  0.822500  0.415200  1.0  0.111
  H  H116  1  0.373000  0.812500  0.325400  1.0  0.1149
  H  H117  1  0.366800  0.884000  0.294500  1.0  0.0848
  H  H118  1  0.413900  0.958200  0.365300  1.0  0.0903
  H  H119  1  0.656300  0.925700  0.798100  1.0  0.0609
  H  H120  1  0.618400  0.954900  0.708200  1.0  0.121
  H  H121  1  0.567800  0.829100  0.576100  1.0  0.1043
  H  H122  1  0.613100  0.808000  0.662800  1.0  0.0504
  H  H123  1  0.104070  0.155830  0.748530  1.0  0.1121
  H  H124  1  0.039670  0.145830  0.658730  1.0  0.1138
  H  H125  1  0.033470  0.217330  0.627830  1.0  0.0847
  H  H126  1  0.080570  0.291530  0.698630  1.0  0.0903
  H  H127  1  0.322970  0.259030  0.131430  1.0  0.0609
  H  H128  1  0.285070  0.288230  0.041530  1.0  0.121
  H  H129  1  0.234470  0.162430  0.909430  1.0  0.1042
  H  H130  1  0.279770  0.141330  0.996130  1.0  0.0508
  H  H131  1  0.770730  0.489170  0.081870  1.0  0.111
  H  H132  1  0.706330  0.479170  0.992070  1.0  0.1149
  H  H133  1  0.700130  0.550670  0.961170  1.0  0.0848
  H  H134  1  0.747230  0.624870  0.031970  1.0  0.0903
  H  H135  1  0.989630  0.592370  0.464770  1.0  0.0609
  H  H136  1  0.951730  0.621570  0.374870  1.0  0.121
  H  H137  1  0.901130  0.495770  0.242770  1.0  0.1043
  H  H138  1  0.946430  0.474670  0.329470  1.0  0.0504
  H  H139  1  0.177500  0.614900  0.415200  1.0  0.1051
  H  H140  1  0.187500  0.560500  0.325400  1.0  0.114
  H  H141  1  0.116000  0.482800  0.294500  1.0  0.0848
  H  H142  1  0.041800  0.455700  0.365300  1.0  0.0913
  H  H143  1  0.074300  0.730600  0.798100  1.0  0.0615
  H  H144  1  0.045100  0.663500  0.708200  1.0  0.1201
  H  H145  1  0.170900  0.738700  0.576100  1.0  0.1036
  H  H146  1  0.192000  0.805100  0.662800  1.0  0.051
  H  H147  1  0.844170  0.948230  0.748530  1.0  0.1075
  H  H148  1  0.854170  0.893830  0.658730  1.0  0.1142
  H  H149  1  0.782670  0.816130  0.627830  1.0  0.0848
  H  H150  1  0.708470  0.789030  0.698630  1.0  0.0914
  H  H151  1  0.740970  0.063930  0.131430  1.0  0.0615
  H  H152  1  0.711770  0.996830  0.041530  1.0  0.1201
  H  H153  1  0.837570  0.072030  0.909430  1.0  0.1036
  H  H154  1  0.858670  0.138430  0.996130  1.0  0.051
  H  H155  1  0.510830  0.281570  0.081870  1.0  0.1051
  H  H156  1  0.520830  0.227170  0.992070  1.0  0.114
  H  H157  1  0.449330  0.149470  0.961170  1.0  0.0848
  H  H158  1  0.375130  0.122370  0.031970  1.0  0.0913
  H  H159  1  0.407630  0.397270  0.464770  1.0  0.0615
  H  H160  1  0.378430  0.330170  0.374870  1.0  0.1201
  H  H161  1  0.504230  0.405370  0.242770  1.0  0.1036
  H  H162  1  0.525330  0.471770  0.329470  1.0  0.0516
  H  H163  1  0.437400  0.614900  0.915200  1.0  0.1094
  H  H164  1  0.373000  0.560500  0.825400  1.0  0.1137
  H  H165  1  0.366800  0.482800  0.794500  1.0  0.085
  H  H166  1  0.413900  0.455700  0.865300  1.0  0.0905
  H  H167  1  0.656300  0.730600  0.298100  1.0  0.0617
  H  H168  1  0.618400  0.663500  0.208200  1.0  0.1203
  H  H169  1  0.567800  0.738700  0.076100  1.0  0.1037
  H  H170  1  0.613100  0.805100  0.162800  1.0  0.0516
  H  H171  1  0.104070  0.948230  0.248530  1.0  0.106
  H  H172  1  0.039670  0.893830  0.158730  1.0  0.1146
  H  H173  1  0.033470  0.816130  0.127830  1.0  0.0849
  H  H174  1  0.080570  0.789030  0.198630  1.0  0.0905
  H  H175  1  0.322970  0.063930  0.631430  1.0  0.0617
  H  H176  1  0.285070  0.996830  0.541530  1.0  0.1203
  H  H177  1  0.234470  0.072030  0.409430  1.0  0.1037
  H  H178  1  0.279770  0.138430  0.496130  1.0  0.0511
  H  H179  1  0.770730  0.281570  0.581870  1.0  0.1094
  H  H180  1  0.706330  0.227170  0.492070  1.0  0.1137
  H  H181  1  0.700130  0.149470  0.461170  1.0  0.085
  H  H182  1  0.747230  0.122370  0.531970  1.0  0.0905
  H  H183  1  0.989630  0.397270  0.964770  1.0  0.0618
  H  H184  1  0.951730  0.330170  0.874870  1.0  0.1202
  H  H185  1  0.901130  0.405370  0.742770  1.0  0.1037
  H  H186  1  0.946430  0.471770  0.829470  1.0  0.0511
  H  H187  1  0.177500  0.562600  0.915200  1.0  0.1092
  H  H188  1  0.187500  0.627000  0.825400  1.0  0.114
  H  H189  1  0.116000  0.633200  0.794500  1.0  0.0848
  H  H190  1  0.041800  0.586100  0.865300  1.0  0.092
  H  H191  1  0.074300  0.343700  0.298100  1.0  0.0616
  H  H192  1  0.045100  0.381600  0.208200  1.0  0.1221
  H  H193  1  0.170900  0.432200  0.076100  1.0  0.1033
  H  H194  1  0.192000  0.386900  0.162800  1.0  0.0525
  H  H195  1  0.844170  0.895930  0.248530  1.0  0.1104
  H  H196  1  0.854170  0.960330  0.158730  1.0  0.1133
  H  H197  1  0.782670  0.966530  0.127830  1.0  0.0848
  H  H198  1  0.708470  0.919430  0.198630  1.0  0.092
  H  H199  1  0.740970  0.677030  0.631430  1.0  0.0616
  H  H200  1  0.711770  0.714930  0.541530  1.0  0.1221
  H  H201  1  0.837570  0.765530  0.409430  1.0  0.1033
  H  H202  1  0.858670  0.720230  0.496130  1.0  0.0529
  H  H203  1  0.510830  0.229270  0.581870  1.0  0.1092
  H  H204  1  0.520830  0.293670  0.492070  1.0  0.114
  H  H205  1  0.449330  0.299870  0.461170  1.0  0.0848
  H  H206  1  0.375130  0.252770  0.531970  1.0  0.092
  H  H207  1  0.407630  0.010370  0.964770  1.0  0.0616
  H  H208  1  0.378430  0.048270  0.874870  1.0  0.1221
  H  H209  1  0.504230  0.098870  0.742770  1.0  0.1033
  H  H210  1  0.525330  0.053570  0.829470  1.0  0.0525
  H  H211  1  0.385100  0.822500  0.915200  1.0  0.1069
  H  H212  1  0.439500  0.812500  0.825400  1.0  0.1155
  H  H213  1  0.517200  0.884000  0.794500  1.0  0.0852
  H  H214  1  0.544300  0.958200  0.865300  1.0  0.0903
  H  H215  1  0.269400  0.925700  0.298100  1.0  0.0614
  H  H216  1  0.336500  0.954900  0.208200  1.0  0.1211
  H  H217  1  0.261300  0.829100  0.076100  1.0  0.1035
  H  H218  1  0.194900  0.808000  0.162800  1.0  0.0501
  H  H219  1  0.051770  0.155830  0.248530  1.0  0.1081
  H  H220  1  0.106170  0.145830  0.158730  1.0  0.1157
  H  H221  1  0.183870  0.217330  0.127830  1.0  0.0852
  H  H222  1  0.210970  0.291530  0.198630  1.0  0.0904
  H  H223  1  0.936070  0.259030  0.631430  1.0  0.0614
  H  H224  1  0.003170  0.288230  0.541530  1.0  0.1211
  H  H225  1  0.927970  0.162430  0.409430  1.0  0.1035
  H  H226  1  0.861570  0.141330  0.496130  1.0  0.0501
  H  H227  1  0.718430  0.489170  0.581870  1.0  0.1069
  H  H228  1  0.772830  0.479170  0.492070  1.0  0.1155
  H  H229  1  0.850530  0.550670  0.461170  1.0  0.0852
  H  H230  1  0.877630  0.624870  0.531970  1.0  0.0903
  H  H231  1  0.602730  0.592370  0.964770  1.0  0.0614
  H  H232  1  0.669830  0.621570  0.874870  1.0  0.1211
  H  H233  1  0.594630  0.495770  0.742770  1.0  0.1035
  H  H234  1  0.528230  0.474670  0.829470  1.0  0.0507
  H  H235  1  0.562600  0.385100  0.084800  1.0  0.1091
  H  H236  1  0.627000  0.439500  0.174600  1.0  0.1139
  H  H237  1  0.633200  0.517200  0.205500  1.0  0.0851
  H  H238  1  0.586100  0.544300  0.134700  1.0  0.0916
  H  H239  1  0.343700  0.269400  0.701900  1.0  0.061
  H  H240  1  0.381600  0.336500  0.791800  1.0  0.1205
  H  H241  1  0.432200  0.261300  0.923900  1.0  0.1032
  H  H242  1  0.386900  0.194900  0.837200  1.0  0.0513
  H  H243  1  0.229270  0.718430  0.418130  1.0  0.1091
  H  H244  1  0.293670  0.772830  0.507930  1.0  0.1139
  H  H245  1  0.299870  0.850530  0.538830  1.0  0.0851
  H  H246  1  0.252770  0.877630  0.468030  1.0  0.0917
  H  H247  1  0.010370  0.602730  0.035230  1.0  0.061
  H  H248  1  0.048270  0.669830  0.125130  1.0  0.1205
  H  H249  1  0.098870  0.594630  0.257230  1.0  0.1032
  H  H250  1  0.053570  0.528230  0.170530  1.0  0.0507
  H  H251  1  0.895930  0.051770  0.751470  1.0  0.1064
  H  H252  1  0.960330  0.106170  0.841270  1.0  0.1147
  H  H253  1  0.966530  0.183870  0.872170  1.0  0.085
  H  H254  1  0.919430  0.210970  0.801370  1.0  0.0916
  H  H255  1  0.677030  0.936070  0.368570  1.0  0.061
  H  H256  1  0.714930  0.003170  0.458470  1.0  0.1205
  H  H257  1  0.765530  0.927970  0.590570  1.0  0.1032
  H  H258  1  0.720230  0.861570  0.503870  1.0  0.0508
  H  H259  1  0.822500  0.437400  0.084800  1.0  0.1109
  H  H260  1  0.812500  0.373000  0.174600  1.0  0.1144
  H  H261  1  0.884000  0.366800  0.205500  1.0  0.0849
  H  H262  1  0.958200  0.413900  0.134700  1.0  0.0914
  H  H263  1  0.925700  0.656300  0.701900  1.0  0.061
  H  H264  1  0.954900  0.618400  0.791800  1.0  0.1231
  H  H265  1  0.829100  0.567800  0.923900  1.0  0.1043
  H  H266  1  0.808000  0.613100  0.837200  1.0  0.0519
  H  H267  1  0.489170  0.770730  0.418130  1.0  0.1109
  H  H268  1  0.479170  0.706330  0.507930  1.0  0.1144
  H  H269  1  0.550670  0.700130  0.538830  1.0  0.0849
  H  H270  1  0.624870  0.747230  0.468030  1.0  0.0914
  H  H271  1  0.592370  0.989630  0.035230  1.0  0.061
  H  H272  1  0.621570  0.951730  0.125130  1.0  0.123
  H  H273  1  0.495770  0.901130  0.257230  1.0  0.1043
  H  H274  1  0.474670  0.946430  0.170530  1.0  0.0519
  H  H275  1  0.155830  0.104070  0.751470  1.0  0.1113
  H  H276  1  0.145830  0.039670  0.841270  1.0  0.114
  H  H277  1  0.217330  0.033470  0.872170  1.0  0.0848
  H  H278  1  0.291530  0.080570  0.801370  1.0  0.0913
  H  H279  1  0.259030  0.322970  0.368570  1.0  0.0611
  H  H280  1  0.288230  0.285070  0.458470  1.0  0.1231
  H  H281  1  0.162430  0.234470  0.590570  1.0  0.1043
  H  H282  1  0.141330  0.279770  0.503870  1.0  0.0523
  H  H283  1  0.614900  0.177500  0.084800  1.0  0.1062
  H  H284  1  0.560500  0.187500  0.174600  1.0  0.1152
  H  H285  1  0.482800  0.116000  0.205500  1.0  0.0853
  H  H286  1  0.455700  0.041800  0.134700  1.0  0.0906
  H  H287  1  0.730600  0.074300  0.701900  1.0  0.0613
  H  H288  1  0.663500  0.045100  0.791800  1.0  0.121
  H  H289  1  0.738700  0.170900  0.923900  1.0  0.1038
  H  H290  1  0.805100  0.192000  0.837200  1.0  0.0505
  H  H291  1  0.281570  0.510830  0.418130  1.0  0.1062
  H  H292  1  0.227170  0.520830  0.507930  1.0  0.1152
  H  H293  1  0.149470  0.449330  0.538830  1.0  0.0853
  H  H294  1  0.122370  0.375130  0.468030  1.0  0.0906
  H  H295  1  0.397270  0.407630  0.035230  1.0  0.0613
  H  H296  1  0.330170  0.378430  0.125130  1.0  0.121
  H  H297  1  0.405370  0.504230  0.257230  1.0  0.1038
  H  H298  1  0.471770  0.525330  0.170530  1.0  0.0511
  H  H299  1  0.948230  0.844170  0.751470  1.0  0.108
  H  H300  1  0.893830  0.854170  0.841270  1.0  0.1155
  H  H301  1  0.816130  0.782670  0.872170  1.0  0.0853
  H  H302  1  0.789030  0.708470  0.801370  1.0  0.0907
  H  H303  1  0.063930  0.740970  0.368570  1.0  0.0613
  H  H304  1  0.996830  0.711770  0.458470  1.0  0.121
  H  H305  1  0.072030  0.837570  0.590570  1.0  0.1038
  H  H306  1  0.138430  0.858670  0.503870  1.0  0.0506
  C  C307  1  0.564600  0.461200  0.557200  1.0  0.169
  C  C308  1  0.582600  0.431700  0.595800  1.0  -0.1183
  C  C309  1  0.551100  0.394500  0.649700  1.0  -0.1581
  C  C310  1  0.503900  0.390000  0.665800  1.0  -0.1063
  C  C311  1  0.487900  0.418900  0.625000  1.0  0.1273
  C  C312  1  0.644100  0.552000  0.413100  1.0  0.3356
  C  C313  1  0.591600  0.499200  0.495300  1.0  0.2327
  C  C314  1  0.732700  0.638500  0.247600  1.0  0.1786
  C  C315  1  0.691300  0.614200  0.298700  1.0  -0.1889
  C  C316  1  0.692100  0.583300  0.360500  1.0  -0.0387
  C  C317  1  0.735500  0.584700  0.378100  1.0  -0.1609
  C  C318  1  0.775000  0.612400  0.325200  1.0  0.1833
  C  C319  1  0.231270  0.794530  0.890530  1.0  0.169
  C  C320  1  0.249270  0.765030  0.929130  1.0  -0.1183
  C  C321  1  0.217770  0.727830  0.983030  1.0  -0.1581
  C  C322  1  0.170570  0.723330  0.999130  1.0  -0.1063
  C  C323  1  0.154570  0.752230  0.958330  1.0  0.1274
  C  C324  1  0.310770  0.885330  0.746430  1.0  0.3356
  C  C325  1  0.258270  0.832530  0.828630  1.0  0.2326
  C  C326  1  0.399370  0.971830  0.580930  1.0  0.1786
  C  C327  1  0.357970  0.947530  0.632030  1.0  -0.189
  C  C328  1  0.358770  0.916630  0.693830  1.0  -0.0387
  C  C329  1  0.402170  0.918030  0.711430  1.0  -0.1611
  C  C330  1  0.441670  0.945730  0.658530  1.0  0.1834
  C  C331  1  0.897930  0.127870  0.223870  1.0  0.1691
  C  C332  1  0.915930  0.098370  0.262470  1.0  -0.1184
  C  C333  1  0.884430  0.061170  0.316370  1.0  -0.1581
  C  C334  1  0.837230  0.056670  0.332470  1.0  -0.1063
  C  C335  1  0.821230  0.085570  0.291670  1.0  0.1273
  C  C336  1  0.977430  0.218670  0.079770  1.0  0.3356
  C  C337  1  0.924930  0.165870  0.161970  1.0  0.2327
  C  C338  1  0.066030  0.305170  0.914270  1.0  0.1787
  C  C339  1  0.024630  0.280870  0.965370  1.0  -0.1889
  C  C340  1  0.025430  0.249970  0.027170  1.0  -0.0387
  C  C341  1  0.068830  0.251370  0.044770  1.0  -0.1608
  C  C342  1  0.108330  0.279070  0.991870  1.0  0.1834
  C  C343  1  0.538800  0.103400  0.557200  1.0  0.1697
  C  C344  1  0.568300  0.150900  0.595800  1.0  -0.1169
  C  C345  1  0.605500  0.156600  0.649700  1.0  -0.1546
  C  C346  1  0.610000  0.113900  0.665800  1.0  -0.1055
  C  C347  1  0.581100  0.069000  0.625000  1.0  0.1294
  C  C348  1  0.448000  0.092100  0.413100  1.0  0.3379
  C  C349  1  0.500800  0.092400  0.495300  1.0  0.2345
  C  C350  1  0.361500  0.094200  0.247600  1.0  0.177
  C  C351  1  0.385800  0.077100  0.298700  1.0  -0.1918
  C  C352  1  0.416700  0.108800  0.360500  1.0  -0.0393
  C  C353  1  0.415300  0.150800  0.378100  1.0  -0.1621
  C  C354  1  0.387600  0.162600  0.325200  1.0  0.1851
  C  C355  1  0.205470  0.436730  0.890530  1.0  0.1697
  C  C356  1  0.234970  0.484230  0.929130  1.0  -0.1169
  C  C357  1  0.272170  0.489930  0.983030  1.0  -0.1546
  C  C358  1  0.276670  0.447230  0.999130  1.0  -0.1055
  C  C359  1  0.247770  0.402330  0.958330  1.0  0.1294
  C  C360  1  0.114670  0.425430  0.746430  1.0  0.3379
  C  C361  1  0.167470  0.425730  0.828630  1.0  0.2344
  C  C362  1  0.028170  0.427530  0.580930  1.0  0.1771
  C  C363  1  0.052470  0.410430  0.632030  1.0  -0.1919
  C  C364  1  0.083370  0.442130  0.693830  1.0  -0.0393
  C  C365  1  0.081970  0.484130  0.711430  1.0  -0.1618
  C  C366  1  0.054270  0.495930  0.658530  1.0  0.1851
  C  C367  1  0.872130  0.770070  0.223870  1.0  0.1697
  C  C368  1  0.901630  0.817570  0.262470  1.0  -0.1167
  C  C369  1  0.938830  0.823270  0.316370  1.0  -0.1546
  C  C370  1  0.943330  0.780570  0.332470  1.0  -0.1055
  C  C371  1  0.914430  0.735670  0.291670  1.0  0.1297
  C  C372  1  0.781330  0.758770  0.079770  1.0  0.3379
  C  C373  1  0.834130  0.759070  0.161970  1.0  0.2345
  C  C374  1  0.694830  0.760870  0.914270  1.0  0.1769
  C  C375  1  0.719130  0.743770  0.965370  1.0  -0.1918
  C  C376  1  0.750030  0.775470  0.027170  1.0  -0.0393
  C  C377  1  0.748630  0.817470  0.044770  1.0  -0.1622
  C  C378  1  0.720930  0.829270  0.991870  1.0  0.1851
  C  C379  1  0.896600  0.435400  0.557200  1.0  0.1683
  C  C380  1  0.849100  0.417400  0.595800  1.0  -0.1199
  C  C381  1  0.843400  0.448900  0.649700  1.0  -0.158
  C  C382  1  0.886100  0.496100  0.665800  1.0  -0.1068
  C  C383  1  0.931000  0.512100  0.625000  1.0  0.1268
  C  C384  1  0.907900  0.355900  0.413100  1.0  0.3382
  C  C385  1  0.907600  0.408400  0.495300  1.0  0.2325
  C  C386  1  0.905800  0.267300  0.247600  1.0  0.1778
  C  C387  1  0.922900  0.308700  0.298700  1.0  -0.1861
  C  C388  1  0.891200  0.307900  0.360500  1.0  -0.0393
  C  C389  1  0.849200  0.264500  0.378100  1.0  -0.1623
  C  C390  1  0.837400  0.225000  0.325200  1.0  0.1856
  C  C391  1  0.563270  0.768730  0.890530  1.0  0.1683
  C  C392  1  0.515770  0.750730  0.929130  1.0  -0.1199
  C  C393  1  0.510070  0.782230  0.983030  1.0  -0.158
  C  C394  1  0.552770  0.829430  0.999130  1.0  -0.1068
  C  C395  1  0.597670  0.845430  0.958330  1.0  0.1268
  C  C396  1  0.574570  0.689230  0.746430  1.0  0.3382
  C  C397  1  0.574270  0.741730  0.828630  1.0  0.2325
  C  C398  1  0.572470  0.600630  0.580930  1.0  0.1778
  C  C399  1  0.589570  0.642030  0.632030  1.0  -0.1861
  C  C400  1  0.557870  0.641230  0.693830  1.0  -0.0393
  C  C401  1  0.515870  0.597830  0.711430  1.0  -0.1621
  C  C402  1  0.504070  0.558330  0.658530  1.0  0.1856
  C  C403  1  0.229930  0.102070  0.223870  1.0  0.1683
  C  C404  1  0.182430  0.084070  0.262470  1.0  -0.12
  C  C405  1  0.176730  0.115570  0.316370  1.0  -0.1581
  C  C406  1  0.219430  0.162770  0.332470  1.0  -0.1068
  C  C407  1  0.264330  0.178770  0.291670  1.0  0.1269
  C  C408  1  0.241230  0.022570  0.079770  1.0  0.3382
  C  C409  1  0.240930  0.075070  0.161970  1.0  0.2325
  C  C410  1  0.239130  0.933970  0.914270  1.0  0.1779
  C  C411  1  0.256230  0.975370  0.965370  1.0  -0.1861
  C  C412  1  0.224530  0.974570  0.027170  1.0  -0.0393
  C  C413  1  0.182530  0.931170  0.044770  1.0  -0.1623
  C  C414  1  0.170730  0.891670  0.991870  1.0  0.1856
  C  C415  1  0.435400  0.538800  0.442800  1.0  0.1681
  C  C416  1  0.417400  0.568300  0.404200  1.0  -0.1184
  C  C417  1  0.448900  0.605500  0.350300  1.0  -0.1584
  C  C418  1  0.496100  0.610000  0.334200  1.0  -0.1058
  C  C419  1  0.512100  0.581100  0.375000  1.0  0.1293
  C  C420  1  0.355900  0.448000  0.586900  1.0  0.3362
  C  C421  1  0.408400  0.500800  0.504700  1.0  0.2331
  C  C422  1  0.267300  0.361500  0.752400  1.0  0.1778
  C  C423  1  0.308700  0.385800  0.701300  1.0  -0.1906
  C  C424  1  0.307900  0.416700  0.639500  1.0  -0.0371
  C  C425  1  0.264500  0.415300  0.621900  1.0  -0.1607
  C  C426  1  0.225000  0.387600  0.674800  1.0  0.1819
  C  C427  1  0.102070  0.872130  0.776130  1.0  0.1682
  C  C428  1  0.084070  0.901630  0.737530  1.0  -0.1187
  C  C429  1  0.115570  0.938830  0.683630  1.0  -0.1584
  C  C430  1  0.162770  0.943330  0.667530  1.0  -0.1058
  C  C431  1  0.178770  0.914430  0.708330  1.0  0.1293
  C  C432  1  0.022570  0.781330  0.920230  1.0  0.3362
  C  C433  1  0.075070  0.834130  0.838030  1.0  0.2331
  C  C434  1  0.933970  0.694830  0.085730  1.0  0.1778
  C  C435  1  0.975370  0.719130  0.034630  1.0  -0.1906
  C  C436  1  0.974570  0.750030  0.972830  1.0  -0.0371
  C  C437  1  0.931170  0.748630  0.955230  1.0  -0.1606
  C  C438  1  0.891670  0.720930  0.008130  1.0  0.1819
  C  C439  1  0.768730  0.205470  0.109470  1.0  0.1681
  C  C440  1  0.750730  0.234970  0.070870  1.0  -0.1184
  C  C441  1  0.782230  0.272170  0.016970  1.0  -0.1584
  C  C442  1  0.829430  0.276670  0.000870  1.0  -0.1058
  C  C443  1  0.845430  0.247770  0.041670  1.0  0.1294
  C  C444  1  0.689230  0.114670  0.253570  1.0  0.3362
  C  C445  1  0.741730  0.167470  0.171370  1.0  0.2331
  C  C446  1  0.600630  0.028170  0.419070  1.0  0.1778
  C  C447  1  0.642030  0.052470  0.367970  1.0  -0.1906
  C  C448  1  0.641230  0.083370  0.306170  1.0  -0.0371
  C  C449  1  0.597830  0.081970  0.288570  1.0  -0.161
  C  C450  1  0.558330  0.054270  0.341470  1.0  0.1819
  C  C451  1  0.461200  0.896600  0.442800  1.0  0.1691
  C  C452  1  0.431700  0.849100  0.404200  1.0  -0.1181
  C  C453  1  0.394500  0.843400  0.350300  1.0  -0.1563
  C  C454  1  0.390000  0.886100  0.334200  1.0  -0.1084
  C  C455  1  0.418900  0.931000  0.375000  1.0  0.1297
  C  C456  1  0.552000  0.907900  0.586900  1.0  0.3382
  C  C457  1  0.499200  0.907600  0.504700  1.0  0.234
  C  C458  1  0.638500  0.905800  0.752400  1.0  0.1783
  C  C459  1  0.614200  0.922900  0.701300  1.0  -0.1915
  C  C460  1  0.583300  0.891200  0.639500  1.0  -0.0413
  C  C461  1  0.584700  0.849200  0.621900  1.0  -0.1641
  C  C462  1  0.612400  0.837400  0.674800  1.0  0.1856
  C  C463  1  0.127870  0.229930  0.776130  1.0  0.169
  C  C464  1  0.098370  0.182430  0.737530  1.0  -0.118
  C  C465  1  0.061170  0.176730  0.683630  1.0  -0.1563
  C  C466  1  0.056670  0.219430  0.667530  1.0  -0.1084
  C  C467  1  0.085570  0.264330  0.708330  1.0  0.13
  C  C468  1  0.218670  0.241230  0.920230  1.0  0.3382
  C  C469  1  0.165870  0.240930  0.838030  1.0  0.234
  C  C470  1  0.305170  0.239130  0.085730  1.0  0.1782
  C  C471  1  0.280870  0.256230  0.034630  1.0  -0.1915
  C  C472  1  0.249970  0.224530  0.972830  1.0  -0.0413
  C  C473  1  0.251370  0.182530  0.955230  1.0  -0.1642
  C  C474  1  0.279070  0.170730  0.008130  1.0  0.1856
  C  C475  1  0.794530  0.563270  0.109470  1.0  0.1691
  C  C476  1  0.765030  0.515770  0.070870  1.0  -0.1181
  C  C477  1  0.727830  0.510070  0.016970  1.0  -0.1563
  C  C478  1  0.723330  0.552770  0.000870  1.0  -0.1084
  C  C479  1  0.752230  0.597670  0.041670  1.0  0.1297
  C  C480  1  0.885330  0.574570  0.253570  1.0  0.3383
  C  C481  1  0.832530  0.574270  0.171370  1.0  0.234
  C  C482  1  0.971830  0.572470  0.419070  1.0  0.1783
  C  C483  1  0.947530  0.589570  0.367970  1.0  -0.1916
  C  C484  1  0.916630  0.557870  0.306170  1.0  -0.0413
  C  C485  1  0.918030  0.515870  0.288570  1.0  -0.1638
  C  C486  1  0.945730  0.504070  0.341470  1.0  0.1856
  C  C487  1  0.103400  0.564600  0.442800  1.0  0.1694
  C  C488  1  0.150900  0.582600  0.404200  1.0  -0.119
  C  C489  1  0.156600  0.551100  0.350300  1.0  -0.1578
  C  C490  1  0.113900  0.503900  0.334200  1.0  -0.108
  C  C491  1  0.069000  0.487900  0.375000  1.0  0.1283
  C  C492  1  0.092100  0.644100  0.586900  1.0  0.3375
  C  C493  1  0.092400  0.591600  0.504700  1.0  0.2341
  C  C494  1  0.094200  0.732700  0.752400  1.0  0.1787
  C  C495  1  0.077100  0.691300  0.701300  1.0  -0.1853
  C  C496  1  0.108800  0.692100  0.639500  1.0  -0.0384
  C  C497  1  0.150800  0.735500  0.621900  1.0  -0.1626
  C  C498  1  0.162600  0.775000  0.674800  1.0  0.1863
  C  C499  1  0.770070  0.897930  0.776130  1.0  0.1695
  C  C500  1  0.817570  0.915930  0.737530  1.0  -0.1193
  C  C501  1  0.823270  0.884430  0.683630  1.0  -0.1579
  C  C502  1  0.780570  0.837230  0.667530  1.0  -0.108
  C  C503  1  0.735670  0.821230  0.708330  1.0  0.1284
  C  C504  1  0.758770  0.977430  0.920230  1.0  0.3375
  C  C505  1  0.759070  0.924930  0.838030  1.0  0.2341
  C  C506  1  0.760870  0.066030  0.085730  1.0  0.1788
  C  C507  1  0.743770  0.024630  0.034630  1.0  -0.1853
  C  C508  1  0.775470  0.025430  0.972830  1.0  -0.0384
  C  C509  1  0.817470  0.068830  0.955230  1.0  -0.1626
  C  C510  1  0.829270  0.108330  0.008130  1.0  0.1864
  C  C511  1  0.436730  0.231270  0.109470  1.0  0.1694
  C  C512  1  0.484230  0.249270  0.070870  1.0  -0.119
  C  C513  1  0.489930  0.217770  0.016970  1.0  -0.1578
  C  C514  1  0.447230  0.170570  0.000870  1.0  -0.108
  C  C515  1  0.402330  0.154570  0.041670  1.0  0.1283
  C  C516  1  0.425430  0.310770  0.253570  1.0  0.3375
  C  C517  1  0.425730  0.258270  0.171370  1.0  0.2341
  C  C518  1  0.427530  0.399370  0.419070  1.0  0.1787
  C  C519  1  0.410430  0.357970  0.367970  1.0  -0.1853
  C  C520  1  0.442130  0.358770  0.306170  1.0  -0.0384
  C  C521  1  0.484130  0.402170  0.288570  1.0  -0.1624
  C  C522  1  0.495930  0.441670  0.341470  1.0  0.1863
  C  C523  1  0.461200  0.564600  0.942800  1.0  0.1687
  C  C524  1  0.431700  0.582600  0.904200  1.0  -0.1197
  C  C525  1  0.394500  0.551100  0.850300  1.0  -0.1594
  C  C526  1  0.390000  0.503900  0.834200  1.0  -0.1075
  C  C527  1  0.418900  0.487900  0.875000  1.0  0.1291
  C  C528  1  0.552000  0.644100  0.086900  1.0  0.3368
  C  C529  1  0.499200  0.591600  0.004700  1.0  0.2342
  C  C530  1  0.638500  0.732700  0.252400  1.0  0.178
  C  C531  1  0.614200  0.691300  0.201300  1.0  -0.1856
  C  C532  1  0.583300  0.692100  0.139500  1.0  -0.0389
  C  C533  1  0.584700  0.735500  0.121900  1.0  -0.1623
  C  C534  1  0.612400  0.775000  0.174800  1.0  0.1857
  C  C535  1  0.127870  0.897930  0.276130  1.0  0.1688
  C  C536  1  0.098370  0.915930  0.237530  1.0  -0.12
  C  C537  1  0.061170  0.884430  0.183630  1.0  -0.1594
  C  C538  1  0.056670  0.837230  0.167530  1.0  -0.1075
  C  C539  1  0.085570  0.821230  0.208330  1.0  0.1291
  C  C540  1  0.218670  0.977430  0.420230  1.0  0.3368
  C  C541  1  0.165870  0.924930  0.338030  1.0  0.2342
  C  C542  1  0.305170  0.066030  0.585730  1.0  0.1781
  C  C543  1  0.280870  0.024630  0.534630  1.0  -0.1856
  C  C544  1  0.249970  0.025430  0.472830  1.0  -0.0389
  C  C545  1  0.251370  0.068830  0.455230  1.0  -0.1623
  C  C546  1  0.279070  0.108330  0.508130  1.0  0.1857
  C  C547  1  0.794530  0.231270  0.609470  1.0  0.1687
  C  C548  1  0.765030  0.249270  0.570870  1.0  -0.1197
  C  C549  1  0.727830  0.217770  0.516970  1.0  -0.1594
  C  C550  1  0.723330  0.170570  0.500870  1.0  -0.1075
  C  C551  1  0.752230  0.154570  0.541670  1.0  0.1294
  C  C552  1  0.885330  0.310770  0.753570  1.0  0.3369
  C  C553  1  0.832530  0.258270  0.671370  1.0  0.2341
  C  C554  1  0.971830  0.399370  0.919070  1.0  0.178
  C  C555  1  0.947530  0.357970  0.867970  1.0  -0.1857
  C  C556  1  0.916630  0.358770  0.806170  1.0  -0.039
  C  C557  1  0.918030  0.402170  0.788570  1.0  -0.1627
  C  C558  1  0.945730  0.441670  0.841470  1.0  0.1857
  C  C559  1  0.103400  0.538800  0.942800  1.0  0.1693
  C  C560  1  0.150900  0.568300  0.904200  1.0  -0.1177
  C  C561  1  0.156600  0.605500  0.850300  1.0  -0.1579
  C  C562  1  0.113900  0.610000  0.834200  1.0  -0.1067
  C  C563  1  0.069000  0.581100  0.875000  1.0  0.1275
  C  C564  1  0.092100  0.448000  0.086900  1.0  0.3344
  C  C565  1  0.092400  0.500800  0.004700  1.0  0.2322
  C  C566  1  0.094200  0.361500  0.252400  1.0  0.1785
  C  C567  1  0.077100  0.385800  0.201300  1.0  -0.1892
  C  C568  1  0.108800  0.416700  0.139500  1.0  -0.0383
  C  C569  1  0.150800  0.415300  0.121900  1.0  -0.1611
  C  C570  1  0.162600  0.387600  0.174800  1.0  0.1838
  C  C571  1  0.770070  0.872130  0.276130  1.0  0.1692
  C  C572  1  0.817570  0.901630  0.237530  1.0  -0.1175
  C  C573  1  0.823270  0.938830  0.183630  1.0  -0.1579
  C  C574  1  0.780570  0.943330  0.167530  1.0  -0.1067
  C  C575  1  0.735670  0.914430  0.208330  1.0  0.1278
  C  C576  1  0.758770  0.781330  0.420230  1.0  0.3344
  C  C577  1  0.759070  0.834130  0.338030  1.0  0.2322
  C  C578  1  0.760870  0.694830  0.585730  1.0  0.1784
  C  C579  1  0.743770  0.719130  0.534630  1.0  -0.1892
  C  C580  1  0.775470  0.750030  0.472830  1.0  -0.0383
  C  C581  1  0.817470  0.748630  0.455230  1.0  -0.1613
  C  C582  1  0.829270  0.720930  0.508130  1.0  0.1838
  C  C583  1  0.436730  0.205470  0.609470  1.0  0.1693
  C  C584  1  0.484230  0.234970  0.570870  1.0  -0.1177
  C  C585  1  0.489930  0.272170  0.516970  1.0  -0.1579
  C  C586  1  0.447230  0.276670  0.500870  1.0  -0.1067
  C  C587  1  0.402330  0.247770  0.541670  1.0  0.1275
  C  C588  1  0.425430  0.114670  0.753570  1.0  0.3344
  C  C589  1  0.425730  0.167470  0.671370  1.0  0.2322
  C  C590  1  0.427530  0.028170  0.919070  1.0  0.1785
  C  C591  1  0.410430  0.052470  0.867970  1.0  -0.1893
  C  C592  1  0.442130  0.083370  0.806170  1.0  -0.0383
  C  C593  1  0.484130  0.081970  0.788570  1.0  -0.1608
  C  C594  1  0.495930  0.054270  0.841470  1.0  0.1838
  C  C595  1  0.435400  0.896600  0.942800  1.0  0.1687
  C  C596  1  0.417400  0.849100  0.904200  1.0  -0.1171
  C  C597  1  0.448900  0.843400  0.850300  1.0  -0.1559
  C  C598  1  0.496100  0.886100  0.834200  1.0  -0.1062
  C  C599  1  0.512100  0.931000  0.875000  1.0  0.1298
  C  C600  1  0.355900  0.907900  0.086900  1.0  0.3376
  C  C601  1  0.408400  0.907600  0.004700  1.0  0.2347
  C  C602  1  0.267300  0.905800  0.252400  1.0  0.1767
  C  C603  1  0.308700  0.922900  0.201300  1.0  -0.1912
  C  C604  1  0.307900  0.891200  0.139500  1.0  -0.0397
  C  C605  1  0.264500  0.849200  0.121900  1.0  -0.1633
  C  C606  1  0.225000  0.837400  0.174800  1.0  0.1852
  C  C607  1  0.102070  0.229930  0.276130  1.0  0.1687
  C  C608  1  0.084070  0.182430  0.237530  1.0  -0.1173
  C  C609  1  0.115570  0.176730  0.183630  1.0  -0.156
  C  C610  1  0.162770  0.219430  0.167530  1.0  -0.1062
  C  C611  1  0.178770  0.264330  0.208330  1.0  0.1299
  C  C612  1  0.022570  0.241230  0.420230  1.0  0.3376
  C  C613  1  0.075070  0.240930  0.338030  1.0  0.2346
  C  C614  1  0.933970  0.239130  0.585730  1.0  0.1768
  C  C615  1  0.975370  0.256230  0.534630  1.0  -0.1913
  C  C616  1  0.974570  0.224530  0.472830  1.0  -0.0397
  C  C617  1  0.931170  0.182530  0.455230  1.0  -0.1633
  C  C618  1  0.891670  0.170730  0.508130  1.0  0.1852
  C  C619  1  0.768730  0.563270  0.609470  1.0  0.1687
  C  C620  1  0.750730  0.515770  0.570870  1.0  -0.1171
  C  C621  1  0.782230  0.510070  0.516970  1.0  -0.1559
  C  C622  1  0.829430  0.552770  0.500870  1.0  -0.1062
  C  C623  1  0.845430  0.597670  0.541670  1.0  0.1298
  C  C624  1  0.689230  0.574570  0.753570  1.0  0.3376
  C  C625  1  0.741730  0.574270  0.671370  1.0  0.2347
  C  C626  1  0.600630  0.572470  0.919070  1.0  0.1767
  C  C627  1  0.642030  0.589570  0.867970  1.0  -0.1912
  C  C628  1  0.641230  0.557870  0.806170  1.0  -0.0397
  C  C629  1  0.597830  0.515870  0.788570  1.0  -0.1631
  C  C630  1  0.558330  0.504070  0.841470  1.0  0.1852
  C  C631  1  0.538800  0.435400  0.057200  1.0  0.1692
  C  C632  1  0.568300  0.417400  0.095800  1.0  -0.1205
  C  C633  1  0.605500  0.448900  0.149700  1.0  -0.1576
  C  C634  1  0.610000  0.496100  0.165800  1.0  -0.1074
  C  C635  1  0.581100  0.512100  0.125000  1.0  0.1261
  C  C636  1  0.448000  0.355900  0.913100  1.0  0.3391
  C  C637  1  0.500800  0.408400  0.995300  1.0  0.2331
  C  C638  1  0.361500  0.267300  0.747600  1.0  0.1783
  C  C639  1  0.385800  0.308700  0.798700  1.0  -0.1856
  C  C640  1  0.416700  0.307900  0.860500  1.0  -0.0392
  C  C641  1  0.415300  0.264500  0.878100  1.0  -0.1617
  C  C642  1  0.387600  0.225000  0.825200  1.0  0.1862
  C  C643  1  0.205470  0.768730  0.390530  1.0  0.1692
  C  C644  1  0.234970  0.750730  0.429130  1.0  -0.1205
  C  C645  1  0.272170  0.782230  0.483030  1.0  -0.1576
  C  C646  1  0.276670  0.829430  0.499130  1.0  -0.1074
  C  C647  1  0.247770  0.845430  0.458330  1.0  0.1265
  C  C648  1  0.114670  0.689230  0.246430  1.0  0.3391
  C  C649  1  0.167470  0.741730  0.328630  1.0  0.2331
  C  C650  1  0.028170  0.600630  0.080930  1.0  0.1783
  C  C651  1  0.052470  0.642030  0.132030  1.0  -0.1857
  C  C652  1  0.083370  0.641230  0.193830  1.0  -0.0392
  C  C653  1  0.081970  0.597830  0.211430  1.0  -0.162
  C  C654  1  0.054270  0.558330  0.158530  1.0  0.1862
  C  C655  1  0.872130  0.102070  0.723870  1.0  0.1693
  C  C656  1  0.901630  0.084070  0.762470  1.0  -0.1206
  C  C657  1  0.938830  0.115570  0.816370  1.0  -0.1576
  C  C658  1  0.943330  0.162770  0.832470  1.0  -0.1074
  C  C659  1  0.914430  0.178770  0.791670  1.0  0.1261
  C  C660  1  0.781330  0.022570  0.579770  1.0  0.3391
  C  C661  1  0.834130  0.075070  0.661970  1.0  0.2331
  C  C662  1  0.694830  0.933970  0.414270  1.0  0.1784
  C  C663  1  0.719130  0.975370  0.465370  1.0  -0.1856
  C  C664  1  0.750030  0.974570  0.527170  1.0  -0.0392
  C  C665  1  0.748630  0.931170  0.544770  1.0  -0.1617
  C  C666  1  0.720930  0.891670  0.491870  1.0  0.1862
  C  C667  1  0.896600  0.461200  0.057200  1.0  0.1684
  C  C668  1  0.849100  0.431700  0.095800  1.0  -0.119
  C  C669  1  0.843400  0.394500  0.149700  1.0  -0.1585
  C  C670  1  0.886100  0.390000  0.165800  1.0  -0.1054
  C  C671  1  0.931000  0.418900  0.125000  1.0  0.1291
  C  C672  1  0.907900  0.552000  0.913100  1.0  0.3367
  C  C673  1  0.907600  0.499200  0.995300  1.0  0.2329
  C  C674  1  0.905800  0.638500  0.747600  1.0  0.1777
  C  C675  1  0.922900  0.614200  0.798700  1.0  -0.1901
  C  C676  1  0.891200  0.583300  0.860500  1.0  -0.0371
  C  C677  1  0.849200  0.584700  0.878100  1.0  -0.1614
  C  C678  1  0.837400  0.612400  0.825200  1.0  0.1816
  C  C679  1  0.563270  0.794530  0.390530  1.0  0.1684
  C  C680  1  0.515770  0.765030  0.429130  1.0  -0.119
  C  C681  1  0.510070  0.727830  0.483030  1.0  -0.1585
  C  C682  1  0.552770  0.723330  0.499130  1.0  -0.1054
  C  C683  1  0.597670  0.752230  0.458330  1.0  0.1291
  C  C684  1  0.574570  0.885330  0.246430  1.0  0.3368
  C  C685  1  0.574270  0.832530  0.328630  1.0  0.2328
  C  C686  1  0.572470  0.971830  0.080930  1.0  0.1777
  C  C687  1  0.589570  0.947530  0.132030  1.0  -0.1902
  C  C688  1  0.557870  0.916630  0.193830  1.0  -0.0371
  C  C689  1  0.515870  0.918030  0.211430  1.0  -0.1611
  C  C690  1  0.504070  0.945730  0.158530  1.0  0.1816
  C  C691  1  0.229930  0.127870  0.723870  1.0  0.1683
  C  C692  1  0.182430  0.098370  0.762470  1.0  -0.1188
  C  C693  1  0.176730  0.061170  0.816370  1.0  -0.1585
  C  C694  1  0.219430  0.056670  0.832470  1.0  -0.1054
  C  C695  1  0.264330  0.085570  0.791670  1.0  0.1294
  C  C696  1  0.241230  0.218670  0.579770  1.0  0.3367
  C  C697  1  0.240930  0.165870  0.661970  1.0  0.2329
  C  C698  1  0.239130  0.305170  0.414270  1.0  0.1776
  C  C699  1  0.256230  0.280870  0.465370  1.0  -0.1901
  C  C700  1  0.224530  0.249970  0.527170  1.0  -0.0371
  C  C701  1  0.182530  0.251370  0.544770  1.0  -0.1615
  C  C702  1  0.170730  0.279070  0.491870  1.0  0.1816
  C  C703  1  0.564600  0.103400  0.057200  1.0  0.1701
  C  C704  1  0.582600  0.150900  0.095800  1.0  -0.1156
  C  C705  1  0.551100  0.156600  0.149700  1.0  -0.1551
  C  C706  1  0.503900  0.113900  0.165800  1.0  -0.1078
  C  C707  1  0.487900  0.069000  0.125000  1.0  0.1296
  C  C708  1  0.644100  0.092100  0.913100  1.0  0.3381
  C  C709  1  0.591600  0.092400  0.995300  1.0  0.2341
  C  C710  1  0.732700  0.094200  0.747600  1.0  0.1788
  C  C711  1  0.691300  0.077100  0.798700  1.0  -0.1916
  C  C712  1  0.692100  0.108800  0.860500  1.0  -0.0407
  C  C713  1  0.735500  0.150800  0.878100  1.0  -0.1626
  C  C714  1  0.775000  0.162600  0.825200  1.0  0.1854
  C  C715  1  0.231270  0.436730  0.390530  1.0  0.1701
  C  C716  1  0.249270  0.484230  0.429130  1.0  -0.1156
  C  C717  1  0.217770  0.489930  0.483030  1.0  -0.1551
  C  C718  1  0.170570  0.447230  0.499130  1.0  -0.1078
  C  C719  1  0.154570  0.402330  0.458330  1.0  0.1295
  C  C720  1  0.310770  0.425430  0.246430  1.0  0.3381
  C  C721  1  0.258270  0.425730  0.328630  1.0  0.2341
  C  C722  1  0.399370  0.427530  0.080930  1.0  0.1788
  C  C723  1  0.357970  0.410430  0.132030  1.0  -0.1916
  C  C724  1  0.358770  0.442130  0.193830  1.0  -0.0407
  C  C725  1  0.402170  0.484130  0.211430  1.0  -0.1625
  C  C726  1  0.441670  0.495930  0.158530  1.0  0.1854
  C  C727  1  0.897930  0.770070  0.723870  1.0  0.1702
  C  C728  1  0.915930  0.817570  0.762470  1.0  -0.1157
  C  C729  1  0.884430  0.823270  0.816370  1.0  -0.1552
  C  C730  1  0.837230  0.780570  0.832470  1.0  -0.1078
  C  C731  1  0.821230  0.735670  0.791670  1.0  0.1296
  C  C732  1  0.977430  0.758770  0.579770  1.0  0.3381
  C  C733  1  0.924930  0.759070  0.661970  1.0  0.2341
  C  C734  1  0.066030  0.760870  0.414270  1.0  0.1789
  C  C735  1  0.024630  0.743770  0.465370  1.0  -0.1916
  C  C736  1  0.025430  0.775470  0.527170  1.0  -0.0407
  C  C737  1  0.068830  0.817470  0.544770  1.0  -0.1626
  C  C738  1  0.108330  0.829270  0.491870  1.0  0.1854
  N  N739  1  0.518500  0.454100  0.571500  1.0  -0.2915
  N  N740  1  0.569900  0.524500  0.456900  1.0  -0.171
  N  N741  1  0.604900  0.558230  0.405000  1.0  -0.3379
  N  N742  1  0.640400  0.516600  0.470300  1.0  -0.4741
  N  N743  1  0.775140  0.638100  0.259300  1.0  -0.2964
  N  N744  1  0.185170  0.787430  0.904830  1.0  -0.2927
  N  N745  1  0.236570  0.857830  0.790230  1.0  -0.1711
  N  N746  1  0.271570  0.891560  0.738330  1.0  -0.3377
  N  N747  1  0.307070  0.849930  0.803630  1.0  -0.4741
  N  N748  1  0.441810  0.971430  0.592630  1.0  -0.2965
  N  N749  1  0.851830  0.120770  0.238170  1.0  -0.2928
  N  N750  1  0.903230  0.191170  0.123570  1.0  -0.171
  N  N751  1  0.938230  0.224900  0.071670  1.0  -0.3379
  N  N752  1  0.973730  0.183270  0.136970  1.0  -0.4743
  N  N753  1  0.108470  0.304770  0.925970  1.0  -0.2964
  N  N754  1  0.545900  0.064400  0.571500  1.0  -0.2914
  N  N755  1  0.475500  0.045400  0.456900  1.0  -0.1723
  N  N756  1  0.441770  0.046670  0.405000  1.0  -0.3372
  N  N757  1  0.483400  0.123800  0.470300  1.0  -0.4724
  N  N758  1  0.361900  0.137040  0.259300  1.0  -0.2973
  N  N759  1  0.212570  0.397730  0.904830  1.0  -0.2914
  N  N760  1  0.142170  0.378730  0.790230  1.0  -0.1723
  N  N761  1  0.108440  0.380000  0.738330  1.0  -0.3372
  N  N762  1  0.150070  0.457130  0.803630  1.0  -0.4724
  N  N763  1  0.028570  0.470370  0.592630  1.0  -0.2973
  N  N764  1  0.879230  0.731070  0.238170  1.0  -0.2906
  N  N765  1  0.808830  0.712070  0.123570  1.0  -0.1723
  N  N766  1  0.775100  0.713340  0.071670  1.0  -0.337
  N  N767  1  0.816730  0.790470  0.136970  1.0  -0.4719
  N  N768  1  0.695230  0.803710  0.925970  1.0  -0.2974
  N  N769  1  0.935600  0.481500  0.571500  1.0  -0.2934
  N  N770  1  0.954600  0.430100  0.456900  1.0  -0.1716
  N  N771  1  0.953330  0.395100  0.405000  1.0  -0.3357
  N  N772  1  0.876200  0.359600  0.470300  1.0  -0.4726
  N  N773  1  0.862960  0.224860  0.259300  1.0  -0.298
  N  N774  1  0.602270  0.814830  0.904830  1.0  -0.2926
  N  N775  1  0.621270  0.763430  0.790230  1.0  -0.1716
  N  N776  1  0.620000  0.728430  0.738330  1.0  -0.3359
  N  N777  1  0.542870  0.692930  0.803630  1.0  -0.4726
  N  N778  1  0.529630  0.558190  0.592630  1.0  -0.2979
  N  N779  1  0.268930  0.148170  0.238170  1.0  -0.2934
  N  N780  1  0.287930  0.096770  0.123570  1.0  -0.1717
  N  N781  1  0.286660  0.061770  0.071670  1.0  -0.3358
  N  N782  1  0.209530  0.026270  0.136970  1.0  -0.473
  N  N783  1  0.196290  0.891530  0.925970  1.0  -0.2979
  N  N784  1  0.481500  0.545900  0.428500  1.0  -0.2906
  N  N785  1  0.430100  0.475500  0.543100  1.0  -0.172
  N  N786  1  0.395100  0.441770  0.595000  1.0  -0.3361
  N  N787  1  0.359600  0.483400  0.529700  1.0  -0.4727
  N  N788  1  0.224860  0.361900  0.740700  1.0  -0.2973
  N  N789  1  0.148170  0.879230  0.761830  1.0  -0.2918
  N  N790  1  0.096770  0.808830  0.876430  1.0  -0.172
  N  N791  1  0.061770  0.775100  0.928330  1.0  -0.3361
  N  N792  1  0.026270  0.816730  0.863030  1.0  -0.4731
  N  N793  1  0.891530  0.695230  0.074030  1.0  -0.2973
  N  N794  1  0.814830  0.212570  0.095170  1.0  -0.2918
  N  N795  1  0.763430  0.142170  0.209770  1.0  -0.1719
  N  N796  1  0.728430  0.108440  0.261670  1.0  -0.3359
  N  N797  1  0.692930  0.150070  0.196370  1.0  -0.4727
  N  N798  1  0.558190  0.028570  0.407370  1.0  -0.2974
  N  N799  1  0.454100  0.935600  0.428500  1.0  -0.2919
  N  N800  1  0.524500  0.954600  0.543100  1.0  -0.1731
  N  N801  1  0.558230  0.953330  0.595000  1.0  -0.3356
  N  N802  1  0.516600  0.876200  0.529700  1.0  -0.4722
  N  N803  1  0.638100  0.862960  0.740700  1.0  -0.2957
  N  N804  1  0.120770  0.268930  0.761830  1.0  -0.2911
  N  N805  1  0.191170  0.287930  0.876430  1.0  -0.1731
  N  N806  1  0.224900  0.286660  0.928330  1.0  -0.3354
  N  N807  1  0.183270  0.209530  0.863030  1.0  -0.4718
  N  N808  1  0.304770  0.196290  0.074030  1.0  -0.2958
  N  N809  1  0.787430  0.602270  0.095170  1.0  -0.2919
  N  N810  1  0.857830  0.621270  0.209770  1.0  -0.1732
  N  N811  1  0.891560  0.620000  0.261670  1.0  -0.3357
  N  N812  1  0.849930  0.542870  0.196370  1.0  -0.4721
  N  N813  1  0.971430  0.529630  0.407370  1.0  -0.2957
  N  N814  1  0.064400  0.518500  0.428500  1.0  -0.2939
  N  N815  1  0.045400  0.569900  0.543100  1.0  -0.1725
  N  N816  1  0.046670  0.604900  0.595000  1.0  -0.3362
  N  N817  1  0.123800  0.640400  0.529700  1.0  -0.4743
  N  N818  1  0.137040  0.775140  0.740700  1.0  -0.2983
  N  N819  1  0.731070  0.851830  0.761830  1.0  -0.2939
  N  N820  1  0.712070  0.903230  0.876430  1.0  -0.1726
  N  N821  1  0.713340  0.938230  0.928330  1.0  -0.3364
  N  N822  1  0.790470  0.973730  0.863030  1.0  -0.4746
  N  N823  1  0.803710  0.108470  0.074030  1.0  -0.2982
  N  N824  1  0.397730  0.185170  0.095170  1.0  -0.2931
  N  N825  1  0.378730  0.236570  0.209770  1.0  -0.1726
  N  N826  1  0.380000  0.271570  0.261670  1.0  -0.3364
  N  N827  1  0.457130  0.307070  0.196370  1.0  -0.4743
  N  N828  1  0.470370  0.441810  0.407370  1.0  -0.2982
  N  N829  1  0.454100  0.518500  0.928500  1.0  -0.2915
  N  N830  1  0.524500  0.569900  0.043100  1.0  -0.1719
  N  N831  1  0.558230  0.604900  0.095000  1.0  -0.3347
  N  N832  1  0.516600  0.640400  0.029700  1.0  -0.473
  N  N833  1  0.638100  0.775140  0.240700  1.0  -0.2983
  N  N834  1  0.120770  0.851830  0.261830  1.0  -0.2927
  N  N835  1  0.191170  0.903230  0.376430  1.0  -0.1719
  N  N836  1  0.224900  0.938230  0.428330  1.0  -0.3347
  N  N837  1  0.183270  0.973730  0.363030  1.0  -0.4735
  N  N838  1  0.304770  0.108470  0.574030  1.0  -0.2983
  N  N839  1  0.787430  0.185170  0.595170  1.0  -0.2927
  N  N840  1  0.857830  0.236570  0.709770  1.0  -0.1718
  N  N841  1  0.891560  0.271570  0.761670  1.0  -0.3345
  N  N842  1  0.849930  0.307070  0.696370  1.0  -0.473
  N  N843  1  0.971430  0.441810  0.907370  1.0  -0.2984
  N  N844  1  0.064400  0.545900  0.928500  1.0  -0.2931
  N  N845  1  0.045400  0.475500  0.043100  1.0  -0.1707
  N  N846  1  0.046670  0.441770  0.095000  1.0  -0.3371
  N  N847  1  0.123800  0.483400  0.029700  1.0  -0.4745
  N  N848  1  0.137040  0.361900  0.240700  1.0  -0.2959
  N  N849  1  0.731070  0.879230  0.261830  1.0  -0.2923
  N  N850  1  0.712070  0.808830  0.376430  1.0  -0.1707
  N  N851  1  0.713340  0.775100  0.428330  1.0  -0.3369
  N  N852  1  0.790470  0.816730  0.363030  1.0  -0.4742
  N  N853  1  0.803710  0.695230  0.574030  1.0  -0.296
  N  N854  1  0.397730  0.212570  0.595170  1.0  -0.2931
  N  N855  1  0.378730  0.142170  0.709770  1.0  -0.1707
  N  N856  1  0.380000  0.108440  0.761670  1.0  -0.3371
  N  N857  1  0.457130  0.150070  0.696370  1.0  -0.4745
  N  N858  1  0.470370  0.028570  0.907370  1.0  -0.2959
  N  N859  1  0.481500  0.935600  0.928500  1.0  -0.2914
  N  N860  1  0.430100  0.954600  0.043100  1.0  -0.172
  N  N861  1  0.395100  0.953330  0.095000  1.0  -0.3361
  N  N862  1  0.359600  0.876200  0.029700  1.0  -0.4725
  N  N863  1  0.224860  0.862960  0.240700  1.0  -0.2977
  N  N864  1  0.148170  0.268930  0.261830  1.0  -0.2914
  N  N865  1  0.096770  0.287930  0.376430  1.0  -0.172
  N  N866  1  0.061770  0.286660  0.428330  1.0  -0.3363
  N  N867  1  0.026270  0.209530  0.363030  1.0  -0.4729
  N  N868  1  0.891530  0.196290  0.574030  1.0  -0.2977
  N  N869  1  0.814830  0.602270  0.595170  1.0  -0.2906
  N  N870  1  0.763430  0.621270  0.709770  1.0  -0.172
  N  N871  1  0.728430  0.620000  0.761670  1.0  -0.3363
  N  N872  1  0.692930  0.542870  0.696370  1.0  -0.4725
  N  N873  1  0.558190  0.529630  0.907370  1.0  -0.2977
  N  N874  1  0.545900  0.481500  0.071500  1.0  -0.2926
  N  N875  1  0.475500  0.430100  0.956900  1.0  -0.1728
  N  N876  1  0.441770  0.395100  0.905000  1.0  -0.3366
  N  N877  1  0.483400  0.359600  0.970300  1.0  -0.4731
  N  N878  1  0.361900  0.224860  0.759300  1.0  -0.2979
  N  N879  1  0.212570  0.814830  0.404830  1.0  -0.2938
  N  N880  1  0.142170  0.763430  0.290230  1.0  -0.1727
  N  N881  1  0.108440  0.728430  0.238330  1.0  -0.3364
  N  N882  1  0.150070  0.692930  0.303630  1.0  -0.4731
  N  N883  1  0.028570  0.558190  0.092630  1.0  -0.2979
  N  N884  1  0.879230  0.148170  0.738170  1.0  -0.2939
  N  N885  1  0.808830  0.096770  0.623570  1.0  -0.1727
  N  N886  1  0.775100  0.061770  0.571670  1.0  -0.3366
  N  N887  1  0.816730  0.026270  0.636970  1.0  -0.4732
  N  N888  1  0.695230  0.891530  0.425970  1.0  -0.2979
  N  N889  1  0.935600  0.454100  0.071500  1.0  -0.2924
  N  N890  1  0.954600  0.524500  0.956900  1.0  -0.1719
  N  N891  1  0.953330  0.558230  0.905000  1.0  -0.3369
  N  N892  1  0.876200  0.516600  0.970300  1.0  -0.4727
  N  N893  1  0.862960  0.638100  0.759300  1.0  -0.2973
  N  N894  1  0.602270  0.787430  0.404830  1.0  -0.2924
  N  N895  1  0.621270  0.857830  0.290230  1.0  -0.1719
  N  N896  1  0.620000  0.891560  0.238330  1.0  -0.3369
  N  N897  1  0.542870  0.849930  0.303630  1.0  -0.4727
  N  N898  1  0.529630  0.971430  0.092630  1.0  -0.2973
  N  N899  1  0.268930  0.120770  0.738170  1.0  -0.2916
  N  N900  1  0.287930  0.191170  0.623570  1.0  -0.172
  N  N901  1  0.286660  0.224900  0.571670  1.0  -0.3368
  N  N902  1  0.209530  0.183270  0.636970  1.0  -0.4721
  N  N903  1  0.196290  0.304770  0.425970  1.0  -0.2974
  N  N904  1  0.518500  0.064400  0.071500  1.0  -0.2917
  N  N905  1  0.569900  0.045400  0.956900  1.0  -0.1735
  N  N906  1  0.604900  0.046670  0.905000  1.0  -0.3368
  N  N907  1  0.640400  0.123800  0.970300  1.0  -0.4718
  N  N908  1  0.775140  0.137040  0.759300  1.0  -0.2954
  N  N909  1  0.185170  0.397730  0.404830  1.0  -0.2909
  N  N910  1  0.236570  0.378730  0.290230  1.0  -0.1734
  N  N911  1  0.271570  0.380000  0.238330  1.0  -0.337
  N  N912  1  0.307070  0.457130  0.303630  1.0  -0.4718
  N  N913  1  0.441810  0.470370  0.092630  1.0  -0.2954
  N  N914  1  0.851830  0.731070  0.738170  1.0  -0.2916
  N  N915  1  0.903230  0.712070  0.623570  1.0  -0.1734
  N  N916  1  0.938230  0.713340  0.571670  1.0  -0.337
  N  N917  1  0.973730  0.790470  0.636970  1.0  -0.4722
  N  N918  1  0.108470  0.803710  0.425970  1.0  -0.2954
