# generated using pymatgen
data_CaAg2H6C12S2(NO2)2
_symmetry_space_group_name_H-M   'P 1'
_cell_length_a   21.88150000
_cell_length_b   21.88150000
_cell_length_c   75.31000000
_cell_angle_alpha   90.00000000
_cell_angle_beta   90.00000000
_cell_angle_gamma   120.00000000
_symmetry_Int_Tables_number   1
_chemical_formula_structural   CaAg2H6C12S2(NO2)2
_chemical_formula_sum   'Ca36 Ag72 H216 C432 S72 N72 O144'
_cell_volume   31227.51742409
_cell_formula_units_Z   36
loop_
 _symmetry_equiv_pos_site_id
 _symmetry_equiv_pos_as_xyz
  1  'x, y, z'
loop_
 _atom_site_type_symbol
 _atom_site_label
 _atom_site_symmetry_multiplicity
 _atom_site_fract_x
 _atom_site_fract_y
 _atom_site_fract_z
 _atom_site_occupancy
 _atom_site_charge
  Ca  Ca1  1  0.630540  0.867500  0.906210  1.0  1.5283
  Ca  Ca2  1  0.297210  0.200830  0.239540  1.0  1.5283
  Ca  Ca3  1  0.963870  0.534170  0.572880  1.0  1.5283
  Ca  Ca4  1  0.132500  0.763040  0.906210  1.0  1.531
  Ca  Ca5  1  0.799170  0.096370  0.239540  1.0  1.531
  Ca  Ca6  1  0.465830  0.429710  0.572880  1.0  1.531
  Ca  Ca7  1  0.236960  0.369460  0.906210  1.0  1.5281
  Ca  Ca8  1  0.903630  0.702790  0.239540  1.0  1.5282
  Ca  Ca9  1  0.570290  0.036130  0.572880  1.0  1.5281
  Ca  Ca10  1  0.867500  0.630540  0.593790  1.0  1.526
  Ca  Ca11  1  0.534170  0.963870  0.927120  1.0  1.526
  Ca  Ca12  1  0.200830  0.297210  0.260460  1.0  1.526
  Ca  Ca13  1  0.763040  0.132500  0.593790  1.0  1.5267
  Ca  Ca14  1  0.429710  0.465830  0.927120  1.0  1.5267
  Ca  Ca15  1  0.096370  0.799170  0.260460  1.0  1.5267
  Ca  Ca16  1  0.369460  0.236960  0.593790  1.0  1.5297
  Ca  Ca17  1  0.036130  0.570290  0.927120  1.0  1.5297
  Ca  Ca18  1  0.702790  0.903630  0.260460  1.0  1.5297
  Ca  Ca19  1  0.369460  0.132500  0.093790  1.0  1.5265
  Ca  Ca20  1  0.036130  0.465830  0.427120  1.0  1.5265
  Ca  Ca21  1  0.702790  0.799170  0.760460  1.0  1.5265
  Ca  Ca22  1  0.867500  0.236960  0.093790  1.0  1.5299
  Ca  Ca23  1  0.534170  0.570290  0.427120  1.0  1.5299
  Ca  Ca24  1  0.200830  0.903630  0.760460  1.0  1.53
  Ca  Ca25  1  0.763040  0.630540  0.093790  1.0  1.5264
  Ca  Ca26  1  0.429710  0.963870  0.427120  1.0  1.5264
  Ca  Ca27  1  0.096370  0.297210  0.760460  1.0  1.5265
  Ca  Ca28  1  0.132500  0.369460  0.406210  1.0  1.529
  Ca  Ca29  1  0.799170  0.702790  0.739540  1.0  1.529
  Ca  Ca30  1  0.465830  0.036130  0.072880  1.0  1.529
  Ca  Ca31  1  0.236960  0.867500  0.406210  1.0  1.5279
  Ca  Ca32  1  0.903630  0.200830  0.739540  1.0  1.528
  Ca  Ca33  1  0.570290  0.534170  0.072880  1.0  1.5279
  Ca  Ca34  1  0.630540  0.763040  0.406210  1.0  1.531
  Ca  Ca35  1  0.297210  0.096370  0.739540  1.0  1.5311
  Ca  Ca36  1  0.963870  0.429710  0.072880  1.0  1.531
  Ag  Ag37  1  0.432430  0.740440  0.005470  1.0  0.2203
  Ag  Ag38  1  0.431750  0.692760  0.857490  1.0  0.1836
  Ag  Ag39  1  0.099100  0.073770  0.338800  1.0  0.22
  Ag  Ag40  1  0.098420  0.026090  0.190830  1.0  0.222
  Ag  Ag41  1  0.765760  0.407110  0.672130  1.0  0.2203
  Ag  Ag42  1  0.765080  0.359430  0.524160  1.0  0.185
  Ag  Ag43  1  0.259560  0.691990  0.005470  1.0  0.2196
  Ag  Ag44  1  0.307240  0.738990  0.857490  1.0  0.2239
  Ag  Ag45  1  0.926230  0.025320  0.338800  1.0  0.1748
  Ag  Ag46  1  0.973910  0.072320  0.190830  1.0  0.1839
  Ag  Ag47  1  0.592890  0.358660  0.672130  1.0  0.2196
  Ag  Ag48  1  0.640570  0.405660  0.524160  1.0  0.2255
  Ag  Ag49  1  0.308010  0.567570  0.005470  1.0  0.1755
  Ag  Ag50  1  0.261010  0.568250  0.857490  1.0  0.2237
  Ag  Ag51  1  0.974680  0.900900  0.338800  1.0  0.2184
  Ag  Ag52  1  0.927680  0.901580  0.190830  1.0  0.2255
  Ag  Ag53  1  0.641340  0.234240  0.672130  1.0  0.1756
  Ag  Ag54  1  0.594340  0.234920  0.524160  1.0  0.2253
  Ag  Ag55  1  0.740440  0.432430  0.494530  1.0  0.2157
  Ag  Ag56  1  0.692760  0.431750  0.642510  1.0  0.1837
  Ag  Ag57  1  0.407110  0.765760  0.827870  1.0  0.2156
  Ag  Ag58  1  0.359430  0.765080  0.975840  1.0  0.1851
  Ag  Ag59  1  0.073770  0.099100  0.161200  1.0  0.2157
  Ag  Ag60  1  0.026090  0.098420  0.309170  1.0  0.2215
  Ag  Ag61  1  0.691990  0.259560  0.494530  1.0  0.2152
  Ag  Ag62  1  0.738990  0.307240  0.642510  1.0  0.2197
  Ag  Ag63  1  0.358660  0.592890  0.827870  1.0  0.2152
  Ag  Ag64  1  0.405660  0.640570  0.975840  1.0  0.2213
  Ag  Ag65  1  0.025320  0.926230  0.161200  1.0  0.1735
  Ag  Ag66  1  0.072320  0.973910  0.309170  1.0  0.184
  Ag  Ag67  1  0.567570  0.308010  0.494530  1.0  0.1746
  Ag  Ag68  1  0.568250  0.261010  0.642510  1.0  0.2197
  Ag  Ag69  1  0.234240  0.641340  0.827870  1.0  0.1746
  Ag  Ag70  1  0.234920  0.594340  0.975840  1.0  0.2212
  Ag  Ag71  1  0.900900  0.974680  0.161200  1.0  0.2167
  Ag  Ag72  1  0.901580  0.927680  0.309170  1.0  0.2215
  Ag  Ag73  1  0.567570  0.259560  0.994530  1.0  0.2154
  Ag  Ag74  1  0.568250  0.307240  0.142510  1.0  0.183
  Ag  Ag75  1  0.234240  0.592890  0.327870  1.0  0.2154
  Ag  Ag76  1  0.234920  0.640570  0.475840  1.0  0.1845
  Ag  Ag77  1  0.900900  0.926230  0.661200  1.0  0.2154
  Ag  Ag78  1  0.901580  0.973910  0.809170  1.0  0.2213
  Ag  Ag79  1  0.740440  0.308010  0.994530  1.0  0.2162
  Ag  Ag80  1  0.692760  0.261010  0.142510  1.0  0.2192
  Ag  Ag81  1  0.407110  0.641340  0.327870  1.0  0.2162
  Ag  Ag82  1  0.359430  0.594340  0.475840  1.0  0.2208
  Ag  Ag83  1  0.073770  0.974680  0.661200  1.0  0.175
  Ag  Ag84  1  0.026090  0.927680  0.809170  1.0  0.1845
  Ag  Ag85  1  0.691990  0.432430  0.994530  1.0  0.1739
  Ag  Ag86  1  0.738990  0.431750  0.142510  1.0  0.2223
  Ag  Ag87  1  0.358660  0.765760  0.327870  1.0  0.174
  Ag  Ag88  1  0.405660  0.765080  0.475840  1.0  0.2238
  Ag  Ag89  1  0.025320  0.099100  0.661200  1.0  0.216
  Ag  Ag90  1  0.072320  0.098420  0.809170  1.0  0.2241
  Ag  Ag91  1  0.259560  0.567570  0.505470  1.0  0.2189
  Ag  Ag92  1  0.307240  0.568250  0.357490  1.0  0.1851
  Ag  Ag93  1  0.926230  0.900900  0.838800  1.0  0.2189
  Ag  Ag94  1  0.973910  0.901580  0.690830  1.0  0.2249
  Ag  Ag95  1  0.592890  0.234240  0.172130  1.0  0.2189
  Ag  Ag96  1  0.640570  0.234920  0.024160  1.0  0.1866
  Ag  Ag97  1  0.308010  0.740440  0.505470  1.0  0.2208
  Ag  Ag98  1  0.261010  0.692760  0.357490  1.0  0.2236
  Ag  Ag99  1  0.974680  0.073770  0.838800  1.0  0.1768
  Ag  Ag100  1  0.927680  0.026090  0.690830  1.0  0.1839
  Ag  Ag101  1  0.641340  0.407110  0.172130  1.0  0.221
  Ag  Ag102  1  0.594340  0.359430  0.024160  1.0  0.2252
  Ag  Ag103  1  0.432430  0.691990  0.505470  1.0  0.176
  Ag  Ag104  1  0.431750  0.738990  0.357490  1.0  0.2227
  Ag  Ag105  1  0.099100  0.025320  0.838800  1.0  0.2182
  Ag  Ag106  1  0.098420  0.072320  0.690830  1.0  0.2245
  Ag  Ag107  1  0.765760  0.358660  0.172130  1.0  0.1761
  Ag  Ag108  1  0.765080  0.405660  0.024160  1.0  0.2242
  H  H109  1  0.700900  0.935900  0.967400  1.0  0.1165
  H  H110  1  0.696100  0.931900  0.998200  1.0  0.1085
  H  H111  1  0.591200  0.858900  0.012200  1.0  0.0795
  H  H112  1  0.593000  0.738100  0.864300  1.0  0.0734
  H  H113  1  0.696500  0.763500  0.850700  1.0  0.1106
  H  H114  1  0.701500  0.768500  0.820300  1.0  0.0756
  H  H115  1  0.367570  0.269230  0.300730  1.0  0.1168
  H  H116  1  0.362770  0.265230  0.331530  1.0  0.1076
  H  H117  1  0.257870  0.192230  0.345530  1.0  0.0795
  H  H118  1  0.259670  0.071430  0.197630  1.0  0.0735
  H  H119  1  0.363170  0.096830  0.184030  1.0  0.1106
  H  H120  1  0.368170  0.101830  0.153630  1.0  0.0756
  H  H121  1  0.034230  0.602570  0.634070  1.0  0.1168
  H  H122  1  0.029430  0.598570  0.664870  1.0  0.1091
  H  H123  1  0.924530  0.525570  0.678870  1.0  0.0794
  H  H124  1  0.926330  0.404770  0.530970  1.0  0.0733
  H  H125  1  0.029830  0.430170  0.517370  1.0  0.1106
  H  H126  1  0.034830  0.435170  0.486970  1.0  0.0756
  H  H127  1  0.064100  0.765000  0.967400  1.0  0.1161
  H  H128  1  0.068100  0.764200  0.998200  1.0  0.1085
  H  H129  1  0.141100  0.732300  0.012200  1.0  0.081
  H  H130  1  0.261900  0.854900  0.864300  1.0  0.0734
  H  H131  1  0.236500  0.933000  0.850700  1.0  0.1112
  H  H132  1  0.231500  0.933000  0.820300  1.0  0.0763
  H  H133  1  0.730770  0.098330  0.300730  1.0  0.1162
  H  H134  1  0.734770  0.097530  0.331530  1.0  0.1076
  H  H135  1  0.807770  0.065630  0.345530  1.0  0.0809
  H  H136  1  0.928570  0.188230  0.197630  1.0  0.0734
  H  H137  1  0.903170  0.266330  0.184030  1.0  0.1113
  H  H138  1  0.898170  0.266330  0.153630  1.0  0.0763
  H  H139  1  0.397430  0.431670  0.634070  1.0  0.1162
  H  H140  1  0.401430  0.430870  0.664870  1.0  0.1076
  H  H141  1  0.474430  0.398970  0.678870  1.0  0.0809
  H  H142  1  0.595230  0.521570  0.530970  1.0  0.0733
  H  H143  1  0.569830  0.599670  0.517370  1.0  0.1112
  H  H144  1  0.564830  0.599670  0.486970  1.0  0.0762
  H  H145  1  0.235000  0.299100  0.967400  1.0  0.1164
  H  H146  1  0.235800  0.303900  0.998200  1.0  0.1082
  H  H147  1  0.267700  0.408800  0.012200  1.0  0.0807
  H  H148  1  0.145100  0.407000  0.864300  1.0  0.074
  H  H149  1  0.067000  0.303500  0.850700  1.0  0.1111
  H  H150  1  0.067000  0.298500  0.820300  1.0  0.0764
  H  H151  1  0.901670  0.632430  0.300730  1.0  0.1164
  H  H152  1  0.902470  0.637230  0.331530  1.0  0.1083
  H  H153  1  0.934370  0.742130  0.345530  1.0  0.0806
  H  H154  1  0.811770  0.740330  0.197630  1.0  0.074
  H  H155  1  0.733670  0.636830  0.184030  1.0  0.1111
  H  H156  1  0.733670  0.631830  0.153630  1.0  0.0764
  H  H157  1  0.568330  0.965770  0.634070  1.0  0.1164
  H  H158  1  0.569130  0.970570  0.664870  1.0  0.1083
  H  H159  1  0.601030  0.075470  0.678870  1.0  0.0807
  H  H160  1  0.478430  0.073670  0.530970  1.0  0.0739
  H  H161  1  0.400330  0.970170  0.517370  1.0  0.1111
  H  H162  1  0.400330  0.965170  0.486970  1.0  0.0763
  H  H163  1  0.935900  0.700900  0.532600  1.0  0.1163
  H  H164  1  0.931900  0.696100  0.501800  1.0  0.1083
  H  H165  1  0.858900  0.591200  0.487800  1.0  0.0801
  H  H166  1  0.738100  0.593000  0.635700  1.0  0.074
  H  H167  1  0.763500  0.696500  0.649300  1.0  0.1099
  H  H168  1  0.768500  0.701500  0.679700  1.0  0.0766
  H  H169  1  0.602570  0.034230  0.865930  1.0  0.1163
  H  H170  1  0.598570  0.029430  0.835130  1.0  0.1099
  H  H171  1  0.525570  0.924530  0.821130  1.0  0.08
  H  H172  1  0.404770  0.926330  0.969030  1.0  0.0739
  H  H173  1  0.430170  0.029830  0.982630  1.0  0.11
  H  H174  1  0.435170  0.034830  0.013030  1.0  0.0766
  H  H175  1  0.269230  0.367570  0.199270  1.0  0.1163
  H  H176  1  0.265230  0.362770  0.168470  1.0  0.1078
  H  H177  1  0.192230  0.257870  0.154470  1.0  0.0801
  H  H178  1  0.071430  0.259670  0.302370  1.0  0.074
  H  H179  1  0.096830  0.363170  0.315970  1.0  0.1099
  H  H180  1  0.101830  0.368170  0.346370  1.0  0.0766
  H  H181  1  0.765000  0.064100  0.532600  1.0  0.1165
  H  H182  1  0.764200  0.068100  0.501800  1.0  0.1083
  H  H183  1  0.732300  0.141100  0.487800  1.0  0.0797
  H  H184  1  0.854900  0.261900  0.635700  1.0  0.0733
  H  H185  1  0.933000  0.236500  0.649300  1.0  0.1098
  H  H186  1  0.933000  0.231500  0.679700  1.0  0.0757
  H  H187  1  0.431670  0.397430  0.865930  1.0  0.1165
  H  H188  1  0.430870  0.401430  0.835130  1.0  0.1079
  H  H189  1  0.398970  0.474430  0.821130  1.0  0.0797
  H  H190  1  0.521570  0.595230  0.969030  1.0  0.0732
  H  H191  1  0.599670  0.569830  0.982630  1.0  0.1099
  H  H192  1  0.599670  0.564830  0.013030  1.0  0.0757
  H  H193  1  0.098330  0.730770  0.199270  1.0  0.1165
  H  H194  1  0.097530  0.734770  0.168470  1.0  0.1079
  H  H195  1  0.065630  0.807770  0.154470  1.0  0.0795
  H  H196  1  0.188230  0.928570  0.302370  1.0  0.0734
  H  H197  1  0.266330  0.903170  0.315970  1.0  0.1099
  H  H198  1  0.266330  0.898170  0.346370  1.0  0.0757
  H  H199  1  0.299100  0.235000  0.532600  1.0  0.1166
  H  H200  1  0.303900  0.235800  0.501800  1.0  0.1075
  H  H201  1  0.408800  0.267700  0.487800  1.0  0.0804
  H  H202  1  0.407000  0.145100  0.635700  1.0  0.0739
  H  H203  1  0.303500  0.067000  0.649300  1.0  0.1105
  H  H204  1  0.298500  0.067000  0.679700  1.0  0.076
  H  H205  1  0.965770  0.568330  0.865930  1.0  0.1166
  H  H206  1  0.970570  0.569130  0.835130  1.0  0.1075
  H  H207  1  0.075470  0.601030  0.821130  1.0  0.0804
  H  H208  1  0.073670  0.478430  0.969030  1.0  0.0739
  H  H209  1  0.970170  0.400330  0.982630  1.0  0.1106
  H  H210  1  0.965170  0.400330  0.013030  1.0  0.076
  H  H211  1  0.632430  0.901670  0.199270  1.0  0.1166
  H  H212  1  0.637230  0.902470  0.168470  1.0  0.1075
  H  H213  1  0.742130  0.934370  0.154470  1.0  0.0803
  H  H214  1  0.740330  0.811770  0.302370  1.0  0.0739
  H  H215  1  0.636830  0.733670  0.315970  1.0  0.1105
  H  H216  1  0.631830  0.733670  0.346370  1.0  0.076
  H  H217  1  0.299100  0.064100  0.032600  1.0  0.1162
  H  H218  1  0.303900  0.068100  0.001800  1.0  0.108
  H  H219  1  0.408800  0.141100  0.987800  1.0  0.0792
  H  H220  1  0.407000  0.261900  0.135700  1.0  0.0731
  H  H221  1  0.303500  0.236500  0.149300  1.0  0.1093
  H  H222  1  0.298500  0.231500  0.179700  1.0  0.0762
  H  H223  1  0.965770  0.397430  0.365930  1.0  0.1163
  H  H224  1  0.970570  0.401430  0.335130  1.0  0.1085
  H  H225  1  0.075470  0.474430  0.321130  1.0  0.079
  H  H226  1  0.073670  0.595230  0.469030  1.0  0.073
  H  H227  1  0.970170  0.569830  0.482630  1.0  0.1093
  H  H228  1  0.965170  0.564830  0.513030  1.0  0.0761
  H  H229  1  0.632430  0.730770  0.699270  1.0  0.1163
  H  H230  1  0.637230  0.734770  0.668470  1.0  0.1073
  H  H231  1  0.742130  0.807770  0.654470  1.0  0.0792
  H  H232  1  0.740330  0.928570  0.802370  1.0  0.0731
  H  H233  1  0.636830  0.903170  0.815970  1.0  0.1092
  H  H234  1  0.631830  0.898170  0.846370  1.0  0.0762
  H  H235  1  0.935900  0.235000  0.032600  1.0  0.1169
  H  H236  1  0.931900  0.235800  0.001800  1.0  0.1091
  H  H237  1  0.858900  0.267700  0.987800  1.0  0.0804
  H  H238  1  0.738100  0.145100  0.135700  1.0  0.0739
  H  H239  1  0.763500  0.067000  0.149300  1.0  0.1105
  H  H240  1  0.768500  0.067000  0.179700  1.0  0.0757
  H  H241  1  0.602570  0.568330  0.365930  1.0  0.1169
  H  H242  1  0.598570  0.569130  0.335130  1.0  0.1083
  H  H243  1  0.525570  0.601030  0.321130  1.0  0.0803
  H  H244  1  0.404770  0.478430  0.469030  1.0  0.0738
  H  H245  1  0.430170  0.400330  0.482630  1.0  0.1106
  H  H246  1  0.435170  0.400330  0.513030  1.0  0.0756
  H  H247  1  0.269230  0.901670  0.699270  1.0  0.1169
  H  H248  1  0.265230  0.902470  0.668470  1.0  0.1083
  H  H249  1  0.192230  0.934370  0.654470  1.0  0.0802
  H  H250  1  0.071430  0.811770  0.802370  1.0  0.0739
  H  H251  1  0.096830  0.733670  0.815970  1.0  0.1105
  H  H252  1  0.101830  0.733670  0.846370  1.0  0.0758
  H  H253  1  0.765000  0.700900  0.032600  1.0  0.116
  H  H254  1  0.764200  0.696100  0.001800  1.0  0.1075
  H  H255  1  0.732300  0.591200  0.987800  1.0  0.0799
  H  H256  1  0.854900  0.593000  0.135700  1.0  0.0741
  H  H257  1  0.933000  0.696500  0.149300  1.0  0.1105
  H  H258  1  0.933000  0.701500  0.179700  1.0  0.0766
  H  H259  1  0.431670  0.034230  0.365930  1.0  0.116
  H  H260  1  0.430870  0.029430  0.335130  1.0  0.1073
  H  H261  1  0.398970  0.924530  0.321130  1.0  0.0799
  H  H262  1  0.521570  0.926330  0.469030  1.0  0.0741
  H  H263  1  0.599670  0.029830  0.482630  1.0  0.1106
  H  H264  1  0.599670  0.034830  0.513030  1.0  0.0766
  H  H265  1  0.098330  0.367570  0.699270  1.0  0.116
  H  H266  1  0.097530  0.362770  0.668470  1.0  0.1073
  H  H267  1  0.065630  0.257870  0.654470  1.0  0.0798
  H  H268  1  0.188230  0.259670  0.802370  1.0  0.0741
  H  H269  1  0.266330  0.363170  0.815970  1.0  0.1106
  H  H270  1  0.266330  0.368170  0.846370  1.0  0.0766
  H  H271  1  0.064100  0.299100  0.467400  1.0  0.116
  H  H272  1  0.068100  0.303900  0.498200  1.0  0.1083
  H  H273  1  0.141100  0.408800  0.512200  1.0  0.0806
  H  H274  1  0.261900  0.407000  0.364300  1.0  0.0727
  H  H275  1  0.236500  0.303500  0.350700  1.0  0.1105
  H  H276  1  0.231500  0.298500  0.320300  1.0  0.0763
  H  H277  1  0.730770  0.632430  0.800730  1.0  0.1162
  H  H278  1  0.734770  0.637230  0.831530  1.0  0.1081
  H  H279  1  0.807770  0.742130  0.845530  1.0  0.0806
  H  H280  1  0.928570  0.740330  0.697630  1.0  0.0727
  H  H281  1  0.903170  0.636830  0.684030  1.0  0.1105
  H  H282  1  0.898170  0.631830  0.653630  1.0  0.0763
  H  H283  1  0.397430  0.965770  0.134070  1.0  0.1162
  H  H284  1  0.401430  0.970570  0.164870  1.0  0.1097
  H  H285  1  0.474430  0.075470  0.178870  1.0  0.0805
  H  H286  1  0.595230  0.073670  0.030970  1.0  0.0726
  H  H287  1  0.569830  0.970170  0.017370  1.0  0.1105
  H  H288  1  0.564830  0.965170  0.986970  1.0  0.0763
  H  H289  1  0.235000  0.935900  0.467400  1.0  0.1166
  H  H290  1  0.235800  0.931900  0.498200  1.0  0.1082
  H  H291  1  0.267700  0.858900  0.512200  1.0  0.0802
  H  H292  1  0.145100  0.738100  0.364300  1.0  0.0739
  H  H293  1  0.067000  0.763500  0.350700  1.0  0.1105
  H  H294  1  0.067000  0.768500  0.320300  1.0  0.0763
  H  H295  1  0.901670  0.269230  0.800730  1.0  0.1167
  H  H296  1  0.902470  0.265230  0.831530  1.0  0.1079
  H  H297  1  0.934370  0.192230  0.845530  1.0  0.0801
  H  H298  1  0.811770  0.071430  0.697630  1.0  0.0739
  H  H299  1  0.733670  0.096830  0.684030  1.0  0.1106
  H  H300  1  0.733670  0.101830  0.653630  1.0  0.0763
  H  H301  1  0.568330  0.602570  0.134070  1.0  0.1167
  H  H302  1  0.569130  0.598570  0.164870  1.0  0.1079
  H  H303  1  0.601030  0.525570  0.178870  1.0  0.0802
  H  H304  1  0.478430  0.404770  0.030970  1.0  0.0738
  H  H305  1  0.400330  0.430170  0.017370  1.0  0.1105
  H  H306  1  0.400330  0.435170  0.986970  1.0  0.0762
  H  H307  1  0.700900  0.765000  0.467400  1.0  0.1164
  H  H308  1  0.696100  0.764200  0.498200  1.0  0.1079
  H  H309  1  0.591200  0.732300  0.512200  1.0  0.0807
  H  H310  1  0.593000  0.854900  0.364300  1.0  0.0739
  H  H311  1  0.696500  0.933000  0.350700  1.0  0.1113
  H  H312  1  0.701500  0.933000  0.320300  1.0  0.0756
  H  H313  1  0.367570  0.098330  0.800730  1.0  0.1164
  H  H314  1  0.362770  0.097530  0.831530  1.0  0.1079
  H  H315  1  0.257870  0.065630  0.845530  1.0  0.0807
  H  H316  1  0.259670  0.188230  0.697630  1.0  0.0739
  H  H317  1  0.363170  0.266330  0.684030  1.0  0.1113
  H  H318  1  0.368170  0.266330  0.653630  1.0  0.0756
  H  H319  1  0.034230  0.431670  0.134070  1.0  0.1164
  H  H320  1  0.029430  0.430870  0.164870  1.0  0.1079
  H  H321  1  0.924530  0.398970  0.178870  1.0  0.0807
  H  H322  1  0.926330  0.521570  0.030970  1.0  0.0738
  H  H323  1  0.029830  0.599670  0.017370  1.0  0.1113
  H  H324  1  0.034830  0.599670  0.986970  1.0  0.0756
  C  C325  1  0.535400  0.815300  0.973540  1.0  0.18
  C  C326  1  0.598100  0.859400  0.963500  1.0  -0.1604
  C  C327  1  0.659200  0.905100  0.973240  1.0  -0.0671
  C  C328  1  0.656000  0.903300  0.991550  1.0  -0.1421
  C  C329  1  0.592900  0.858800  0.999860  1.0  0.1177
  C  C330  1  0.603100  0.859400  0.943750  1.0  0.6926
  C  C331  1  0.729900  0.934500  0.870960  1.0  0.7092
  C  C332  1  0.734600  0.929300  0.850700  1.0  -0.1109
  C  C333  1  0.798000  0.947600  0.841140  1.0  0.0677
  C  C334  1  0.594200  0.737000  0.851920  1.0  0.1549
  C  C335  1  0.656900  0.753700  0.843970  1.0  -0.1483
  C  C336  1  0.659100  0.755200  0.826070  1.0  -0.0025
  C  C337  1  0.202070  0.148630  0.306870  1.0  0.18
  C  C338  1  0.264770  0.192730  0.296830  1.0  -0.1604
  C  C339  1  0.325870  0.238430  0.306570  1.0  -0.0671
  C  C340  1  0.322670  0.236630  0.324880  1.0  -0.1421
  C  C341  1  0.259570  0.192130  0.333190  1.0  0.1177
  C  C342  1  0.269770  0.192730  0.277080  1.0  0.6926
  C  C343  1  0.396570  0.267830  0.204290  1.0  0.7094
  C  C344  1  0.401270  0.262630  0.184030  1.0  -0.1109
  C  C345  1  0.464670  0.280930  0.174470  1.0  0.067
  C  C346  1  0.260870  0.070330  0.185250  1.0  0.1553
  C  C347  1  0.323570  0.087030  0.177300  1.0  -0.1483
  C  C348  1  0.325770  0.088530  0.159400  1.0  -0.0025
  C  C349  1  0.868730  0.481970  0.640210  1.0  0.1799
  C  C350  1  0.931430  0.526070  0.630170  1.0  -0.1604
  C  C351  1  0.992530  0.571770  0.639910  1.0  -0.0671
  C  C352  1  0.989330  0.569970  0.658220  1.0  -0.1417
  C  C353  1  0.926230  0.525470  0.666530  1.0  0.1178
  C  C354  1  0.936430  0.526070  0.610420  1.0  0.6926
  C  C355  1  0.063230  0.601170  0.537630  1.0  0.7094
  C  C356  1  0.067930  0.595970  0.517370  1.0  -0.0993
  C  C357  1  0.131330  0.614270  0.507810  1.0  0.0471
  C  C358  1  0.927530  0.403670  0.518590  1.0  0.1551
  C  C359  1  0.990230  0.420370  0.510640  1.0  -0.1474
  C  C360  1  0.992430  0.421870  0.492740  1.0  -0.007
  C  C361  1  0.184700  0.720100  0.973540  1.0  0.1821
  C  C362  1  0.140600  0.738700  0.963500  1.0  -0.1613
  C  C363  1  0.094900  0.754100  0.973240  1.0  -0.0683
  C  C364  1  0.096700  0.752700  0.991550  1.0  -0.1399
  C  C365  1  0.141200  0.734100  0.999860  1.0  0.1166
  C  C366  1  0.140600  0.743700  0.943750  1.0  0.6925
  C  C367  1  0.065500  0.795400  0.870960  1.0  0.7073
  C  C368  1  0.070700  0.805300  0.850700  1.0  -0.1001
  C  C369  1  0.052400  0.850400  0.841140  1.0  0.0541
  C  C370  1  0.263000  0.857200  0.851920  1.0  0.1566
  C  C371  1  0.246300  0.903200  0.843970  1.0  -0.1502
  C  C372  1  0.244800  0.903900  0.826070  1.0  -0.0078
  C  C373  1  0.851370  0.053430  0.306870  1.0  0.1821
  C  C374  1  0.807270  0.072030  0.296830  1.0  -0.1613
  C  C375  1  0.761570  0.087430  0.306570  1.0  -0.0683
  C  C376  1  0.763370  0.086030  0.324880  1.0  -0.1399
  C  C377  1  0.807870  0.067430  0.333190  1.0  0.1166
  C  C378  1  0.807270  0.077030  0.277080  1.0  0.6925
  C  C379  1  0.732170  0.128730  0.204290  1.0  0.7074
  C  C380  1  0.737370  0.138630  0.184030  1.0  -0.1
  C  C381  1  0.719070  0.183730  0.174470  1.0  0.0532
  C  C382  1  0.929670  0.190530  0.185250  1.0  0.1566
  C  C383  1  0.912970  0.236530  0.177300  1.0  -0.1502
  C  C384  1  0.911470  0.237230  0.159400  1.0  -0.0078
  C  C385  1  0.518030  0.386770  0.640210  1.0  0.182
  C  C386  1  0.473930  0.405370  0.630170  1.0  -0.1613
  C  C387  1  0.428230  0.420770  0.639910  1.0  -0.0683
  C  C388  1  0.430030  0.419370  0.658220  1.0  -0.1399
  C  C389  1  0.474530  0.400770  0.666530  1.0  0.1166
  C  C390  1  0.473930  0.410370  0.610420  1.0  0.6925
  C  C391  1  0.398830  0.462070  0.537630  1.0  0.7075
  C  C392  1  0.404030  0.471970  0.517370  1.0  -0.1206
  C  C393  1  0.385730  0.517070  0.507810  1.0  0.0479
  C  C394  1  0.596330  0.523870  0.518590  1.0  0.1567
  C  C395  1  0.579630  0.569870  0.510640  1.0  -0.1497
  C  C396  1  0.578130  0.570570  0.492740  1.0  -0.0078
  C  C397  1  0.279900  0.464600  0.973540  1.0  0.1798
  C  C398  1  0.261300  0.401900  0.963500  1.0  -0.1612
  C  C399  1  0.245900  0.340800  0.973240  1.0  -0.0665
  C  C400  1  0.247300  0.344000  0.991550  1.0  -0.1371
  C  C401  1  0.265900  0.407100  0.999860  1.0  0.1171
  C  C402  1  0.256300  0.396900  0.943750  1.0  0.6941
  C  C403  1  0.204600  0.270100  0.870960  1.0  0.7051
  C  C404  1  0.194700  0.265400  0.850700  1.0  -0.1192
  C  C405  1  0.149600  0.202000  0.841140  1.0  0.0545
  C  C406  1  0.142800  0.405800  0.851920  1.0  0.1562
  C  C407  1  0.096800  0.343100  0.843970  1.0  -0.1497
  C  C408  1  0.096100  0.340900  0.826070  1.0  -0.0113
  C  C409  1  0.946570  0.797930  0.306870  1.0  0.1798
  C  C410  1  0.927970  0.735230  0.296830  1.0  -0.1612
  C  C411  1  0.912570  0.674130  0.306570  1.0  -0.0665
  C  C412  1  0.913970  0.677330  0.324880  1.0  -0.1371
  C  C413  1  0.932570  0.740430  0.333190  1.0  0.117
  C  C414  1  0.922970  0.730230  0.277080  1.0  0.6941
  C  C415  1  0.871270  0.603430  0.204290  1.0  0.7054
  C  C416  1  0.861370  0.598730  0.184030  1.0  -0.1192
  C  C417  1  0.816270  0.535330  0.174470  1.0  0.0535
  C  C418  1  0.809470  0.739130  0.185250  1.0  0.1565
  C  C419  1  0.763470  0.676430  0.177300  1.0  -0.1498
  C  C420  1  0.762770  0.674230  0.159400  1.0  -0.0113
  C  C421  1  0.613230  0.131270  0.640210  1.0  0.1797
  C  C422  1  0.594630  0.068570  0.630170  1.0  -0.1612
  C  C423  1  0.579230  0.007470  0.639910  1.0  -0.0665
  C  C424  1  0.580630  0.010670  0.658220  1.0  -0.1371
  C  C425  1  0.599230  0.073770  0.666530  1.0  0.117
  C  C426  1  0.589630  0.063570  0.610420  1.0  0.6941
  C  C427  1  0.537930  0.936770  0.537630  1.0  0.7053
  C  C428  1  0.528030  0.932070  0.517370  1.0  -0.1
  C  C429  1  0.482930  0.868670  0.507810  1.0  0.0475
  C  C430  1  0.476130  0.072470  0.518590  1.0  0.1563
  C  C431  1  0.430130  0.009770  0.510640  1.0  -0.1486
  C  C432  1  0.429430  0.007570  0.492740  1.0  -0.0116
  C  C433  1  0.815300  0.535400  0.526460  1.0  0.1814
  C  C434  1  0.859400  0.598100  0.536500  1.0  -0.1618
  C  C435  1  0.905100  0.659200  0.526760  1.0  -0.0656
  C  C436  1  0.903300  0.656000  0.508450  1.0  -0.1353
  C  C437  1  0.858800  0.592900  0.500140  1.0  0.1177
  C  C438  1  0.859400  0.603100  0.556250  1.0  0.6947
  C  C439  1  0.934500  0.729900  0.629040  1.0  0.7041
  C  C440  1  0.929300  0.734600  0.649300  1.0  -0.1124
  C  C441  1  0.947600  0.798000  0.658860  1.0  0.0661
  C  C442  1  0.737000  0.594200  0.648080  1.0  0.1542
  C  C443  1  0.753700  0.656900  0.656030  1.0  -0.151
  C  C444  1  0.755200  0.659100  0.673930  1.0  -0.0068
  C  C445  1  0.481970  0.868730  0.859790  1.0  0.1812
  C  C446  1  0.526070  0.931430  0.869830  1.0  -0.1618
  C  C447  1  0.571770  0.992530  0.860090  1.0  -0.0656
  C  C448  1  0.569970  0.989330  0.841780  1.0  -0.1349
  C  C449  1  0.525470  0.926230  0.833470  1.0  0.1177
  C  C450  1  0.526070  0.936430  0.889580  1.0  0.6947
  C  C451  1  0.601170  0.063230  0.962370  1.0  0.7043
  C  C452  1  0.595970  0.067930  0.982630  1.0  -0.0987
  C  C453  1  0.614270  0.131330  0.992190  1.0  0.0442
  C  C454  1  0.403670  0.927530  0.981410  1.0  0.1554
  C  C455  1  0.420370  0.990230  0.989360  1.0  -0.1502
  C  C456  1  0.421870  0.992430  0.007260  1.0  -0.0118
  C  C457  1  0.148630  0.202070  0.193130  1.0  0.1814
  C  C458  1  0.192730  0.264770  0.203170  1.0  -0.1618
  C  C459  1  0.238430  0.325870  0.193430  1.0  -0.0656
  C  C460  1  0.236630  0.322670  0.175120  1.0  -0.1353
  C  C461  1  0.192130  0.259570  0.166810  1.0  0.1176
  C  C462  1  0.192730  0.269770  0.222920  1.0  0.6947
  C  C463  1  0.267830  0.396570  0.295710  1.0  0.7044
  C  C464  1  0.262630  0.401270  0.315970  1.0  -0.1124
  C  C465  1  0.280930  0.464670  0.325530  1.0  0.0654
  C  C466  1  0.070330  0.260870  0.314750  1.0  0.1546
  C  C467  1  0.087030  0.323570  0.322700  1.0  -0.151
  C  C468  1  0.088530  0.325770  0.340600  1.0  -0.0068
  C  C469  1  0.720100  0.184700  0.526460  1.0  0.1812
  C  C470  1  0.738700  0.140600  0.536500  1.0  -0.1601
  C  C471  1  0.754100  0.094900  0.526760  1.0  -0.0673
  C  C472  1  0.752700  0.096700  0.508450  1.0  -0.1415
  C  C473  1  0.734100  0.141200  0.500140  1.0  0.12
  C  C474  1  0.743700  0.140600  0.556250  1.0  0.6939
  C  C475  1  0.795400  0.065500  0.629040  1.0  0.7092
  C  C476  1  0.805300  0.070700  0.649300  1.0  -0.0998
  C  C477  1  0.850400  0.052400  0.658860  1.0  0.0557
  C  C478  1  0.857200  0.263000  0.648080  1.0  0.155
  C  C479  1  0.903200  0.246300  0.656030  1.0  -0.1505
  C  C480  1  0.903900  0.244800  0.673930  1.0  -0.0051
  C  C481  1  0.386770  0.518030  0.859790  1.0  0.1811
  C  C482  1  0.405370  0.473930  0.869830  1.0  -0.1601
  C  C483  1  0.420770  0.428230  0.860090  1.0  -0.0673
  C  C484  1  0.419370  0.430030  0.841780  1.0  -0.1415
  C  C485  1  0.400770  0.474530  0.833470  1.0  0.12
  C  C486  1  0.410370  0.473930  0.889580  1.0  0.6939
  C  C487  1  0.462070  0.398830  0.962370  1.0  0.7093
  C  C488  1  0.471970  0.404030  0.982630  1.0  -0.1199
  C  C489  1  0.517070  0.385730  0.992190  1.0  0.0486
  C  C490  1  0.523870  0.596330  0.981410  1.0  0.155
  C  C491  1  0.569870  0.579630  0.989360  1.0  -0.1503
  C  C492  1  0.570570  0.578130  0.007260  1.0  -0.0053
  C  C493  1  0.053430  0.851370  0.193130  1.0  0.1812
  C  C494  1  0.072030  0.807270  0.203170  1.0  -0.1601
  C  C495  1  0.087430  0.761570  0.193430  1.0  -0.0673
  C  C496  1  0.086030  0.763370  0.175120  1.0  -0.1415
  C  C497  1  0.067430  0.807870  0.166810  1.0  0.12
  C  C498  1  0.077030  0.807270  0.222920  1.0  0.6939
  C  C499  1  0.128730  0.732170  0.295710  1.0  0.7092
  C  C500  1  0.138630  0.737370  0.315970  1.0  -0.0998
  C  C501  1  0.183730  0.719070  0.325530  1.0  0.0548
  C  C502  1  0.190530  0.929670  0.314750  1.0  0.155
  C  C503  1  0.236530  0.912970  0.322700  1.0  -0.1505
  C  C504  1  0.237230  0.911470  0.340600  1.0  -0.0051
  C  C505  1  0.464600  0.279900  0.526460  1.0  0.1833
  C  C506  1  0.401900  0.261300  0.536500  1.0  -0.161
  C  C507  1  0.340800  0.245900  0.526760  1.0  -0.0676
  C  C508  1  0.344000  0.247300  0.508450  1.0  -0.141
  C  C509  1  0.407100  0.265900  0.500140  1.0  0.1176
  C  C510  1  0.396900  0.256300  0.556250  1.0  0.6943
  C  C511  1  0.270100  0.204600  0.629040  1.0  0.7094
  C  C512  1  0.265400  0.194700  0.649300  1.0  -0.1217
  C  C513  1  0.202000  0.149600  0.658860  1.0  0.0543
  C  C514  1  0.405800  0.142800  0.648080  1.0  0.1553
  C  C515  1  0.343100  0.096800  0.656030  1.0  -0.1508
  C  C516  1  0.340900  0.096100  0.673930  1.0  -0.0079
  C  C517  1  0.131270  0.613230  0.859790  1.0  0.1832
  C  C518  1  0.068570  0.594630  0.869830  1.0  -0.161
  C  C519  1  0.007470  0.579230  0.860090  1.0  -0.0676
  C  C520  1  0.010670  0.580630  0.841780  1.0  -0.141
  C  C521  1  0.073770  0.599230  0.833470  1.0  0.1176
  C  C522  1  0.063570  0.589630  0.889580  1.0  0.6943
  C  C523  1  0.936770  0.537930  0.962370  1.0  0.7094
  C  C524  1  0.932070  0.528030  0.982630  1.0  -0.1022
  C  C525  1  0.868670  0.482930  0.992190  1.0  0.0478
  C  C526  1  0.072470  0.476130  0.981410  1.0  0.1553
  C  C527  1  0.009770  0.430130  0.989360  1.0  -0.1499
  C  C528  1  0.007570  0.429430  0.007260  1.0  -0.0081
  C  C529  1  0.797930  0.946570  0.193130  1.0  0.1833
  C  C530  1  0.735230  0.927970  0.203170  1.0  -0.1608
  C  C531  1  0.674130  0.912570  0.193430  1.0  -0.0676
  C  C532  1  0.677330  0.913970  0.175120  1.0  -0.141
  C  C533  1  0.740430  0.932570  0.166810  1.0  0.1176
  C  C534  1  0.730230  0.922970  0.222920  1.0  0.6943
  C  C535  1  0.603430  0.871270  0.295710  1.0  0.7095
  C  C536  1  0.598730  0.861370  0.315970  1.0  -0.1217
  C  C537  1  0.535330  0.816270  0.325530  1.0  0.0532
  C  C538  1  0.739130  0.809470  0.314750  1.0  0.1555
  C  C539  1  0.676430  0.763470  0.322700  1.0  -0.1509
  C  C540  1  0.674230  0.762770  0.340600  1.0  -0.0079
  C  C541  1  0.464600  0.184700  0.026460  1.0  0.181
  C  C542  1  0.401900  0.140600  0.036500  1.0  -0.1614
  C  C543  1  0.340800  0.094900  0.026760  1.0  -0.0664
  C  C544  1  0.344000  0.096700  0.008450  1.0  -0.1427
  C  C545  1  0.407100  0.141200  0.000140  1.0  0.1186
  C  C546  1  0.396900  0.140600  0.056250  1.0  0.6937
  C  C547  1  0.270100  0.065500  0.129040  1.0  0.7078
  C  C548  1  0.265400  0.070700  0.149300  1.0  -0.1165
  C  C549  1  0.202000  0.052400  0.158860  1.0  0.0708
  C  C550  1  0.405800  0.263000  0.148080  1.0  0.1543
  C  C551  1  0.343100  0.246300  0.156030  1.0  -0.1495
  C  C552  1  0.340900  0.244800  0.173930  1.0  -0.0017
  C  C553  1  0.131270  0.518030  0.359790  1.0  0.1808
  C  C554  1  0.068570  0.473930  0.369830  1.0  -0.1614
  C  C555  1  0.007470  0.428230  0.360090  1.0  -0.0664
  C  C556  1  0.010670  0.430030  0.341780  1.0  -0.1423
  C  C557  1  0.073770  0.474530  0.333470  1.0  0.1186
  C  C558  1  0.063570  0.473930  0.389580  1.0  0.6937
  C  C559  1  0.936770  0.398830  0.462370  1.0  0.708
  C  C560  1  0.932070  0.404030  0.482630  1.0  -0.1005
  C  C561  1  0.868670  0.385730  0.492190  1.0  0.0489
  C  C562  1  0.072470  0.596330  0.481410  1.0  0.1544
  C  C563  1  0.009770  0.579630  0.489360  1.0  -0.1488
  C  C564  1  0.007570  0.578130  0.507260  1.0  -0.0057
  C  C565  1  0.797930  0.851370  0.693130  1.0  0.181
  C  C566  1  0.735230  0.807270  0.703170  1.0  -0.1614
  C  C567  1  0.674130  0.761570  0.693430  1.0  -0.0664
  C  C568  1  0.677330  0.763370  0.675120  1.0  -0.1427
  C  C569  1  0.740430  0.807870  0.666810  1.0  0.1186
  C  C570  1  0.730230  0.807270  0.722920  1.0  0.6937
  C  C571  1  0.603430  0.732170  0.795710  1.0  0.7081
  C  C572  1  0.598730  0.737370  0.815970  1.0  -0.1165
  C  C573  1  0.535330  0.719070  0.825530  1.0  0.0701
  C  C574  1  0.739130  0.929670  0.814750  1.0  0.1546
  C  C575  1  0.676430  0.912970  0.822700  1.0  -0.1495
  C  C576  1  0.674230  0.911470  0.840600  1.0  -0.0018
  C  C577  1  0.815300  0.279900  0.026460  1.0  0.1832
  C  C578  1  0.859400  0.261300  0.036500  1.0  -0.1613
  C  C579  1  0.905100  0.245900  0.026760  1.0  -0.0671
  C  C580  1  0.903300  0.247300  0.008450  1.0  -0.1394
  C  C581  1  0.858800  0.265900  0.000140  1.0  0.1176
  C  C582  1  0.859400  0.256300  0.056250  1.0  0.6944
  C  C583  1  0.934500  0.204600  0.129040  1.0  0.7063
  C  C584  1  0.929300  0.194700  0.149300  1.0  -0.0997
  C  C585  1  0.947600  0.149600  0.158860  1.0  0.0548
  C  C586  1  0.737000  0.142800  0.148080  1.0  0.1553
  C  C587  1  0.753700  0.096800  0.156030  1.0  -0.1505
  C  C588  1  0.755200  0.096100  0.173930  1.0  -0.0091
  C  C589  1  0.481970  0.613230  0.359790  1.0  0.1831
  C  C590  1  0.526070  0.594630  0.369830  1.0  -0.1611
  C  C591  1  0.571770  0.579230  0.360090  1.0  -0.0671
  C  C592  1  0.569970  0.580630  0.341780  1.0  -0.1394
  C  C593  1  0.525470  0.599230  0.333470  1.0  0.1176
  C  C594  1  0.526070  0.589630  0.389580  1.0  0.6944
  C  C595  1  0.601170  0.537930  0.462370  1.0  0.7065
  C  C596  1  0.595970  0.528030  0.482630  1.0  -0.1202
  C  C597  1  0.614270  0.482930  0.492190  1.0  0.0484
  C  C598  1  0.403670  0.476130  0.481410  1.0  0.1553
  C  C599  1  0.420370  0.430130  0.489360  1.0  -0.1503
  C  C600  1  0.421870  0.429430  0.507260  1.0  -0.0093
  C  C601  1  0.148630  0.946570  0.693130  1.0  0.1832
  C  C602  1  0.192730  0.927970  0.703170  1.0  -0.1613
  C  C603  1  0.238430  0.912570  0.693430  1.0  -0.0671
  C  C604  1  0.236630  0.913970  0.675120  1.0  -0.1394
  C  C605  1  0.192130  0.932570  0.666810  1.0  0.1176
  C  C606  1  0.192730  0.922970  0.722920  1.0  0.6944
  C  C607  1  0.267830  0.871270  0.795710  1.0  0.7063
  C  C608  1  0.262630  0.861370  0.815970  1.0  -0.0997
  C  C609  1  0.280930  0.816270  0.825530  1.0  0.0539
  C  C610  1  0.070330  0.809470  0.814750  1.0  0.1553
  C  C611  1  0.087030  0.763470  0.822700  1.0  -0.1505
  C  C612  1  0.088530  0.762770  0.840600  1.0  -0.0091
  C  C613  1  0.720100  0.535400  0.026460  1.0  0.1816
  C  C614  1  0.738700  0.598100  0.036500  1.0  -0.1605
  C  C615  1  0.754100  0.659200  0.026760  1.0  -0.0672
  C  C616  1  0.752700  0.656000  0.008450  1.0  -0.1356
  C  C617  1  0.734100  0.592900  0.000140  1.0  0.1188
  C  C618  1  0.743700  0.603100  0.056250  1.0  0.6942
  C  C619  1  0.795400  0.729900  0.129040  1.0  0.703
  C  C620  1  0.805300  0.734600  0.149300  1.0  -0.119
  C  C621  1  0.850400  0.798000  0.158860  1.0  0.0503
  C  C622  1  0.857200  0.594200  0.148080  1.0  0.1546
  C  C623  1  0.903200  0.656900  0.156030  1.0  -0.1512
  C  C624  1  0.903900  0.659100  0.173930  1.0  -0.0121
  C  C625  1  0.386770  0.868730  0.359790  1.0  0.1815
  C  C626  1  0.405370  0.931430  0.369830  1.0  -0.1605
  C  C627  1  0.420770  0.992530  0.360090  1.0  -0.0672
  C  C628  1  0.419370  0.989330  0.341780  1.0  -0.1356
  C  C629  1  0.400770  0.926230  0.333470  1.0  0.1188
  C  C630  1  0.410370  0.936430  0.389580  1.0  0.6942
  C  C631  1  0.462070  0.063230  0.462370  1.0  0.7032
  C  C632  1  0.471970  0.067930  0.482630  1.0  -0.0992
  C  C633  1  0.517070  0.131330  0.492190  1.0  0.0437
  C  C634  1  0.523870  0.927530  0.481410  1.0  0.1546
  C  C635  1  0.569870  0.990230  0.489360  1.0  -0.1504
  C  C636  1  0.570570  0.992430  0.507260  1.0  -0.0124
  C  C637  1  0.053430  0.202070  0.693130  1.0  0.1816
  C  C638  1  0.072030  0.264770  0.703170  1.0  -0.1605
  C  C639  1  0.087430  0.325870  0.693430  1.0  -0.0672
  C  C640  1  0.086030  0.322670  0.675120  1.0  -0.1356
  C  C641  1  0.067430  0.259570  0.666810  1.0  0.1188
  C  C642  1  0.077030  0.269770  0.722920  1.0  0.6942
  C  C643  1  0.128730  0.396570  0.795710  1.0  0.7033
  C  C644  1  0.138630  0.401270  0.815970  1.0  -0.1188
  C  C645  1  0.183730  0.464670  0.825530  1.0  0.0492
  C  C646  1  0.190530  0.260870  0.814750  1.0  0.1548
  C  C647  1  0.236530  0.323570  0.822700  1.0  -0.1512
  C  C648  1  0.237230  0.325770  0.840600  1.0  -0.0121
  C  C649  1  0.184700  0.464600  0.473540  1.0  0.1796
  C  C650  1  0.140600  0.401900  0.463500  1.0  -0.16
  C  C651  1  0.094900  0.340800  0.473240  1.0  -0.068
  C  C652  1  0.096700  0.344000  0.491550  1.0  -0.138
  C  C653  1  0.141200  0.407100  0.499860  1.0  0.1177
  C  C654  1  0.140600  0.396900  0.443750  1.0  0.6926
  C  C655  1  0.065500  0.270100  0.370960  1.0  0.7037
  C  C656  1  0.070700  0.265400  0.350700  1.0  -0.1142
  C  C657  1  0.052400  0.202000  0.341140  1.0  0.0692
  C  C658  1  0.263000  0.405800  0.351920  1.0  0.156
  C  C659  1  0.246300  0.343100  0.343970  1.0  -0.1493
  C  C660  1  0.244800  0.340900  0.326070  1.0  -0.0067
  C  C661  1  0.851370  0.797930  0.806870  1.0  0.1796
  C  C662  1  0.807270  0.735230  0.796830  1.0  -0.16
  C  C663  1  0.761570  0.674130  0.806570  1.0  -0.068
  C  C664  1  0.763370  0.677330  0.824880  1.0  -0.138
  C  C665  1  0.807870  0.740430  0.833190  1.0  0.1177
  C  C666  1  0.807270  0.730230  0.777080  1.0  0.6926
  C  C667  1  0.732170  0.603430  0.704290  1.0  0.704
  C  C668  1  0.737370  0.598730  0.684030  1.0  -0.1142
  C  C669  1  0.719070  0.535330  0.674470  1.0  0.0685
  C  C670  1  0.929670  0.739130  0.685250  1.0  0.1563
  C  C671  1  0.912970  0.676430  0.677300  1.0  -0.1492
  C  C672  1  0.911470  0.674230  0.659400  1.0  -0.0067
  C  C673  1  0.518030  0.131270  0.140210  1.0  0.1794
  C  C674  1  0.473930  0.068570  0.130170  1.0  -0.16
  C  C675  1  0.428230  0.007470  0.139910  1.0  -0.068
  C  C676  1  0.430030  0.010670  0.158220  1.0  -0.1376
  C  C677  1  0.474530  0.073770  0.166530  1.0  0.1177
  C  C678  1  0.473930  0.063570  0.110420  1.0  0.6926
  C  C679  1  0.398830  0.936770  0.037630  1.0  0.7039
  C  C680  1  0.404030  0.932070  0.017370  1.0  -0.1006
  C  C681  1  0.385730  0.868670  0.007810  1.0  0.0469
  C  C682  1  0.596330  0.072470  0.018590  1.0  0.1562
  C  C683  1  0.579630  0.009770  0.010640  1.0  -0.1483
  C  C684  1  0.578130  0.007570  0.992740  1.0  -0.0112
  C  C685  1  0.279900  0.815300  0.473540  1.0  0.1803
  C  C686  1  0.261300  0.859400  0.463500  1.0  -0.1621
  C  C687  1  0.245900  0.905100  0.473240  1.0  -0.0659
  C  C688  1  0.247300  0.903300  0.491550  1.0  -0.1434
  C  C689  1  0.265900  0.858800  0.499860  1.0  0.1176
  C  C690  1  0.256300  0.859400  0.443750  1.0  0.6932
  C  C691  1  0.204600  0.934500  0.370960  1.0  0.7059
  C  C692  1  0.194700  0.929300  0.350700  1.0  -0.0992
  C  C693  1  0.149600  0.947600  0.341140  1.0  0.0542
  C  C694  1  0.142800  0.737000  0.351920  1.0  0.1547
  C  C695  1  0.096800  0.753700  0.343970  1.0  -0.1486
  C  C696  1  0.096100  0.755200  0.326070  1.0  -0.0061
  C  C697  1  0.946570  0.148630  0.806870  1.0  0.1803
  C  C698  1  0.927970  0.192730  0.796830  1.0  -0.1621
  C  C699  1  0.912570  0.238430  0.806570  1.0  -0.0659
  C  C700  1  0.913970  0.236630  0.824880  1.0  -0.1434
  C  C701  1  0.932570  0.192130  0.833190  1.0  0.1176
  C  C702  1  0.922970  0.192730  0.777080  1.0  0.6932
  C  C703  1  0.871270  0.267830  0.704290  1.0  0.7059
  C  C704  1  0.861370  0.262630  0.684030  1.0  -0.0992
  C  C705  1  0.816270  0.280930  0.674470  1.0  0.0534
  C  C706  1  0.809470  0.070330  0.685250  1.0  0.1547
  C  C707  1  0.763470  0.087030  0.677300  1.0  -0.1486
  C  C708  1  0.762770  0.088530  0.659400  1.0  -0.0061
  C  C709  1  0.613230  0.481970  0.140210  1.0  0.1802
  C  C710  1  0.594630  0.526070  0.130170  1.0  -0.1621
  C  C711  1  0.579230  0.571770  0.139910  1.0  -0.0659
  C  C712  1  0.580630  0.569970  0.158220  1.0  -0.1434
  C  C713  1  0.599230  0.525470  0.166530  1.0  0.1177
  C  C714  1  0.589630  0.526070  0.110420  1.0  0.6932
  C  C715  1  0.537930  0.601170  0.037630  1.0  0.706
  C  C716  1  0.528030  0.595970  0.017370  1.0  -0.1196
  C  C717  1  0.482930  0.614270  0.007810  1.0  0.048
  C  C718  1  0.476130  0.403670  0.018590  1.0  0.1548
  C  C719  1  0.430130  0.420370  0.010640  1.0  -0.1483
  C  C720  1  0.429430  0.421870  0.992740  1.0  -0.0062
  C  C721  1  0.535400  0.720100  0.473540  1.0  0.1821
  C  C722  1  0.598100  0.738700  0.463500  1.0  -0.161
  C  C723  1  0.659200  0.754100  0.473240  1.0  -0.0666
  C  C724  1  0.656000  0.752700  0.491550  1.0  -0.1382
  C  C725  1  0.592900  0.734100  0.499860  1.0  0.1167
  C  C726  1  0.603100  0.743700  0.443750  1.0  0.6927
  C  C727  1  0.729900  0.795400  0.370960  1.0  0.7072
  C  C728  1  0.734600  0.805300  0.350700  1.0  -0.1197
  C  C729  1  0.798000  0.850400  0.341140  1.0  0.0535
  C  C730  1  0.594200  0.857200  0.351920  1.0  0.1559
  C  C731  1  0.656900  0.903200  0.343970  1.0  -0.1492
  C  C732  1  0.659100  0.903900  0.326070  1.0  -0.0091
  C  C733  1  0.202070  0.053430  0.806870  1.0  0.1821
  C  C734  1  0.264770  0.072030  0.796830  1.0  -0.161
  C  C735  1  0.325870  0.087430  0.806570  1.0  -0.0666
  C  C736  1  0.322670  0.086030  0.824880  1.0  -0.1382
  C  C737  1  0.259570  0.067430  0.833190  1.0  0.1167
  C  C738  1  0.269770  0.077030  0.777080  1.0  0.6927
  C  C739  1  0.396570  0.128730  0.704290  1.0  0.7075
  C  C740  1  0.401270  0.138630  0.684030  1.0  -0.1197
  C  C741  1  0.464670  0.183730  0.674470  1.0  0.0526
  C  C742  1  0.260870  0.190530  0.685250  1.0  0.1562
  C  C743  1  0.323570  0.236530  0.677300  1.0  -0.1492
  C  C744  1  0.325770  0.237230  0.659400  1.0  -0.0091
  C  C745  1  0.868730  0.386770  0.140210  1.0  0.1821
  C  C746  1  0.931430  0.405370  0.130170  1.0  -0.161
  C  C747  1  0.992530  0.420770  0.139910  1.0  -0.0666
  C  C748  1  0.989330  0.419370  0.158220  1.0  -0.1382
  C  C749  1  0.926230  0.400770  0.166530  1.0  0.1167
  C  C750  1  0.936430  0.410370  0.110420  1.0  0.6927
  C  C751  1  0.063230  0.462070  0.037630  1.0  0.7074
  C  C752  1  0.067930  0.471970  0.017370  1.0  -0.1002
  C  C753  1  0.131330  0.517070  0.007810  1.0  0.0472
  C  C754  1  0.927530  0.523870  0.018590  1.0  0.156
  C  C755  1  0.990230  0.569870  0.010640  1.0  -0.1481
  C  C756  1  0.992430  0.570570  0.992740  1.0  -0.0094
  S  S757  1  0.458570  0.758140  0.961300  1.0  -0.2853
  S  S758  1  0.364710  0.790510  0.019440  1.0  -0.2969
  S  S759  1  0.125240  0.091470  0.294630  1.0  -0.2766
  S  S760  1  0.031380  0.123840  0.352770  1.0  -0.2969
  S  S761  1  0.791900  0.424810  0.627970  1.0  -0.2853
  S  S762  1  0.698040  0.457180  0.686110  1.0  -0.2772
  S  S763  1  0.241860  0.700430  0.961300  1.0  -0.2836
  S  S764  1  0.209490  0.574200  0.019440  1.0  -0.2967
  S  S765  1  0.908530  0.033760  0.294630  1.0  -0.2812
  S  S766  1  0.876160  0.907530  0.352770  1.0  -0.2967
  S  S767  1  0.575190  0.367100  0.627970  1.0  -0.2836
  S  S768  1  0.542820  0.240870  0.686110  1.0  -0.2828
  S  S769  1  0.299570  0.541430  0.961300  1.0  -0.2832
  S  S770  1  0.425800  0.635290  0.019440  1.0  -0.2782
  S  S771  1  0.966240  0.874760  0.294630  1.0  -0.2777
  S  S772  1  0.092470  0.968620  0.352770  1.0  -0.2782
  S  S773  1  0.632900  0.208100  0.627970  1.0  -0.2832
  S  S774  1  0.759130  0.301960  0.686110  1.0  -0.2948
  S  S775  1  0.758140  0.458570  0.538700  1.0  -0.2862
  S  S776  1  0.790510  0.364710  0.480560  1.0  -0.2973
  S  S777  1  0.424810  0.791900  0.872030  1.0  -0.2862
  S  S778  1  0.457180  0.698040  0.813890  1.0  -0.2767
  S  S779  1  0.091470  0.125240  0.205370  1.0  -0.2793
  S  S780  1  0.123840  0.031380  0.147230  1.0  -0.2973
  S  S781  1  0.700430  0.241860  0.538700  1.0  -0.2845
  S  S782  1  0.574200  0.209490  0.480560  1.0  -0.2979
  S  S783  1  0.367100  0.575190  0.872030  1.0  -0.2845
  S  S784  1  0.240870  0.542820  0.813890  1.0  -0.2827
  S  S785  1  0.033760  0.908530  0.205370  1.0  -0.2784
  S  S786  1  0.907530  0.876160  0.147230  1.0  -0.2979
  S  S787  1  0.541430  0.299570  0.538700  1.0  -0.2819
  S  S788  1  0.635290  0.425800  0.480560  1.0  -0.2779
  S  S789  1  0.208100  0.632900  0.872030  1.0  -0.2819
  S  S790  1  0.301960  0.759130  0.813890  1.0  -0.2951
  S  S791  1  0.874760  0.966240  0.205370  1.0  -0.2759
  S  S792  1  0.968620  0.092470  0.147230  1.0  -0.2779
  S  S793  1  0.541430  0.241860  0.038700  1.0  -0.2811
  S  S794  1  0.635290  0.209490  0.980560  1.0  -0.2964
  S  S795  1  0.208100  0.575190  0.372030  1.0  -0.2811
  S  S796  1  0.301960  0.542820  0.313890  1.0  -0.2766
  S  S797  1  0.874760  0.908530  0.705370  1.0  -0.2733
  S  S798  1  0.968620  0.876160  0.647230  1.0  -0.2964
  S  S799  1  0.758140  0.299570  0.038700  1.0  -0.2861
  S  S800  1  0.790510  0.425800  0.980560  1.0  -0.2982
  S  S801  1  0.424810  0.632900  0.372030  1.0  -0.2861
  S  S802  1  0.457180  0.759130  0.313890  1.0  -0.2833
  S  S803  1  0.091470  0.966240  0.705370  1.0  -0.2806
  S  S804  1  0.123840  0.092470  0.647230  1.0  -0.2982
  S  S805  1  0.700430  0.458570  0.038700  1.0  -0.2815
  S  S806  1  0.574200  0.364710  0.980560  1.0  -0.2773
  S  S807  1  0.367100  0.791900  0.372030  1.0  -0.2815
  S  S808  1  0.240870  0.698040  0.313890  1.0  -0.2949
  S  S809  1  0.033760  0.125240  0.705370  1.0  -0.2778
  S  S810  1  0.907530  0.031380  0.647230  1.0  -0.2773
  S  S811  1  0.241860  0.541430  0.461300  1.0  -0.2858
  S  S812  1  0.209490  0.635290  0.519440  1.0  -0.2973
  S  S813  1  0.908530  0.874760  0.794630  1.0  -0.2768
  S  S814  1  0.876160  0.968620  0.852770  1.0  -0.2973
  S  S815  1  0.575190  0.208100  0.127970  1.0  -0.2858
  S  S816  1  0.542820  0.301960  0.186110  1.0  -0.2768
  S  S817  1  0.299570  0.758140  0.461300  1.0  -0.283
  S  S818  1  0.425800  0.790510  0.519440  1.0  -0.2981
  S  S819  1  0.966240  0.091470  0.794630  1.0  -0.2799
  S  S820  1  0.092470  0.123840  0.852770  1.0  -0.2981
  S  S821  1  0.632900  0.424810  0.127970  1.0  -0.283
  S  S822  1  0.759130  0.457180  0.186110  1.0  -0.2834
  S  S823  1  0.458570  0.700430  0.461300  1.0  -0.2824
  S  S824  1  0.364710  0.574200  0.519440  1.0  -0.278
  S  S825  1  0.125240  0.033760  0.794630  1.0  -0.2767
  S  S826  1  0.031380  0.907530  0.852770  1.0  -0.278
  S  S827  1  0.791900  0.367100  0.127970  1.0  -0.2824
  S  S828  1  0.698040  0.240870  0.186110  1.0  -0.2947
  N  N829  1  0.534200  0.815500  0.990930  1.0  -0.3449
  N  N830  1  0.534800  0.719300  0.843140  1.0  -0.3195
  N  N831  1  0.200870  0.148830  0.324260  1.0  -0.3449
  N  N832  1  0.201470  0.052630  0.176470  1.0  -0.3195
  N  N833  1  0.867530  0.482170  0.657600  1.0  -0.3449
  N  N834  1  0.868130  0.385970  0.509810  1.0  -0.3197
  N  N835  1  0.184500  0.718700  0.990930  1.0  -0.3476
  N  N836  1  0.280700  0.815500  0.843140  1.0  -0.3203
  N  N837  1  0.851170  0.052030  0.324260  1.0  -0.3477
  N  N838  1  0.947370  0.148830  0.176470  1.0  -0.3203
  N  N839  1  0.517830  0.385370  0.657600  1.0  -0.3476
  N  N840  1  0.614030  0.482170  0.509810  1.0  -0.3207
  N  N841  1  0.281300  0.465800  0.990930  1.0  -0.3446
  N  N842  1  0.184500  0.465200  0.843140  1.0  -0.3214
  N  N843  1  0.947970  0.799130  0.324260  1.0  -0.3447
  N  N844  1  0.851170  0.798530  0.176470  1.0  -0.3214
  N  N845  1  0.614630  0.132470  0.657600  1.0  -0.3446
  N  N846  1  0.517830  0.131870  0.509810  1.0  -0.3216
  N  N847  1  0.815500  0.534200  0.509070  1.0  -0.3447
  N  N848  1  0.719300  0.534800  0.656860  1.0  -0.3211
  N  N849  1  0.482170  0.867530  0.842400  1.0  -0.3447
  N  N850  1  0.385970  0.868130  0.990190  1.0  -0.3214
  N  N851  1  0.148830  0.200870  0.175740  1.0  -0.3447
  N  N852  1  0.052630  0.201470  0.323530  1.0  -0.3211
  N  N853  1  0.718700  0.184500  0.509070  1.0  -0.3454
  N  N854  1  0.815500  0.280700  0.656860  1.0  -0.3194
  N  N855  1  0.385370  0.517830  0.842400  1.0  -0.3454
  N  N856  1  0.482170  0.614030  0.990190  1.0  -0.3198
  N  N857  1  0.052030  0.851170  0.175740  1.0  -0.3454
  N  N858  1  0.148830  0.947370  0.323530  1.0  -0.3194
  N  N859  1  0.465800  0.281300  0.509070  1.0  -0.3473
  N  N860  1  0.465200  0.184500  0.656860  1.0  -0.3214
  N  N861  1  0.132470  0.614630  0.842400  1.0  -0.3473
  N  N862  1  0.131870  0.517830  0.990190  1.0  -0.3215
  N  N863  1  0.799130  0.947970  0.175740  1.0  -0.3473
  N  N864  1  0.798530  0.851170  0.323530  1.0  -0.3214
  N  N865  1  0.465800  0.184500  0.009070  1.0  -0.3476
  N  N866  1  0.465200  0.280700  0.156860  1.0  -0.3234
  N  N867  1  0.132470  0.517830  0.342400  1.0  -0.3476
  N  N868  1  0.131870  0.614030  0.490190  1.0  -0.3237
  N  N869  1  0.799130  0.851170  0.675740  1.0  -0.3476
  N  N870  1  0.798530  0.947370  0.823530  1.0  -0.3235
  N  N871  1  0.815500  0.281300  0.009070  1.0  -0.3459
  N  N872  1  0.719300  0.184500  0.156860  1.0  -0.315
  N  N873  1  0.482170  0.614630  0.342400  1.0  -0.3459
  N  N874  1  0.385970  0.517830  0.490190  1.0  -0.3155
  N  N875  1  0.148830  0.947970  0.675740  1.0  -0.3459
  N  N876  1  0.052630  0.851170  0.823530  1.0  -0.3151
  N  N877  1  0.718700  0.534200  0.009070  1.0  -0.3441
  N  N878  1  0.815500  0.534800  0.156860  1.0  -0.3197
  N  N879  1  0.385370  0.867530  0.342400  1.0  -0.3441
  N  N880  1  0.482170  0.868130  0.490190  1.0  -0.3199
  N  N881  1  0.052030  0.200870  0.675740  1.0  -0.3441
  N  N882  1  0.148830  0.201470  0.823530  1.0  -0.3197
  N  N883  1  0.184500  0.465800  0.490930  1.0  -0.3451
  N  N884  1  0.280700  0.465200  0.343140  1.0  -0.3204
  N  N885  1  0.851170  0.799130  0.824260  1.0  -0.3452
  N  N886  1  0.947370  0.798530  0.676470  1.0  -0.3204
  N  N887  1  0.517830  0.132470  0.157600  1.0  -0.3451
  N  N888  1  0.614030  0.131870  0.009810  1.0  -0.3205
  N  N889  1  0.281300  0.815500  0.490930  1.0  -0.3453
  N  N890  1  0.184500  0.719300  0.343140  1.0  -0.3209
  N  N891  1  0.947970  0.148830  0.824260  1.0  -0.3453
  N  N892  1  0.851170  0.052630  0.676470  1.0  -0.3209
  N  N893  1  0.614630  0.482170  0.157600  1.0  -0.3453
  N  N894  1  0.517830  0.385970  0.009810  1.0  -0.3214
  N  N895  1  0.534200  0.718700  0.490930  1.0  -0.3472
  N  N896  1  0.534800  0.815500  0.343140  1.0  -0.3153
  N  N897  1  0.200870  0.052030  0.824260  1.0  -0.3473
  N  N898  1  0.201470  0.148830  0.676470  1.0  -0.3153
  N  N899  1  0.867530  0.385370  0.157600  1.0  -0.3472
  N  N900  1  0.868130  0.482170  0.009810  1.0  -0.3155
  O  O901  1  0.581300  0.891600  0.934840  1.0  -0.7162
  O  O902  1  0.628800  0.826000  0.936890  1.0  -0.6033
  O  O903  1  0.674600  0.893800  0.877670  1.0  -0.7047
  O  O904  1  0.779500  0.986000  0.879290  1.0  -0.5287
  O  O905  1  0.247970  0.224930  0.268170  1.0  -0.7162
  O  O906  1  0.295470  0.159330  0.270220  1.0  -0.6033
  O  O907  1  0.341270  0.227130  0.211000  1.0  -0.7047
  O  O908  1  0.446170  0.319330  0.212620  1.0  -0.5147
  O  O909  1  0.914630  0.558270  0.601510  1.0  -0.7162
  O  O910  1  0.962130  0.492670  0.603560  1.0  -0.6033
  O  O911  1  0.007930  0.560470  0.544340  1.0  -0.7047
  O  O912  1  0.112830  0.652670  0.545960  1.0  -0.5325
  O  O913  1  0.108400  0.689700  0.934840  1.0  -0.716
  O  O914  1  0.174000  0.802800  0.936890  1.0  -0.5996
  O  O915  1  0.106200  0.780800  0.877670  1.0  -0.7038
  O  O916  1  0.014000  0.793500  0.879290  1.0  -0.5083
  O  O917  1  0.775070  0.023030  0.268170  1.0  -0.7158
  O  O918  1  0.840670  0.136130  0.270220  1.0  -0.5996
  O  O919  1  0.772870  0.114130  0.211000  1.0  -0.7038
  O  O920  1  0.680670  0.126830  0.212620  1.0  -0.5333
  O  O921  1  0.441730  0.356370  0.601510  1.0  -0.716
  O  O922  1  0.507330  0.469470  0.603560  1.0  -0.5996
  O  O923  1  0.439530  0.447470  0.544340  1.0  -0.7036
  O  O924  1  0.347330  0.460170  0.545960  1.0  -0.5116
  O  O925  1  0.310300  0.418700  0.934840  1.0  -0.718
  O  O926  1  0.197200  0.371200  0.936890  1.0  -0.6019
  O  O927  1  0.219200  0.325400  0.877670  1.0  -0.7029
  O  O928  1  0.206500  0.220500  0.879290  1.0  -0.5068
  O  O929  1  0.976970  0.752030  0.268170  1.0  -0.7179
  O  O930  1  0.863870  0.704530  0.270220  1.0  -0.6019
  O  O931  1  0.885870  0.658730  0.211000  1.0  -0.703
  O  O932  1  0.873170  0.553830  0.212620  1.0  -0.5323
  O  O933  1  0.643630  0.085370  0.601510  1.0  -0.718
  O  O934  1  0.530530  0.037870  0.603560  1.0  -0.6019
  O  O935  1  0.552530  0.992070  0.544340  1.0  -0.7029
  O  O936  1  0.539830  0.887170  0.545960  1.0  -0.5068
  O  O937  1  0.891600  0.581300  0.565160  1.0  -0.7165
  O  O938  1  0.826000  0.628800  0.563110  1.0  -0.6038
  O  O939  1  0.893800  0.674600  0.622330  1.0  -0.703
  O  O940  1  0.986000  0.779500  0.620710  1.0  -0.53
  O  O941  1  0.558270  0.914630  0.898490  1.0  -0.7165
  O  O942  1  0.492670  0.962130  0.896440  1.0  -0.6038
  O  O943  1  0.560470  0.007930  0.955660  1.0  -0.703
  O  O944  1  0.652670  0.112830  0.954040  1.0  -0.5331
  O  O945  1  0.224930  0.247970  0.231830  1.0  -0.7166
  O  O946  1  0.159330  0.295470  0.229780  1.0  -0.6038
  O  O947  1  0.227130  0.341270  0.289000  1.0  -0.703
  O  O948  1  0.319330  0.446170  0.287380  1.0  -0.5163
  O  O949  1  0.689700  0.108400  0.565160  1.0  -0.7143
  O  O950  1  0.802800  0.174000  0.563110  1.0  -0.6048
  O  O951  1  0.780800  0.106200  0.622330  1.0  -0.7037
  O  O952  1  0.793500  0.014000  0.620710  1.0  -0.5093
  O  O953  1  0.356370  0.441730  0.898490  1.0  -0.7143
  O  O954  1  0.469470  0.507330  0.896440  1.0  -0.6048
  O  O955  1  0.447470  0.439530  0.955660  1.0  -0.7037
  O  O956  1  0.460170  0.347330  0.954040  1.0  -0.5122
  O  O957  1  0.023030  0.775070  0.231830  1.0  -0.7142
  O  O958  1  0.136130  0.840670  0.229780  1.0  -0.6048
  O  O959  1  0.114130  0.772870  0.289000  1.0  -0.7037
  O  O960  1  0.126830  0.680670  0.287380  1.0  -0.5325
  O  O961  1  0.418700  0.310300  0.565160  1.0  -0.7175
  O  O962  1  0.371200  0.197200  0.563110  1.0  -0.5992
  O  O963  1  0.325400  0.219200  0.622330  1.0  -0.7039
  O  O964  1  0.220500  0.206500  0.620710  1.0  -0.5117
  O  O965  1  0.085370  0.643630  0.898490  1.0  -0.7175
  O  O966  1  0.037870  0.530530  0.896440  1.0  -0.5992
  O  O967  1  0.992070  0.552530  0.955660  1.0  -0.7037
  O  O968  1  0.887170  0.539830  0.954040  1.0  -0.5117
  O  O969  1  0.752030  0.976970  0.231830  1.0  -0.7175
  O  O970  1  0.704530  0.863870  0.229780  1.0  -0.5992
  O  O971  1  0.658730  0.885870  0.289000  1.0  -0.7039
  O  O972  1  0.553830  0.873170  0.287380  1.0  -0.5385
  O  O973  1  0.418700  0.108400  0.065160  1.0  -0.7162
  O  O974  1  0.371200  0.174000  0.063110  1.0  -0.6032
  O  O975  1  0.325400  0.106200  0.122330  1.0  -0.7048
  O  O976  1  0.220500  0.014000  0.120710  1.0  -0.5351
  O  O977  1  0.085370  0.441730  0.398490  1.0  -0.7162
  O  O978  1  0.037870  0.507330  0.396440  1.0  -0.6032
  O  O979  1  0.992070  0.439530  0.455660  1.0  -0.7048
  O  O980  1  0.887170  0.347330  0.454040  1.0  -0.5391
  O  O981  1  0.752030  0.775070  0.731830  1.0  -0.7163
  O  O982  1  0.704530  0.840670  0.729780  1.0  -0.6032
  O  O983  1  0.658730  0.772870  0.789000  1.0  -0.7048
  O  O984  1  0.553830  0.680670  0.787380  1.0  -0.5204
  O  O985  1  0.891600  0.310300  0.065160  1.0  -0.7173
  O  O986  1  0.826000  0.197200  0.063110  1.0  -0.5996
  O  O987  1  0.893800  0.219200  0.122330  1.0  -0.7003
  O  O988  1  0.986000  0.206500  0.120710  1.0  -0.5165
  O  O989  1  0.558270  0.643630  0.398490  1.0  -0.7173
  O  O990  1  0.492670  0.530530  0.396440  1.0  -0.5996
  O  O991  1  0.560470  0.552530  0.455660  1.0  -0.7003
  O  O992  1  0.652670  0.539830  0.454040  1.0  -0.5199
  O  O993  1  0.224930  0.976970  0.731830  1.0  -0.7173
  O  O994  1  0.159330  0.863870  0.729780  1.0  -0.5996
  O  O995  1  0.227130  0.885870  0.789000  1.0  -0.7003
  O  O996  1  0.319330  0.873170  0.787380  1.0  -0.5412
  O  O997  1  0.689700  0.581300  0.065160  1.0  -0.7151
  O  O998  1  0.802800  0.628800  0.063110  1.0  -0.6038
  O  O999  1  0.780800  0.674600  0.122330  1.0  -0.7024
  O  O1000  1  0.793500  0.779500  0.120710  1.0  -0.5156
  O  O1001  1  0.356370  0.914630  0.398490  1.0  -0.7151
  O  O1002  1  0.469470  0.962130  0.396440  1.0  -0.6038
  O  O1003  1  0.447470  0.007930  0.455660  1.0  -0.7024
  O  O1004  1  0.460170  0.112830  0.454040  1.0  -0.5156
  O  O1005  1  0.023030  0.247970  0.731830  1.0  -0.715
  O  O1006  1  0.136130  0.295470  0.729780  1.0  -0.6038
  O  O1007  1  0.114130  0.341270  0.789000  1.0  -0.7024
  O  O1008  1  0.126830  0.446170  0.787380  1.0  -0.5425
  O  O1009  1  0.108400  0.418700  0.434840  1.0  -0.7158
  O  O1010  1  0.174000  0.371200  0.436890  1.0  -0.6026
  O  O1011  1  0.106200  0.325400  0.377670  1.0  -0.7006
  O  O1012  1  0.014000  0.220500  0.379290  1.0  -0.5335
  O  O1013  1  0.775070  0.752030  0.768170  1.0  -0.7158
  O  O1014  1  0.840670  0.704530  0.770220  1.0  -0.6026
  O  O1015  1  0.772870  0.658730  0.711000  1.0  -0.7006
  O  O1016  1  0.680670  0.553830  0.712620  1.0  -0.5197
  O  O1017  1  0.441730  0.085370  0.101510  1.0  -0.7158
  O  O1018  1  0.507330  0.037870  0.103560  1.0  -0.6026
  O  O1019  1  0.439530  0.992070  0.044340  1.0  -0.7006
  O  O1020  1  0.347330  0.887170  0.045960  1.0  -0.5375
  O  O1021  1  0.310300  0.891600  0.434840  1.0  -0.7181
  O  O1022  1  0.197200  0.826000  0.436890  1.0  -0.6033
  O  O1023  1  0.219200  0.893800  0.377670  1.0  -0.7064
  O  O1024  1  0.206500  0.986000  0.379290  1.0  -0.5136
  O  O1025  1  0.976970  0.224930  0.768170  1.0  -0.718
  O  O1026  1  0.863870  0.159330  0.770220  1.0  -0.6033
  O  O1027  1  0.885870  0.227130  0.711000  1.0  -0.7064
  O  O1028  1  0.873170  0.319330  0.712620  1.0  -0.5387
  O  O1029  1  0.643630  0.558270  0.101510  1.0  -0.7181
  O  O1030  1  0.530530  0.492670  0.103560  1.0  -0.6033
  O  O1031  1  0.552530  0.560470  0.044340  1.0  -0.7064
  O  O1032  1  0.539830  0.652670  0.045960  1.0  -0.5163
  O  O1033  1  0.581300  0.689700  0.434840  1.0  -0.7157
  O  O1034  1  0.628800  0.802800  0.436890  1.0  -0.5996
  O  O1035  1  0.674600  0.780800  0.377670  1.0  -0.7016
  O  O1036  1  0.779500  0.793500  0.379290  1.0  -0.5144
  O  O1037  1  0.247970  0.023030  0.768170  1.0  -0.7156
  O  O1038  1  0.295470  0.136130  0.770220  1.0  -0.5996
  O  O1039  1  0.341270  0.114130  0.711000  1.0  -0.7016
  O  O1040  1  0.446170  0.126830  0.712620  1.0  -0.5429
  O  O1041  1  0.914630  0.356370  0.101510  1.0  -0.7157
  O  O1042  1  0.962130  0.469470  0.103560  1.0  -0.5996
  O  O1043  1  0.007930  0.447470  0.044340  1.0  -0.7016
  O  O1044  1  0.112830  0.460170  0.045960  1.0  -0.5144
