# generated using pymatgen
data_CuH8C16(NO2)2
_symmetry_space_group_name_H-M   'P 1'
_cell_length_a   32.96800000
_cell_length_b   32.96800000
_cell_length_c   32.97570000
_cell_angle_alpha   60.00770000
_cell_angle_beta   60.00770000
_cell_angle_gamma   60.00000000
_symmetry_Int_Tables_number   1
_chemical_formula_structural   CuH8C16(NO2)2
_chemical_formula_sum   'Cu24 H192 C384 N48 O96'
_cell_volume   25346.31129181
_cell_formula_units_Z   24
loop_
 _symmetry_equiv_pos_site_id
 _symmetry_equiv_pos_as_xyz
  1  'x, y, z'
loop_
 _atom_site_type_symbol
 _atom_site_label
 _atom_site_symmetry_multiplicity
 _atom_site_fract_x
 _atom_site_fract_y
 _atom_site_fract_z
 _atom_site_occupancy
 _atom_site_charge
  Cu  Cu1  1  0.363390  0.443700  0.290140  1.0  0.903
  Cu  Cu2  1  0.443700  0.902770  0.290140  1.0  0.9065
  Cu  Cu3  1  0.902770  0.363390  0.290140  1.0  0.9039
  Cu  Cu4  1  0.363390  0.902770  0.290140  1.0  0.9049
  Cu  Cu5  1  0.443700  0.363390  0.290140  1.0  0.9009
  Cu  Cu6  1  0.902770  0.443700  0.290140  1.0  0.9054
  Cu  Cu7  1  0.903610  0.443060  0.749720  1.0  0.9115
  Cu  Cu8  1  0.903270  0.363020  0.830440  1.0  0.8958
  Cu  Cu9  1  0.443060  0.903610  0.749720  1.0  0.9121
  Cu  Cu10  1  0.363010  0.903270  0.830450  1.0  0.8956
  Cu  Cu11  1  0.903610  0.903610  0.749720  1.0  0.9021
  Cu  Cu12  1  0.903270  0.903270  0.830440  1.0  0.8935
  Cu  Cu13  1  0.636610  0.097230  0.709860  1.0  0.9061
  Cu  Cu14  1  0.556300  0.636610  0.709860  1.0  0.9029
  Cu  Cu15  1  0.097230  0.556300  0.709860  1.0  0.9051
  Cu  Cu16  1  0.636610  0.556300  0.709860  1.0  0.9019
  Cu  Cu17  1  0.556300  0.097230  0.709860  1.0  0.9067
  Cu  Cu18  1  0.097230  0.636610  0.709860  1.0  0.905
  Cu  Cu19  1  0.096390  0.096390  0.250280  1.0  0.9043
  Cu  Cu20  1  0.096730  0.096730  0.169550  1.0  0.8935
  Cu  Cu21  1  0.556940  0.096390  0.250280  1.0  0.9121
  Cu  Cu22  1  0.636980  0.096730  0.169560  1.0  0.8959
  Cu  Cu23  1  0.096390  0.556940  0.250280  1.0  0.912
  Cu  Cu24  1  0.096730  0.636990  0.169550  1.0  0.8945
  H  H25  1  0.059900  0.281100  0.785200  1.0  0.0952
  H  H26  1  0.143000  0.241500  0.748900  1.0  0.1143
  H  H27  1  0.142600  0.356900  0.625600  1.0  0.1056
  H  H28  1  0.060200  0.396200  0.661300  1.0  0.1074
  H  H29  1  0.365700  0.239100  0.527500  1.0  0.1228
  H  H30  1  0.398400  0.278200  0.443500  1.0  0.1067
  H  H31  1  0.275000  0.396200  0.272500  1.0  0.1226
  H  H32  1  0.236200  0.356700  0.269800  1.0  0.1064
  H  H33  1  0.751000  0.412000  0.916300  1.0  0.0934
  H  H34  1  0.669500  0.446600  0.954100  1.0  0.0988
  H  H35  1  0.664300  0.564100  0.831700  1.0  0.1156
  H  H36  1  0.746400  0.529000  0.795100  1.0  0.1029
  H  H37  1  0.450100  0.565300  0.051000  1.0  0.0816
  H  H38  1  0.408200  0.528800  0.133500  1.0  0.131
  H  H39  1  0.409200  0.530100  0.315700  1.0  0.1074
  H  H40  1  0.447000  0.568100  0.319000  1.0  0.1235
  H  H41  1  0.281100  0.873800  0.785200  1.0  0.0961
  H  H42  1  0.241500  0.866600  0.748900  1.0  0.1165
  H  H43  1  0.356900  0.874900  0.625600  1.0  0.1063
  H  H44  1  0.396200  0.882300  0.661300  1.0  0.1087
  H  H45  1  0.239100  0.867700  0.527500  1.0  0.1251
  H  H46  1  0.278200  0.879900  0.443500  1.0  0.1066
  H  H47  1  0.396200  0.056300  0.272500  1.0  0.1223
  H  H48  1  0.356700  0.137300  0.269800  1.0  0.106
  H  H49  1  0.412000  0.920700  0.916300  1.0  0.0961
  H  H50  1  0.446600  0.929800  0.954100  1.0  0.0995
  H  H51  1  0.564100  0.939900  0.831700  1.0  0.1165
  H  H52  1  0.529000  0.929500  0.795100  1.0  0.106
  H  H53  1  0.565300  0.933600  0.051000  1.0  0.0817
  H  H54  1  0.528800  0.929500  0.133500  1.0  0.1298
  H  H55  1  0.530100  0.745000  0.315700  1.0  0.1064
  H  H56  1  0.568100  0.665900  0.319000  1.0  0.1241
  H  H57  1  0.873800  0.059900  0.785200  1.0  0.0965
  H  H58  1  0.866600  0.143000  0.748900  1.0  0.114
  H  H59  1  0.874900  0.142600  0.625600  1.0  0.1075
  H  H60  1  0.882300  0.060200  0.661300  1.0  0.1061
  H  H61  1  0.867700  0.365700  0.527500  1.0  0.124
  H  H62  1  0.879900  0.398400  0.443500  1.0  0.1069
  H  H63  1  0.056300  0.275000  0.272500  1.0  0.121
  H  H64  1  0.137300  0.236200  0.269800  1.0  0.1061
  H  H65  1  0.920700  0.751000  0.916300  1.0  0.0939
  H  H66  1  0.929800  0.669500  0.954100  1.0  0.0991
  H  H67  1  0.939900  0.664300  0.831700  1.0  0.1157
  H  H68  1  0.929500  0.746400  0.795100  1.0  0.1052
  H  H69  1  0.933600  0.450100  0.051000  1.0  0.0836
  H  H70  1  0.929500  0.408200  0.133500  1.0  0.1314
  H  H71  1  0.745000  0.409200  0.315700  1.0  0.1064
  H  H72  1  0.665900  0.447000  0.319000  1.0  0.1248
  H  H73  1  0.059900  0.873800  0.785200  1.0  0.0968
  H  H74  1  0.143000  0.866600  0.748900  1.0  0.1147
  H  H75  1  0.142600  0.874900  0.625600  1.0  0.1082
  H  H76  1  0.060200  0.882300  0.661300  1.0  0.1067
  H  H77  1  0.365700  0.867700  0.527500  1.0  0.1239
  H  H78  1  0.398400  0.879900  0.443500  1.0  0.1066
  H  H79  1  0.275000  0.056300  0.272500  1.0  0.1215
  H  H80  1  0.236200  0.137300  0.269800  1.0  0.1067
  H  H81  1  0.751000  0.920700  0.916300  1.0  0.0946
  H  H82  1  0.669500  0.929800  0.954100  1.0  0.0989
  H  H83  1  0.664300  0.939900  0.831700  1.0  0.1156
  H  H84  1  0.746400  0.929500  0.795100  1.0  0.105
  H  H85  1  0.450100  0.933600  0.051000  1.0  0.0823
  H  H86  1  0.408200  0.929500  0.133500  1.0  0.1325
  H  H87  1  0.409200  0.745000  0.315700  1.0  0.1075
  H  H88  1  0.447000  0.665900  0.319000  1.0  0.1245
  H  H89  1  0.281100  0.059900  0.785200  1.0  0.0952
  H  H90  1  0.241500  0.143000  0.748900  1.0  0.1153
  H  H91  1  0.356900  0.142600  0.625600  1.0  0.1053
  H  H92  1  0.396200  0.060200  0.661300  1.0  0.108
  H  H93  1  0.239100  0.365700  0.527500  1.0  0.1233
  H  H94  1  0.278200  0.398400  0.443500  1.0  0.1064
  H  H95  1  0.396200  0.275000  0.272500  1.0  0.1226
  H  H96  1  0.356700  0.236200  0.269800  1.0  0.1061
  H  H97  1  0.412000  0.751000  0.916300  1.0  0.0938
  H  H98  1  0.446600  0.669500  0.954100  1.0  0.0992
  H  H99  1  0.564100  0.664300  0.831700  1.0  0.1153
  H  H100  1  0.529000  0.746400  0.795100  1.0  0.1036
  H  H101  1  0.565300  0.450100  0.051000  1.0  0.0832
  H  H102  1  0.528800  0.408200  0.133500  1.0  0.1308
  H  H103  1  0.530100  0.409200  0.315700  1.0  0.1068
  H  H104  1  0.568100  0.447000  0.319000  1.0  0.1245
  H  H105  1  0.873800  0.281100  0.785200  1.0  0.0952
  H  H106  1  0.866600  0.241500  0.748900  1.0  0.1152
  H  H107  1  0.874900  0.356900  0.625600  1.0  0.106
  H  H108  1  0.882300  0.396200  0.661300  1.0  0.1082
  H  H109  1  0.867700  0.239100  0.527500  1.0  0.1232
  H  H110  1  0.879900  0.278200  0.443500  1.0  0.1065
  H  H111  1  0.056300  0.396200  0.272500  1.0  0.1225
  H  H112  1  0.137300  0.356700  0.269800  1.0  0.1058
  H  H113  1  0.920700  0.412000  0.916300  1.0  0.095
  H  H114  1  0.929800  0.446600  0.954100  1.0  0.0989
  H  H115  1  0.939900  0.564100  0.831700  1.0  0.1167
  H  H116  1  0.929500  0.529000  0.795100  1.0  0.1056
  H  H117  1  0.933600  0.565300  0.051000  1.0  0.0812
  H  H118  1  0.929500  0.528800  0.133500  1.0  0.1303
  H  H119  1  0.745000  0.530100  0.315700  1.0  0.1066
  H  H120  1  0.665900  0.568100  0.319000  1.0  0.1236
  H  H121  1  0.940100  0.126200  0.214800  1.0  0.0975
  H  H122  1  0.857000  0.133400  0.251100  1.0  0.114
  H  H123  1  0.857400  0.125100  0.374400  1.0  0.1077
  H  H124  1  0.939800  0.117700  0.338700  1.0  0.1065
  H  H125  1  0.634300  0.132300  0.472500  1.0  0.1229
  H  H126  1  0.601600  0.120100  0.556500  1.0  0.1068
  H  H127  1  0.725000  0.943700  0.727500  1.0  0.1216
  H  H128  1  0.763800  0.862700  0.730200  1.0  0.1059
  H  H129  1  0.249000  0.079300  0.083700  1.0  0.0952
  H  H130  1  0.330500  0.070200  0.045900  1.0  0.0996
  H  H131  1  0.335700  0.060100  0.168300  1.0  0.1154
  H  H132  1  0.253600  0.070500  0.204900  1.0  0.1047
  H  H133  1  0.549900  0.066400  0.949000  1.0  0.0818
  H  H134  1  0.591800  0.070500  0.866500  1.0  0.1311
  H  H135  1  0.590800  0.255000  0.684300  1.0  0.1069
  H  H136  1  0.553000  0.334100  0.681000  1.0  0.1243
  H  H137  1  0.718900  0.940100  0.214800  1.0  0.096
  H  H138  1  0.758500  0.857000  0.251100  1.0  0.1155
  H  H139  1  0.643100  0.857400  0.374400  1.0  0.1057
  H  H140  1  0.603800  0.939800  0.338700  1.0  0.1076
  H  H141  1  0.760900  0.634300  0.472500  1.0  0.1228
  H  H142  1  0.721800  0.601600  0.556500  1.0  0.1059
  H  H143  1  0.603800  0.725000  0.727500  1.0  0.1219
  H  H144  1  0.643300  0.763800  0.730200  1.0  0.1055
  H  H145  1  0.588000  0.249000  0.083700  1.0  0.0943
  H  H146  1  0.553400  0.330500  0.045900  1.0  0.0994
  H  H147  1  0.435900  0.335700  0.168300  1.0  0.1151
  H  H148  1  0.471000  0.253600  0.204900  1.0  0.1039
  H  H149  1  0.434700  0.549900  0.949000  1.0  0.0821
  H  H150  1  0.471200  0.591800  0.866500  1.0  0.1313
  H  H151  1  0.469900  0.590800  0.684300  1.0  0.1066
  H  H152  1  0.431900  0.553000  0.681000  1.0  0.1247
  H  H153  1  0.126200  0.718900  0.214800  1.0  0.0959
  H  H154  1  0.133400  0.758500  0.251100  1.0  0.1154
  H  H155  1  0.125100  0.643100  0.374400  1.0  0.1061
  H  H156  1  0.117700  0.603800  0.338700  1.0  0.1078
  H  H157  1  0.132300  0.760900  0.472500  1.0  0.1235
  H  H158  1  0.120100  0.721800  0.556500  1.0  0.1066
  H  H159  1  0.943700  0.603800  0.727500  1.0  0.1222
  H  H160  1  0.862700  0.643300  0.730200  1.0  0.1053
  H  H161  1  0.079300  0.588000  0.083700  1.0  0.0957
  H  H162  1  0.070200  0.553400  0.045900  1.0  0.099
  H  H163  1  0.060100  0.435900  0.168300  1.0  0.1163
  H  H164  1  0.070500  0.471000  0.204900  1.0  0.1059
  H  H165  1  0.066400  0.434700  0.949000  1.0  0.0819
  H  H166  1  0.070500  0.471200  0.866500  1.0  0.1302
  H  H167  1  0.255000  0.469900  0.684300  1.0  0.106
  H  H168  1  0.334100  0.431900  0.681000  1.0  0.1247
  H  H169  1  0.940100  0.718900  0.214800  1.0  0.0958
  H  H170  1  0.857000  0.758500  0.251100  1.0  0.1143
  H  H171  1  0.857400  0.643100  0.374400  1.0  0.1058
  H  H172  1  0.939800  0.603800  0.338700  1.0  0.1075
  H  H173  1  0.634300  0.760900  0.472500  1.0  0.1234
  H  H174  1  0.601600  0.721800  0.556500  1.0  0.1069
  H  H175  1  0.725000  0.603800  0.727500  1.0  0.1216
  H  H176  1  0.763800  0.643300  0.730200  1.0  0.1062
  H  H177  1  0.249000  0.588000  0.083700  1.0  0.0938
  H  H178  1  0.330500  0.553400  0.045900  1.0  0.0989
  H  H179  1  0.335700  0.435900  0.168300  1.0  0.1151
  H  H180  1  0.253600  0.471000  0.204900  1.0  0.1032
  H  H181  1  0.549900  0.434700  0.949000  1.0  0.0811
  H  H182  1  0.591800  0.471200  0.866500  1.0  0.1308
  H  H183  1  0.590800  0.469900  0.684300  1.0  0.1066
  H  H184  1  0.553000  0.431900  0.681000  1.0  0.1244
  H  H185  1  0.718900  0.126200  0.214800  1.0  0.0963
  H  H186  1  0.758500  0.133400  0.251100  1.0  0.1153
  H  H187  1  0.643100  0.125100  0.374400  1.0  0.1065
  H  H188  1  0.603800  0.117700  0.338700  1.0  0.1091
  H  H189  1  0.760900  0.132300  0.472500  1.0  0.1231
  H  H190  1  0.721800  0.120100  0.556500  1.0  0.1068
  H  H191  1  0.603800  0.943700  0.727500  1.0  0.1219
  H  H192  1  0.643300  0.862700  0.730200  1.0  0.1058
  H  H193  1  0.588000  0.079300  0.083700  1.0  0.0949
  H  H194  1  0.553400  0.070200  0.045900  1.0  0.0996
  H  H195  1  0.435900  0.060100  0.168300  1.0  0.1164
  H  H196  1  0.471000  0.070500  0.204900  1.0  0.1061
  H  H197  1  0.434700  0.066400  0.949000  1.0  0.0804
  H  H198  1  0.471200  0.070500  0.866500  1.0  0.13
  H  H199  1  0.469900  0.255000  0.684300  1.0  0.1064
  H  H200  1  0.431900  0.334100  0.681000  1.0  0.1249
  H  H201  1  0.126200  0.940100  0.214800  1.0  0.0973
  H  H202  1  0.133400  0.857000  0.251100  1.0  0.1141
  H  H203  1  0.125100  0.857400  0.374400  1.0  0.1072
  H  H204  1  0.117700  0.939800  0.338700  1.0  0.1061
  H  H205  1  0.132300  0.634300  0.472500  1.0  0.123
  H  H206  1  0.120100  0.601600  0.556500  1.0  0.1073
  H  H207  1  0.943700  0.725000  0.727500  1.0  0.1207
  H  H208  1  0.862700  0.763800  0.730200  1.0  0.1056
  H  H209  1  0.079300  0.249000  0.083700  1.0  0.0943
  H  H210  1  0.070200  0.330500  0.045900  1.0  0.0993
  H  H211  1  0.060100  0.335700  0.168300  1.0  0.1159
  H  H212  1  0.070500  0.253600  0.204900  1.0  0.1054
  H  H213  1  0.066400  0.549900  0.949000  1.0  0.0829
  H  H214  1  0.070500  0.591800  0.866500  1.0  0.1302
  H  H215  1  0.255000  0.590800  0.684300  1.0  0.1068
  H  H216  1  0.334100  0.553000  0.681000  1.0  0.1246
  C  C217  1  0.995270  0.364370  0.751990  1.0  0.7128
  C  C218  1  0.049430  0.341930  0.728110  1.0  -0.1256
  C  C219  1  0.075950  0.296950  0.752350  1.0  -0.0369
  C  C220  1  0.126470  0.272770  0.730690  1.0  -0.105
  C  C221  1  0.150590  0.295690  0.683230  1.0  0.0665
  C  C222  1  0.125890  0.341090  0.658030  1.0  -0.0649
  C  C223  1  0.076270  0.364670  0.679390  1.0  -0.0611
  C  C224  1  0.202510  0.272010  0.656770  1.0  0.3447
  C  C225  1  0.347840  0.270740  0.511180  1.0  -0.1087
  C  C226  1  0.366650  0.294150  0.461650  1.0  -0.0705
  C  C227  1  0.291450  0.363850  0.272050  1.0  -0.0534
  C  C228  1  0.268740  0.340340  0.269680  1.0  -0.0164
  C  C229  1  0.812040  0.440940  0.829480  1.0  0.7126
  C  C230  1  0.757540  0.465140  0.852280  1.0  -0.1645
  C  C231  1  0.733540  0.442940  0.898780  1.0  -0.0593
  C  C232  1  0.684760  0.463660  0.921520  1.0  -0.0886
  C  C233  1  0.657370  0.508870  0.897790  1.0  -0.1067
  C  C234  1  0.681580  0.533080  0.849460  1.0  -0.0605
  C  C235  1  0.730470  0.511870  0.827590  1.0  -0.0496
  C  C236  1  0.603540  0.537740  0.921280  1.0  0.2484
  C  C237  1  0.466410  0.533010  0.067770  1.0  -0.0411
  C  C238  1  0.440540  0.511440  0.118080  1.0  -0.15
  C  C239  1  0.441610  0.513110  0.316270  1.0  -0.0325
  C  C240  1  0.463090  0.535290  0.319630  1.0  -0.0693
  C  C241  1  0.364370  0.888370  0.751990  1.0  0.7125
  C  C242  1  0.341930  0.880530  0.728110  1.0  -0.127
  C  C243  1  0.296950  0.874750  0.752350  1.0  -0.0363
  C  C244  1  0.272770  0.870070  0.730690  1.0  -0.1033
  C  C245  1  0.295690  0.870490  0.683230  1.0  0.0667
  C  C246  1  0.341090  0.874990  0.658030  1.0  -0.0673
  C  C247  1  0.364670  0.879670  0.679390  1.0  -0.0649
  C  C248  1  0.272010  0.868710  0.656770  1.0  0.3523
  C  C249  1  0.270740  0.870240  0.511180  1.0  -0.1109
  C  C250  1  0.294150  0.877550  0.461650  1.0  -0.0687
  C  C251  1  0.363850  0.072650  0.272050  1.0  -0.056
  C  C252  1  0.340340  0.121240  0.269680  1.0  -0.0196
  C  C253  1  0.440940  0.917540  0.829480  1.0  0.7143
  C  C254  1  0.465140  0.925040  0.852280  1.0  -0.1662
  C  C255  1  0.442940  0.924740  0.898780  1.0  -0.0516
  C  C256  1  0.463660  0.930060  0.921520  1.0  -0.0834
  C  C257  1  0.508870  0.935970  0.897790  1.0  -0.1064
  C  C258  1  0.533080  0.935880  0.849460  1.0  -0.0572
  C  C259  1  0.511870  0.930070  0.827590  1.0  -0.0516
  C  C260  1  0.537740  0.937440  0.921280  1.0  0.2511
  C  C261  1  0.533010  0.932810  0.067770  1.0  -0.0381
  C  C262  1  0.511440  0.929940  0.118080  1.0  -0.151
  C  C263  1  0.513110  0.729010  0.316270  1.0  -0.031
  C  C264  1  0.535290  0.681990  0.319630  1.0  -0.0689
  C  C265  1  0.888370  0.995270  0.751990  1.0  0.7181
  C  C266  1  0.880530  0.049430  0.728110  1.0  -0.1211
  C  C267  1  0.874750  0.075950  0.752350  1.0  -0.0355
  C  C268  1  0.870070  0.126470  0.730690  1.0  -0.1076
  C  C269  1  0.870490  0.150590  0.683230  1.0  0.0692
  C  C270  1  0.874990  0.125890  0.658030  1.0  -0.0713
  C  C271  1  0.879670  0.076270  0.679390  1.0  -0.0657
  C  C272  1  0.868710  0.202510  0.656770  1.0  0.3489
  C  C273  1  0.870240  0.347840  0.511180  1.0  -0.1119
  C  C274  1  0.877550  0.366650  0.461650  1.0  -0.0705
  C  C275  1  0.072650  0.291450  0.272050  1.0  -0.0647
  C  C276  1  0.121240  0.268740  0.269680  1.0  -0.0191
  C  C277  1  0.917540  0.812040  0.829480  1.0  0.7185
  C  C278  1  0.925040  0.757540  0.852280  1.0  -0.1556
  C  C279  1  0.924740  0.733540  0.898780  1.0  -0.0621
  C  C280  1  0.930060  0.684760  0.921520  1.0  -0.0923
  C  C281  1  0.935970  0.657370  0.897790  1.0  -0.1025
  C  C282  1  0.935880  0.681580  0.849460  1.0  -0.057
  C  C283  1  0.930070  0.730470  0.827590  1.0  -0.0505
  C  C284  1  0.937440  0.603540  0.921280  1.0  0.2561
  C  C285  1  0.932810  0.466410  0.067770  1.0  -0.0452
  C  C286  1  0.929940  0.440540  0.118080  1.0  -0.1559
  C  C287  1  0.729010  0.441610  0.316270  1.0  -0.0361
  C  C288  1  0.681990  0.463090  0.319630  1.0  -0.0683
  C  C289  1  0.995270  0.888370  0.751990  1.0  0.7168
  C  C290  1  0.049430  0.880530  0.728110  1.0  -0.1207
  C  C291  1  0.075950  0.874750  0.752350  1.0  -0.0345
  C  C292  1  0.126470  0.870070  0.730690  1.0  -0.1081
  C  C293  1  0.150590  0.870490  0.683230  1.0  0.0689
  C  C294  1  0.125890  0.874990  0.658030  1.0  -0.0712
  C  C295  1  0.076270  0.879670  0.679390  1.0  -0.0667
  C  C296  1  0.202510  0.868710  0.656770  1.0  0.3463
  C  C297  1  0.347840  0.870240  0.511180  1.0  -0.1103
  C  C298  1  0.366650  0.877550  0.461650  1.0  -0.065
  C  C299  1  0.291450  0.072650  0.272050  1.0  -0.063
  C  C300  1  0.268740  0.121240  0.269680  1.0  -0.0203
  C  C301  1  0.812040  0.917540  0.829480  1.0  0.7176
  C  C302  1  0.757540  0.925040  0.852280  1.0  -0.155
  C  C303  1  0.733540  0.924740  0.898780  1.0  -0.0609
  C  C304  1  0.684760  0.930060  0.921520  1.0  -0.0934
  C  C305  1  0.657370  0.935970  0.897790  1.0  -0.1014
  C  C306  1  0.681580  0.935880  0.849460  1.0  -0.0561
  C  C307  1  0.730470  0.930070  0.827590  1.0  -0.0496
  C  C308  1  0.603540  0.937440  0.921280  1.0  0.2553
  C  C309  1  0.466410  0.932810  0.067770  1.0  -0.0514
  C  C310  1  0.440540  0.929940  0.118080  1.0  -0.1552
  C  C311  1  0.441610  0.729010  0.316270  1.0  -0.0333
  C  C312  1  0.463090  0.681990  0.319630  1.0  -0.0657
  C  C313  1  0.364370  0.995270  0.751990  1.0  0.7137
  C  C314  1  0.341930  0.049430  0.728110  1.0  -0.1255
  C  C315  1  0.296950  0.075950  0.752350  1.0  -0.0342
  C  C316  1  0.272770  0.126470  0.730690  1.0  -0.1055
  C  C317  1  0.295690  0.150590  0.683230  1.0  0.0671
  C  C318  1  0.341090  0.125890  0.658030  1.0  -0.063
  C  C319  1  0.364670  0.076270  0.679390  1.0  -0.0617
  C  C320  1  0.272010  0.202510  0.656770  1.0  0.3467
  C  C321  1  0.270740  0.347840  0.511180  1.0  -0.1093
  C  C322  1  0.294150  0.366650  0.461650  1.0  -0.0731
  C  C323  1  0.363850  0.291450  0.272050  1.0  -0.0598
  C  C324  1  0.340340  0.268740  0.269680  1.0  -0.022
  C  C325  1  0.440940  0.812040  0.829480  1.0  0.7131
  C  C326  1  0.465140  0.757540  0.852280  1.0  -0.1643
  C  C327  1  0.442940  0.733540  0.898780  1.0  -0.0548
  C  C328  1  0.463660  0.684760  0.921520  1.0  -0.0869
  C  C329  1  0.508870  0.657370  0.897790  1.0  -0.106
  C  C330  1  0.533080  0.681580  0.849460  1.0  -0.0568
  C  C331  1  0.511870  0.730470  0.827590  1.0  -0.0498
  C  C332  1  0.537740  0.603540  0.921280  1.0  0.2487
  C  C333  1  0.533010  0.466410  0.067770  1.0  -0.0463
  C  C334  1  0.511440  0.440540  0.118080  1.0  -0.1516
  C  C335  1  0.513110  0.441610  0.316270  1.0  -0.0353
  C  C336  1  0.535290  0.463090  0.319630  1.0  -0.0665
  C  C337  1  0.888370  0.364370  0.751990  1.0  0.7125
  C  C338  1  0.880530  0.341930  0.728110  1.0  -0.1277
  C  C339  1  0.874750  0.296950  0.752350  1.0  -0.0397
  C  C340  1  0.870070  0.272770  0.730690  1.0  -0.1031
  C  C341  1  0.870490  0.295690  0.683230  1.0  0.0661
  C  C342  1  0.874990  0.341090  0.658030  1.0  -0.0698
  C  C343  1  0.879670  0.364670  0.679390  1.0  -0.064
  C  C344  1  0.868710  0.272010  0.656770  1.0  0.3523
  C  C345  1  0.870240  0.270740  0.511180  1.0  -0.1091
  C  C346  1  0.877550  0.294150  0.461650  1.0  -0.0718
  C  C347  1  0.072650  0.363850  0.272050  1.0  -0.0556
  C  C348  1  0.121240  0.340340  0.269680  1.0  -0.0225
  C  C349  1  0.917540  0.440940  0.829480  1.0  0.7156
  C  C350  1  0.925040  0.465140  0.852280  1.0  -0.1657
  C  C351  1  0.924740  0.442940  0.898780  1.0  -0.0575
  C  C352  1  0.930060  0.463660  0.921520  1.0  -0.0869
  C  C353  1  0.935970  0.508870  0.897790  1.0  -0.105
  C  C354  1  0.935880  0.533080  0.849460  1.0  -0.0619
  C  C355  1  0.930070  0.511870  0.827590  1.0  -0.0544
  C  C356  1  0.937440  0.537740  0.921280  1.0  0.2538
  C  C357  1  0.932810  0.533010  0.067770  1.0  -0.0454
  C  C358  1  0.929940  0.511440  0.118080  1.0  -0.1492
  C  C359  1  0.729010  0.513110  0.316270  1.0  -0.0332
  C  C360  1  0.681990  0.535290  0.319630  1.0  -0.0678
  C  C361  1  0.270350  0.270350  0.592600  1.0  0.3761
  C  C362  1  0.298240  0.298240  0.536830  1.0  -0.1752
  C  C363  1  0.340160  0.340160  0.438070  1.0  -0.0993
  C  C364  1  0.364850  0.364850  0.382900  1.0  0.6918
  C  C365  1  0.363420  0.363420  0.278740  1.0  0.6724
  C  C366  1  0.338880  0.338880  0.273910  1.0  -0.1132
  C  C367  1  0.292900  0.292900  0.267250  1.0  -0.1216
  C  C368  1  0.267420  0.267420  0.265240  1.0  0.4337
  C  C369  1  0.441490  0.441490  0.303580  1.0  0.7049
  C  C370  1  0.465210  0.465210  0.313570  1.0  -0.1285
  C  C371  1  0.509620  0.509620  0.324040  1.0  -0.048
  C  C372  1  0.535060  0.535060  0.328270  1.0  0.4296
  C  C373  1  0.270350  0.866700  0.592600  1.0  0.3806
  C  C374  1  0.298240  0.866690  0.536830  1.0  -0.1758
  C  C375  1  0.340160  0.881610  0.438070  1.0  -0.1041
  C  C376  1  0.364850  0.887400  0.382900  1.0  0.695
  C  C377  1  0.363420  0.994420  0.278740  1.0  0.6718
  C  C378  1  0.338880  0.048330  0.273910  1.0  -0.1114
  C  C379  1  0.292900  0.146950  0.267250  1.0  -0.113
  C  C380  1  0.267420  0.199920  0.265240  1.0  0.4363
  C  C381  1  0.441490  0.813440  0.303580  1.0  0.7064
  C  C382  1  0.465210  0.756010  0.313570  1.0  -0.1299
  C  C383  1  0.509620  0.656720  0.324040  1.0  -0.0457
  C  C384  1  0.535060  0.601610  0.328270  1.0  0.4281
  C  C385  1  0.866700  0.270350  0.592600  1.0  0.3819
  C  C386  1  0.866690  0.298240  0.536830  1.0  -0.1764
  C  C387  1  0.881610  0.340160  0.438070  1.0  -0.1043
  C  C388  1  0.887400  0.364850  0.382900  1.0  0.6949
  C  C389  1  0.994420  0.363420  0.278740  1.0  0.6711
  C  C390  1  0.048330  0.338880  0.273910  1.0  -0.1122
  C  C391  1  0.146950  0.292900  0.267250  1.0  -0.1153
  C  C392  1  0.199920  0.267420  0.265240  1.0  0.435
  C  C393  1  0.813440  0.441490  0.303580  1.0  0.7056
  C  C394  1  0.756010  0.465210  0.313570  1.0  -0.1293
  C  C395  1  0.656720  0.509620  0.324040  1.0  -0.0478
  C  C396  1  0.601610  0.535060  0.328270  1.0  0.4283
  C  C397  1  0.537180  0.537180  0.991060  1.0  0.377
  C  C398  1  0.511090  0.511090  0.043530  1.0  0.0647
  C  C399  1  0.464490  0.464490  0.143130  1.0  -0.0627
  C  C400  1  0.440960  0.440960  0.199020  1.0  0.6583
  C  C401  1  0.537180  0.934580  0.991060  1.0  0.3795
  C  C402  1  0.511090  0.934290  0.043530  1.0  0.0725
  C  C403  1  0.464490  0.927890  0.143130  1.0  -0.0585
  C  C404  1  0.440960  0.919060  0.199020  1.0  0.6611
  C  C405  1  0.934580  0.537180  0.991060  1.0  0.3814
  C  C406  1  0.934290  0.511090  0.043530  1.0  0.0674
  C  C407  1  0.927890  0.464490  0.143130  1.0  -0.0572
  C  C408  1  0.919060  0.440960  0.199020  1.0  0.6649
  C  C409  1  0.004730  0.111630  0.248010  1.0  0.7162
  C  C410  1  0.950570  0.119470  0.271890  1.0  -0.119
  C  C411  1  0.924050  0.125250  0.247650  1.0  -0.0348
  C  C412  1  0.873530  0.129930  0.269310  1.0  -0.1083
  C  C413  1  0.849410  0.129510  0.316770  1.0  0.0684
  C  C414  1  0.874110  0.125010  0.341970  1.0  -0.0691
  C  C415  1  0.923730  0.120330  0.320610  1.0  -0.0668
  C  C416  1  0.797490  0.131290  0.343230  1.0  0.3503
  C  C417  1  0.652160  0.129760  0.488820  1.0  -0.1076
  C  C418  1  0.633350  0.122450  0.538350  1.0  -0.0652
  C  C419  1  0.708550  0.927350  0.727950  1.0  -0.0615
  C  C420  1  0.731260  0.878760  0.730320  1.0  -0.0177
  C  C421  1  0.187960  0.082460  0.170520  1.0  0.7169
  C  C422  1  0.242460  0.074960  0.147720  1.0  -0.1576
  C  C423  1  0.266460  0.075260  0.101220  1.0  -0.0608
  C  C424  1  0.315240  0.069940  0.078480  1.0  -0.0926
  C  C425  1  0.342630  0.064030  0.102210  1.0  -0.1015
  C  C426  1  0.318420  0.064120  0.150540  1.0  -0.0564
  C  C427  1  0.269530  0.069930  0.172410  1.0  -0.0497
  C  C428  1  0.396460  0.062560  0.078720  1.0  0.2552
  C  C429  1  0.533590  0.067190  0.932230  1.0  -0.0433
  C  C430  1  0.559460  0.070060  0.881920  1.0  -0.1549
  C  C431  1  0.558390  0.270990  0.683730  1.0  -0.0319
  C  C432  1  0.536910  0.318010  0.680370  1.0  -0.0684
  C  C433  1  0.635630  0.004730  0.248010  1.0  0.7138
  C  C434  1  0.658070  0.950570  0.271890  1.0  -0.126
  C  C435  1  0.703050  0.924050  0.247650  1.0  -0.0354
  C  C436  1  0.727230  0.873530  0.269310  1.0  -0.1048
  C  C437  1  0.704310  0.849410  0.316770  1.0  0.0671
  C  C438  1  0.658910  0.874110  0.341970  1.0  -0.0629
  C  C439  1  0.635330  0.923730  0.320610  1.0  -0.0606
  C  C440  1  0.727990  0.797490  0.343230  1.0  0.3475
  C  C441  1  0.729260  0.652160  0.488820  1.0  -0.1073
  C  C442  1  0.705850  0.633350  0.538350  1.0  -0.0724
  C  C443  1  0.636150  0.708550  0.727950  1.0  -0.0576
  C  C444  1  0.659660  0.731260  0.730320  1.0  -0.018
  C  C445  1  0.559060  0.187960  0.170520  1.0  0.7132
  C  C446  1  0.534860  0.242460  0.147720  1.0  -0.1641
  C  C447  1  0.557060  0.266460  0.101220  1.0  -0.0552
  C  C448  1  0.536340  0.315240  0.078480  1.0  -0.0866
  C  C449  1  0.491130  0.342630  0.102210  1.0  -0.105
  C  C450  1  0.466920  0.318420  0.150540  1.0  -0.0557
  C  C451  1  0.488130  0.269530  0.172410  1.0  -0.0489
  C  C452  1  0.462260  0.396460  0.078720  1.0  0.2473
  C  C453  1  0.466990  0.533590  0.932230  1.0  -0.0406
  C  C454  1  0.488560  0.559460  0.881920  1.0  -0.1511
  C  C455  1  0.486890  0.558390  0.683730  1.0  -0.035
  C  C456  1  0.464710  0.536910  0.680370  1.0  -0.068
  C  C457  1  0.111630  0.635630  0.248010  1.0  0.7125
  C  C458  1  0.119470  0.658070  0.271890  1.0  -0.1283
  C  C459  1  0.125250  0.703050  0.247650  1.0  -0.04
  C  C460  1  0.129930  0.727230  0.269310  1.0  -0.1051
  C  C461  1  0.129510  0.704310  0.316770  1.0  0.0674
  C  C462  1  0.125010  0.658910  0.341970  1.0  -0.0681
  C  C463  1  0.120330  0.635330  0.320610  1.0  -0.0624
  C  C464  1  0.131290  0.727990  0.343230  1.0  0.3523
  C  C465  1  0.129760  0.729260  0.488820  1.0  -0.1078
  C  C466  1  0.122450  0.705850  0.538350  1.0  -0.0718
  C  C467  1  0.927350  0.636150  0.727950  1.0  -0.056
  C  C468  1  0.878760  0.659660  0.730320  1.0  -0.0188
  C  C469  1  0.082460  0.559060  0.170520  1.0  0.7145
  C  C470  1  0.074960  0.534860  0.147720  1.0  -0.1644
  C  C471  1  0.075260  0.557060  0.101220  1.0  -0.0561
  C  C472  1  0.069940  0.536340  0.078480  1.0  -0.086
  C  C473  1  0.064030  0.491130  0.102210  1.0  -0.103
  C  C474  1  0.064120  0.466920  0.150540  1.0  -0.062
  C  C475  1  0.069930  0.488130  0.172410  1.0  -0.0539
  C  C476  1  0.062560  0.462260  0.078720  1.0  0.2548
  C  C477  1  0.067190  0.466990  0.932230  1.0  -0.0367
  C  C478  1  0.070060  0.488560  0.881920  1.0  -0.149
  C  C479  1  0.270990  0.486890  0.683730  1.0  -0.0328
  C  C480  1  0.318010  0.464710  0.680370  1.0  -0.067
  C  C481  1  0.004730  0.635630  0.248010  1.0  0.7118
  C  C482  1  0.950570  0.658070  0.271890  1.0  -0.1252
  C  C483  1  0.924050  0.703050  0.247650  1.0  -0.039
  C  C484  1  0.873530  0.727230  0.269310  1.0  -0.1069
  C  C485  1  0.849410  0.704310  0.316770  1.0  0.0667
  C  C486  1  0.874110  0.658910  0.341970  1.0  -0.0636
  C  C487  1  0.923730  0.635330  0.320610  1.0  -0.0599
  C  C488  1  0.797490  0.727990  0.343230  1.0  0.3482
  C  C489  1  0.652160  0.729260  0.488820  1.0  -0.1079
  C  C490  1  0.633350  0.705850  0.538350  1.0  -0.0717
  C  C491  1  0.708550  0.636150  0.727950  1.0  -0.0533
  C  C492  1  0.731260  0.659660  0.730320  1.0  -0.0201
  C  C493  1  0.187960  0.559060  0.170520  1.0  0.7123
  C  C494  1  0.242460  0.534860  0.147720  1.0  -0.165
  C  C495  1  0.266460  0.557060  0.101220  1.0  -0.0573
  C  C496  1  0.315240  0.536340  0.078480  1.0  -0.0874
  C  C497  1  0.342630  0.491130  0.102210  1.0  -0.1057
  C  C498  1  0.318420  0.466920  0.150540  1.0  -0.0589
  C  C499  1  0.269530  0.488130  0.172410  1.0  -0.0509
  C  C500  1  0.396460  0.462260  0.078720  1.0  0.2496
  C  C501  1  0.533590  0.466990  0.932230  1.0  -0.0492
  C  C502  1  0.559460  0.488560  0.881920  1.0  -0.152
  C  C503  1  0.558390  0.486890  0.683730  1.0  -0.0335
  C  C504  1  0.536910  0.464710  0.680370  1.0  -0.0657
  C  C505  1  0.635630  0.111630  0.248010  1.0  0.7124
  C  C506  1  0.658070  0.119470  0.271890  1.0  -0.1279
  C  C507  1  0.703050  0.125250  0.247650  1.0  -0.0366
  C  C508  1  0.727230  0.129930  0.269310  1.0  -0.1034
  C  C509  1  0.704310  0.129510  0.316770  1.0  0.0678
  C  C510  1  0.658910  0.125010  0.341970  1.0  -0.0661
  C  C511  1  0.635330  0.120330  0.320610  1.0  -0.0608
  C  C512  1  0.727990  0.131290  0.343230  1.0  0.3523
  C  C513  1  0.729260  0.129760  0.488820  1.0  -0.108
  C  C514  1  0.705850  0.122450  0.538350  1.0  -0.0695
  C  C515  1  0.636150  0.927350  0.727950  1.0  -0.0566
  C  C516  1  0.659660  0.878760  0.730320  1.0  -0.0215
  C  C517  1  0.559060  0.082460  0.170520  1.0  0.7145
  C  C518  1  0.534860  0.074960  0.147720  1.0  -0.1665
  C  C519  1  0.557060  0.075260  0.101220  1.0  -0.0502
  C  C520  1  0.536340  0.069940  0.078480  1.0  -0.0827
  C  C521  1  0.491130  0.064030  0.102210  1.0  -0.1042
  C  C522  1  0.466920  0.064120  0.150540  1.0  -0.0601
  C  C523  1  0.488130  0.069930  0.172410  1.0  -0.0512
  C  C524  1  0.462260  0.062560  0.078720  1.0  0.2531
  C  C525  1  0.466990  0.067190  0.932230  1.0  -0.0465
  C  C526  1  0.488560  0.070060  0.881920  1.0  -0.1518
  C  C527  1  0.486890  0.270990  0.683730  1.0  -0.0329
  C  C528  1  0.464710  0.318010  0.680370  1.0  -0.0658
  C  C529  1  0.111630  0.004730  0.248010  1.0  0.7186
  C  C530  1  0.119470  0.950570  0.271890  1.0  -0.1212
  C  C531  1  0.125250  0.924050  0.247650  1.0  -0.0355
  C  C532  1  0.129930  0.873530  0.269310  1.0  -0.1068
  C  C533  1  0.129510  0.849410  0.316770  1.0  0.0687
  C  C534  1  0.125010  0.874110  0.341970  1.0  -0.0705
  C  C535  1  0.120330  0.923730  0.320610  1.0  -0.0666
  C  C536  1  0.131290  0.797490  0.343230  1.0  0.3496
  C  C537  1  0.129760  0.652160  0.488820  1.0  -0.1089
  C  C538  1  0.122450  0.633350  0.538350  1.0  -0.0716
  C  C539  1  0.927350  0.708550  0.727950  1.0  -0.065
  C  C540  1  0.878760  0.731260  0.730320  1.0  -0.0206
  C  C541  1  0.082460  0.187960  0.170520  1.0  0.7192
  C  C542  1  0.074960  0.242460  0.147720  1.0  -0.1553
  C  C543  1  0.075260  0.266460  0.101220  1.0  -0.06
  C  C544  1  0.069940  0.315240  0.078480  1.0  -0.0937
  C  C545  1  0.064030  0.342630  0.102210  1.0  -0.1009
  C  C546  1  0.064120  0.318420  0.150540  1.0  -0.0568
  C  C547  1  0.069930  0.269530  0.172410  1.0  -0.0498
  C  C548  1  0.062560  0.396460  0.078720  1.0  0.2549
  C  C549  1  0.067190  0.533590  0.932230  1.0  -0.0509
  C  C550  1  0.070060  0.559460  0.881920  1.0  -0.1546
  C  C551  1  0.270990  0.558390  0.683730  1.0  -0.0389
  C  C552  1  0.318010  0.536910  0.680370  1.0  -0.0675
  C  C553  1  0.729650  0.133300  0.407400  1.0  0.3791
  C  C554  1  0.701760  0.133310  0.463170  1.0  -0.1757
  C  C555  1  0.659840  0.118390  0.561930  1.0  -0.1033
  C  C556  1  0.635150  0.112600  0.617100  1.0  0.6949
  C  C557  1  0.636580  0.005580  0.721260  1.0  0.672
  C  C558  1  0.661120  0.951670  0.726090  1.0  -0.1105
  C  C559  1  0.707100  0.853050  0.732750  1.0  -0.1121
  C  C560  1  0.732580  0.800080  0.734760  1.0  0.4358
  C  C561  1  0.558510  0.186560  0.696420  1.0  0.7064
  C  C562  1  0.534790  0.243990  0.686430  1.0  -0.1295
  C  C563  1  0.490380  0.343280  0.675960  1.0  -0.0457
  C  C564  1  0.464940  0.398390  0.671730  1.0  0.429
  C  C565  1  0.729650  0.729650  0.407400  1.0  0.3751
  C  C566  1  0.701760  0.701760  0.463170  1.0  -0.1755
  C  C567  1  0.659840  0.659840  0.561930  1.0  -0.0983
  C  C568  1  0.635150  0.635150  0.617100  1.0  0.6912
  C  C569  1  0.636580  0.636580  0.721260  1.0  0.6735
  C  C570  1  0.661120  0.661120  0.726090  1.0  -0.1116
  C  C571  1  0.707100  0.707100  0.732750  1.0  -0.1208
  C  C572  1  0.732580  0.732580  0.734760  1.0  0.4334
  C  C573  1  0.558510  0.558510  0.696420  1.0  0.7036
  C  C574  1  0.534790  0.534790  0.686430  1.0  -0.1287
  C  C575  1  0.490380  0.490380  0.675960  1.0  -0.0481
  C  C576  1  0.464940  0.464940  0.671730  1.0  0.4294
  C  C577  1  0.133300  0.729650  0.407400  1.0  0.3804
  C  C578  1  0.133310  0.701760  0.463170  1.0  -0.1759
  C  C579  1  0.118390  0.659840  0.561930  1.0  -0.1035
  C  C580  1  0.112600  0.635150  0.617100  1.0  0.6947
  C  C581  1  0.005580  0.636580  0.721260  1.0  0.6699
  C  C582  1  0.951670  0.661120  0.726090  1.0  -0.1115
  C  C583  1  0.853050  0.707100  0.732750  1.0  -0.1169
  C  C584  1  0.800080  0.732580  0.734760  1.0  0.4347
  C  C585  1  0.186560  0.558510  0.696420  1.0  0.7062
  C  C586  1  0.243990  0.534790  0.686430  1.0  -0.1297
  C  C587  1  0.343280  0.490380  0.675960  1.0  -0.046
  C  C588  1  0.398390  0.464940  0.671730  1.0  0.4267
  C  C589  1  0.462820  0.065420  0.008940  1.0  0.38
  C  C590  1  0.488910  0.065710  0.956470  1.0  0.0699
  C  C591  1  0.535510  0.072110  0.856870  1.0  -0.0567
  C  C592  1  0.559040  0.080940  0.800980  1.0  0.6608
  C  C593  1  0.462820  0.462820  0.008940  1.0  0.3763
  C  C594  1  0.488910  0.488910  0.956470  1.0  0.0649
  C  C595  1  0.535510  0.535510  0.856870  1.0  -0.0649
  C  C596  1  0.559040  0.559040  0.800980  1.0  0.6573
  C  C597  1  0.065420  0.462820  0.008940  1.0  0.3806
  C  C598  1  0.065710  0.488910  0.956470  1.0  0.0666
  C  C599  1  0.072110  0.535510  0.856870  1.0  -0.058
  C  C600  1  0.080940  0.559040  0.800980  1.0  0.6659
  N  N601  1  0.224090  0.295690  0.612130  1.0  -0.2923
  N  N602  1  0.583250  0.511720  0.969640  1.0  -0.3292
  N  N603  1  0.295690  0.868090  0.612130  1.0  -0.2925
  N  N604  1  0.511720  0.935390  0.969640  1.0  -0.3321
  N  N605  1  0.868090  0.224090  0.612130  1.0  -0.297
  N  N606  1  0.935390  0.583250  0.969640  1.0  -0.3432
  N  N607  1  0.224090  0.868090  0.612130  1.0  -0.2964
  N  N608  1  0.583250  0.935390  0.969640  1.0  -0.3468
  N  N609  1  0.295690  0.224090  0.612130  1.0  -0.2911
  N  N610  1  0.511720  0.583250  0.969640  1.0  -0.3324
  N  N611  1  0.868090  0.295690  0.612130  1.0  -0.2919
  N  N612  1  0.935390  0.511720  0.969640  1.0  -0.3291
  N  N613  1  0.221560  0.291940  0.264940  1.0  -0.4618
  N  N614  1  0.291940  0.221560  0.264940  1.0  -0.4619
  N  N615  1  0.221560  0.221560  0.264940  1.0  -0.4629
  N  N616  1  0.226000  0.226000  0.680500  1.0  -0.4451
  N  N617  1  0.226000  0.867500  0.680500  1.0  -0.4451
  N  N618  1  0.867500  0.226000  0.680500  1.0  -0.4461
  N  N619  1  0.583400  0.583400  0.895750  1.0  -0.3713
  N  N620  1  0.583400  0.937450  0.895750  1.0  -0.3772
  N  N621  1  0.937450  0.583400  0.895750  1.0  -0.3777
  N  N622  1  0.580940  0.510630  0.327490  1.0  -0.4328
  N  N623  1  0.510630  0.580940  0.327490  1.0  -0.4331
  N  N624  1  0.580940  0.580940  0.327490  1.0  -0.4197
  N  N625  1  0.775910  0.131910  0.387870  1.0  -0.2937
  N  N626  1  0.416750  0.064610  0.030360  1.0  -0.3482
  N  N627  1  0.704310  0.775910  0.387870  1.0  -0.2886
  N  N628  1  0.488280  0.416750  0.030360  1.0  -0.3334
  N  N629  1  0.131910  0.704310  0.387870  1.0  -0.2914
  N  N630  1  0.064610  0.488280  0.030360  1.0  -0.33
  N  N631  1  0.775910  0.704310  0.387870  1.0  -0.29
  N  N632  1  0.416750  0.488280  0.030360  1.0  -0.3286
  N  N633  1  0.704310  0.131910  0.387870  1.0  -0.2907
  N  N634  1  0.488280  0.064610  0.030360  1.0  -0.3362
  N  N635  1  0.131910  0.775910  0.387870  1.0  -0.2956
  N  N636  1  0.064610  0.416750  0.030360  1.0  -0.3464
  N  N637  1  0.778440  0.778440  0.735060  1.0  -0.4622
  N  N638  1  0.708060  0.778440  0.735060  1.0  -0.4624
  N  N639  1  0.778440  0.708060  0.735060  1.0  -0.462
  N  N640  1  0.774000  0.132500  0.319500  1.0  -0.4452
  N  N641  1  0.774000  0.774000  0.319500  1.0  -0.4475
  N  N642  1  0.132500  0.774000  0.319500  1.0  -0.4474
  N  N643  1  0.416600  0.062550  0.104250  1.0  -0.3768
  N  N644  1  0.416600  0.416600  0.104250  1.0  -0.3725
  N  N645  1  0.062550  0.416600  0.104250  1.0  -0.3766
  N  N646  1  0.419060  0.419060  0.672510  1.0  -0.4193
  N  N647  1  0.489370  0.419060  0.672510  1.0  -0.4339
  N  N648  1  0.419060  0.489370  0.672510  1.0  -0.4323
  O  O649  1  0.975280  0.339220  0.794500  1.0  -0.5663
  O  O650  1  0.974850  0.406680  0.726580  1.0  -0.5647
  O  O651  1  0.340430  0.407890  0.362440  1.0  -0.5747
  O  O652  1  0.338910  0.407010  0.280480  1.0  -0.5708
  O  O653  1  0.832110  0.398770  0.853630  1.0  -0.5624
  O  O654  1  0.832520  0.466720  0.785620  1.0  -0.5762
  O  O655  1  0.398190  0.466460  0.218400  1.0  -0.5622
  O  O656  1  0.399550  0.467430  0.300730  1.0  -0.5543
  O  O657  1  0.339220  0.891000  0.794500  1.0  -0.5641
  O  O658  1  0.406680  0.891890  0.726580  1.0  -0.5667
  O  O659  1  0.407890  0.889240  0.362440  1.0  -0.5737
  O  O660  1  0.407010  0.973600  0.280480  1.0  -0.5634
  O  O661  1  0.398770  0.915490  0.853630  1.0  -0.5624
  O  O662  1  0.466720  0.915140  0.785620  1.0  -0.5773
  O  O663  1  0.466460  0.916950  0.218400  1.0  -0.5629
  O  O664  1  0.467430  0.832290  0.300730  1.0  -0.5531
  O  O665  1  0.891000  0.975280  0.794500  1.0  -0.5658
  O  O666  1  0.891890  0.974850  0.726580  1.0  -0.565
  O  O667  1  0.889240  0.340430  0.362440  1.0  -0.5724
  O  O668  1  0.973600  0.338910  0.280480  1.0  -0.5623
  O  O669  1  0.915490  0.832110  0.853630  1.0  -0.5638
  O  O670  1  0.915140  0.832520  0.785620  1.0  -0.5779
  O  O671  1  0.916950  0.398190  0.218400  1.0  -0.5631
  O  O672  1  0.832290  0.399550  0.300730  1.0  -0.5562
  O  O673  1  0.975280  0.891000  0.794500  1.0  -0.5678
  O  O674  1  0.974850  0.891890  0.726580  1.0  -0.5657
  O  O675  1  0.340430  0.889240  0.362440  1.0  -0.5711
  O  O676  1  0.338910  0.973600  0.280480  1.0  -0.5613
  O  O677  1  0.832110  0.915490  0.853630  1.0  -0.5662
  O  O678  1  0.832520  0.915140  0.785620  1.0  -0.5773
  O  O679  1  0.398190  0.916950  0.218400  1.0  -0.5614
  O  O680  1  0.399550  0.832290  0.300730  1.0  -0.5546
  O  O681  1  0.339220  0.975280  0.794500  1.0  -0.5666
  O  O682  1  0.406680  0.974850  0.726580  1.0  -0.5652
  O  O683  1  0.407890  0.340430  0.362440  1.0  -0.5738
  O  O684  1  0.407010  0.338910  0.280480  1.0  -0.5714
  O  O685  1  0.398770  0.832110  0.853630  1.0  -0.5617
  O  O686  1  0.466720  0.832520  0.785620  1.0  -0.5751
  O  O687  1  0.466460  0.398190  0.218400  1.0  -0.5643
  O  O688  1  0.467430  0.399550  0.300730  1.0  -0.5558
  O  O689  1  0.891000  0.339220  0.794500  1.0  -0.5651
  O  O690  1  0.891890  0.406680  0.726580  1.0  -0.5662
  O  O691  1  0.889240  0.407890  0.362440  1.0  -0.5731
  O  O692  1  0.973600  0.407010  0.280480  1.0  -0.5626
  O  O693  1  0.915490  0.398770  0.853630  1.0  -0.5627
  O  O694  1  0.915140  0.466720  0.785620  1.0  -0.5776
  O  O695  1  0.916950  0.466460  0.218400  1.0  -0.5626
  O  O696  1  0.832290  0.467430  0.300730  1.0  -0.5528
  O  O697  1  0.024720  0.109000  0.205500  1.0  -0.5669
  O  O698  1  0.025150  0.108110  0.273420  1.0  -0.5655
  O  O699  1  0.659570  0.110760  0.637560  1.0  -0.5721
  O  O700  1  0.661090  0.026400  0.719520  1.0  -0.5616
  O  O701  1  0.167890  0.084510  0.146370  1.0  -0.5668
  O  O702  1  0.167480  0.084860  0.214380  1.0  -0.5779
  O  O703  1  0.601810  0.083050  0.781600  1.0  -0.5626
  O  O704  1  0.600450  0.167710  0.699270  1.0  -0.5546
  O  O705  1  0.660780  0.024720  0.205500  1.0  -0.5664
  O  O706  1  0.593320  0.025150  0.273420  1.0  -0.5652
  O  O707  1  0.592110  0.659570  0.637560  1.0  -0.5734
  O  O708  1  0.592990  0.661090  0.719520  1.0  -0.5713
  O  O709  1  0.601230  0.167890  0.146370  1.0  -0.5632
  O  O710  1  0.533280  0.167480  0.214380  1.0  -0.5752
  O  O711  1  0.533540  0.601810  0.781600  1.0  -0.5631
  O  O712  1  0.532570  0.600450  0.699270  1.0  -0.5548
  O  O713  1  0.109000  0.660780  0.205500  1.0  -0.5642
  O  O714  1  0.108110  0.593320  0.273420  1.0  -0.5666
  O  O715  1  0.110760  0.592110  0.637560  1.0  -0.5725
  O  O716  1  0.026400  0.592990  0.719520  1.0  -0.5618
  O  O717  1  0.084510  0.601230  0.146370  1.0  -0.5629
  O  O718  1  0.084860  0.533280  0.214380  1.0  -0.577
  O  O719  1  0.083050  0.533540  0.781600  1.0  -0.5636
  O  O720  1  0.167710  0.532570  0.699270  1.0  -0.5534
  O  O721  1  0.024720  0.660780  0.205500  1.0  -0.566
  O  O722  1  0.025150  0.593320  0.273420  1.0  -0.5653
  O  O723  1  0.659570  0.592110  0.637560  1.0  -0.5742
  O  O724  1  0.661090  0.592990  0.719520  1.0  -0.5715
  O  O725  1  0.167890  0.601230  0.146370  1.0  -0.5624
  O  O726  1  0.167480  0.533280  0.214380  1.0  -0.5762
  O  O727  1  0.601810  0.533540  0.781600  1.0  -0.5625
  O  O728  1  0.600450  0.532570  0.699270  1.0  -0.5551
  O  O729  1  0.660780  0.109000  0.205500  1.0  -0.5643
  O  O730  1  0.593320  0.108110  0.273420  1.0  -0.567
  O  O731  1  0.592110  0.110760  0.637560  1.0  -0.5713
  O  O732  1  0.592990  0.026400  0.719520  1.0  -0.5617
  O  O733  1  0.601230  0.084510  0.146370  1.0  -0.5641
  O  O734  1  0.533280  0.084860  0.214380  1.0  -0.5767
  O  O735  1  0.533540  0.083050  0.781600  1.0  -0.5612
  O  O736  1  0.532570  0.167710  0.699270  1.0  -0.553
  O  O737  1  0.109000  0.024720  0.205500  1.0  -0.5649
  O  O738  1  0.108110  0.025150  0.273420  1.0  -0.5644
  O  O739  1  0.110760  0.659570  0.637560  1.0  -0.573
  O  O740  1  0.026400  0.661090  0.719520  1.0  -0.5633
  O  O741  1  0.084510  0.167890  0.146370  1.0  -0.5646
  O  O742  1  0.084860  0.167480  0.214380  1.0  -0.577
  O  O743  1  0.083050  0.601810  0.781600  1.0  -0.5639
  O  O744  1  0.167710  0.600450  0.699270  1.0  -0.556
