# generated using pymatgen
data_CrCu3H16(C12O5)3
_symmetry_space_group_name_H-M   'P 1'
_cell_length_a   46.58200000
_cell_length_b   46.58200000
_cell_length_c   21.33200000
_cell_angle_alpha   90.00000000
_cell_angle_beta   90.00000000
_cell_angle_gamma   120.00000000
_symmetry_Int_Tables_number   1
_chemical_formula_structural   CrCu3H16(C12O5)3
_chemical_formula_sum   'Cr18 Cu54 H288 C648 O270'
_cell_volume   40086.53042921
_cell_formula_units_Z   18
loop_
 _symmetry_equiv_pos_site_id
 _symmetry_equiv_pos_as_xyz
  1  'x, y, z'
loop_
 _atom_site_type_symbol
 _atom_site_label
 _atom_site_symmetry_multiplicity
 _atom_site_fract_x
 _atom_site_fract_y
 _atom_site_fract_z
 _atom_site_occupancy
 _atom_site_charge
  Cr  Cr1  1  0.610150  0.409960  0.179570  1.0  1.0507
  Cr  Cr2  1  0.590040  0.200190  0.179570  1.0  1.0444
  Cr  Cr3  1  0.799810  0.389850  0.179570  1.0  1.0482
  Cr  Cr4  1  0.389850  0.590040  0.820430  1.0  1.0543
  Cr  Cr5  1  0.409960  0.799810  0.820430  1.0  1.0567
  Cr  Cr6  1  0.200190  0.610150  0.820430  1.0  1.0555
  Cr  Cr7  1  0.276820  0.743290  0.512900  1.0  1.0507
  Cr  Cr8  1  0.256710  0.533520  0.512900  1.0  1.0446
  Cr  Cr9  1  0.466480  0.723180  0.512900  1.0  1.0482
  Cr  Cr10  1  0.056520  0.923370  0.153760  1.0  1.0526
  Cr  Cr11  1  0.076630  0.133140  0.153760  1.0  1.058
  Cr  Cr12  1  0.866860  0.943480  0.153760  1.0  1.0555
  Cr  Cr13  1  0.943480  0.076630  0.846240  1.0  1.0489
  Cr  Cr14  1  0.923370  0.866860  0.846240  1.0  1.0457
  Cr  Cr15  1  0.133140  0.056520  0.846240  1.0  1.0482
  Cr  Cr16  1  0.723180  0.256710  0.487100  1.0  1.0543
  Cr  Cr17  1  0.743290  0.466480  0.487100  1.0  1.0569
  Cr  Cr18  1  0.533520  0.276820  0.487100  1.0  1.0555
  Cu  Cu19  1  0.764970  0.735860  0.495980  1.0  0.8624
  Cu  Cu20  1  0.264140  0.029110  0.495980  1.0  0.8663
  Cu  Cu21  1  0.970890  0.235030  0.495980  1.0  0.8627
  Cu  Cu22  1  0.235030  0.264140  0.504020  1.0  0.8605
  Cu  Cu23  1  0.735860  0.970890  0.504020  1.0  0.8685
  Cu  Cu24  1  0.029110  0.764970  0.504020  1.0  0.864
  Cu  Cu25  1  0.431640  0.069190  0.829310  1.0  0.8633
  Cu  Cu26  1  0.930810  0.362440  0.829310  1.0  0.8652
  Cu  Cu27  1  0.637560  0.568360  0.829310  1.0  0.8638
  Cu  Cu28  1  0.901700  0.597470  0.837350  1.0  0.8605
  Cu  Cu29  1  0.402530  0.304220  0.837350  1.0  0.8685
  Cu  Cu30  1  0.695780  0.098300  0.837350  1.0  0.864
  Cu  Cu31  1  0.098300  0.402530  0.162650  1.0  0.8624
  Cu  Cu32  1  0.597470  0.695780  0.162650  1.0  0.8663
  Cu  Cu33  1  0.304220  0.901700  0.162650  1.0  0.8627
  Cu  Cu34  1  0.568360  0.930810  0.170690  1.0  0.8614
  Cu  Cu35  1  0.069190  0.637560  0.170690  1.0  0.8674
  Cu  Cu36  1  0.362440  0.431640  0.170690  1.0  0.8656
  Cu  Cu37  1  0.730780  0.767810  0.470300  1.0  0.945
  Cu  Cu38  1  0.232190  0.962970  0.470300  1.0  0.9481
  Cu  Cu39  1  0.037030  0.269220  0.470300  1.0  0.9466
  Cu  Cu40  1  0.269220  0.232190  0.529700  1.0  0.9413
  Cu  Cu41  1  0.767810  0.037030  0.529700  1.0  0.944
  Cu  Cu42  1  0.962970  0.730780  0.529700  1.0  0.9427
  Cu  Cu43  1  0.397450  0.101140  0.803630  1.0  0.945
  Cu  Cu44  1  0.898860  0.296300  0.803630  1.0  0.9482
  Cu  Cu45  1  0.703700  0.602550  0.803630  1.0  0.9465
  Cu  Cu46  1  0.935890  0.565520  0.863030  1.0  0.9413
  Cu  Cu47  1  0.434480  0.370360  0.863030  1.0  0.944
  Cu  Cu48  1  0.629640  0.064110  0.863030  1.0  0.9427
  Cu  Cu49  1  0.064110  0.434480  0.136970  1.0  0.945
  Cu  Cu50  1  0.565520  0.629640  0.136970  1.0  0.9481
  Cu  Cu51  1  0.370360  0.935890  0.136970  1.0  0.9466
  Cu  Cu52  1  0.602550  0.898860  0.196370  1.0  0.9412
  Cu  Cu53  1  0.101140  0.703700  0.196370  1.0  0.944
  Cu  Cu54  1  0.296300  0.397450  0.196370  1.0  0.9426
  Cu  Cu55  1  0.577300  0.444470  0.154590  1.0  0.9637
  Cu  Cu56  1  0.555530  0.132830  0.154590  1.0  0.964
  Cu  Cu57  1  0.867170  0.422700  0.154590  1.0  0.9645
  Cu  Cu58  1  0.422700  0.555530  0.845410  1.0  0.9627
  Cu  Cu59  1  0.444470  0.867170  0.845410  1.0  0.9652
  Cu  Cu60  1  0.132830  0.577300  0.845410  1.0  0.9642
  Cu  Cu61  1  0.243970  0.777800  0.487920  1.0  0.9638
  Cu  Cu62  1  0.222200  0.466160  0.487920  1.0  0.964
  Cu  Cu63  1  0.533840  0.756030  0.487920  1.0  0.9636
  Cu  Cu64  1  0.089370  0.888860  0.178740  1.0  0.9627
  Cu  Cu65  1  0.111140  0.200500  0.178740  1.0  0.9651
  Cu  Cu66  1  0.799500  0.910630  0.178740  1.0  0.9641
  Cu  Cu67  1  0.910630  0.111140  0.821260  1.0  0.9637
  Cu  Cu68  1  0.888860  0.799500  0.821260  1.0  0.9637
  Cu  Cu69  1  0.200500  0.089370  0.821260  1.0  0.9644
  Cu  Cu70  1  0.756030  0.222200  0.512080  1.0  0.9626
  Cu  Cu71  1  0.777800  0.533840  0.512080  1.0  0.9651
  Cu  Cu72  1  0.466160  0.243970  0.512080  1.0  0.9636
  H  H73  1  0.721210  0.568290  0.400760  1.0  0.1154
  H  H74  1  0.431710  0.152920  0.400760  1.0  0.1161
  H  H75  1  0.847080  0.278790  0.400760  1.0  0.1161
  H  H76  1  0.278790  0.431710  0.599240  1.0  0.115
  H  H77  1  0.568290  0.847080  0.599240  1.0  0.1149
  H  H78  1  0.152920  0.721210  0.599240  1.0  0.1148
  H  H79  1  0.387880  0.901620  0.734090  1.0  0.1154
  H  H80  1  0.098380  0.486250  0.734090  1.0  0.1161
  H  H81  1  0.513750  0.612120  0.734090  1.0  0.1161
  H  H82  1  0.945460  0.765040  0.932570  1.0  0.115
  H  H83  1  0.234960  0.180410  0.932570  1.0  0.1149
  H  H84  1  0.819590  0.054540  0.932570  1.0  0.1148
  H  H85  1  0.054540  0.234960  0.067430  1.0  0.1154
  H  H86  1  0.765040  0.819590  0.067430  1.0  0.1161
  H  H87  1  0.180410  0.945460  0.067430  1.0  0.1161
  H  H88  1  0.612120  0.098380  0.265910  1.0  0.115
  H  H89  1  0.901620  0.513750  0.265910  1.0  0.1149
  H  H90  1  0.486250  0.387880  0.265910  1.0  0.1148
  H  H91  1  0.676810  0.466080  0.332710  1.0  0.1454
  H  H92  1  0.533920  0.210730  0.332710  1.0  0.1454
  H  H93  1  0.789270  0.323190  0.332710  1.0  0.1444
  H  H94  1  0.323190  0.533920  0.667290  1.0  0.145
  H  H95  1  0.466080  0.789270  0.667290  1.0  0.1434
  H  H96  1  0.210730  0.676810  0.667290  1.0  0.1436
  H  H97  1  0.343480  0.799410  0.666040  1.0  0.1454
  H  H98  1  0.200590  0.544060  0.666040  1.0  0.1454
  H  H99  1  0.455940  0.656520  0.666040  1.0  0.1444
  H  H100  1  0.989860  0.867250  0.000620  1.0  0.1446
  H  H101  1  0.132750  0.122600  0.000620  1.0  0.1433
  H  H102  1  0.877400  0.010140  0.000620  1.0  0.1434
  H  H103  1  0.010140  0.132750  0.999380  1.0  0.1449
  H  H104  1  0.867250  0.877400  0.999380  1.0  0.1454
  H  H105  1  0.122600  0.989860  0.999380  1.0  0.1438
  H  H106  1  0.656520  0.200590  0.333960  1.0  0.145
  H  H107  1  0.799410  0.455940  0.333960  1.0  0.1434
  H  H108  1  0.544060  0.343480  0.333960  1.0  0.1436
  H  H109  1  0.643450  0.531980  0.257500  1.0  0.1052
  H  H110  1  0.468020  0.111470  0.257500  1.0  0.104
  H  H111  1  0.888530  0.356550  0.257500  1.0  0.1035
  H  H112  1  0.356550  0.468020  0.742500  1.0  0.1053
  H  H113  1  0.531980  0.888530  0.742500  1.0  0.1037
  H  H114  1  0.111470  0.643450  0.742500  1.0  0.1035
  H  H115  1  0.310120  0.865310  0.590830  1.0  0.1055
  H  H116  1  0.134690  0.444800  0.590830  1.0  0.1036
  H  H117  1  0.555200  0.689880  0.590830  1.0  0.1032
  H  H118  1  0.023220  0.801350  0.075830  1.0  0.1056
  H  H119  1  0.198650  0.221860  0.075830  1.0  0.1033
  H  H120  1  0.778140  0.976780  0.075830  1.0  0.1031
  H  H121  1  0.976780  0.198650  0.924170  1.0  0.1056
  H  H122  1  0.801350  0.778140  0.924170  1.0  0.1036
  H  H123  1  0.221860  0.023220  0.924170  1.0  0.1032
  H  H124  1  0.689880  0.134690  0.409170  1.0  0.1055
  H  H125  1  0.865310  0.555200  0.409170  1.0  0.1033
  H  H126  1  0.444800  0.310120  0.409170  1.0  0.1031
  H  H127  1  0.668560  0.706930  0.306100  1.0  0.1398
  H  H128  1  0.293070  0.961630  0.306100  1.0  0.1372
  H  H129  1  0.038370  0.331440  0.306100  1.0  0.1357
  H  H130  1  0.331440  0.293070  0.693900  1.0  0.1377
  H  H131  1  0.706930  0.038370  0.693900  1.0  0.1381
  H  H132  1  0.961630  0.668560  0.693900  1.0  0.1348
  H  H133  1  0.335230  0.040260  0.639430  1.0  0.1398
  H  H134  1  0.959740  0.294960  0.639430  1.0  0.1372
  H  H135  1  0.705040  0.664770  0.639430  1.0  0.1357
  H  H136  1  0.998110  0.626400  0.027230  1.0  0.1377
  H  H137  1  0.373600  0.371700  0.027230  1.0  0.1381
  H  H138  1  0.628300  0.001890  0.027230  1.0  0.1348
  H  H139  1  0.001890  0.373600  0.972770  1.0  0.1397
  H  H140  1  0.626400  0.628300  0.972770  1.0  0.1372
  H  H141  1  0.371700  0.998110  0.972770  1.0  0.1357
  H  H142  1  0.664770  0.959740  0.360570  1.0  0.1377
  H  H143  1  0.040260  0.705040  0.360570  1.0  0.1381
  H  H144  1  0.294960  0.335230  0.360570  1.0  0.1348
  H  H145  1  0.632100  0.605720  0.238230  1.0  0.1179
  H  H146  1  0.394280  0.026380  0.238230  1.0  0.1161
  H  H147  1  0.973620  0.367900  0.238230  1.0  0.1165
  H  H148  1  0.367900  0.394280  0.761770  1.0  0.1178
  H  H149  1  0.605720  0.973620  0.761770  1.0  0.1174
  H  H150  1  0.026380  0.632100  0.761770  1.0  0.118
  H  H151  1  0.298770  0.939050  0.571560  1.0  0.1179
  H  H152  1  0.060950  0.359710  0.571560  1.0  0.1161
  H  H153  1  0.640290  0.701230  0.571560  1.0  0.1165
  H  H154  1  0.034570  0.727610  0.095100  1.0  0.1178
  H  H155  1  0.272390  0.306950  0.095100  1.0  0.1174
  H  H156  1  0.693050  0.965430  0.095100  1.0  0.118
  H  H157  1  0.965430  0.272390  0.904900  1.0  0.1179
  H  H158  1  0.727610  0.693050  0.904900  1.0  0.1161
  H  H159  1  0.306950  0.034570  0.904900  1.0  0.1165
  H  H160  1  0.701230  0.060950  0.428440  1.0  0.1178
  H  H161  1  0.939050  0.640290  0.428440  1.0  0.1174
  H  H162  1  0.359710  0.298770  0.428440  1.0  0.118
  H  H163  1  0.714660  0.643010  0.362600  1.0  0.1732
  H  H164  1  0.356990  0.071650  0.362600  1.0  0.1714
  H  H165  1  0.928350  0.285340  0.362600  1.0  0.1714
  H  H166  1  0.285340  0.356990  0.637400  1.0  0.1711
  H  H167  1  0.643010  0.928350  0.637400  1.0  0.1726
  H  H168  1  0.071650  0.714660  0.637400  1.0  0.1722
  H  H169  1  0.381330  0.976340  0.695930  1.0  0.1732
  H  H170  1  0.023660  0.404980  0.695930  1.0  0.1714
  H  H171  1  0.595020  0.618670  0.695930  1.0  0.1714
  H  H172  1  0.952010  0.690320  0.970730  1.0  0.1711
  H  H173  1  0.309680  0.261680  0.970730  1.0  0.1726
  H  H174  1  0.738320  0.047990  0.970730  1.0  0.1722
  H  H175  1  0.047990  0.309680  0.029270  1.0  0.1732
  H  H176  1  0.690320  0.738320  0.029270  1.0  0.1714
  H  H177  1  0.261680  0.952010  0.029270  1.0  0.1714
  H  H178  1  0.618670  0.023660  0.304070  1.0  0.1711
  H  H179  1  0.976340  0.595020  0.304070  1.0  0.1726
  H  H180  1  0.404980  0.381330  0.304070  1.0  0.1722
  H  H181  1  0.872710  0.900400  0.712240  1.0  0.1361
  H  H182  1  0.099600  0.972310  0.712240  1.0  0.1358
  H  H183  1  0.027690  0.127290  0.712240  1.0  0.1379
  H  H184  1  0.127290  0.099600  0.287760  1.0  0.1365
  H  H185  1  0.900400  0.027690  0.287760  1.0  0.1369
  H  H186  1  0.972310  0.872710  0.287760  1.0  0.1376
  H  H187  1  0.539380  0.233730  0.045570  1.0  0.1361
  H  H188  1  0.766270  0.305640  0.045570  1.0  0.1357
  H  H189  1  0.694360  0.460620  0.045570  1.0  0.1379
  H  H190  1  0.793960  0.432930  0.621090  1.0  0.1378
  H  H191  1  0.567070  0.361020  0.621090  1.0  0.1367
  H  H192  1  0.638980  0.206040  0.621090  1.0  0.1362
  H  H193  1  0.206040  0.567070  0.378910  1.0  0.137
  H  H194  1  0.432930  0.638980  0.378910  1.0  0.1366
  H  H195  1  0.361020  0.793960  0.378910  1.0  0.1367
  H  H196  1  0.460620  0.766270  0.954430  1.0  0.1365
  H  H197  1  0.233730  0.694360  0.954430  1.0  0.1367
  H  H198  1  0.305640  0.539380  0.954430  1.0  0.1376
  H  H199  1  0.776340  0.843440  0.609290  1.0  0.1514
  H  H200  1  0.156560  0.932900  0.609290  1.0  0.1521
  H  H201  1  0.067100  0.223660  0.609290  1.0  0.1533
  H  H202  1  0.223660  0.156560  0.390710  1.0  0.1519
  H  H203  1  0.843440  0.067100  0.390710  1.0  0.1541
  H  H204  1  0.932900  0.776340  0.390710  1.0  0.1529
  H  H205  1  0.443010  0.176770  0.942620  1.0  0.1514
  H  H206  1  0.823230  0.266230  0.942620  1.0  0.1522
  H  H207  1  0.733770  0.556990  0.942620  1.0  0.1533
  H  H208  1  0.890330  0.489890  0.724040  1.0  0.1517
  H  H209  1  0.510110  0.400430  0.724040  1.0  0.1526
  H  H210  1  0.599570  0.109670  0.724040  1.0  0.1531
  H  H211  1  0.109670  0.510110  0.275960  1.0  0.1512
  H  H212  1  0.489890  0.599570  0.275960  1.0  0.1507
  H  H213  1  0.400430  0.890330  0.275960  1.0  0.1535
  H  H214  1  0.556990  0.823230  0.057380  1.0  0.152
  H  H215  1  0.176770  0.733770  0.057380  1.0  0.1542
  H  H216  1  0.266230  0.443010  0.057380  1.0  0.1529
  H  H217  1  0.816600  0.787810  0.662580  1.0  0.148
  H  H218  1  0.212190  0.028790  0.662580  1.0  0.1478
  H  H219  1  0.971210  0.183400  0.662580  1.0  0.1465
  H  H220  1  0.183400  0.212190  0.337420  1.0  0.149
  H  H221  1  0.787810  0.971210  0.337420  1.0  0.1469
  H  H222  1  0.028790  0.816600  0.337420  1.0  0.1467
  H  H223  1  0.483270  0.121140  0.995910  1.0  0.1481
  H  H224  1  0.878860  0.362120  0.995910  1.0  0.1478
  H  H225  1  0.637880  0.516730  0.995910  1.0  0.1464
  H  H226  1  0.850070  0.545520  0.670750  1.0  0.149
  H  H227  1  0.454480  0.304540  0.670750  1.0  0.1469
  H  H228  1  0.695460  0.149930  0.670750  1.0  0.1467
  H  H229  1  0.149930  0.454480  0.329250  1.0  0.148
  H  H230  1  0.545520  0.695460  0.329250  1.0  0.1478
  H  H231  1  0.304540  0.850070  0.329250  1.0  0.1464
  H  H232  1  0.516730  0.878860  0.004090  1.0  0.149
  H  H233  1  0.121140  0.637880  0.004090  1.0  0.1469
  H  H234  1  0.362120  0.483270  0.004090  1.0  0.1467
  H  H235  1  0.547820  0.320340  0.088120  1.0  0.2058
  H  H236  1  0.679660  0.227480  0.088120  1.0  0.2038
  H  H237  1  0.772520  0.452180  0.088120  1.0  0.2043
  H  H238  1  0.452180  0.679660  0.911880  1.0  0.2057
  H  H239  1  0.320340  0.772520  0.911880  1.0  0.2026
  H  H240  1  0.227480  0.547820  0.911880  1.0  0.2039
  H  H241  1  0.214490  0.653670  0.421450  1.0  0.2041
  H  H242  1  0.346330  0.560810  0.421450  1.0  0.2053
  H  H243  1  0.439190  0.785510  0.421450  1.0  0.2058
  H  H244  1  0.118850  0.012990  0.245210  1.0  0.2057
  H  H245  1  0.987010  0.105850  0.245210  1.0  0.2026
  H  H246  1  0.894150  0.881150  0.245210  1.0  0.2039
  H  H247  1  0.881150  0.987010  0.754790  1.0  0.2058
  H  H248  1  0.012990  0.894150  0.754790  1.0  0.2038
  H  H249  1  0.105850  0.118850  0.754790  1.0  0.2043
  H  H250  1  0.785510  0.346330  0.578550  1.0  0.2033
  H  H251  1  0.653670  0.439190  0.578550  1.0  0.2036
  H  H252  1  0.560810  0.214490  0.578550  1.0  0.2048
  H  H253  1  0.505780  0.379230  0.011680  1.0  0.1283
  H  H254  1  0.620770  0.126550  0.011680  1.0  0.1278
  H  H255  1  0.873450  0.494220  0.011680  1.0  0.1294
  H  H256  1  0.494220  0.620770  0.988320  1.0  0.1284
  H  H257  1  0.379230  0.873450  0.988320  1.0  0.1284
  H  H258  1  0.126550  0.505780  0.988320  1.0  0.1278
  H  H259  1  0.172450  0.712560  0.345010  1.0  0.1284
  H  H260  1  0.287440  0.459880  0.345010  1.0  0.1278
  H  H261  1  0.540120  0.827550  0.345010  1.0  0.1294
  H  H262  1  0.160890  0.954100  0.321650  1.0  0.1284
  H  H263  1  0.045900  0.206780  0.321650  1.0  0.1284
  H  H264  1  0.793220  0.839110  0.321650  1.0  0.1278
  H  H265  1  0.839110  0.045900  0.678350  1.0  0.1283
  H  H266  1  0.954100  0.793220  0.678350  1.0  0.1278
  H  H267  1  0.206780  0.160890  0.678350  1.0  0.1294
  H  H268  1  0.827550  0.287440  0.654990  1.0  0.1284
  H  H269  1  0.712560  0.540120  0.654990  1.0  0.1284
  H  H270  1  0.459880  0.172450  0.654990  1.0  0.1278
  H  H271  1  0.478530  0.283810  0.914910  1.0  0.2532
  H  H272  1  0.716190  0.194720  0.914910  1.0  0.2552
  H  H273  1  0.805280  0.521470  0.914910  1.0  0.2548
  H  H274  1  0.521470  0.716190  0.085090  1.0  0.2525
  H  H275  1  0.283810  0.805280  0.085090  1.0  0.254
  H  H276  1  0.194720  0.478530  0.085090  1.0  0.253
  H  H277  1  0.145200  0.617140  0.248240  1.0  0.2532
  H  H278  1  0.382860  0.528050  0.248240  1.0  0.2546
  H  H279  1  0.471950  0.854800  0.248240  1.0  0.255
  H  H280  1  0.188140  0.049520  0.418420  1.0  0.2525
  H  H281  1  0.950480  0.138610  0.418420  1.0  0.254
  H  H282  1  0.861390  0.811860  0.418420  1.0  0.253
  H  H283  1  0.811860  0.950480  0.581580  1.0  0.2532
  H  H284  1  0.049520  0.861390  0.581580  1.0  0.2552
  H  H285  1  0.138610  0.188140  0.581580  1.0  0.2548
  H  H286  1  0.854800  0.382860  0.751760  1.0  0.2525
  H  H287  1  0.617140  0.471950  0.751760  1.0  0.2537
  H  H288  1  0.528050  0.145200  0.751760  1.0  0.2531
  H  H289  1  0.530110  0.266410  0.058680  1.0  0.122
  H  H290  1  0.733590  0.263700  0.058680  1.0  0.1203
  H  H291  1  0.736300  0.469890  0.058680  1.0  0.1203
  H  H292  1  0.469890  0.733590  0.941320  1.0  0.1218
  H  H293  1  0.266410  0.736300  0.941320  1.0  0.1192
  H  H294  1  0.263700  0.530110  0.941320  1.0  0.1202
  H  H295  1  0.196780  0.599740  0.392010  1.0  0.1214
  H  H296  1  0.400260  0.597030  0.392010  1.0  0.1205
  H  H297  1  0.402970  0.803220  0.392010  1.0  0.1205
  H  H298  1  0.136560  0.066920  0.274650  1.0  0.1218
  H  H299  1  0.933080  0.069630  0.274650  1.0  0.1192
  H  H300  1  0.930370  0.863440  0.274650  1.0  0.1202
  H  H301  1  0.863440  0.933080  0.725350  1.0  0.122
  H  H302  1  0.066920  0.930370  0.725350  1.0  0.1203
  H  H303  1  0.069630  0.136560  0.725350  1.0  0.1203
  H  H304  1  0.803220  0.400260  0.607990  1.0  0.1213
  H  H305  1  0.599740  0.402970  0.607990  1.0  0.1194
  H  H306  1  0.597030  0.196780  0.607990  1.0  0.1203
  H  H307  1  0.709490  0.606210  0.371970  1.0  0.1537
  H  H308  1  0.393790  0.103280  0.371970  1.0  0.1539
  H  H309  1  0.896720  0.290510  0.371970  1.0  0.1544
  H  H310  1  0.290510  0.393790  0.628030  1.0  0.153
  H  H311  1  0.606210  0.896720  0.628030  1.0  0.1536
  H  H312  1  0.103280  0.709490  0.628030  1.0  0.1553
  H  H313  1  0.376160  0.939540  0.705300  1.0  0.1536
  H  H314  1  0.060460  0.436610  0.705300  1.0  0.1539
  H  H315  1  0.563390  0.623840  0.705300  1.0  0.1545
  H  H316  1  0.957180  0.727120  0.961360  1.0  0.153
  H  H317  1  0.272880  0.230050  0.961360  1.0  0.1537
  H  H318  1  0.769950  0.042820  0.961360  1.0  0.1553
  H  H319  1  0.042820  0.272880  0.038640  1.0  0.1536
  H  H320  1  0.727120  0.769950  0.038640  1.0  0.1538
  H  H321  1  0.230050  0.957180  0.038640  1.0  0.1545
  H  H322  1  0.623840  0.060460  0.294700  1.0  0.153
  H  H323  1  0.939540  0.563390  0.294700  1.0  0.1536
  H  H324  1  0.436610  0.376160  0.294700  1.0  0.1553
  H  H325  1  0.655340  0.574170  0.260120  1.0  0.1385
  H  H326  1  0.425830  0.081170  0.260120  1.0  0.1408
  H  H327  1  0.918830  0.344660  0.260120  1.0  0.1368
  H  H328  1  0.344660  0.425830  0.739880  1.0  0.1374
  H  H329  1  0.574170  0.918830  0.739880  1.0  0.1395
  H  H330  1  0.081170  0.655340  0.739880  1.0  0.1379
  H  H331  1  0.322010  0.907500  0.593450  1.0  0.1385
  H  H332  1  0.092500  0.414500  0.593450  1.0  0.1408
  H  H333  1  0.585500  0.677990  0.593450  1.0  0.1368
  H  H334  1  0.011330  0.759160  0.073210  1.0  0.1374
  H  H335  1  0.240840  0.252160  0.073210  1.0  0.1395
  H  H336  1  0.747840  0.988670  0.073210  1.0  0.1379
  H  H337  1  0.988670  0.240840  0.926790  1.0  0.1385
  H  H338  1  0.759160  0.747840  0.926790  1.0  0.1408
  H  H339  1  0.252160  0.011330  0.926790  1.0  0.1368
  H  H340  1  0.677990  0.092500  0.406550  1.0  0.1374
  H  H341  1  0.907500  0.585500  0.406550  1.0  0.1395
  H  H342  1  0.414500  0.322010  0.406550  1.0  0.138
  H  H343  1  0.806640  0.912870  0.613110  1.0  0.1315
  H  H344  1  0.087130  0.893770  0.613110  1.0  0.1316
  H  H345  1  0.106230  0.193360  0.613110  1.0  0.1321
  H  H346  1  0.193360  0.087130  0.386890  1.0  0.1314
  H  H347  1  0.912870  0.106230  0.386890  1.0  0.1305
  H  H348  1  0.893770  0.806640  0.386890  1.0  0.1307
  H  H349  1  0.473310  0.246200  0.946440  1.0  0.1315
  H  H350  1  0.753800  0.227100  0.946440  1.0  0.1316
  H  H351  1  0.772900  0.526690  0.946440  1.0  0.1321
  H  H352  1  0.860030  0.420460  0.720220  1.0  0.132
  H  H353  1  0.579540  0.439560  0.720220  1.0  0.1298
  H  H354  1  0.560440  0.139970  0.720220  1.0  0.13
  H  H355  1  0.139970  0.579540  0.279780  1.0  0.132
  H  H356  1  0.420460  0.560440  0.279780  1.0  0.1311
  H  H357  1  0.439560  0.860030  0.279780  1.0  0.1315
  H  H358  1  0.526690  0.753800  0.053560  1.0  0.1314
  H  H359  1  0.246200  0.772900  0.053560  1.0  0.1305
  H  H360  1  0.227100  0.473310  0.053560  1.0  0.1307
  C  C361  1  0.682520  0.552900  0.329000  1.0  -0.131
  C  C362  1  0.447100  0.129620  0.329000  1.0  -0.1302
  C  C363  1  0.870380  0.317480  0.329000  1.0  -0.1306
  C  C364  1  0.317480  0.447100  0.671000  1.0  -0.1305
  C  C365  1  0.552900  0.870380  0.671000  1.0  -0.1301
  C  C366  1  0.129620  0.682520  0.671000  1.0  -0.1305
  C  C367  1  0.349190  0.886230  0.662330  1.0  -0.1309
  C  C368  1  0.113770  0.462950  0.662330  1.0  -0.1302
  C  C369  1  0.537050  0.650810  0.662330  1.0  -0.1306
  C  C370  1  0.984150  0.780430  0.004330  1.0  -0.1305
  C  C371  1  0.219570  0.203710  0.004330  1.0  -0.1301
  C  C372  1  0.796290  0.015850  0.004330  1.0  -0.1305
  C  C373  1  0.015850  0.219570  0.995670  1.0  -0.1309
  C  C374  1  0.780430  0.796290  0.995670  1.0  -0.1302
  C  C375  1  0.203710  0.984150  0.995670  1.0  -0.1306
  C  C376  1  0.650810  0.113770  0.337670  1.0  -0.1305
  C  C377  1  0.886230  0.537050  0.337670  1.0  -0.1301
  C  C378  1  0.462950  0.349190  0.337670  1.0  -0.1305
  C  C379  1  0.702880  0.547490  0.369000  1.0  -0.0624
  C  C380  1  0.452510  0.155390  0.369000  1.0  -0.0639
  C  C381  1  0.844610  0.297120  0.369000  1.0  -0.064
  C  C382  1  0.297120  0.452510  0.631000  1.0  -0.06
  C  C383  1  0.547490  0.844610  0.631000  1.0  -0.0623
  C  C384  1  0.155390  0.702880  0.631000  1.0  -0.0633
  C  C385  1  0.369550  0.880820  0.702330  1.0  -0.0624
  C  C386  1  0.119180  0.488720  0.702330  1.0  -0.0639
  C  C387  1  0.511280  0.630450  0.702330  1.0  -0.064
  C  C388  1  0.963790  0.785840  0.964330  1.0  -0.06
  C  C389  1  0.214160  0.177940  0.964330  1.0  -0.0623
  C  C390  1  0.822060  0.036210  0.964330  1.0  -0.0633
  C  C391  1  0.036210  0.214160  0.035670  1.0  -0.0624
  C  C392  1  0.785840  0.822060  0.035670  1.0  -0.0639
  C  C393  1  0.177940  0.963790  0.035670  1.0  -0.064
  C  C394  1  0.630450  0.119180  0.297670  1.0  -0.06
  C  C395  1  0.880820  0.511280  0.297670  1.0  -0.0623
  C  C396  1  0.488720  0.369550  0.297670  1.0  -0.0633
  C  C397  1  0.700900  0.516710  0.370300  1.0  -0.012
  C  C398  1  0.483290  0.184190  0.370300  1.0  -0.0117
  C  C399  1  0.815810  0.299100  0.370300  1.0  -0.0122
  C  C400  1  0.299100  0.483290  0.629700  1.0  -0.01
  C  C401  1  0.516710  0.815810  0.629700  1.0  -0.0091
  C  C402  1  0.184190  0.700900  0.629700  1.0  -0.0104
  C  C403  1  0.367570  0.850040  0.703630  1.0  -0.012
  C  C404  1  0.149960  0.517520  0.703630  1.0  -0.0117
  C  C405  1  0.482480  0.632430  0.703630  1.0  -0.0122
  C  C406  1  0.965770  0.816620  0.963030  1.0  -0.01
  C  C407  1  0.183380  0.149140  0.963030  1.0  -0.0089
  C  C408  1  0.850860  0.034230  0.963030  1.0  -0.0102
  C  C409  1  0.034230  0.183380  0.036970  1.0  -0.0121
  C  C410  1  0.816620  0.850860  0.036970  1.0  -0.0115
  C  C411  1  0.149140  0.965770  0.036970  1.0  -0.0121
  C  C412  1  0.632430  0.149960  0.296370  1.0  -0.01
  C  C413  1  0.850040  0.482480  0.296370  1.0  -0.0091
  C  C414  1  0.517520  0.367570  0.296370  1.0  -0.0104
  C  C415  1  0.678500  0.491350  0.331600  1.0  -0.0815
  C  C416  1  0.508650  0.187150  0.331600  1.0  -0.0824
  C  C417  1  0.812850  0.321500  0.331600  1.0  -0.0775
  C  C418  1  0.321500  0.508650  0.668400  1.0  -0.0797
  C  C419  1  0.491350  0.812850  0.668400  1.0  -0.08
  C  C420  1  0.187150  0.678500  0.668400  1.0  -0.0769
  C  C421  1  0.345170  0.824680  0.664930  1.0  -0.0813
  C  C422  1  0.175320  0.520480  0.664930  1.0  -0.0821
  C  C423  1  0.479520  0.654830  0.664930  1.0  -0.0777
  C  C424  1  0.988170  0.841980  0.001730  1.0  -0.0797
  C  C425  1  0.158020  0.146180  0.001730  1.0  -0.08
  C  C426  1  0.853820  0.011830  0.001730  1.0  -0.0769
  C  C427  1  0.011830  0.158020  0.998270  1.0  -0.0815
  C  C428  1  0.841980  0.853820  0.998270  1.0  -0.0824
  C  C429  1  0.146180  0.988170  0.998270  1.0  -0.0775
  C  C430  1  0.654830  0.175320  0.335070  1.0  -0.0795
  C  C431  1  0.824680  0.479520  0.335070  1.0  -0.0798
  C  C432  1  0.520480  0.345170  0.335070  1.0  -0.0771
  C  C433  1  0.658180  0.496760  0.291600  1.0  -0.0837
  C  C434  1  0.503240  0.161420  0.291600  1.0  -0.0835
  C  C435  1  0.838580  0.341820  0.291600  1.0  -0.0842
  C  C436  1  0.341820  0.503240  0.708400  1.0  -0.0829
  C  C437  1  0.496760  0.838580  0.708400  1.0  -0.0826
  C  C438  1  0.161420  0.658180  0.708400  1.0  -0.0838
  C  C439  1  0.324850  0.830090  0.624930  1.0  -0.0837
  C  C440  1  0.169910  0.494750  0.624930  1.0  -0.0835
  C  C441  1  0.505250  0.675150  0.624930  1.0  -0.0842
  C  C442  1  0.008490  0.836570  0.041730  1.0  -0.0829
  C  C443  1  0.163430  0.171910  0.041730  1.0  -0.0826
  C  C444  1  0.828090  0.991510  0.041730  1.0  -0.0838
  C  C445  1  0.991510  0.163430  0.958270  1.0  -0.0837
  C  C446  1  0.836570  0.828090  0.958270  1.0  -0.0835
  C  C447  1  0.171910  0.008490  0.958270  1.0  -0.0842
  C  C448  1  0.675150  0.169910  0.375070  1.0  -0.0829
  C  C449  1  0.830090  0.505250  0.375070  1.0  -0.0826
  C  C450  1  0.494750  0.324850  0.375070  1.0  -0.0838
  C  C451  1  0.660160  0.527540  0.290300  1.0  -0.0265
  C  C452  1  0.472460  0.132620  0.290300  1.0  -0.0261
  C  C453  1  0.867380  0.339840  0.290300  1.0  -0.0266
  C  C454  1  0.339840  0.472460  0.709700  1.0  -0.0287
  C  C455  1  0.527540  0.867380  0.709700  1.0  -0.0263
  C  C456  1  0.132620  0.660160  0.709700  1.0  -0.0274
  C  C457  1  0.326830  0.860870  0.623630  1.0  -0.0265
  C  C458  1  0.139130  0.465950  0.623630  1.0  -0.0261
  C  C459  1  0.534050  0.673170  0.623630  1.0  -0.0266
  C  C460  1  0.006510  0.805790  0.043030  1.0  -0.0284
  C  C461  1  0.194210  0.200710  0.043030  1.0  -0.0264
  C  C462  1  0.799290  0.993490  0.043030  1.0  -0.0271
  C  C463  1  0.993490  0.194210  0.956970  1.0  -0.0262
  C  C464  1  0.805790  0.799290  0.956970  1.0  -0.0262
  C  C465  1  0.200710  0.006510  0.956970  1.0  -0.0264
  C  C466  1  0.673170  0.139130  0.376370  1.0  -0.0287
  C  C467  1  0.860870  0.534050  0.376370  1.0  -0.0263
  C  C468  1  0.465950  0.326830  0.376370  1.0  -0.0274
  C  C469  1  0.667210  0.681820  0.307800  1.0  0.0265
  C  C470  1  0.318180  0.985390  0.307800  1.0  0.0305
  C  C471  1  0.014610  0.332790  0.307800  1.0  0.03
  C  C472  1  0.332790  0.318180  0.692200  1.0  0.0306
  C  C473  1  0.681820  0.014610  0.692200  1.0  0.0274
  C  C474  1  0.985390  0.667210  0.692200  1.0  0.0305
  C  C475  1  0.333880  0.015150  0.641130  1.0  0.0265
  C  C476  1  0.984850  0.318720  0.641130  1.0  0.0305
  C  C477  1  0.681280  0.666120  0.641130  1.0  0.03
  C  C478  1  0.999460  0.651510  0.025530  1.0  0.0306
  C  C479  1  0.348490  0.347940  0.025530  1.0  0.0274
  C  C480  1  0.652060  0.000540  0.025530  1.0  0.0305
  C  C481  1  0.000540  0.348490  0.974470  1.0  0.0265
  C  C482  1  0.651510  0.652060  0.974470  1.0  0.0305
  C  C483  1  0.347940  0.999460  0.974470  1.0  0.03
  C  C484  1  0.666120  0.984850  0.358870  1.0  0.0306
  C  C485  1  0.015150  0.681280  0.358870  1.0  0.0274
  C  C486  1  0.318720  0.333880  0.358870  1.0  0.0305
  C  C487  1  0.642150  0.653760  0.269400  1.0  -0.0658
  C  C488  1  0.346240  0.988390  0.269400  1.0  -0.0669
  C  C489  1  0.011610  0.357850  0.269400  1.0  -0.0663
  C  C490  1  0.357850  0.346240  0.730600  1.0  -0.0661
  C  C491  1  0.653760  0.011610  0.730600  1.0  -0.0663
  C  C492  1  0.988390  0.642150  0.730600  1.0  -0.071
  C  C493  1  0.308820  0.987090  0.602730  1.0  -0.0658
  C  C494  1  0.012910  0.321720  0.602730  1.0  -0.0669
  C  C495  1  0.678280  0.691180  0.602730  1.0  -0.0663
  C  C496  1  0.024520  0.679570  0.063930  1.0  -0.0663
  C  C497  1  0.320430  0.344940  0.063930  1.0  -0.0668
  C  C498  1  0.655060  0.975480  0.063930  1.0  -0.0712
  C  C499  1  0.975480  0.320430  0.936070  1.0  -0.0659
  C  C500  1  0.679570  0.655060  0.936070  1.0  -0.0673
  C  C501  1  0.344940  0.024520  0.936070  1.0  -0.0665
  C  C502  1  0.691180  0.012910  0.397270  1.0  -0.0661
  C  C503  1  0.987090  0.678280  0.397270  1.0  -0.0663
  C  C504  1  0.321720  0.308820  0.397270  1.0  -0.071
  C  C505  1  0.645240  0.626730  0.273500  1.0  -0.0334
  C  C506  1  0.373270  0.018510  0.273500  1.0  -0.0349
  C  C507  1  0.981490  0.354760  0.273500  1.0  -0.0353
  C  C508  1  0.354760  0.373270  0.726500  1.0  -0.0329
  C  C509  1  0.626730  0.981490  0.726500  1.0  -0.0356
  C  C510  1  0.018510  0.645240  0.726500  1.0  -0.0343
  C  C511  1  0.311910  0.960060  0.606830  1.0  -0.0334
  C  C512  1  0.039940  0.351840  0.606830  1.0  -0.0349
  C  C513  1  0.648160  0.688090  0.606830  1.0  -0.0353
  C  C514  1  0.021430  0.706600  0.059830  1.0  -0.033
  C  C515  1  0.293400  0.314820  0.059830  1.0  -0.0354
  C  C516  1  0.685180  0.978570  0.059830  1.0  -0.0342
  C  C517  1  0.978570  0.293400  0.940170  1.0  -0.0336
  C  C518  1  0.706600  0.685180  0.940170  1.0  -0.0347
  C  C519  1  0.314820  0.021430  0.940170  1.0  -0.0351
  C  C520  1  0.688090  0.039940  0.393170  1.0  -0.0329
  C  C521  1  0.960060  0.648160  0.393170  1.0  -0.0356
  C  C522  1  0.351840  0.311910  0.393170  1.0  -0.0343
  C  C523  1  0.662390  0.620370  0.315100  1.0  -0.1013
  C  C524  1  0.379630  0.042020  0.315100  1.0  -0.1005
  C  C525  1  0.957980  0.337610  0.315100  1.0  -0.1012
  C  C526  1  0.337610  0.379630  0.684900  1.0  -0.0996
  C  C527  1  0.620370  0.957980  0.684900  1.0  -0.1007
  C  C528  1  0.042020  0.662390  0.684900  1.0  -0.1029
  C  C529  1  0.329060  0.953700  0.648430  1.0  -0.1013
  C  C530  1  0.046300  0.375350  0.648430  1.0  -0.1005
  C  C531  1  0.624650  0.670940  0.648430  1.0  -0.101
  C  C532  1  0.004280  0.712960  0.018230  1.0  -0.0996
  C  C533  1  0.287040  0.291310  0.018230  1.0  -0.1007
  C  C534  1  0.708690  0.995720  0.018230  1.0  -0.1029
  C  C535  1  0.995720  0.287040  0.981770  1.0  -0.1013
  C  C536  1  0.712960  0.708690  0.981770  1.0  -0.1005
  C  C537  1  0.291310  0.004280  0.981770  1.0  -0.1011
  C  C538  1  0.670940  0.046300  0.351570  1.0  -0.0996
  C  C539  1  0.953700  0.624650  0.351570  1.0  -0.1007
  C  C540  1  0.375350  0.329060  0.351570  1.0  -0.1028
  C  C541  1  0.694440  0.648300  0.346400  1.0  0.1455
  C  C542  1  0.351700  0.046140  0.346400  1.0  0.1453
  C  C543  1  0.953860  0.305560  0.346400  1.0  0.1444
  C  C544  1  0.305560  0.351700  0.653600  1.0  0.1436
  C  C545  1  0.648300  0.953860  0.653600  1.0  0.1482
  C  C546  1  0.046140  0.694440  0.653600  1.0  0.1449
  C  C547  1  0.361110  0.981630  0.679730  1.0  0.1457
  C  C548  1  0.018370  0.379470  0.679730  1.0  0.1452
  C  C549  1  0.620530  0.638890  0.679730  1.0  0.1445
  C  C550  1  0.972230  0.685030  0.986930  1.0  0.1436
  C  C551  1  0.314970  0.287190  0.986930  1.0  0.1482
  C  C552  1  0.712810  0.027770  0.986930  1.0  0.1449
  C  C553  1  0.027770  0.314970  0.013070  1.0  0.1455
  C  C554  1  0.685030  0.712810  0.013070  1.0  0.1453
  C  C555  1  0.287190  0.972230  0.013070  1.0  0.1444
  C  C556  1  0.638890  0.018370  0.320270  1.0  0.1438
  C  C557  1  0.981630  0.620530  0.320270  1.0  0.1478
  C  C558  1  0.379470  0.361110  0.320270  1.0  0.145
  C  C559  1  0.689340  0.676640  0.346500  1.0  -0.0865
  C  C560  1  0.323360  0.012700  0.346500  1.0  -0.0863
  C  C561  1  0.987300  0.310660  0.346500  1.0  -0.0866
  C  C562  1  0.310660  0.323360  0.653500  1.0  -0.0863
  C  C563  1  0.676640  0.987300  0.653500  1.0  -0.0869
  C  C564  1  0.012700  0.689340  0.653500  1.0  -0.0864
  C  C565  1  0.356010  0.009970  0.679830  1.0  -0.0866
  C  C566  1  0.990030  0.346030  0.679830  1.0  -0.0863
  C  C567  1  0.653970  0.643990  0.679830  1.0  -0.0865
  C  C568  1  0.977330  0.656690  0.986830  1.0  -0.0865
  C  C569  1  0.343310  0.320630  0.986830  1.0  -0.0867
  C  C570  1  0.679370  0.022670  0.986830  1.0  -0.0864
  C  C571  1  0.022670  0.343310  0.013170  1.0  -0.0866
  C  C572  1  0.656690  0.679370  0.013170  1.0  -0.086
  C  C573  1  0.320630  0.977330  0.013170  1.0  -0.0866
  C  C574  1  0.643990  0.990030  0.320170  1.0  -0.0864
  C  C575  1  0.009970  0.653970  0.320170  1.0  -0.0869
  C  C576  1  0.346030  0.356010  0.320170  1.0  -0.0863
  C  C577  1  0.850350  0.877260  0.692600  1.0  0.0277
  C  C578  1  0.122740  0.973090  0.692600  1.0  0.0295
  C  C579  1  0.026910  0.149650  0.692600  1.0  0.0279
  C  C580  1  0.149650  0.122740  0.307400  1.0  0.0305
  C  C581  1  0.877260  0.026910  0.307400  1.0  0.0295
  C  C582  1  0.973090  0.850350  0.307400  1.0  0.0263
  C  C583  1  0.517020  0.210590  0.025930  1.0  0.0277
  C  C584  1  0.789410  0.306420  0.025930  1.0  0.0295
  C  C585  1  0.693580  0.482980  0.025930  1.0  0.0277
  C  C586  1  0.816320  0.456070  0.640730  1.0  0.031
  C  C587  1  0.543930  0.360240  0.640730  1.0  0.0296
  C  C588  1  0.639760  0.183680  0.640730  1.0  0.0258
  C  C589  1  0.183680  0.543930  0.359270  1.0  0.0282
  C  C590  1  0.456070  0.639760  0.359270  1.0  0.0297
  C  C591  1  0.360240  0.816320  0.359270  1.0  0.0275
  C  C592  1  0.482980  0.789410  0.974070  1.0  0.0305
  C  C593  1  0.210590  0.693580  0.974070  1.0  0.0295
  C  C594  1  0.306420  0.517020  0.974070  1.0  0.026
  C  C595  1  0.823770  0.879790  0.662000  1.0  -0.097
  C  C596  1  0.120210  0.943980  0.662000  1.0  -0.0961
  C  C597  1  0.056020  0.176230  0.662000  1.0  -0.0948
  C  C598  1  0.176230  0.120210  0.338000  1.0  -0.0973
  C  C599  1  0.879790  0.056020  0.338000  1.0  -0.0971
  C  C600  1  0.943980  0.823770  0.338000  1.0  -0.0958
  C  C601  1  0.490440  0.213120  0.995330  1.0  -0.097
  C  C602  1  0.786880  0.277310  0.995330  1.0  -0.0961
  C  C603  1  0.722690  0.509560  0.995330  1.0  -0.0947
  C  C604  1  0.842900  0.453540  0.671330  1.0  -0.0971
  C  C605  1  0.546460  0.389350  0.671330  1.0  -0.0971
  C  C606  1  0.610650  0.157100  0.671330  1.0  -0.0958
  C  C607  1  0.157100  0.546460  0.328670  1.0  -0.0968
  C  C608  1  0.453540  0.610650  0.328670  1.0  -0.096
  C  C609  1  0.389350  0.842900  0.328670  1.0  -0.0948
  C  C610  1  0.509560  0.786880  0.004670  1.0  -0.0973
  C  C611  1  0.213120  0.722690  0.004670  1.0  -0.0971
  C  C612  1  0.277310  0.490440  0.004670  1.0  -0.0958
  C  C613  1  0.801650  0.848530  0.626400  1.0  0.0086
  C  C614  1  0.151470  0.953120  0.626400  1.0  0.0076
  C  C615  1  0.046880  0.198350  0.626400  1.0  0.0095
  C  C616  1  0.198350  0.151470  0.373600  1.0  0.0083
  C  C617  1  0.848530  0.046880  0.373600  1.0  0.0079
  C  C618  1  0.953120  0.801650  0.373600  1.0  0.0093
  C  C619  1  0.468320  0.181860  0.959730  1.0  0.0087
  C  C620  1  0.818140  0.286450  0.959730  1.0  0.0076
  C  C621  1  0.713550  0.531680  0.959730  1.0  0.0094
  C  C622  1  0.865020  0.484800  0.706930  1.0  0.0082
  C  C623  1  0.515200  0.380210  0.706930  1.0  0.008
  C  C624  1  0.619790  0.134980  0.706930  1.0  0.0093
  C  C625  1  0.134980  0.515200  0.293070  1.0  0.0085
  C  C626  1  0.484800  0.619790  0.293070  1.0  0.0076
  C  C627  1  0.380210  0.865020  0.293070  1.0  0.0095
  C  C628  1  0.531680  0.818140  0.040270  1.0  0.0084
  C  C629  1  0.181860  0.713550  0.040270  1.0  0.008
  C  C630  1  0.286450  0.468320  0.040270  1.0  0.0092
  C  C631  1  0.805970  0.824700  0.610300  1.0  0.0797
  C  C632  1  0.175300  0.981270  0.610300  1.0  0.0827
  C  C633  1  0.018730  0.194030  0.610300  1.0  0.0789
  C  C634  1  0.194030  0.175300  0.389700  1.0  0.0792
  C  C635  1  0.824700  0.018730  0.389700  1.0  0.0819
  C  C636  1  0.981270  0.805970  0.389700  1.0  0.0798
  C  C637  1  0.472640  0.158030  0.943630  1.0  0.0796
  C  C638  1  0.841970  0.314600  0.943630  1.0  0.0825
  C  C639  1  0.685400  0.527360  0.943630  1.0  0.0789
  C  C640  1  0.860700  0.508630  0.723030  1.0  0.079
  C  C641  1  0.491370  0.352060  0.723030  1.0  0.0818
  C  C642  1  0.647940  0.139300  0.723030  1.0  0.0799
  C  C643  1  0.139300  0.491370  0.276970  1.0  0.0796
  C  C644  1  0.508630  0.647940  0.276970  1.0  0.0825
  C  C645  1  0.352060  0.860700  0.276970  1.0  0.079
  C  C646  1  0.527360  0.841970  0.056370  1.0  0.079
  C  C647  1  0.158030  0.685400  0.056370  1.0  0.0818
  C  C648  1  0.314600  0.472640  0.056370  1.0  0.0798
  C  C649  1  0.823100  0.814800  0.658500  1.0  0.0961
  C  C650  1  0.185200  0.008300  0.658500  1.0  0.093
  C  C651  1  0.991700  0.176900  0.658500  1.0  0.0954
  C  C652  1  0.176900  0.185200  0.341500  1.0  0.0931
  C  C653  1  0.814800  0.991700  0.341500  1.0  0.0953
  C  C654  1  0.008300  0.823100  0.341500  1.0  0.0957
  C  C655  1  0.489770  0.148130  0.991830  1.0  0.0961
  C  C656  1  0.851870  0.341630  0.991830  1.0  0.093
  C  C657  1  0.658370  0.510230  0.991830  1.0  0.0954
  C  C658  1  0.843570  0.518530  0.674830  1.0  0.0931
  C  C659  1  0.481470  0.325030  0.674830  1.0  0.0953
  C  C660  1  0.674970  0.156430  0.674830  1.0  0.0957
  C  C661  1  0.156430  0.481470  0.325170  1.0  0.0961
  C  C662  1  0.518530  0.674970  0.325170  1.0  0.093
  C  C663  1  0.325030  0.843570  0.325170  1.0  0.0954
  C  C664  1  0.510230  0.851870  0.008170  1.0  0.0931
  C  C665  1  0.148130  0.658370  0.008170  1.0  0.0953
  C  C666  1  0.341630  0.489770  0.008170  1.0  0.0957
  C  C667  1  0.848740  0.843630  0.698900  1.0  -0.1242
  C  C668  1  0.156370  0.005110  0.698900  1.0  -0.1251
  C  C669  1  0.994890  0.151260  0.698900  1.0  -0.1252
  C  C670  1  0.151260  0.156370  0.301100  1.0  -0.1253
  C  C671  1  0.843630  0.994890  0.301100  1.0  -0.1254
  C  C672  1  0.005110  0.848740  0.301100  1.0  -0.1247
  C  C673  1  0.515410  0.176960  0.032230  1.0  -0.1242
  C  C674  1  0.823040  0.338440  0.032230  1.0  -0.1251
  C  C675  1  0.661560  0.484590  0.032230  1.0  -0.1252
  C  C676  1  0.817930  0.489700  0.634430  1.0  -0.1254
  C  C677  1  0.510300  0.328220  0.634430  1.0  -0.1253
  C  C678  1  0.671780  0.182070  0.634430  1.0  -0.1247
  C  C679  1  0.182070  0.510300  0.365570  1.0  -0.1243
  C  C680  1  0.489700  0.671780  0.365570  1.0  -0.1251
  C  C681  1  0.328220  0.817930  0.365570  1.0  -0.1252
  C  C682  1  0.484590  0.823040  0.967770  1.0  -0.1253
  C  C683  1  0.176960  0.661560  0.967770  1.0  -0.1254
  C  C684  1  0.338440  0.515410  0.967770  1.0  -0.1247
  C  C685  1  0.530720  0.322800  0.053030  1.0  0.1104
  C  C686  1  0.677200  0.207920  0.053030  1.0  0.108
  C  C687  1  0.792080  0.469280  0.053030  1.0  0.1124
  C  C688  1  0.469280  0.677200  0.946970  1.0  0.107
  C  C689  1  0.322800  0.792080  0.946970  1.0  0.1089
  C  C690  1  0.207920  0.530720  0.946970  1.0  0.1104
  C  C691  1  0.197390  0.656130  0.386360  1.0  0.1104
  C  C692  1  0.343870  0.541250  0.386360  1.0  0.108
  C  C693  1  0.458750  0.802610  0.386360  1.0  0.1124
  C  C694  1  0.135950  0.010530  0.280300  1.0  0.1071
  C  C695  1  0.989470  0.125410  0.280300  1.0  0.1089
  C  C696  1  0.874590  0.864050  0.280300  1.0  0.1104
  C  C697  1  0.864050  0.989470  0.719700  1.0  0.1104
  C  C698  1  0.010530  0.874590  0.719700  1.0  0.108
  C  C699  1  0.125410  0.135950  0.719700  1.0  0.1124
  C  C700  1  0.802610  0.343870  0.613640  1.0  0.107
  C  C701  1  0.656130  0.458750  0.613640  1.0  0.1089
  C  C702  1  0.541250  0.197390  0.613640  1.0  0.1104
  C  C703  1  0.529390  0.351220  0.050430  1.0  -0.0527
  C  C704  1  0.648780  0.178170  0.050430  1.0  -0.0547
  C  C705  1  0.821830  0.470610  0.050430  1.0  -0.0544
  C  C706  1  0.470610  0.648780  0.949570  1.0  -0.054
  C  C707  1  0.351220  0.821830  0.949570  1.0  -0.0541
  C  C708  1  0.178170  0.529390  0.949570  1.0  -0.0546
  C  C709  1  0.196060  0.684550  0.383760  1.0  -0.0526
  C  C710  1  0.315450  0.511500  0.383760  1.0  -0.0551
  C  C711  1  0.488500  0.803940  0.383760  1.0  -0.0543
  C  C712  1  0.137280  0.982110  0.282900  1.0  -0.0539
  C  C713  1  0.017890  0.155160  0.282900  1.0  -0.0541
  C  C714  1  0.844840  0.862720  0.282900  1.0  -0.0546
  C  C715  1  0.862720  0.017890  0.717100  1.0  -0.0526
  C  C716  1  0.982110  0.844840  0.717100  1.0  -0.0547
  C  C717  1  0.155160  0.137280  0.717100  1.0  -0.0543
  C  C718  1  0.803940  0.315450  0.616240  1.0  -0.0539
  C  C719  1  0.684550  0.488500  0.616240  1.0  -0.0546
  C  C720  1  0.511500  0.196060  0.616240  1.0  -0.0546
  C  C721  1  0.505800  0.354760  0.012130  1.0  0.0633
  C  C722  1  0.645240  0.151040  0.012130  1.0  0.0654
  C  C723  1  0.848960  0.494200  0.012130  1.0  0.0661
  C  C724  1  0.494200  0.645240  0.987870  1.0  0.0668
  C  C725  1  0.354760  0.848960  0.987870  1.0  0.0645
  C  C726  1  0.151040  0.505800  0.987870  1.0  0.0657
  C  C727  1  0.172470  0.688090  0.345460  1.0  0.0633
  C  C728  1  0.311910  0.484370  0.345460  1.0  0.0654
  C  C729  1  0.515630  0.827530  0.345460  1.0  0.0661
  C  C730  1  0.160870  0.978570  0.321200  1.0  0.0668
  C  C731  1  0.021430  0.182290  0.321200  1.0  0.0645
  C  C732  1  0.817710  0.839130  0.321200  1.0  0.0658
  C  C733  1  0.839130  0.021430  0.678800  1.0  0.0633
  C  C734  1  0.978570  0.817710  0.678800  1.0  0.0654
  C  C735  1  0.182290  0.160870  0.678800  1.0  0.0661
  C  C736  1  0.827530  0.311910  0.654540  1.0  0.0668
  C  C737  1  0.688090  0.515630  0.654540  1.0  0.0645
  C  C738  1  0.484370  0.172470  0.654540  1.0  0.0657
  C  C739  1  0.481450  0.327790  0.973130  1.0  -0.1729
  C  C740  1  0.672210  0.153660  0.973130  1.0  -0.1747
  C  C741  1  0.846340  0.518550  0.973130  1.0  -0.1748
  C  C742  1  0.518550  0.672210  0.026870  1.0  -0.1742
  C  C743  1  0.327790  0.846340  0.026870  1.0  -0.1738
  C  C744  1  0.153660  0.481450  0.026870  1.0  -0.1735
  C  C745  1  0.148120  0.661120  0.306460  1.0  -0.1731
  C  C746  1  0.338880  0.486990  0.306460  1.0  -0.1744
  C  C747  1  0.513010  0.851880  0.306460  1.0  -0.1745
  C  C748  1  0.185220  0.005540  0.360200  1.0  -0.1744
  C  C749  1  0.994460  0.179670  0.360200  1.0  -0.1736
  C  C750  1  0.820330  0.814780  0.360200  1.0  -0.1732
  C  C751  1  0.814780  0.994460  0.639800  1.0  -0.1731
  C  C752  1  0.005540  0.820330  0.639800  1.0  -0.1746
  C  C753  1  0.179670  0.185220  0.639800  1.0  -0.1745
  C  C754  1  0.851880  0.338880  0.693540  1.0  -0.1745
  C  C755  1  0.661120  0.513010  0.693540  1.0  -0.1734
  C  C756  1  0.486990  0.148120  0.693540  1.0  -0.1732
  C  C757  1  0.488480  0.299130  0.959530  1.0  0.1129
  C  C758  1  0.700870  0.189350  0.959530  1.0  0.1148
  C  C759  1  0.810650  0.511520  0.959530  1.0  0.1138
  C  C760  1  0.511520  0.700870  0.040470  1.0  0.1137
  C  C761  1  0.299130  0.810650  0.040470  1.0  0.1139
  C  C762  1  0.189350  0.488480  0.040470  1.0  0.1143
  C  C763  1  0.155150  0.632460  0.292860  1.0  0.1119
  C  C764  1  0.367540  0.522680  0.292860  1.0  0.1141
  C  C765  1  0.477320  0.844850  0.292860  1.0  0.1145
  C  C766  1  0.178190  0.034200  0.373800  1.0  0.1137
  C  C767  1  0.965800  0.143980  0.373800  1.0  0.1139
  C  C768  1  0.856020  0.821810  0.373800  1.0  0.1143
  C  C769  1  0.821810  0.965800  0.626200  1.0  0.1129
  C  C770  1  0.034200  0.856020  0.626200  1.0  0.1148
  C  C771  1  0.143980  0.178190  0.626200  1.0  0.1138
  C  C772  1  0.844850  0.367540  0.707140  1.0  0.1127
  C  C773  1  0.632460  0.477320  0.707140  1.0  0.1131
  C  C774  1  0.522680  0.155150  0.707140  1.0  0.115
  C  C775  1  0.507200  0.293970  0.004630  1.0  -0.0791
  C  C776  1  0.706030  0.213230  0.004630  1.0  -0.0804
  C  C777  1  0.786770  0.492800  0.004630  1.0  -0.0796
  C  C778  1  0.492800  0.706030  0.995370  1.0  -0.0792
  C  C779  1  0.293970  0.786770  0.995370  1.0  -0.0792
  C  C780  1  0.213230  0.507200  0.995370  1.0  -0.0792
  C  C781  1  0.173870  0.627300  0.337960  1.0  -0.0788
  C  C782  1  0.372700  0.546560  0.337960  1.0  -0.0804
  C  C783  1  0.453440  0.826130  0.337960  1.0  -0.0796
  C  C784  1  0.159470  0.039360  0.328700  1.0  -0.0792
  C  C785  1  0.960640  0.120100  0.328700  1.0  -0.0792
  C  C786  1  0.879900  0.840530  0.328700  1.0  -0.0792
  C  C787  1  0.840530  0.960640  0.671300  1.0  -0.0791
  C  C788  1  0.039360  0.879900  0.671300  1.0  -0.0804
  C  C789  1  0.120100  0.159470  0.671300  1.0  -0.0796
  C  C790  1  0.826130  0.372700  0.662040  1.0  -0.0789
  C  C791  1  0.627300  0.453440  0.662040  1.0  -0.0792
  C  C792  1  0.546560  0.173870  0.662040  1.0  -0.0792
  C  C793  1  0.713700  0.700600  0.386400  1.0  0.3694
  C  C794  1  0.299400  0.013100  0.386400  1.0  0.3724
  C  C795  1  0.986900  0.286300  0.386400  1.0  0.3727
  C  C796  1  0.286300  0.299400  0.613600  1.0  0.3703
  C  C797  1  0.700600  0.986900  0.613600  1.0  0.3731
  C  C798  1  0.013100  0.713700  0.613600  1.0  0.3727
  C  C799  1  0.380370  0.033930  0.719730  1.0  0.3692
  C  C800  1  0.966070  0.346430  0.719730  1.0  0.3722
  C  C801  1  0.653570  0.619630  0.719730  1.0  0.3728
  C  C802  1  0.952970  0.632730  0.946930  1.0  0.3703
  C  C803  1  0.367270  0.320230  0.946930  1.0  0.3731
  C  C804  1  0.679770  0.047030  0.946930  1.0  0.3727
  C  C805  1  0.047030  0.367270  0.053070  1.0  0.3694
  C  C806  1  0.632730  0.679770  0.053070  1.0  0.3724
  C  C807  1  0.320230  0.952970  0.053070  1.0  0.3727
  C  C808  1  0.619630  0.966070  0.280270  1.0  0.3701
  C  C809  1  0.033930  0.653570  0.280270  1.0  0.3729
  C  C810  1  0.346430  0.380370  0.280270  1.0  0.3728
  C  C811  1  0.511470  0.263830  0.021330  1.0  0.1203
  C  C812  1  0.736170  0.247640  0.021330  1.0  0.1214
  C  C813  1  0.752360  0.488530  0.021330  1.0  0.1225
  C  C814  1  0.488530  0.736170  0.978670  1.0  0.1182
  C  C815  1  0.263830  0.752360  0.978670  1.0  0.1233
  C  C816  1  0.247640  0.511470  0.978670  1.0  0.1239
  C  C817  1  0.178140  0.597160  0.354660  1.0  0.1207
  C  C818  1  0.402840  0.580970  0.354660  1.0  0.1219
  C  C819  1  0.419030  0.821860  0.354660  1.0  0.1226
  C  C820  1  0.155200  0.069500  0.312000  1.0  0.1184
  C  C821  1  0.930500  0.085690  0.312000  1.0  0.1236
  C  C822  1  0.914310  0.844800  0.312000  1.0  0.1237
  C  C823  1  0.844800  0.930500  0.688000  1.0  0.1204
  C  C824  1  0.069500  0.914310  0.688000  1.0  0.1216
  C  C825  1  0.085690  0.155200  0.688000  1.0  0.1222
  C  C826  1  0.821860  0.402840  0.645340  1.0  0.1188
  C  C827  1  0.597160  0.419030  0.645340  1.0  0.1239
  C  C828  1  0.580970  0.178140  0.645340  1.0  0.1241
  C  C829  1  0.689400  0.588800  0.338000  1.0  0.4247
  C  C830  1  0.411200  0.100600  0.338000  1.0  0.4222
  C  C831  1  0.899400  0.310600  0.338000  1.0  0.4235
  C  C832  1  0.310600  0.411200  0.662000  1.0  0.4228
  C  C833  1  0.588800  0.899400  0.662000  1.0  0.4219
  C  C834  1  0.100600  0.689400  0.662000  1.0  0.4234
  C  C835  1  0.356070  0.922130  0.671330  1.0  0.4248
  C  C836  1  0.077870  0.433930  0.671330  1.0  0.4221
  C  C837  1  0.566070  0.643930  0.671330  1.0  0.4234
  C  C838  1  0.977270  0.744530  0.995330  1.0  0.4229
  C  C839  1  0.255470  0.232730  0.995330  1.0  0.4218
  C  C840  1  0.767270  0.022730  0.995330  1.0  0.4234
  C  C841  1  0.022730  0.255470  0.004670  1.0  0.4247
  C  C842  1  0.744530  0.767270  0.004670  1.0  0.4221
  C  C843  1  0.232730  0.977270  0.004670  1.0  0.4235
  C  C844  1  0.643930  0.077870  0.328670  1.0  0.4229
  C  C845  1  0.922130  0.566070  0.328670  1.0  0.4218
  C  C846  1  0.433930  0.356070  0.328670  1.0  0.4233
  C  C847  1  0.456370  0.331730  0.935230  1.0  0.6442
  C  C848  1  0.668270  0.124640  0.935230  1.0  0.6442
  C  C849  1  0.875360  0.543630  0.935230  1.0  0.6441
  C  C850  1  0.543630  0.668270  0.064770  1.0  0.6452
  C  C851  1  0.331730  0.875360  0.064770  1.0  0.6448
  C  C852  1  0.124640  0.456370  0.064770  1.0  0.6435
  C  C853  1  0.123040  0.665060  0.268560  1.0  0.6441
  C  C854  1  0.334940  0.457970  0.268560  1.0  0.6443
  C  C855  1  0.542030  0.876960  0.268560  1.0  0.6441
  C  C856  1  0.210300  0.001600  0.398100  1.0  0.6452
  C  C857  1  0.998400  0.208690  0.398100  1.0  0.6448
  C  C858  1  0.791310  0.789700  0.398100  1.0  0.6435
  C  C859  1  0.789700  0.998400  0.601900  1.0  0.6442
  C  C860  1  0.001600  0.791310  0.601900  1.0  0.6442
  C  C861  1  0.208690  0.210300  0.601900  1.0  0.6441
  C  C862  1  0.876960  0.334940  0.731440  1.0  0.6451
  C  C863  1  0.665060  0.542030  0.731440  1.0  0.645
  C  C864  1  0.457970  0.123040  0.731440  1.0  0.6435
  C  C865  1  0.668600  0.591600  0.301000  1.0  0.2587
  C  C866  1  0.408400  0.077000  0.301000  1.0  0.2571
  C  C867  1  0.923000  0.331400  0.301000  1.0  0.2617
  C  C868  1  0.331400  0.408400  0.699000  1.0  0.2581
  C  C869  1  0.591600  0.923000  0.699000  1.0  0.2573
  C  C870  1  0.077000  0.668600  0.699000  1.0  0.26
  C  C871  1  0.335270  0.924930  0.634330  1.0  0.2586
  C  C872  1  0.075070  0.410330  0.634330  1.0  0.2572
  C  C873  1  0.589670  0.664730  0.634330  1.0  0.2617
  C  C874  1  0.998070  0.741730  0.032330  1.0  0.2581
  C  C875  1  0.258270  0.256330  0.032330  1.0  0.2573
  C  C876  1  0.743670  0.001930  0.032330  1.0  0.26
  C  C877  1  0.001930  0.258270  0.967670  1.0  0.2587
  C  C878  1  0.741730  0.743670  0.967670  1.0  0.2571
  C  C879  1  0.256330  0.998070  0.967670  1.0  0.2617
  C  C880  1  0.664730  0.075070  0.365670  1.0  0.2582
  C  C881  1  0.924930  0.589670  0.365670  1.0  0.2573
  C  C882  1  0.410330  0.335270  0.365670  1.0  0.26
  C  C883  1  0.823800  0.911900  0.650100  1.0  0.0693
  C  C884  1  0.088100  0.911900  0.650100  1.0  0.0698
  C  C885  1  0.088100  0.176200  0.650100  1.0  0.0671
  C  C886  1  0.176200  0.088100  0.349900  1.0  0.0642
  C  C887  1  0.911900  0.088100  0.349900  1.0  0.0679
  C  C888  1  0.911900  0.823800  0.349900  1.0  0.0695
  C  C889  1  0.490470  0.245230  0.983430  1.0  0.07
  C  C890  1  0.754770  0.245230  0.983430  1.0  0.0696
  C  C891  1  0.754770  0.509530  0.983430  1.0  0.0671
  C  C892  1  0.842870  0.421430  0.683230  1.0  0.0639
  C  C893  1  0.578570  0.421430  0.683230  1.0  0.0656
  C  C894  1  0.578570  0.157130  0.683230  1.0  0.0701
  C  C895  1  0.157130  0.578570  0.316770  1.0  0.0689
  C  C896  1  0.421430  0.578570  0.316770  1.0  0.0682
  C  C897  1  0.421430  0.842870  0.316770  1.0  0.0676
  C  C898  1  0.509530  0.754770  0.016570  1.0  0.0649
  C  C899  1  0.245230  0.754770  0.016570  1.0  0.0678
  C  C900  1  0.245230  0.490470  0.016570  1.0  0.0695
  C  C901  1  0.633400  0.469000  0.251300  1.0  0.586
  C  C902  1  0.531000  0.164400  0.251300  1.0  0.5853
  C  C903  1  0.835600  0.366600  0.251300  1.0  0.5857
  C  C904  1  0.366600  0.531000  0.748700  1.0  0.5858
  C  C905  1  0.469000  0.835600  0.748700  1.0  0.5853
  C  C906  1  0.164400  0.633400  0.748700  1.0  0.5844
  C  C907  1  0.300070  0.802330  0.584630  1.0  0.586
  C  C908  1  0.197670  0.497730  0.584630  1.0  0.5853
  C  C909  1  0.502270  0.699930  0.584630  1.0  0.5857
  C  C910  1  0.033270  0.864330  0.082030  1.0  0.5858
  C  C911  1  0.135670  0.168930  0.082030  1.0  0.5853
  C  C912  1  0.831070  0.966730  0.082030  1.0  0.5844
  C  C913  1  0.966730  0.135670  0.917970  1.0  0.586
  C  C914  1  0.864330  0.831070  0.917970  1.0  0.5853
  C  C915  1  0.168930  0.033270  0.917970  1.0  0.5857
  C  C916  1  0.699930  0.197670  0.415370  1.0  0.5858
  C  C917  1  0.802330  0.502270  0.415370  1.0  0.5854
  C  C918  1  0.497730  0.300070  0.415370  1.0  0.5844
  C  C919  1  0.557070  0.380130  0.082130  1.0  0.2277
  C  C920  1  0.619870  0.176940  0.082130  1.0  0.2285
  C  C921  1  0.823060  0.442930  0.082130  1.0  0.2283
  C  C922  1  0.442930  0.619870  0.917870  1.0  0.2276
  C  C923  1  0.380130  0.823060  0.917870  1.0  0.2289
  C  C924  1  0.176940  0.557070  0.917870  1.0  0.229
  C  C925  1  0.223740  0.713460  0.415460  1.0  0.2277
  C  C926  1  0.286540  0.510270  0.415460  1.0  0.2287
  C  C927  1  0.489730  0.776260  0.415460  1.0  0.2283
  C  C928  1  0.109600  0.953200  0.251200  1.0  0.2275
  C  C929  1  0.046800  0.156390  0.251200  1.0  0.229
  C  C930  1  0.843610  0.890400  0.251200  1.0  0.229
  C  C931  1  0.890400  0.046800  0.748800  1.0  0.2277
  C  C932  1  0.953200  0.843610  0.748800  1.0  0.2285
  C  C933  1  0.156390  0.109600  0.748800  1.0  0.2283
  C  C934  1  0.776260  0.286540  0.584540  1.0  0.2276
  C  C935  1  0.713460  0.489730  0.584540  1.0  0.2289
  C  C936  1  0.510270  0.223740  0.584540  1.0  0.2289
  C  C937  1  0.781100  0.800100  0.560100  1.0  0.2172
  C  C938  1  0.199900  0.981000  0.560100  1.0  0.2176
  C  C939  1  0.019000  0.218900  0.560100  1.0  0.2178
  C  C940  1  0.218900  0.199900  0.439900  1.0  0.216
  C  C941  1  0.800100  0.019000  0.439900  1.0  0.2185
  C  C942  1  0.981000  0.781100  0.439900  1.0  0.218
  C  C943  1  0.447770  0.133430  0.893430  1.0  0.2174
  C  C944  1  0.866570  0.314330  0.893430  1.0  0.2177
  C  C945  1  0.685670  0.552230  0.893430  1.0  0.2174
  C  C946  1  0.885570  0.533230  0.773230  1.0  0.216
  C  C947  1  0.466770  0.352330  0.773230  1.0  0.2185
  C  C948  1  0.647670  0.114430  0.773230  1.0  0.218
  C  C949  1  0.114430  0.466770  0.226770  1.0  0.2172
  C  C950  1  0.533230  0.647670  0.226770  1.0  0.2176
  C  C951  1  0.352330  0.885570  0.226770  1.0  0.2178
  C  C952  1  0.552230  0.866570  0.106570  1.0  0.2161
  C  C953  1  0.133430  0.685670  0.106570  1.0  0.2187
  C  C954  1  0.314330  0.447770  0.106570  1.0  0.2177
  C  C955  1  0.617800  0.653700  0.222700  1.0  0.2598
  C  C956  1  0.346300  0.964100  0.222700  1.0  0.2583
  C  C957  1  0.035900  0.382200  0.222700  1.0  0.2595
  C  C958  1  0.382200  0.346300  0.777300  1.0  0.2603
  C  C959  1  0.653700  0.035900  0.777300  1.0  0.2589
  C  C960  1  0.964100  0.617800  0.777300  1.0  0.2577
  C  C961  1  0.284470  0.987030  0.556030  1.0  0.2598
  C  C962  1  0.012970  0.297430  0.556030  1.0  0.2583
  C  C963  1  0.702570  0.715530  0.556030  1.0  0.2595
  C  C964  1  0.048870  0.679630  0.110630  1.0  0.26
  C  C965  1  0.320370  0.369230  0.110630  1.0  0.2589
  C  C966  1  0.630770  0.951130  0.110630  1.0  0.2581
  C  C967  1  0.951130  0.320370  0.889370  1.0  0.2595
  C  C968  1  0.679630  0.630770  0.889370  1.0  0.2582
  C  C969  1  0.369230  0.048870  0.889370  1.0  0.26
  C  C970  1  0.715530  0.012970  0.443970  1.0  0.2603
  C  C971  1  0.987030  0.702570  0.443970  1.0  0.2589
  C  C972  1  0.297430  0.284470  0.443970  1.0  0.2577
  C  C973  1  0.868900  0.838000  0.744200  1.0  0.4537
  C  C974  1  0.162000  0.030900  0.744200  1.0  0.4535
  C  C975  1  0.969100  0.131100  0.744200  1.0  0.4537
  C  C976  1  0.131100  0.162000  0.255800  1.0  0.4545
  C  C977  1  0.838000  0.969100  0.255800  1.0  0.453
  C  C978  1  0.030900  0.868900  0.255800  1.0  0.4539
  C  C979  1  0.535570  0.171330  0.077530  1.0  0.4537
  C  C980  1  0.828670  0.364230  0.077530  1.0  0.4535
  C  C981  1  0.635770  0.464430  0.077530  1.0  0.4537
  C  C982  1  0.797770  0.495330  0.589130  1.0  0.4544
  C  C983  1  0.504670  0.302430  0.589130  1.0  0.4528
  C  C984  1  0.697570  0.202230  0.589130  1.0  0.4538
  C  C985  1  0.202230  0.504670  0.410870  1.0  0.4536
  C  C986  1  0.495330  0.697570  0.410870  1.0  0.4533
  C  C987  1  0.302430  0.797770  0.410870  1.0  0.4536
  C  C988  1  0.464430  0.828670  0.922470  1.0  0.4545
  C  C989  1  0.171330  0.635770  0.922470  1.0  0.453
  C  C990  1  0.364230  0.535570  0.922470  1.0  0.4539
  C  C991  1  0.727100  0.514900  0.410700  1.0  0.03
  C  C992  1  0.485100  0.212200  0.410700  1.0  0.0289
  C  C993  1  0.787800  0.272900  0.410700  1.0  0.0302
  C  C994  1  0.272900  0.485100  0.589300  1.0  0.0312
  C  C995  1  0.514900  0.787800  0.589300  1.0  0.0289
  C  C996  1  0.212200  0.727100  0.589300  1.0  0.0296
  C  C997  1  0.393770  0.848230  0.744030  1.0  0.03
  C  C998  1  0.151770  0.545530  0.744030  1.0  0.0289
  C  C999  1  0.454470  0.606230  0.744030  1.0  0.0302
  C  C1000  1  0.939570  0.818430  0.922630  1.0  0.031
  C  C1001  1  0.181570  0.121130  0.922630  1.0  0.0291
  C  C1002  1  0.878870  0.060430  0.922630  1.0  0.0296
  C  C1003  1  0.060430  0.181570  0.077370  1.0  0.0298
  C  C1004  1  0.818430  0.878870  0.077370  1.0  0.0292
  C  C1005  1  0.121130  0.939570  0.077370  1.0  0.0303
  C  C1006  1  0.606230  0.151770  0.255970  1.0  0.0312
  C  C1007  1  0.848230  0.454470  0.255970  1.0  0.0289
  C  C1008  1  0.545530  0.393770  0.255970  1.0  0.0296
  O  O1009  1  0.735200  0.704500  0.424800  1.0  -0.601
  O  O1010  1  0.295500  0.030700  0.424800  1.0  -0.6057
  O  O1011  1  0.969300  0.264800  0.424800  1.0  -0.6008
  O  O1012  1  0.264800  0.295500  0.575200  1.0  -0.5991
  O  O1013  1  0.704500  0.969300  0.575200  1.0  -0.6028
  O  O1014  1  0.030700  0.735200  0.575200  1.0  -0.6009
  O  O1015  1  0.401870  0.037830  0.758130  1.0  -0.6011
  O  O1016  1  0.962170  0.364030  0.758130  1.0  -0.6058
  O  O1017  1  0.635970  0.598130  0.758130  1.0  -0.6008
  O  O1018  1  0.931470  0.628830  0.908530  1.0  -0.5991
  O  O1019  1  0.371170  0.302630  0.908530  1.0  -0.6028
  O  O1020  1  0.697370  0.068530  0.908530  1.0  -0.6009
  O  O1021  1  0.068530  0.371170  0.091470  1.0  -0.601
  O  O1022  1  0.628830  0.697370  0.091470  1.0  -0.6057
  O  O1023  1  0.302630  0.931470  0.091470  1.0  -0.6008
  O  O1024  1  0.598130  0.962170  0.241870  1.0  -0.5993
  O  O1025  1  0.037830  0.635970  0.241870  1.0  -0.6029
  O  O1026  1  0.364030  0.401870  0.241870  1.0  -0.6008
  O  O1027  1  0.434870  0.304630  0.903730  1.0  -0.5745
  O  O1028  1  0.695370  0.130240  0.903730  1.0  -0.5731
  O  O1029  1  0.869760  0.565130  0.903730  1.0  -0.576
  O  O1030  1  0.565130  0.695370  0.096270  1.0  -0.573
  O  O1031  1  0.304630  0.869760  0.096270  1.0  -0.574
  O  O1032  1  0.130240  0.434870  0.096270  1.0  -0.5747
  O  O1033  1  0.101540  0.637960  0.237060  1.0  -0.5746
  O  O1034  1  0.362040  0.463570  0.237060  1.0  -0.5732
  O  O1035  1  0.536430  0.898460  0.237060  1.0  -0.5757
  O  O1036  1  0.231800  0.028700  0.429600  1.0  -0.573
  O  O1037  1  0.971300  0.203090  0.429600  1.0  -0.574
  O  O1038  1  0.796910  0.768200  0.429600  1.0  -0.5747
  O  O1039  1  0.768200  0.971300  0.570400  1.0  -0.5745
  O  O1040  1  0.028700  0.796910  0.570400  1.0  -0.5731
  O  O1041  1  0.203090  0.231800  0.570400  1.0  -0.576
  O  O1042  1  0.898460  0.362040  0.762940  1.0  -0.5731
  O  O1043  1  0.637960  0.536430  0.762940  1.0  -0.5741
  O  O1044  1  0.463570  0.101540  0.762940  1.0  -0.5745
  O  O1045  1  0.706700  0.731700  0.405400  1.0  -0.7847
  O  O1046  1  0.268300  0.975000  0.405400  1.0  -0.7824
  O  O1047  1  0.025000  0.293300  0.405400  1.0  -0.7848
  O  O1048  1  0.293300  0.268300  0.594600  1.0  -0.7827
  O  O1049  1  0.731700  0.025000  0.594600  1.0  -0.7849
  O  O1050  1  0.975000  0.706700  0.594600  1.0  -0.7861
  O  O1051  1  0.373370  0.065030  0.738730  1.0  -0.7847
  O  O1052  1  0.934970  0.308330  0.738730  1.0  -0.7824
  O  O1053  1  0.691670  0.626630  0.738730  1.0  -0.7846
  O  O1054  1  0.959970  0.601630  0.927930  1.0  -0.7824
  O  O1055  1  0.398370  0.358330  0.927930  1.0  -0.7848
  O  O1056  1  0.641670  0.040030  0.927930  1.0  -0.7864
  O  O1057  1  0.040030  0.398370  0.072070  1.0  -0.7844
  O  O1058  1  0.601630  0.641670  0.072070  1.0  -0.7823
  O  O1059  1  0.358330  0.959970  0.072070  1.0  -0.7851
  O  O1060  1  0.626630  0.934970  0.261270  1.0  -0.7829
  O  O1061  1  0.065030  0.691670  0.261270  1.0  -0.7849
  O  O1062  1  0.308330  0.373370  0.261270  1.0  -0.7859
  O  O1063  1  0.462570  0.360930  0.924130  1.0  -0.5762
  O  O1064  1  0.639070  0.101640  0.924130  1.0  -0.5785
  O  O1065  1  0.898360  0.537430  0.924130  1.0  -0.578
  O  O1066  1  0.537430  0.639070  0.075870  1.0  -0.5757
  O  O1067  1  0.360930  0.898360  0.075870  1.0  -0.5781
  O  O1068  1  0.101640  0.462570  0.075870  1.0  -0.5785
  O  O1069  1  0.129240  0.694260  0.257460  1.0  -0.5761
  O  O1070  1  0.305740  0.434970  0.257460  1.0  -0.5786
  O  O1071  1  0.565030  0.870760  0.257460  1.0  -0.5778
  O  O1072  1  0.204100  0.972400  0.409200  1.0  -0.5757
  O  O1073  1  0.027600  0.231690  0.409200  1.0  -0.5781
  O  O1074  1  0.768310  0.795900  0.409200  1.0  -0.5785
  O  O1075  1  0.795900  0.027600  0.590800  1.0  -0.5762
  O  O1076  1  0.972400  0.768310  0.590800  1.0  -0.5785
  O  O1077  1  0.231690  0.204100  0.590800  1.0  -0.578
  O  O1078  1  0.870760  0.305740  0.742540  1.0  -0.5755
  O  O1079  1  0.694260  0.565030  0.742540  1.0  -0.5781
  O  O1080  1  0.434970  0.129240  0.742540  1.0  -0.5783
  O  O1081  1  0.553370  0.409730  0.099430  1.0  -0.7413
  O  O1082  1  0.590270  0.143640  0.099430  1.0  -0.7412
  O  O1083  1  0.856360  0.446630  0.099430  1.0  -0.7409
  O  O1084  1  0.446630  0.590270  0.900570  1.0  -0.742
  O  O1085  1  0.409730  0.856360  0.900570  1.0  -0.7428
  O  O1086  1  0.143640  0.553370  0.900570  1.0  -0.7418
  O  O1087  1  0.220040  0.743060  0.432760  1.0  -0.7414
  O  O1088  1  0.256940  0.476970  0.432760  1.0  -0.741
  O  O1089  1  0.523030  0.779960  0.432760  1.0  -0.741
  O  O1090  1  0.113300  0.923600  0.233900  1.0  -0.7423
  O  O1091  1  0.076400  0.189690  0.233900  1.0  -0.7432
  O  O1092  1  0.810310  0.886700  0.233900  1.0  -0.7417
  O  O1093  1  0.886700  0.076400  0.766100  1.0  -0.7416
  O  O1094  1  0.923600  0.810310  0.766100  1.0  -0.7415
  O  O1095  1  0.189690  0.113300  0.766100  1.0  -0.7409
  O  O1096  1  0.779960  0.256940  0.567240  1.0  -0.7421
  O  O1097  1  0.743060  0.523030  0.567240  1.0  -0.7427
  O  O1098  1  0.476970  0.220040  0.567240  1.0  -0.7418
  O  O1099  1  0.580170  0.385030  0.127930  1.0  -0.6852
  O  O1100  1  0.614970  0.195140  0.127930  1.0  -0.6847
  O  O1101  1  0.804860  0.419830  0.127930  1.0  -0.6845
  O  O1102  1  0.419830  0.614970  0.872070  1.0  -0.6866
  O  O1103  1  0.385030  0.804860  0.872070  1.0  -0.6832
  O  O1104  1  0.195140  0.580170  0.872070  1.0  -0.6829
  O  O1105  1  0.246840  0.718360  0.461260  1.0  -0.6848
  O  O1106  1  0.281640  0.528470  0.461260  1.0  -0.6849
  O  O1107  1  0.471530  0.753160  0.461260  1.0  -0.6849
  O  O1108  1  0.086500  0.948300  0.205400  1.0  -0.6866
  O  O1109  1  0.051700  0.138190  0.205400  1.0  -0.6832
  O  O1110  1  0.861810  0.913500  0.205400  1.0  -0.6829
  O  O1111  1  0.913500  0.051700  0.794600  1.0  -0.6852
  O  O1112  1  0.948300  0.861810  0.794600  1.0  -0.6847
  O  O1113  1  0.138190  0.086500  0.794600  1.0  -0.6845
  O  O1114  1  0.753160  0.281640  0.538740  1.0  -0.6862
  O  O1115  1  0.718360  0.471530  0.538740  1.0  -0.6835
  O  O1116  1  0.528470  0.246840  0.538740  1.0  -0.6833
  O  O1117  1  0.891600  0.865000  0.776000  1.0  -0.5925
  O  O1118  1  0.135000  0.026600  0.776000  1.0  -0.5925
  O  O1119  1  0.973400  0.108400  0.776000  1.0  -0.592
  O  O1120  1  0.108400  0.135000  0.224000  1.0  -0.5918
  O  O1121  1  0.865000  0.973400  0.224000  1.0  -0.5916
  O  O1122  1  0.026600  0.891600  0.224000  1.0  -0.5918
  O  O1123  1  0.558270  0.198330  0.109330  1.0  -0.5925
  O  O1124  1  0.801670  0.359930  0.109330  1.0  -0.5925
  O  O1125  1  0.640070  0.441730  0.109330  1.0  -0.592
  O  O1126  1  0.775070  0.468330  0.557330  1.0  -0.5923
  O  O1127  1  0.531670  0.306730  0.557330  1.0  -0.592
  O  O1128  1  0.693270  0.224930  0.557330  1.0  -0.5915
  O  O1129  1  0.224930  0.531670  0.442670  1.0  -0.593
  O  O1130  1  0.468330  0.693270  0.442670  1.0  -0.593
  O  O1131  1  0.306730  0.775070  0.442670  1.0  -0.5918
  O  O1132  1  0.441730  0.801670  0.890670  1.0  -0.5918
  O  O1133  1  0.198330  0.640070  0.890670  1.0  -0.5916
  O  O1134  1  0.359930  0.558270  0.890670  1.0  -0.5918
  O  O1135  1  0.865300  0.807800  0.757700  1.0  -0.5561
  O  O1136  1  0.192200  0.057500  0.757700  1.0  -0.555
  O  O1137  1  0.942500  0.134700  0.757700  1.0  -0.5561
  O  O1138  1  0.134700  0.192200  0.242300  1.0  -0.5544
  O  O1139  1  0.807800  0.942500  0.242300  1.0  -0.5568
  O  O1140  1  0.057500  0.865300  0.242300  1.0  -0.5565
  O  O1141  1  0.531970  0.141130  0.091030  1.0  -0.5564
  O  O1142  1  0.858870  0.390830  0.091030  1.0  -0.5547
  O  O1143  1  0.609170  0.468030  0.091030  1.0  -0.556
  O  O1144  1  0.801370  0.525530  0.575630  1.0  -0.5547
  O  O1145  1  0.474470  0.275830  0.575630  1.0  -0.5566
  O  O1146  1  0.724170  0.198630  0.575630  1.0  -0.5565
  O  O1147  1  0.198630  0.474470  0.424370  1.0  -0.5564
  O  O1148  1  0.525530  0.724170  0.424370  1.0  -0.5548
  O  O1149  1  0.275830  0.801370  0.424370  1.0  -0.556
  O  O1150  1  0.468030  0.858870  0.908970  1.0  -0.5545
  O  O1151  1  0.141130  0.609170  0.908970  1.0  -0.5566
  O  O1152  1  0.390830  0.531970  0.908970  1.0  -0.5565
  O  O1153  1  0.612600  0.475300  0.220500  1.0  -0.5997
  O  O1154  1  0.524700  0.137300  0.220500  1.0  -0.6021
  O  O1155  1  0.862700  0.387400  0.220500  1.0  -0.6001
  O  O1156  1  0.387400  0.524700  0.779500  1.0  -0.5993
  O  O1157  1  0.475300  0.862700  0.779500  1.0  -0.6011
  O  O1158  1  0.137300  0.612600  0.779500  1.0  -0.5992
  O  O1159  1  0.279270  0.808630  0.553830  1.0  -0.5999
  O  O1160  1  0.191370  0.470630  0.553830  1.0  -0.602
  O  O1161  1  0.529370  0.720730  0.553830  1.0  -0.6002
  O  O1162  1  0.054070  0.858030  0.112830  1.0  -0.5993
  O  O1163  1  0.141970  0.196030  0.112830  1.0  -0.6009
  O  O1164  1  0.803970  0.945930  0.112830  1.0  -0.5993
  O  O1165  1  0.945930  0.141970  0.887170  1.0  -0.5997
  O  O1166  1  0.858030  0.803970  0.887170  1.0  -0.602
  O  O1167  1  0.196030  0.054070  0.887170  1.0  -0.6002
  O  O1168  1  0.720730  0.191370  0.446170  1.0  -0.5995
  O  O1169  1  0.808630  0.529370  0.446170  1.0  -0.6009
  O  O1170  1  0.470630  0.279270  0.446170  1.0  -0.5993
  O  O1171  1  0.634400  0.440800  0.243000  1.0  -0.5843
  O  O1172  1  0.559200  0.193600  0.243000  1.0  -0.5838
  O  O1173  1  0.806400  0.365600  0.243000  1.0  -0.5805
  O  O1174  1  0.365600  0.559200  0.757000  1.0  -0.5861
  O  O1175  1  0.440800  0.806400  0.757000  1.0  -0.5834
  O  O1176  1  0.193600  0.634400  0.757000  1.0  -0.5803
  O  O1177  1  0.301070  0.774130  0.576330  1.0  -0.5844
  O  O1178  1  0.225870  0.526930  0.576330  1.0  -0.5838
  O  O1179  1  0.473070  0.698930  0.576330  1.0  -0.5805
  O  O1180  1  0.032270  0.892530  0.090330  1.0  -0.5862
  O  O1181  1  0.107470  0.139730  0.090330  1.0  -0.5828
  O  O1182  1  0.860270  0.967730  0.090330  1.0  -0.5803
  O  O1183  1  0.967730  0.107470  0.909670  1.0  -0.5843
  O  O1184  1  0.892530  0.860270  0.909670  1.0  -0.5832
  O  O1185  1  0.139730  0.032270  0.909670  1.0  -0.5805
  O  O1186  1  0.698930  0.225870  0.423670  1.0  -0.5862
  O  O1187  1  0.774130  0.473070  0.423670  1.0  -0.5834
  O  O1188  1  0.526930  0.301070  0.423670  1.0  -0.5803
  O  O1189  1  0.622800  0.686600  0.220000  1.0  -0.5773
  O  O1190  1  0.313400  0.936200  0.220000  1.0  -0.5774
  O  O1191  1  0.063800  0.377200  0.220000  1.0  -0.5773
  O  O1192  1  0.377200  0.313400  0.780000  1.0  -0.5772
  O  O1193  1  0.686600  0.063800  0.780000  1.0  -0.5764
  O  O1194  1  0.936200  0.622800  0.780000  1.0  -0.5768
  O  O1195  1  0.289470  0.019930  0.553330  1.0  -0.5773
  O  O1196  1  0.980070  0.269530  0.553330  1.0  -0.5774
  O  O1197  1  0.730470  0.710530  0.553330  1.0  -0.5773
  O  O1198  1  0.043870  0.646730  0.113330  1.0  -0.5772
  O  O1199  1  0.353270  0.397130  0.113330  1.0  -0.5769
  O  O1200  1  0.602870  0.956130  0.113330  1.0  -0.577
  O  O1201  1  0.956130  0.353270  0.886670  1.0  -0.5773
  O  O1202  1  0.646730  0.602870  0.886670  1.0  -0.5779
  O  O1203  1  0.397130  0.043870  0.886670  1.0  -0.5775
  O  O1204  1  0.710530  0.980070  0.446670  1.0  -0.5772
  O  O1205  1  0.019930  0.730470  0.446670  1.0  -0.5764
  O  O1206  1  0.269530  0.289470  0.446670  1.0  -0.5768
  O  O1207  1  0.591800  0.635200  0.182600  1.0  -0.584
  O  O1208  1  0.364800  0.956600  0.182600  1.0  -0.5836
  O  O1209  1  0.043400  0.408200  0.182600  1.0  -0.5835
  O  O1210  1  0.408200  0.364800  0.817400  1.0  -0.5843
  O  O1211  1  0.635200  0.043400  0.817400  1.0  -0.5856
  O  O1212  1  0.956600  0.591800  0.817400  1.0  -0.582
  O  O1213  1  0.258470  0.968530  0.515930  1.0  -0.584
  O  O1214  1  0.031470  0.289930  0.515930  1.0  -0.5836
  O  O1215  1  0.710070  0.741530  0.515930  1.0  -0.5835
  O  O1216  1  0.074870  0.698130  0.150730  1.0  -0.584
  O  O1217  1  0.301870  0.376730  0.150730  1.0  -0.5858
  O  O1218  1  0.623270  0.925130  0.150730  1.0  -0.5815
  O  O1219  1  0.925130  0.301870  0.849270  1.0  -0.5837
  O  O1220  1  0.698130  0.623270  0.849270  1.0  -0.5839
  O  O1221  1  0.376730  0.074870  0.849270  1.0  -0.5832
  O  O1222  1  0.741530  0.031470  0.484070  1.0  -0.5843
  O  O1223  1  0.968530  0.710070  0.484070  1.0  -0.5856
  O  O1224  1  0.289930  0.258470  0.484070  1.0  -0.582
  O  O1225  1  0.789200  0.774000  0.555200  1.0  -0.6488
  O  O1226  1  0.226000  0.015200  0.555200  1.0  -0.6504
  O  O1227  1  0.984800  0.210800  0.555200  1.0  -0.6435
  O  O1228  1  0.210800  0.226000  0.444800  1.0  -0.6492
  O  O1229  1  0.774000  0.984800  0.444800  1.0  -0.6505
  O  O1230  1  0.015200  0.789200  0.444800  1.0  -0.6444
  O  O1231  1  0.455870  0.107330  0.888530  1.0  -0.6487
  O  O1232  1  0.892670  0.348530  0.888530  1.0  -0.6504
  O  O1233  1  0.651470  0.544130  0.888530  1.0  -0.6377
  O  O1234  1  0.877470  0.559330  0.778130  1.0  -0.6492
  O  O1235  1  0.440670  0.318130  0.778130  1.0  -0.6505
  O  O1236  1  0.681870  0.122530  0.778130  1.0  -0.6444
  O  O1237  1  0.122530  0.440670  0.221870  1.0  -0.6488
  O  O1238  1  0.559330  0.681870  0.221870  1.0  -0.6504
  O  O1239  1  0.318130  0.877470  0.221870  1.0  -0.6435
  O  O1240  1  0.544130  0.892670  0.111470  1.0  -0.6488
  O  O1241  1  0.107330  0.651470  0.111470  1.0  -0.6508
  O  O1242  1  0.348530  0.455870  0.111470  1.0  -0.6382
  O  O1243  1  0.755300  0.788800  0.515300  1.0  -0.552
  O  O1244  1  0.211200  0.966500  0.515300  1.0  -0.5512
  O  O1245  1  0.033500  0.244700  0.515300  1.0  -0.5479
  O  O1246  1  0.244700  0.211200  0.484700  1.0  -0.5492
  O  O1247  1  0.788800  0.033500  0.484700  1.0  -0.5509
  O  O1248  1  0.966500  0.755300  0.484700  1.0  -0.5496
  O  O1249  1  0.421970  0.122130  0.848630  1.0  -0.5518
  O  O1250  1  0.877870  0.299830  0.848630  1.0  -0.5516
  O  O1251  1  0.700170  0.578030  0.848630  1.0  -0.5483
  O  O1252  1  0.911370  0.544530  0.818030  1.0  -0.5492
  O  O1253  1  0.455470  0.366830  0.818030  1.0  -0.5509
  O  O1254  1  0.633170  0.088630  0.818030  1.0  -0.5496
  O  O1255  1  0.088630  0.455470  0.181970  1.0  -0.552
  O  O1256  1  0.544530  0.633170  0.181970  1.0  -0.5512
  O  O1257  1  0.366830  0.911370  0.181970  1.0  -0.5479
  O  O1258  1  0.578030  0.877870  0.151370  1.0  -0.549
  O  O1259  1  0.122130  0.700170  0.151370  1.0  -0.5512
  O  O1260  1  0.299830  0.421970  0.151370  1.0  -0.5499
  O  O1261  1  0.752700  0.530600  0.465100  1.0  -0.6564
  O  O1262  1  0.469400  0.222100  0.465100  1.0  -0.6512
  O  O1263  1  0.777900  0.247300  0.465100  1.0  -0.6506
  O  O1264  1  0.247300  0.469400  0.534900  1.0  -0.6556
  O  O1265  1  0.530600  0.777900  0.534900  1.0  -0.6546
  O  O1266  1  0.222100  0.752700  0.534900  1.0  -0.6547
  O  O1267  1  0.419370  0.863930  0.798430  1.0  -0.6564
  O  O1268  1  0.136070  0.555430  0.798430  1.0  -0.6513
  O  O1269  1  0.444570  0.580630  0.798430  1.0  -0.6506
  O  O1270  1  0.913970  0.802730  0.868230  1.0  -0.6562
  O  O1271  1  0.197270  0.111230  0.868230  1.0  -0.6554
  O  O1272  1  0.888770  0.086030  0.868230  1.0  -0.654
  O  O1273  1  0.086030  0.197270  0.131770  1.0  -0.6571
  O  O1274  1  0.802730  0.888770  0.131770  1.0  -0.652
  O  O1275  1  0.111230  0.913970  0.131770  1.0  -0.6498
  O  O1276  1  0.580630  0.136070  0.201570  1.0  -0.6556
  O  O1277  1  0.863930  0.444570  0.201570  1.0  -0.6546
  O  O1278  1  0.555430  0.419370  0.201570  1.0  -0.6547
