# generated using pymatgen
data_Co3H20C48Br4N4O9
_symmetry_space_group_name_H-M   'P 1'
_cell_length_a   38.80500000
_cell_length_b   38.80500000
_cell_length_c   38.80500000
_cell_angle_alpha   90.00000000
_cell_angle_beta   90.00000000
_cell_angle_gamma   90.00000000
_symmetry_Int_Tables_number   1
_chemical_formula_structural   Co3H20C48Br4N4O9
_chemical_formula_sum   'Co72 H480 C1152 Br96 N96 O216'
_cell_volume   58433.65651013
_cell_formula_units_Z   24
loop_
 _symmetry_equiv_pos_site_id
 _symmetry_equiv_pos_as_xyz
  1  'x, y, z'
loop_
 _atom_site_type_symbol
 _atom_site_label
 _atom_site_symmetry_multiplicity
 _atom_site_fract_x
 _atom_site_fract_y
 _atom_site_fract_z
 _atom_site_occupancy
 _atom_site_charge
  Co  Co1  1  0.950340  0.366260  0.973910  1.0  1.1151
  Co  Co2  1  0.959950  0.225340  0.468590  1.0  0.8292
  Co  Co3  1  0.966440  0.314490  0.704000  1.0  0.8028
  Co  Co4  1  0.549660  0.633740  0.473910  1.0  1.1147
  Co  Co5  1  0.540050  0.774660  0.968590  1.0  0.8334
  Co  Co6  1  0.533560  0.685510  0.204000  1.0  0.803
  Co  Co7  1  0.049660  0.866260  0.526090  1.0  1.1151
  Co  Co8  1  0.040050  0.725340  0.031410  1.0  0.8298
  Co  Co9  1  0.033560  0.814490  0.796000  1.0  0.8028
  Co  Co10  1  0.450340  0.133740  0.026090  1.0  1.1152
  Co  Co11  1  0.459950  0.274660  0.531410  1.0  0.83
  Co  Co12  1  0.466440  0.185510  0.296000  1.0  0.8036
  Co  Co13  1  0.973910  0.950340  0.366260  1.0  1.1167
  Co  Co14  1  0.468590  0.959950  0.225340  1.0  0.8246
  Co  Co15  1  0.704000  0.966440  0.314490  1.0  0.8037
  Co  Co16  1  0.473910  0.549660  0.633740  1.0  1.1159
  Co  Co17  1  0.968590  0.540050  0.774660  1.0  0.8259
  Co  Co18  1  0.204000  0.533560  0.685510  1.0  0.8032
  Co  Co19  1  0.526090  0.049660  0.866260  1.0  1.1161
  Co  Co20  1  0.031410  0.040050  0.725340  1.0  0.827
  Co  Co21  1  0.796000  0.033560  0.814490  1.0  0.8037
  Co  Co22  1  0.026090  0.450340  0.133740  1.0  1.1176
  Co  Co23  1  0.531410  0.459950  0.274660  1.0  0.8248
  Co  Co24  1  0.296000  0.466440  0.185510  1.0  0.8027
  Co  Co25  1  0.366260  0.973910  0.950340  1.0  1.1177
  Co  Co26  1  0.225340  0.468590  0.959950  1.0  0.8272
  Co  Co27  1  0.314490  0.704000  0.966440  1.0  0.8036
  Co  Co28  1  0.633740  0.473910  0.549660  1.0  1.1174
  Co  Co29  1  0.774660  0.968590  0.540050  1.0  0.8266
  Co  Co30  1  0.685510  0.204000  0.533560  1.0  0.8031
  Co  Co31  1  0.866260  0.526090  0.049660  1.0  1.1172
  Co  Co32  1  0.725340  0.031410  0.040050  1.0  0.8285
  Co  Co33  1  0.814490  0.796000  0.033560  1.0  0.8029
  Co  Co34  1  0.133740  0.026090  0.450340  1.0  1.1165
  Co  Co35  1  0.274660  0.531410  0.459950  1.0  0.8275
  Co  Co36  1  0.185510  0.296000  0.466440  1.0  0.8031
  Co  Co37  1  0.049660  0.633740  0.026090  1.0  1.1162
  Co  Co38  1  0.040050  0.774660  0.531410  1.0  0.8317
  Co  Co39  1  0.033560  0.685510  0.296000  1.0  0.8033
  Co  Co40  1  0.450340  0.366260  0.526090  1.0  1.1166
  Co  Co41  1  0.459950  0.225340  0.031410  1.0  0.8297
  Co  Co42  1  0.466440  0.314490  0.796000  1.0  0.8031
  Co  Co43  1  0.950340  0.133740  0.473910  1.0  1.1161
  Co  Co44  1  0.959950  0.274660  0.968590  1.0  0.8316
  Co  Co45  1  0.966440  0.185510  0.204000  1.0  0.8032
  Co  Co46  1  0.549660  0.866260  0.973910  1.0  1.116
  Co  Co47  1  0.540050  0.725340  0.468590  1.0  0.8296
  Co  Co48  1  0.533560  0.814490  0.704000  1.0  0.8025
  Co  Co49  1  0.026090  0.049660  0.633740  1.0  1.117
  Co  Co50  1  0.531410  0.040050  0.774660  1.0  0.8246
  Co  Co51  1  0.296000  0.033560  0.685510  1.0  0.8029
  Co  Co52  1  0.526090  0.450340  0.366260  1.0  1.1169
  Co  Co53  1  0.031410  0.459950  0.225340  1.0  0.8273
  Co  Co54  1  0.796000  0.466440  0.314490  1.0  0.8034
  Co  Co55  1  0.473910  0.950340  0.133740  1.0  1.1167
  Co  Co56  1  0.968590  0.959950  0.274660  1.0  0.8261
  Co  Co57  1  0.204000  0.966440  0.185510  1.0  0.803
  Co  Co58  1  0.973910  0.549660  0.866260  1.0  1.1164
  Co  Co59  1  0.468590  0.540050  0.725340  1.0  0.8247
  Co  Co60  1  0.704000  0.533560  0.814490  1.0  0.804
  Co  Co61  1  0.633740  0.026090  0.049660  1.0  1.1165
  Co  Co62  1  0.774660  0.531410  0.040050  1.0  0.8277
  Co  Co63  1  0.685510  0.296000  0.033560  1.0  0.8028
  Co  Co64  1  0.366260  0.526090  0.450340  1.0  1.1172
  Co  Co65  1  0.225340  0.031410  0.459950  1.0  0.8282
  Co  Co66  1  0.314490  0.796000  0.466440  1.0  0.8033
  Co  Co67  1  0.133740  0.473910  0.950340  1.0  1.1175
  Co  Co68  1  0.274660  0.968590  0.959950  1.0  0.8266
  Co  Co69  1  0.185510  0.204000  0.966440  1.0  0.8035
  Co  Co70  1  0.866260  0.973910  0.549660  1.0  1.118
  Co  Co71  1  0.725340  0.468590  0.540050  1.0  0.8276
  Co  Co72  1  0.814490  0.704000  0.533560  1.0  0.8032
  H  H73  1  0.984000  0.135600  0.575100  1.0  0.1082
  H  H74  1  0.961800  0.233500  0.580800  1.0  0.0979
  H  H75  1  0.996600  0.188400  0.664600  1.0  0.1167
  H  H76  1  0.937200  0.350900  0.834000  1.0  0.1336
  H  H77  1  0.948000  0.440600  0.884400  1.0  0.1228
  H  H78  1  0.959800  0.436500  0.781800  1.0  0.1235
  H  H79  1  0.893300  0.407000  0.764400  1.0  0.1381
  H  H80  1  0.854900  0.381700  0.719900  1.0  0.1192
  H  H81  1  0.867200  0.284900  0.629300  1.0  0.1192
  H  H82  1  0.909500  0.243700  0.606100  1.0  0.1372
  H  H83  1  0.807100  0.385000  0.613800  1.0  0.1261
  H  H84  1  0.760000  0.360800  0.642600  1.0  0.1272
  H  H85  1  0.769000  0.319900  0.686000  1.0  0.1214
  H  H86  1  0.043700  0.230000  0.639400  1.0  0.1215
  H  H87  1  0.086200  0.262200  0.675100  1.0  0.1341
  H  H88  1  0.069400  0.348300  0.779900  1.0  0.137
  H  H89  1  0.018500  0.374900  0.807600  1.0  0.1249
  H  H90  1  0.154600  0.277200  0.768000  1.0  0.1208
  H  H91  1  0.186100  0.320400  0.739900  1.0  0.1175
  H  H92  1  0.158100  0.359000  0.703100  1.0  0.11
  H  H93  1  0.516000  0.864400  0.075100  1.0  0.108
  H  H94  1  0.538200  0.766500  0.080800  1.0  0.0981
  H  H95  1  0.503400  0.811600  0.164600  1.0  0.1163
  H  H96  1  0.562800  0.649100  0.334000  1.0  0.1317
  H  H97  1  0.552000  0.559400  0.384400  1.0  0.1228
  H  H98  1  0.540200  0.563500  0.281800  1.0  0.1233
  H  H99  1  0.606700  0.593000  0.264400  1.0  0.1373
  H  H100  1  0.645100  0.618300  0.219900  1.0  0.1183
  H  H101  1  0.632800  0.715100  0.129300  1.0  0.1189
  H  H102  1  0.590500  0.756300  0.106100  1.0  0.1363
  H  H103  1  0.692900  0.615000  0.113800  1.0  0.1258
  H  H104  1  0.740000  0.639200  0.142600  1.0  0.1294
  H  H105  1  0.731000  0.680100  0.186000  1.0  0.1219
  H  H106  1  0.456300  0.770000  0.139400  1.0  0.1219
  H  H107  1  0.413800  0.737800  0.175100  1.0  0.1344
  H  H108  1  0.430600  0.651700  0.279900  1.0  0.1375
  H  H109  1  0.481500  0.625100  0.307600  1.0  0.1259
  H  H110  1  0.345400  0.722800  0.268000  1.0  0.1203
  H  H111  1  0.313900  0.679600  0.239900  1.0  0.1174
  H  H112  1  0.341900  0.641000  0.203100  1.0  0.11
  H  H113  1  0.016000  0.635600  0.924900  1.0  0.1085
  H  H114  1  0.038200  0.733500  0.919200  1.0  0.0974
  H  H115  1  0.003400  0.688400  0.835400  1.0  0.1174
  H  H116  1  0.062800  0.850900  0.666000  1.0  0.1332
  H  H117  1  0.052000  0.940600  0.615600  1.0  0.1232
  H  H118  1  0.040200  0.936500  0.718200  1.0  0.1233
  H  H119  1  0.106700  0.907000  0.735600  1.0  0.1376
  H  H120  1  0.145100  0.881700  0.780100  1.0  0.119
  H  H121  1  0.132800  0.784900  0.870700  1.0  0.1188
  H  H122  1  0.090500  0.743700  0.893900  1.0  0.137
  H  H123  1  0.192900  0.885000  0.886200  1.0  0.1264
  H  H124  1  0.240000  0.860800  0.857400  1.0  0.1284
  H  H125  1  0.231000  0.819900  0.814000  1.0  0.1218
  H  H126  1  0.956300  0.730000  0.860600  1.0  0.1223
  H  H127  1  0.913800  0.762200  0.824900  1.0  0.134
  H  H128  1  0.930600  0.848300  0.720100  1.0  0.1379
  H  H129  1  0.981500  0.874900  0.692400  1.0  0.1262
  H  H130  1  0.845400  0.777200  0.732000  1.0  0.1198
  H  H131  1  0.813900  0.820400  0.760100  1.0  0.1164
  H  H132  1  0.841900  0.859000  0.796900  1.0  0.1101
  H  H133  1  0.484000  0.364400  0.424900  1.0  0.1088
  H  H134  1  0.461800  0.266500  0.419200  1.0  0.098
  H  H135  1  0.496600  0.311600  0.335400  1.0  0.117
  H  H136  1  0.437200  0.149100  0.166000  1.0  0.1319
  H  H137  1  0.448000  0.059400  0.115600  1.0  0.123
  H  H138  1  0.459800  0.063500  0.218200  1.0  0.1231
  H  H139  1  0.393300  0.093000  0.235600  1.0  0.1376
  H  H140  1  0.354900  0.118300  0.280100  1.0  0.1201
  H  H141  1  0.367200  0.215100  0.370700  1.0  0.1197
  H  H142  1  0.409500  0.256300  0.393900  1.0  0.1372
  H  H143  1  0.307100  0.115000  0.386200  1.0  0.1258
  H  H144  1  0.260000  0.139200  0.357400  1.0  0.1267
  H  H145  1  0.269000  0.180100  0.314000  1.0  0.121
  H  H146  1  0.543700  0.270000  0.360600  1.0  0.1209
  H  H147  1  0.586200  0.237800  0.324900  1.0  0.1336
  H  H148  1  0.569400  0.151700  0.220100  1.0  0.1373
  H  H149  1  0.518500  0.125100  0.192400  1.0  0.126
  H  H150  1  0.654600  0.222800  0.232000  1.0  0.1204
  H  H151  1  0.686100  0.179600  0.260100  1.0  0.1187
  H  H152  1  0.658100  0.141000  0.296900  1.0  0.1099
  H  H153  1  0.575100  0.984000  0.135600  1.0  0.1093
  H  H154  1  0.580800  0.961800  0.233500  1.0  0.0981
  H  H155  1  0.664600  0.996600  0.188400  1.0  0.1162
  H  H156  1  0.834000  0.937200  0.350900  1.0  0.1322
  H  H157  1  0.884400  0.948000  0.440600  1.0  0.1232
  H  H158  1  0.781800  0.959800  0.436500  1.0  0.1232
  H  H159  1  0.764400  0.893300  0.407000  1.0  0.1384
  H  H160  1  0.719900  0.854900  0.381700  1.0  0.1201
  H  H161  1  0.629300  0.867200  0.284900  1.0  0.1211
  H  H162  1  0.606100  0.909500  0.243700  1.0  0.1371
  H  H163  1  0.613800  0.807100  0.385000  1.0  0.126
  H  H164  1  0.642600  0.760000  0.360800  1.0  0.1313
  H  H165  1  0.686000  0.769000  0.319900  1.0  0.122
  H  H166  1  0.639400  0.043700  0.230000  1.0  0.1222
  H  H167  1  0.675100  0.086200  0.262200  1.0  0.1341
  H  H168  1  0.779900  0.069400  0.348300  1.0  0.1377
  H  H169  1  0.807600  0.018500  0.374900  1.0  0.1252
  H  H170  1  0.768000  0.154600  0.277200  1.0  0.1215
  H  H171  1  0.739900  0.186100  0.320400  1.0  0.1195
  H  H172  1  0.703100  0.158100  0.359000  1.0  0.1109
  H  H173  1  0.075100  0.516000  0.864400  1.0  0.1088
  H  H174  1  0.080800  0.538200  0.766500  1.0  0.0995
  H  H175  1  0.164600  0.503400  0.811600  1.0  0.1162
  H  H176  1  0.334000  0.562800  0.649100  1.0  0.1311
  H  H177  1  0.384400  0.552000  0.559400  1.0  0.123
  H  H178  1  0.281800  0.540200  0.563500  1.0  0.1226
  H  H179  1  0.264400  0.606700  0.593000  1.0  0.138
  H  H180  1  0.219900  0.645100  0.618300  1.0  0.1201
  H  H181  1  0.129300  0.632800  0.715100  1.0  0.1211
  H  H182  1  0.106100  0.590500  0.756300  1.0  0.1371
  H  H183  1  0.113800  0.692900  0.615000  1.0  0.1262
  H  H184  1  0.142600  0.740000  0.639200  1.0  0.1314
  H  H185  1  0.186000  0.731000  0.680100  1.0  0.1229
  H  H186  1  0.139400  0.456300  0.770000  1.0  0.1219
  H  H187  1  0.175100  0.413800  0.737800  1.0  0.1344
  H  H188  1  0.279900  0.430600  0.651700  1.0  0.1373
  H  H189  1  0.307600  0.481500  0.625100  1.0  0.1256
  H  H190  1  0.268000  0.345400  0.722800  1.0  0.1218
  H  H191  1  0.239900  0.313900  0.679600  1.0  0.1194
  H  H192  1  0.203100  0.341900  0.641000  1.0  0.1102
  H  H193  1  0.924900  0.016000  0.635600  1.0  0.1093
  H  H194  1  0.919200  0.038200  0.733500  1.0  0.098
  H  H195  1  0.835400  0.003400  0.688400  1.0  0.1169
  H  H196  1  0.666000  0.062800  0.850900  1.0  0.1325
  H  H197  1  0.615600  0.052000  0.940600  1.0  0.1233
  H  H198  1  0.718200  0.040200  0.936500  1.0  0.124
  H  H199  1  0.735600  0.106700  0.907000  1.0  0.1383
  H  H200  1  0.780100  0.145100  0.881700  1.0  0.12
  H  H201  1  0.870700  0.132800  0.784900  1.0  0.1215
  H  H202  1  0.893900  0.090500  0.743700  1.0  0.1371
  H  H203  1  0.886200  0.192900  0.885000  1.0  0.1257
  H  H204  1  0.857400  0.240000  0.860800  1.0  0.1308
  H  H205  1  0.814000  0.231000  0.819900  1.0  0.1229
  H  H206  1  0.860600  0.956300  0.730000  1.0  0.1213
  H  H207  1  0.824900  0.913800  0.762200  1.0  0.1343
  H  H208  1  0.720100  0.930600  0.848300  1.0  0.1381
  H  H209  1  0.692400  0.981500  0.874900  1.0  0.125
  H  H210  1  0.732000  0.845400  0.777200  1.0  0.1201
  H  H211  1  0.760100  0.813900  0.820400  1.0  0.1192
  H  H212  1  0.796900  0.841900  0.859000  1.0  0.1108
  H  H213  1  0.424900  0.484000  0.364400  1.0  0.1084
  H  H214  1  0.419200  0.461800  0.266500  1.0  0.0986
  H  H215  1  0.335400  0.496600  0.311600  1.0  0.1172
  H  H216  1  0.166000  0.437200  0.149100  1.0  0.132
  H  H217  1  0.115600  0.448000  0.059400  1.0  0.1233
  H  H218  1  0.218200  0.459800  0.063500  1.0  0.1241
  H  H219  1  0.235600  0.393300  0.093000  1.0  0.1381
  H  H220  1  0.280100  0.354900  0.118300  1.0  0.1197
  H  H221  1  0.370700  0.367200  0.215100  1.0  0.1208
  H  H222  1  0.393900  0.409500  0.256300  1.0  0.1375
  H  H223  1  0.386200  0.307100  0.115000  1.0  0.1266
  H  H224  1  0.357400  0.260000  0.139200  1.0  0.1316
  H  H225  1  0.314000  0.269000  0.180100  1.0  0.1229
  H  H226  1  0.360600  0.543700  0.270000  1.0  0.1218
  H  H227  1  0.324900  0.586200  0.237800  1.0  0.1338
  H  H228  1  0.220100  0.569400  0.151700  1.0  0.1376
  H  H229  1  0.192400  0.518500  0.125100  1.0  0.1257
  H  H230  1  0.232000  0.654600  0.222800  1.0  0.1208
  H  H231  1  0.260100  0.686100  0.179600  1.0  0.1191
  H  H232  1  0.296900  0.658100  0.141000  1.0  0.1101
  H  H233  1  0.135600  0.575100  0.984000  1.0  0.1084
  H  H234  1  0.233500  0.580800  0.961800  1.0  0.0976
  H  H235  1  0.188400  0.664600  0.996600  1.0  0.1159
  H  H236  1  0.350900  0.834000  0.937200  1.0  0.1325
  H  H237  1  0.440600  0.884400  0.948000  1.0  0.1239
  H  H238  1  0.436500  0.781800  0.959800  1.0  0.1224
  H  H239  1  0.407000  0.764400  0.893300  1.0  0.1382
  H  H240  1  0.381700  0.719900  0.854900  1.0  0.1199
  H  H241  1  0.284900  0.629300  0.867200  1.0  0.1195
  H  H242  1  0.243700  0.606100  0.909500  1.0  0.1381
  H  H243  1  0.385000  0.613800  0.807100  1.0  0.1275
  H  H244  1  0.360800  0.642600  0.760000  1.0  0.1284
  H  H245  1  0.319900  0.686000  0.769000  1.0  0.1216
  H  H246  1  0.230000  0.639400  0.043700  1.0  0.1222
  H  H247  1  0.262200  0.675100  0.086200  1.0  0.1324
  H  H248  1  0.348300  0.779900  0.069400  1.0  0.138
  H  H249  1  0.374900  0.807600  0.018500  1.0  0.127
  H  H250  1  0.277200  0.768000  0.154600  1.0  0.1218
  H  H251  1  0.320400  0.739900  0.186100  1.0  0.1193
  H  H252  1  0.359000  0.703100  0.158100  1.0  0.1105
  H  H253  1  0.864400  0.075100  0.516000  1.0  0.1089
  H  H254  1  0.766500  0.080800  0.538200  1.0  0.0963
  H  H255  1  0.811600  0.164600  0.503400  1.0  0.116
  H  H256  1  0.649100  0.334000  0.562800  1.0  0.1322
  H  H257  1  0.559400  0.384400  0.552000  1.0  0.124
  H  H258  1  0.563500  0.281800  0.540200  1.0  0.1221
  H  H259  1  0.593000  0.264400  0.606700  1.0  0.1381
  H  H260  1  0.618300  0.219900  0.645100  1.0  0.1194
  H  H261  1  0.715100  0.129300  0.632800  1.0  0.1199
  H  H262  1  0.756300  0.106100  0.590500  1.0  0.1393
  H  H263  1  0.615000  0.113800  0.692900  1.0  0.1266
  H  H264  1  0.639200  0.142600  0.740000  1.0  0.1293
  H  H265  1  0.680100  0.186000  0.731000  1.0  0.1225
  H  H266  1  0.770000  0.139400  0.456300  1.0  0.122
  H  H267  1  0.737800  0.175100  0.413800  1.0  0.1334
  H  H268  1  0.651700  0.279900  0.430600  1.0  0.1388
  H  H269  1  0.625100  0.307600  0.481500  1.0  0.1272
  H  H270  1  0.722800  0.268000  0.345400  1.0  0.1213
  H  H271  1  0.679600  0.239900  0.313900  1.0  0.1193
  H  H272  1  0.641000  0.203100  0.341900  1.0  0.1107
  H  H273  1  0.635600  0.924900  0.016000  1.0  0.1087
  H  H274  1  0.733500  0.919200  0.038200  1.0  0.0975
  H  H275  1  0.688400  0.835400  0.003400  1.0  0.1161
  H  H276  1  0.850900  0.666000  0.062800  1.0  0.1322
  H  H277  1  0.940600  0.615600  0.052000  1.0  0.1238
  H  H278  1  0.936500  0.718200  0.040200  1.0  0.1232
  H  H279  1  0.907000  0.735600  0.106700  1.0  0.1381
  H  H280  1  0.881700  0.780100  0.145100  1.0  0.1185
  H  H281  1  0.784900  0.870700  0.132800  1.0  0.1199
  H  H282  1  0.743700  0.893900  0.090500  1.0  0.1382
  H  H283  1  0.885000  0.886200  0.192900  1.0  0.1271
  H  H284  1  0.860800  0.857400  0.240000  1.0  0.129
  H  H285  1  0.819900  0.814000  0.231000  1.0  0.1229
  H  H286  1  0.730000  0.860600  0.956300  1.0  0.1222
  H  H287  1  0.762200  0.824900  0.913800  1.0  0.1334
  H  H288  1  0.848300  0.720100  0.930600  1.0  0.1382
  H  H289  1  0.874900  0.692400  0.981500  1.0  0.127
  H  H290  1  0.777200  0.732000  0.845400  1.0  0.12
  H  H291  1  0.820400  0.760100  0.813900  1.0  0.1189
  H  H292  1  0.859000  0.796900  0.841900  1.0  0.1102
  H  H293  1  0.364400  0.424900  0.484000  1.0  0.1094
  H  H294  1  0.266500  0.419200  0.461800  1.0  0.0967
  H  H295  1  0.311600  0.335400  0.496600  1.0  0.1163
  H  H296  1  0.149100  0.166000  0.437200  1.0  0.1324
  H  H297  1  0.059400  0.115600  0.448000  1.0  0.1234
  H  H298  1  0.063500  0.218200  0.459800  1.0  0.1233
  H  H299  1  0.093000  0.235600  0.393300  1.0  0.1378
  H  H300  1  0.118300  0.280100  0.354900  1.0  0.1194
  H  H301  1  0.215100  0.370700  0.367200  1.0  0.1198
  H  H302  1  0.256300  0.393900  0.409500  1.0  0.1382
  H  H303  1  0.115000  0.386200  0.307100  1.0  0.1269
  H  H304  1  0.139200  0.357400  0.260000  1.0  0.1283
  H  H305  1  0.180100  0.314000  0.269000  1.0  0.1223
  H  H306  1  0.270000  0.360600  0.543700  1.0  0.1225
  H  H307  1  0.237800  0.324900  0.586200  1.0  0.1321
  H  H308  1  0.151700  0.220100  0.569400  1.0  0.1378
  H  H309  1  0.125100  0.192400  0.518500  1.0  0.1267
  H  H310  1  0.222800  0.232000  0.654600  1.0  0.1214
  H  H311  1  0.179600  0.260100  0.686100  1.0  0.1195
  H  H312  1  0.141000  0.296900  0.658100  1.0  0.1103
  H  H313  1  0.016000  0.864400  0.424900  1.0  0.1087
  H  H314  1  0.038200  0.766500  0.419200  1.0  0.0978
  H  H315  1  0.003400  0.811600  0.335400  1.0  0.1171
  H  H316  1  0.062800  0.649100  0.166000  1.0  0.1315
  H  H317  1  0.052000  0.559400  0.115600  1.0  0.123
  H  H318  1  0.040200  0.563500  0.218200  1.0  0.1233
  H  H319  1  0.106700  0.593000  0.235600  1.0  0.1374
  H  H320  1  0.145100  0.618300  0.280100  1.0  0.1191
  H  H321  1  0.132800  0.715100  0.370700  1.0  0.119
  H  H322  1  0.090500  0.756300  0.393900  1.0  0.1363
  H  H323  1  0.192900  0.615000  0.386200  1.0  0.1256
  H  H324  1  0.240000  0.639200  0.357400  1.0  0.1287
  H  H325  1  0.231000  0.680100  0.314000  1.0  0.1222
  H  H326  1  0.956300  0.770000  0.360600  1.0  0.1218
  H  H327  1  0.913800  0.737800  0.324900  1.0  0.134
  H  H328  1  0.930600  0.651700  0.220100  1.0  0.1381
  H  H329  1  0.981500  0.625100  0.192400  1.0  0.1266
  H  H330  1  0.845400  0.722800  0.232000  1.0  0.1203
  H  H331  1  0.813900  0.679600  0.260100  1.0  0.1165
  H  H332  1  0.841900  0.641000  0.296900  1.0  0.1099
  H  H333  1  0.484000  0.135600  0.924900  1.0  0.1084
  H  H334  1  0.461800  0.233500  0.919200  1.0  0.0976
  H  H335  1  0.496600  0.188400  0.835400  1.0  0.1174
  H  H336  1  0.437200  0.350900  0.666000  1.0  0.1335
  H  H337  1  0.448000  0.440600  0.615600  1.0  0.1233
  H  H338  1  0.459800  0.436500  0.718200  1.0  0.1233
  H  H339  1  0.393300  0.407000  0.735600  1.0  0.1381
  H  H340  1  0.354900  0.381700  0.780100  1.0  0.1199
  H  H341  1  0.367200  0.284900  0.870700  1.0  0.1195
  H  H342  1  0.409500  0.243700  0.893900  1.0  0.1379
  H  H343  1  0.307100  0.385000  0.886200  1.0  0.1259
  H  H344  1  0.260000  0.360800  0.857400  1.0  0.1264
  H  H345  1  0.269000  0.319900  0.814000  1.0  0.121
  H  H346  1  0.543700  0.230000  0.860600  1.0  0.1213
  H  H347  1  0.586200  0.262200  0.824900  1.0  0.1338
  H  H348  1  0.569400  0.348300  0.720100  1.0  0.1373
  H  H349  1  0.518500  0.374900  0.692400  1.0  0.126
  H  H350  1  0.654600  0.277200  0.732000  1.0  0.1201
  H  H351  1  0.686100  0.320400  0.760100  1.0  0.1184
  H  H352  1  0.658100  0.359000  0.796900  1.0  0.1099
  H  H353  1  0.984000  0.364400  0.075100  1.0  0.108
  H  H354  1  0.961800  0.266500  0.080800  1.0  0.0983
  H  H355  1  0.996600  0.311600  0.164600  1.0  0.1163
  H  H356  1  0.937200  0.149100  0.334000  1.0  0.1322
  H  H357  1  0.948000  0.059400  0.384400  1.0  0.1229
  H  H358  1  0.959800  0.063500  0.281800  1.0  0.1236
  H  H359  1  0.893300  0.093000  0.264400  1.0  0.1377
  H  H360  1  0.854900  0.118300  0.219900  1.0  0.1194
  H  H361  1  0.867200  0.215100  0.129300  1.0  0.1191
  H  H362  1  0.909500  0.256300  0.106100  1.0  0.1368
  H  H363  1  0.807100  0.115000  0.113800  1.0  0.1255
  H  H364  1  0.760000  0.139200  0.142600  1.0  0.1268
  H  H365  1  0.769000  0.180100  0.186000  1.0  0.1211
  H  H366  1  0.043700  0.270000  0.139400  1.0  0.1215
  H  H367  1  0.086200  0.237800  0.175100  1.0  0.1341
  H  H368  1  0.069400  0.151700  0.279900  1.0  0.1372
  H  H369  1  0.018500  0.125100  0.307600  1.0  0.1249
  H  H370  1  0.154600  0.222800  0.268000  1.0  0.1204
  H  H371  1  0.186100  0.179600  0.239900  1.0  0.1177
  H  H372  1  0.158100  0.141000  0.203100  1.0  0.1098
  H  H373  1  0.516000  0.635600  0.575100  1.0  0.1082
  H  H374  1  0.538200  0.733500  0.580800  1.0  0.0974
  H  H375  1  0.503400  0.688400  0.664600  1.0  0.1167
  H  H376  1  0.562800  0.850900  0.834000  1.0  0.1334
  H  H377  1  0.552000  0.940600  0.884400  1.0  0.1227
  H  H378  1  0.540200  0.936500  0.781800  1.0  0.1232
  H  H379  1  0.606700  0.907000  0.764400  1.0  0.1374
  H  H380  1  0.645100  0.881700  0.719900  1.0  0.1183
  H  H381  1  0.632800  0.784900  0.629300  1.0  0.1191
  H  H382  1  0.590500  0.743700  0.606100  1.0  0.1367
  H  H383  1  0.692900  0.885000  0.613800  1.0  0.1266
  H  H384  1  0.740000  0.860800  0.642600  1.0  0.1293
  H  H385  1  0.731000  0.819900  0.686000  1.0  0.1219
  H  H386  1  0.456300  0.730000  0.639400  1.0  0.122
  H  H387  1  0.413800  0.762200  0.675100  1.0  0.1342
  H  H388  1  0.430600  0.848300  0.779900  1.0  0.1373
  H  H389  1  0.481500  0.874900  0.807600  1.0  0.1256
  H  H390  1  0.345400  0.777200  0.768000  1.0  0.1206
  H  H391  1  0.313900  0.820400  0.739900  1.0  0.1171
  H  H392  1  0.341900  0.859000  0.703100  1.0  0.1103
  H  H393  1  0.424900  0.016000  0.864400  1.0  0.1086
  H  H394  1  0.419200  0.038200  0.766500  1.0  0.0989
  H  H395  1  0.335400  0.003400  0.811600  1.0  0.1172
  H  H396  1  0.166000  0.062800  0.649100  1.0  0.1318
  H  H397  1  0.115600  0.052000  0.559400  1.0  0.1233
  H  H398  1  0.218200  0.040200  0.563500  1.0  0.1238
  H  H399  1  0.235600  0.106700  0.593000  1.0  0.1383
  H  H400  1  0.280100  0.145100  0.618300  1.0  0.12
  H  H401  1  0.370700  0.132800  0.715100  1.0  0.1209
  H  H402  1  0.393900  0.090500  0.756300  1.0  0.1372
  H  H403  1  0.386200  0.192900  0.615000  1.0  0.1268
  H  H404  1  0.357400  0.240000  0.639200  1.0  0.1319
  H  H405  1  0.314000  0.231000  0.680100  1.0  0.1232
  H  H406  1  0.360600  0.956300  0.770000  1.0  0.1216
  H  H407  1  0.324900  0.913800  0.737800  1.0  0.1344
  H  H408  1  0.220100  0.930600  0.651700  1.0  0.1373
  H  H409  1  0.192400  0.981500  0.625100  1.0  0.1252
  H  H410  1  0.232000  0.845400  0.722800  1.0  0.1213
  H  H411  1  0.260100  0.813900  0.679600  1.0  0.1192
  H  H412  1  0.296900  0.841900  0.641000  1.0  0.11
  H  H413  1  0.924900  0.484000  0.135600  1.0  0.1092
  H  H414  1  0.919200  0.461800  0.233500  1.0  0.0975
  H  H415  1  0.835400  0.496600  0.188400  1.0  0.1169
  H  H416  1  0.666000  0.437200  0.350900  1.0  0.1324
  H  H417  1  0.615600  0.448000  0.440600  1.0  0.1232
  H  H418  1  0.718200  0.459800  0.436500  1.0  0.1239
  H  H419  1  0.735600  0.393300  0.407000  1.0  0.1385
  H  H420  1  0.780100  0.354900  0.381700  1.0  0.1199
  H  H421  1  0.870700  0.367200  0.284900  1.0  0.1213
  H  H422  1  0.893900  0.409500  0.243700  1.0  0.1373
  H  H423  1  0.886200  0.307100  0.385000  1.0  0.126
  H  H424  1  0.857400  0.260000  0.360800  1.0  0.131
  H  H425  1  0.814000  0.269000  0.319900  1.0  0.1224
  H  H426  1  0.860600  0.543700  0.230000  1.0  0.1218
  H  H427  1  0.824900  0.586200  0.262200  1.0  0.1343
  H  H428  1  0.720100  0.569400  0.348300  1.0  0.1378
  H  H429  1  0.692400  0.518500  0.374900  1.0  0.1248
  H  H430  1  0.732000  0.654600  0.277200  1.0  0.1203
  H  H431  1  0.760100  0.686100  0.320400  1.0  0.1193
  H  H432  1  0.796900  0.658100  0.359000  1.0  0.1108
  H  H433  1  0.075100  0.984000  0.364400  1.0  0.1087
  H  H434  1  0.080800  0.961800  0.266500  1.0  0.0987
  H  H435  1  0.164600  0.996600  0.311600  1.0  0.1162
  H  H436  1  0.334000  0.937200  0.149100  1.0  0.1311
  H  H437  1  0.384400  0.948000  0.059400  1.0  0.1231
  H  H438  1  0.281800  0.959800  0.063500  1.0  0.1228
  H  H439  1  0.264400  0.893300  0.093000  1.0  0.1381
  H  H440  1  0.219900  0.854900  0.118300  1.0  0.1197
  H  H441  1  0.129300  0.867200  0.215100  1.0  0.1208
  H  H442  1  0.106100  0.909500  0.256300  1.0  0.1374
  H  H443  1  0.113800  0.807100  0.115000  1.0  0.126
  H  H444  1  0.142600  0.760000  0.139200  1.0  0.1317
  H  H445  1  0.186000  0.769000  0.180100  1.0  0.1227
  H  H446  1  0.139400  0.043700  0.270000  1.0  0.1222
  H  H447  1  0.175100  0.086200  0.237800  1.0  0.1338
  H  H448  1  0.279900  0.069400  0.151700  1.0  0.1378
  H  H449  1  0.307600  0.018500  0.125100  1.0  0.1262
  H  H450  1  0.268000  0.154600  0.222800  1.0  0.1214
  H  H451  1  0.239900  0.186100  0.179600  1.0  0.1192
  H  H452  1  0.203100  0.158100  0.141000  1.0  0.1101
  H  H453  1  0.575100  0.516000  0.635600  1.0  0.1094
  H  H454  1  0.580800  0.538200  0.733500  1.0  0.0987
  H  H455  1  0.664600  0.503400  0.688400  1.0  0.116
  H  H456  1  0.834000  0.562800  0.850900  1.0  0.1325
  H  H457  1  0.884400  0.552000  0.940600  1.0  0.123
  H  H458  1  0.781800  0.540200  0.936500  1.0  0.1234
  H  H459  1  0.764400  0.606700  0.907000  1.0  0.1381
  H  H460  1  0.719900  0.645100  0.881700  1.0  0.1203
  H  H461  1  0.629300  0.632800  0.784900  1.0  0.1216
  H  H462  1  0.606100  0.590500  0.743700  1.0  0.137
  H  H463  1  0.613800  0.692900  0.885000  1.0  0.1259
  H  H464  1  0.642600  0.740000  0.860800  1.0  0.1303
  H  H465  1  0.686000  0.731000  0.819900  1.0  0.1225
  H  H466  1  0.639400  0.456300  0.730000  1.0  0.1214
  H  H467  1  0.675100  0.413800  0.762200  1.0  0.1341
  H  H468  1  0.779900  0.430600  0.848300  1.0  0.1378
  H  H469  1  0.807600  0.481500  0.874900  1.0  0.1254
  H  H470  1  0.768000  0.345400  0.777200  1.0  0.1213
  H  H471  1  0.739900  0.313900  0.820400  1.0  0.1194
  H  H472  1  0.703100  0.341900  0.859000  1.0  0.1111
  H  H473  1  0.864400  0.424900  0.016000  1.0  0.1096
  H  H474  1  0.766500  0.419200  0.038200  1.0  0.0965
  H  H475  1  0.811600  0.335400  0.003400  1.0  0.1163
  H  H476  1  0.649100  0.166000  0.062800  1.0  0.1322
  H  H477  1  0.559400  0.115600  0.052000  1.0  0.1233
  H  H478  1  0.563500  0.218200  0.040200  1.0  0.1233
  H  H479  1  0.593000  0.235600  0.106700  1.0  0.1382
  H  H480  1  0.618300  0.280100  0.145100  1.0  0.1192
  H  H481  1  0.715100  0.370700  0.132800  1.0  0.1199
  H  H482  1  0.756300  0.393900  0.090500  1.0  0.1387
  H  H483  1  0.615000  0.386200  0.192900  1.0  0.1269
  H  H484  1  0.639200  0.357400  0.240000  1.0  0.1291
  H  H485  1  0.680100  0.314000  0.231000  1.0  0.1228
  H  H486  1  0.770000  0.360600  0.956300  1.0  0.1222
  H  H487  1  0.737800  0.324900  0.913800  1.0  0.1335
  H  H488  1  0.651700  0.220100  0.930600  1.0  0.1386
  H  H489  1  0.625100  0.192400  0.981500  1.0  0.1265
  H  H490  1  0.722800  0.232000  0.845400  1.0  0.1207
  H  H491  1  0.679600  0.260100  0.813900  1.0  0.1191
  H  H492  1  0.641000  0.296900  0.841900  1.0  0.1103
  H  H493  1  0.135600  0.924900  0.484000  1.0  0.1086
  H  H494  1  0.233500  0.919200  0.461800  1.0  0.098
  H  H495  1  0.188400  0.835400  0.496600  1.0  0.1163
  H  H496  1  0.350900  0.666000  0.437200  1.0  0.1322
  H  H497  1  0.440600  0.615600  0.448000  1.0  0.1238
  H  H498  1  0.436500  0.718200  0.459800  1.0  0.1226
  H  H499  1  0.407000  0.735600  0.393300  1.0  0.138
  H  H500  1  0.381700  0.780100  0.354900  1.0  0.1194
  H  H501  1  0.284900  0.870700  0.367200  1.0  0.1194
  H  H502  1  0.243700  0.893900  0.409500  1.0  0.138
  H  H503  1  0.385000  0.886200  0.307100  1.0  0.1274
  H  H504  1  0.360800  0.857400  0.260000  1.0  0.1284
  H  H505  1  0.319900  0.814000  0.269000  1.0  0.1219
  H  H506  1  0.230000  0.860600  0.543700  1.0  0.1225
  H  H507  1  0.262200  0.824900  0.586200  1.0  0.1322
  H  H508  1  0.348300  0.720100  0.569400  1.0  0.1376
  H  H509  1  0.374900  0.692400  0.518500  1.0  0.1269
  H  H510  1  0.277200  0.732000  0.654600  1.0  0.1208
  H  H511  1  0.320400  0.760100  0.686100  1.0  0.1195
  H  H512  1  0.359000  0.796900  0.658100  1.0  0.1102
  H  H513  1  0.364400  0.075100  0.984000  1.0  0.1088
  H  H514  1  0.266500  0.080800  0.961800  1.0  0.0963
  H  H515  1  0.311600  0.164600  0.996600  1.0  0.1157
  H  H516  1  0.149100  0.334000  0.937200  1.0  0.1327
  H  H517  1  0.059400  0.384400  0.948000  1.0  0.1241
  H  H518  1  0.063500  0.281800  0.959800  1.0  0.1226
  H  H519  1  0.093000  0.264400  0.893300  1.0  0.1383
  H  H520  1  0.118300  0.219900  0.854900  1.0  0.1199
  H  H521  1  0.215100  0.129300  0.867200  1.0  0.1198
  H  H522  1  0.256300  0.106100  0.909500  1.0  0.1387
  H  H523  1  0.115000  0.113800  0.807100  1.0  0.1264
  H  H524  1  0.139200  0.142600  0.760000  1.0  0.1284
  H  H525  1  0.180100  0.186000  0.769000  1.0  0.122
  H  H526  1  0.270000  0.139400  0.043700  1.0  0.1225
  H  H527  1  0.237800  0.175100  0.086200  1.0  0.1322
  H  H528  1  0.151700  0.279900  0.069400  1.0  0.1383
  H  H529  1  0.125100  0.307600  0.018500  1.0  0.1271
  H  H530  1  0.222800  0.268000  0.154600  1.0  0.1218
  H  H531  1  0.179600  0.239900  0.186100  1.0  0.1194
  H  H532  1  0.141000  0.203100  0.158100  1.0  0.1107
  H  H533  1  0.635600  0.575100  0.516000  1.0  0.1084
  H  H534  1  0.733500  0.580800  0.538200  1.0  0.0973
  H  H535  1  0.688400  0.664600  0.503400  1.0  0.116
  H  H536  1  0.850900  0.834000  0.562800  1.0  0.1323
  H  H537  1  0.940600  0.884400  0.552000  1.0  0.1239
  H  H538  1  0.936500  0.781800  0.540200  1.0  0.1228
  H  H539  1  0.907000  0.764400  0.606700  1.0  0.1377
  H  H540  1  0.881700  0.719900  0.645100  1.0  0.1187
  H  H541  1  0.784900  0.629300  0.632800  1.0  0.12
  H  H542  1  0.743700  0.606100  0.590500  1.0  0.1385
  H  H543  1  0.885000  0.613800  0.692900  1.0  0.1273
  H  H544  1  0.860800  0.642600  0.740000  1.0  0.1292
  H  H545  1  0.819900  0.686000  0.731000  1.0  0.1224
  H  H546  1  0.730000  0.639400  0.456300  1.0  0.1217
  H  H547  1  0.762200  0.675100  0.413800  1.0  0.1334
  H  H548  1  0.848300  0.779900  0.430600  1.0  0.1385
  H  H549  1  0.874900  0.807600  0.481500  1.0  0.1272
  H  H550  1  0.777200  0.768000  0.345400  1.0  0.1212
  H  H551  1  0.820400  0.739900  0.313900  1.0  0.119
  H  H552  1  0.859000  0.703100  0.341900  1.0  0.1105
  C  C553  1  0.961500  0.182900  0.534800  1.0  0.7475
  C  C554  1  0.006300  0.124800  0.640700  1.0  0.7235
  C  C555  1  0.991000  0.154900  0.624800  1.0  -0.1382
  C  C556  1  0.981400  0.155900  0.588400  1.0  -0.0347
  C  C557  1  0.969600  0.183400  0.573500  1.0  -0.0604
  C  C558  1  0.968200  0.213000  0.592600  1.0  -0.0834
  C  C559  1  0.975100  0.215900  0.626700  1.0  0.0764
  C  C560  1  0.988500  0.186800  0.641600  1.0  -0.0804
  C  C561  1  0.957200  0.481800  0.831300  1.0  0.7495
  C  C562  1  0.937500  0.374100  0.898800  1.0  0.6736
  C  C563  1  0.942200  0.374900  0.834000  1.0  -0.0643
  C  C564  1  0.941500  0.393000  0.864900  1.0  -0.1052
  C  C565  1  0.947200  0.427800  0.863600  1.0  -0.0129
  C  C566  1  0.951800  0.444500  0.832700  1.0  -0.1723
  C  C567  1  0.954600  0.425200  0.802800  1.0  -0.0976
  C  C568  1  0.950100  0.391400  0.802900  1.0  0.0679
  C  C569  1  0.955800  0.369200  0.770200  1.0  -0.0743
  C  C570  1  0.931700  0.373000  0.744600  1.0  0.2136
  C  C571  1  0.899200  0.389600  0.748200  1.0  -0.1688
  C  C572  1  0.878300  0.375700  0.724000  1.0  -0.1494
  C  C573  1  0.897700  0.350100  0.705600  1.0  0.202
  C  C574  1  0.884600  0.329400  0.679800  1.0  -0.0836
  C  C575  1  0.904900  0.306400  0.661900  1.0  0.1135
  C  C576  1  0.890600  0.283800  0.636300  1.0  -0.0782
  C  C577  1  0.913200  0.260900  0.623200  1.0  -0.166
  C  C578  1  0.944200  0.269000  0.641600  1.0  0.1632
  C  C579  1  0.849400  0.334200  0.665700  1.0  0.007
  C  C580  1  0.844100  0.358500  0.640000  1.0  0.0185
  C  C581  1  0.810700  0.368400  0.631400  1.0  -0.0634
  C  C582  1  0.782800  0.354000  0.648500  1.0  -0.0761
  C  C583  1  0.788100  0.329700  0.674300  1.0  -0.0491
  C  C584  1  0.821500  0.319800  0.682900  1.0  -0.0184
  C  C585  1  0.972800  0.248600  0.647700  1.0  -0.0667
  C  C586  1  0.003700  0.260800  0.661800  1.0  0.1033
  C  C587  1  0.038300  0.248000  0.655200  1.0  -0.1299
  C  C588  1  0.061900  0.265100  0.674500  1.0  -0.158
  C  C589  1  0.040600  0.289000  0.694100  1.0  0.1096
  C  C590  1  0.053900  0.310900  0.719900  1.0  -0.0616
  C  C591  1  0.034000  0.332000  0.740500  1.0  0.2139
  C  C592  1  0.046400  0.348000  0.771600  1.0  -0.1499
  C  C593  1  0.018600  0.362500  0.786500  1.0  -0.1513
  C  C594  1  0.989100  0.356000  0.765000  1.0  0.1071
  C  C595  1  0.143300  0.292900  0.753000  1.0  -0.033
  C  C596  1  0.161900  0.318500  0.736400  1.0  -0.1046
  C  C597  1  0.145300  0.341500  0.714500  1.0  -0.0333
  C  C598  1  0.110000  0.338800  0.709200  1.0  -0.0197
  C  C599  1  0.091300  0.313200  0.725900  1.0  -0.0016
  C  C600  1  0.107900  0.290200  0.747800  1.0  -0.0269
  C  C601  1  0.538500  0.817100  0.034800  1.0  0.7467
  C  C602  1  0.493700  0.875200  0.140700  1.0  0.7219
  C  C603  1  0.509000  0.845100  0.124800  1.0  -0.1375
  C  C604  1  0.518600  0.844100  0.088400  1.0  -0.0344
  C  C605  1  0.530400  0.816600  0.073500  1.0  -0.0595
  C  C606  1  0.531800  0.787000  0.092600  1.0  -0.0837
  C  C607  1  0.524900  0.784100  0.126700  1.0  0.0771
  C  C608  1  0.511500  0.813200  0.141600  1.0  -0.0818
  C  C609  1  0.542800  0.518200  0.331300  1.0  0.7494
  C  C610  1  0.562500  0.625900  0.398800  1.0  0.6732
  C  C611  1  0.557800  0.625100  0.334000  1.0  -0.0645
  C  C612  1  0.558500  0.607000  0.364900  1.0  -0.1071
  C  C613  1  0.552800  0.572200  0.363600  1.0  -0.0126
  C  C614  1  0.548200  0.555500  0.332700  1.0  -0.174
  C  C615  1  0.545400  0.574800  0.302800  1.0  -0.0979
  C  C616  1  0.549900  0.608600  0.302900  1.0  0.0686
  C  C617  1  0.544200  0.630800  0.270200  1.0  -0.0738
  C  C618  1  0.568300  0.627000  0.244600  1.0  0.2127
  C  C619  1  0.600800  0.610400  0.248200  1.0  -0.1702
  C  C620  1  0.621700  0.624300  0.224000  1.0  -0.1492
  C  C621  1  0.602300  0.649900  0.205600  1.0  0.2021
  C  C622  1  0.615400  0.670600  0.179800  1.0  -0.0835
  C  C623  1  0.595100  0.693600  0.161900  1.0  0.1124
  C  C624  1  0.609400  0.716200  0.136300  1.0  -0.0779
  C  C625  1  0.586800  0.739100  0.123200  1.0  -0.1661
  C  C626  1  0.555800  0.731000  0.141600  1.0  0.1601
  C  C627  1  0.650600  0.665800  0.165700  1.0  0.0069
  C  C628  1  0.655900  0.641500  0.140000  1.0  0.0187
  C  C629  1  0.689300  0.631600  0.131400  1.0  -0.0643
  C  C630  1  0.717200  0.646000  0.148500  1.0  -0.0756
  C  C631  1  0.711900  0.670300  0.174300  1.0  -0.0497
  C  C632  1  0.678500  0.680200  0.182900  1.0  -0.0168
  C  C633  1  0.527200  0.751400  0.147700  1.0  -0.0671
  C  C634  1  0.496300  0.739200  0.161800  1.0  0.1028
  C  C635  1  0.461700  0.752000  0.155200  1.0  -0.1312
  C  C636  1  0.438100  0.734900  0.174500  1.0  -0.1604
  C  C637  1  0.459400  0.711000  0.194100  1.0  0.11
  C  C638  1  0.446100  0.689100  0.219900  1.0  -0.062
  C  C639  1  0.466000  0.668000  0.240500  1.0  0.2145
  C  C640  1  0.453600  0.652000  0.271600  1.0  -0.1514
  C  C641  1  0.481400  0.637500  0.286500  1.0  -0.151
  C  C642  1  0.510900  0.644000  0.265000  1.0  0.1068
  C  C643  1  0.356700  0.707100  0.253000  1.0  -0.0343
  C  C644  1  0.338100  0.681500  0.236400  1.0  -0.1054
  C  C645  1  0.354700  0.658500  0.214500  1.0  -0.032
  C  C646  1  0.390000  0.661200  0.209200  1.0  -0.0189
  C  C647  1  0.408700  0.686800  0.225900  1.0  -0.0019
  C  C648  1  0.392100  0.709800  0.247800  1.0  -0.0273
  C  C649  1  0.038500  0.682900  0.965200  1.0  0.747
  C  C650  1  0.993700  0.624800  0.859300  1.0  0.723
  C  C651  1  0.009000  0.654900  0.875200  1.0  -0.1384
  C  C652  1  0.018600  0.655900  0.911600  1.0  -0.0346
  C  C653  1  0.030400  0.683400  0.926500  1.0  -0.0606
  C  C654  1  0.031800  0.713000  0.907400  1.0  -0.0834
  C  C655  1  0.024900  0.715900  0.873300  1.0  0.0771
  C  C656  1  0.011500  0.686800  0.858400  1.0  -0.0821
  C  C657  1  0.042800  0.981800  0.668700  1.0  0.7496
  C  C658  1  0.062500  0.874100  0.601200  1.0  0.6736
  C  C659  1  0.057800  0.874900  0.666000  1.0  -0.0639
  C  C660  1  0.058500  0.893000  0.635100  1.0  -0.106
  C  C661  1  0.052800  0.927800  0.636400  1.0  -0.0126
  C  C662  1  0.048200  0.944500  0.667300  1.0  -0.1735
  C  C663  1  0.045400  0.925200  0.697200  1.0  -0.0983
  C  C664  1  0.049900  0.891400  0.697100  1.0  0.0678
  C  C665  1  0.044200  0.869200  0.729800  1.0  -0.0744
  C  C666  1  0.068300  0.873000  0.755400  1.0  0.2129
  C  C667  1  0.100800  0.889600  0.751800  1.0  -0.1679
  C  C668  1  0.121700  0.875700  0.776000  1.0  -0.1495
  C  C669  1  0.102300  0.850100  0.794400  1.0  0.2021
  C  C670  1  0.115400  0.829400  0.820200  1.0  -0.0834
  C  C671  1  0.095100  0.806400  0.838100  1.0  0.1137
  C  C672  1  0.109400  0.783800  0.863700  1.0  -0.077
  C  C673  1  0.086800  0.760900  0.876800  1.0  -0.1667
  C  C674  1  0.055800  0.769000  0.858400  1.0  0.1603
  C  C675  1  0.150600  0.834200  0.834300  1.0  0.0071
  C  C676  1  0.155900  0.858500  0.860000  1.0  0.0173
  C  C677  1  0.189300  0.868400  0.868600  1.0  -0.0634
  C  C678  1  0.217200  0.854000  0.851500  1.0  -0.0759
  C  C679  1  0.211900  0.829700  0.825700  1.0  -0.0491
  C  C680  1  0.178500  0.819800  0.817100  1.0  -0.0162
  C  C681  1  0.027200  0.748600  0.852300  1.0  -0.0666
  C  C682  1  0.996300  0.760800  0.838200  1.0  0.1035
  C  C683  1  0.961700  0.748000  0.844800  1.0  -0.1307
  C  C684  1  0.938100  0.765100  0.825500  1.0  -0.1606
  C  C685  1  0.959400  0.789000  0.805900  1.0  0.1097
  C  C686  1  0.946100  0.810900  0.780100  1.0  -0.062
  C  C687  1  0.966000  0.832000  0.759500  1.0  0.2137
  C  C688  1  0.953600  0.848000  0.728400  1.0  -0.1509
  C  C689  1  0.981400  0.862500  0.713500  1.0  -0.151
  C  C690  1  0.010900  0.856000  0.735000  1.0  0.1065
  C  C691  1  0.856700  0.792900  0.747000  1.0  -0.032
  C  C692  1  0.838100  0.818500  0.763600  1.0  -0.1021
  C  C693  1  0.854700  0.841500  0.785500  1.0  -0.0327
  C  C694  1  0.890000  0.838800  0.790800  1.0  -0.0205
  C  C695  1  0.908700  0.813200  0.774100  1.0  -0.0022
  C  C696  1  0.892100  0.790200  0.752200  1.0  -0.0262
  C  C697  1  0.461500  0.317100  0.465200  1.0  0.7478
  C  C698  1  0.506300  0.375200  0.359300  1.0  0.7236
  C  C699  1  0.491000  0.345100  0.375200  1.0  -0.1376
  C  C700  1  0.481400  0.344100  0.411600  1.0  -0.0346
  C  C701  1  0.469600  0.316600  0.426500  1.0  -0.0605
  C  C702  1  0.468200  0.287000  0.407400  1.0  -0.0852
  C  C703  1  0.475100  0.284100  0.373300  1.0  0.0764
  C  C704  1  0.488500  0.313200  0.358400  1.0  -0.0809
  C  C705  1  0.457200  0.018200  0.168700  1.0  0.7493
  C  C706  1  0.437500  0.125900  0.101200  1.0  0.6739
  C  C707  1  0.442200  0.125100  0.166000  1.0  -0.0644
  C  C708  1  0.441500  0.107000  0.135100  1.0  -0.1041
  C  C709  1  0.447200  0.072200  0.136400  1.0  -0.0125
  C  C710  1  0.451800  0.055500  0.167300  1.0  -0.1732
  C  C711  1  0.454600  0.074800  0.197200  1.0  -0.0949
  C  C712  1  0.450100  0.108600  0.197100  1.0  0.0677
  C  C713  1  0.455800  0.130800  0.229800  1.0  -0.0742
  C  C714  1  0.431700  0.127000  0.255400  1.0  0.2141
  C  C715  1  0.399200  0.110400  0.251800  1.0  -0.17
  C  C716  1  0.378300  0.124300  0.276000  1.0  -0.1499
  C  C717  1  0.397700  0.149900  0.294400  1.0  0.2026
  C  C718  1  0.384600  0.170600  0.320200  1.0  -0.0828
  C  C719  1  0.404900  0.193600  0.338100  1.0  0.1135
  C  C720  1  0.390600  0.216200  0.363700  1.0  -0.0791
  C  C721  1  0.413200  0.239100  0.376800  1.0  -0.1682
  C  C722  1  0.444200  0.231000  0.358400  1.0  0.1628
  C  C723  1  0.349400  0.165800  0.334300  1.0  0.0077
  C  C724  1  0.344100  0.141500  0.360000  1.0  0.0177
  C  C725  1  0.310700  0.131600  0.368600  1.0  -0.063
  C  C726  1  0.282800  0.146000  0.351500  1.0  -0.0764
  C  C727  1  0.288100  0.170300  0.325700  1.0  -0.0501
  C  C728  1  0.321500  0.180200  0.317100  1.0  -0.0186
  C  C729  1  0.472800  0.251400  0.352300  1.0  -0.0658
  C  C730  1  0.503700  0.239200  0.338200  1.0  0.1033
  C  C731  1  0.538300  0.252000  0.344800  1.0  -0.1308
  C  C732  1  0.561900  0.234900  0.325500  1.0  -0.1577
  C  C733  1  0.540600  0.211000  0.305900  1.0  0.1093
  C  C734  1  0.553900  0.189100  0.280100  1.0  -0.0618
  C  C735  1  0.534000  0.168000  0.259500  1.0  0.2133
  C  C736  1  0.546400  0.152000  0.228400  1.0  -0.1511
  C  C737  1  0.518600  0.137500  0.213500  1.0  -0.1518
  C  C738  1  0.489100  0.144000  0.235000  1.0  0.1068
  C  C739  1  0.643300  0.207100  0.247000  1.0  -0.0316
  C  C740  1  0.661900  0.181500  0.263600  1.0  -0.1037
  C  C741  1  0.645300  0.158500  0.285500  1.0  -0.0322
  C  C742  1  0.610000  0.161200  0.290800  1.0  -0.0201
  C  C743  1  0.591300  0.186800  0.274100  1.0  -0.0023
  C  C744  1  0.607900  0.209800  0.252200  1.0  -0.0261
  C  C745  1  0.534800  0.961500  0.182900  1.0  0.7432
  C  C746  1  0.640700  0.006300  0.124800  1.0  0.7243
  C  C747  1  0.624800  0.991000  0.154900  1.0  -0.1419
  C  C748  1  0.588400  0.981400  0.155900  1.0  -0.031
  C  C749  1  0.573500  0.969600  0.183400  1.0  -0.0658
  C  C750  1  0.592600  0.968200  0.213000  1.0  -0.087
  C  C751  1  0.626700  0.975100  0.215900  1.0  0.0768
  C  C752  1  0.641600  0.988500  0.186800  1.0  -0.0831
  C  C753  1  0.831300  0.957200  0.481800  1.0  0.7528
  C  C754  1  0.898800  0.937500  0.374100  1.0  0.6747
  C  C755  1  0.834000  0.942200  0.374900  1.0  -0.0633
  C  C756  1  0.864900  0.941500  0.393000  1.0  -0.1073
  C  C757  1  0.863600  0.947200  0.427800  1.0  -0.0108
  C  C758  1  0.832700  0.951800  0.444500  1.0  -0.1716
  C  C759  1  0.802800  0.954600  0.425200  1.0  -0.0978
  C  C760  1  0.802900  0.950100  0.391400  1.0  0.0691
  C  C761  1  0.770200  0.955800  0.369200  1.0  -0.0742
  C  C762  1  0.744600  0.931700  0.373000  1.0  0.2134
  C  C763  1  0.748200  0.899200  0.389600  1.0  -0.1699
  C  C764  1  0.724000  0.878300  0.375700  1.0  -0.1497
  C  C765  1  0.705600  0.897700  0.350100  1.0  0.2031
  C  C766  1  0.679800  0.884600  0.329400  1.0  -0.0829
  C  C767  1  0.661900  0.904900  0.306400  1.0  0.1113
  C  C768  1  0.636300  0.890600  0.283800  1.0  -0.0789
  C  C769  1  0.623200  0.913200  0.260900  1.0  -0.1689
  C  C770  1  0.641600  0.944200  0.269000  1.0  0.161
  C  C771  1  0.665700  0.849400  0.334200  1.0  0.0077
  C  C772  1  0.640000  0.844100  0.358500  1.0  0.0197
  C  C773  1  0.631400  0.810700  0.368400  1.0  -0.0635
  C  C774  1  0.648500  0.782800  0.354000  1.0  -0.0783
  C  C775  1  0.674300  0.788100  0.329700  1.0  -0.0506
  C  C776  1  0.682900  0.821500  0.319800  1.0  -0.0156
  C  C777  1  0.647700  0.972800  0.248600  1.0  -0.0649
  C  C778  1  0.661800  0.003700  0.260800  1.0  0.1036
  C  C779  1  0.655200  0.038300  0.248000  1.0  -0.1345
  C  C780  1  0.674500  0.061900  0.265100  1.0  -0.1615
  C  C781  1  0.694100  0.040600  0.289000  1.0  0.1109
  C  C782  1  0.719900  0.053900  0.310900  1.0  -0.0627
  C  C783  1  0.740500  0.034000  0.332000  1.0  0.2108
  C  C784  1  0.771600  0.046400  0.348000  1.0  -0.149
  C  C785  1  0.786500  0.018600  0.362500  1.0  -0.1506
  C  C786  1  0.765000  0.989100  0.356000  1.0  0.1083
  C  C787  1  0.753000  0.143300  0.292900  1.0  -0.0345
  C  C788  1  0.736400  0.161900  0.318500  1.0  -0.1023
  C  C789  1  0.714500  0.145300  0.341500  1.0  -0.0297
  C  C790  1  0.709200  0.110000  0.338800  1.0  -0.0223
  C  C791  1  0.725900  0.091300  0.313200  1.0  -0.0028
  C  C792  1  0.747800  0.107900  0.290200  1.0  -0.0314
  C  C793  1  0.034800  0.538500  0.817100  1.0  0.7433
  C  C794  1  0.140700  0.493700  0.875200  1.0  0.7249
  C  C795  1  0.124800  0.509000  0.845100  1.0  -0.1424
  C  C796  1  0.088400  0.518600  0.844100  1.0  -0.0325
  C  C797  1  0.073500  0.530400  0.816600  1.0  -0.0656
  C  C798  1  0.092600  0.531800  0.787000  1.0  -0.0868
  C  C799  1  0.126700  0.524900  0.784100  1.0  0.0773
  C  C800  1  0.141600  0.511500  0.813200  1.0  -0.0831
  C  C801  1  0.331300  0.542800  0.518200  1.0  0.7526
  C  C802  1  0.398800  0.562500  0.625900  1.0  0.6746
  C  C803  1  0.334000  0.557800  0.625100  1.0  -0.0643
  C  C804  1  0.364900  0.558500  0.607000  1.0  -0.1071
  C  C805  1  0.363600  0.552800  0.572200  1.0  -0.0098
  C  C806  1  0.332700  0.548200  0.555500  1.0  -0.1716
  C  C807  1  0.302800  0.545400  0.574800  1.0  -0.0984
  C  C808  1  0.302900  0.549900  0.608600  1.0  0.0675
  C  C809  1  0.270200  0.544200  0.630800  1.0  -0.0748
  C  C810  1  0.244600  0.568300  0.627000  1.0  0.2118
  C  C811  1  0.248200  0.600800  0.610400  1.0  -0.171
  C  C812  1  0.224000  0.621700  0.624300  1.0  -0.1501
  C  C813  1  0.205600  0.602300  0.649900  1.0  0.2028
  C  C814  1  0.179800  0.615400  0.670600  1.0  -0.0835
  C  C815  1  0.161900  0.595100  0.693600  1.0  0.1122
  C  C816  1  0.136300  0.609400  0.716200  1.0  -0.0786
  C  C817  1  0.123200  0.586800  0.739100  1.0  -0.1696
  C  C818  1  0.141600  0.555800  0.731000  1.0  0.1607
  C  C819  1  0.165700  0.650600  0.665800  1.0  0.0074
  C  C820  1  0.140000  0.655900  0.641500  1.0  0.0158
  C  C821  1  0.131400  0.689300  0.631600  1.0  -0.0631
  C  C822  1  0.148500  0.717200  0.646000  1.0  -0.078
  C  C823  1  0.174300  0.711900  0.670300  1.0  -0.0502
  C  C824  1  0.182900  0.678500  0.680200  1.0  -0.0167
  C  C825  1  0.147700  0.527200  0.751400  1.0  -0.0645
  C  C826  1  0.161800  0.496300  0.739200  1.0  0.1041
  C  C827  1  0.155200  0.461700  0.752000  1.0  -0.1329
  C  C828  1  0.174500  0.438100  0.734900  1.0  -0.1602
  C  C829  1  0.194100  0.459400  0.711000  1.0  0.1113
  C  C830  1  0.219900  0.446100  0.689100  1.0  -0.0628
  C  C831  1  0.240500  0.466000  0.668000  1.0  0.2112
  C  C832  1  0.271600  0.453600  0.652000  1.0  -0.1493
  C  C833  1  0.286500  0.481400  0.637500  1.0  -0.1522
  C  C834  1  0.265000  0.510900  0.644000  1.0  0.1083
  C  C835  1  0.253000  0.356700  0.707100  1.0  -0.0328
  C  C836  1  0.236400  0.338100  0.681500  1.0  -0.1017
  C  C837  1  0.214500  0.354700  0.658500  1.0  -0.0313
  C  C838  1  0.209200  0.390000  0.661200  1.0  -0.0202
  C  C839  1  0.225900  0.408700  0.686800  1.0  -0.0018
  C  C840  1  0.247800  0.392100  0.709800  1.0  -0.0305
  C  C841  1  0.965200  0.038500  0.682900  1.0  0.7429
  C  C842  1  0.859300  0.993700  0.624800  1.0  0.7238
  C  C843  1  0.875200  0.009000  0.654900  1.0  -0.141
  C  C844  1  0.911600  0.018600  0.655900  1.0  -0.0328
  C  C845  1  0.926500  0.030400  0.683400  1.0  -0.0634
  C  C846  1  0.907400  0.031800  0.713000  1.0  -0.0885
  C  C847  1  0.873300  0.024900  0.715900  1.0  0.0766
  C  C848  1  0.858400  0.011500  0.686800  1.0  -0.0814
  C  C849  1  0.668700  0.042800  0.981800  1.0  0.7532
  C  C850  1  0.601200  0.062500  0.874100  1.0  0.6746
  C  C851  1  0.666000  0.057800  0.874900  1.0  -0.0638
  C  C852  1  0.635100  0.058500  0.893000  1.0  -0.1056
  C  C853  1  0.636400  0.052800  0.927800  1.0  -0.0093
  C  C854  1  0.667300  0.048200  0.944500  1.0  -0.171
  C  C855  1  0.697200  0.045400  0.925200  1.0  -0.0982
  C  C856  1  0.697100  0.049900  0.891400  1.0  0.0692
  C  C857  1  0.729800  0.044200  0.869200  1.0  -0.0741
  C  C858  1  0.755400  0.068300  0.873000  1.0  0.2136
  C  C859  1  0.751800  0.100800  0.889600  1.0  -0.1714
  C  C860  1  0.776000  0.121700  0.875700  1.0  -0.1503
  C  C861  1  0.794400  0.102300  0.850100  1.0  0.2028
  C  C862  1  0.820200  0.115400  0.829400  1.0  -0.0836
  C  C863  1  0.838100  0.095100  0.806400  1.0  0.1127
  C  C864  1  0.863700  0.109400  0.783800  1.0  -0.0791
  C  C865  1  0.876800  0.086800  0.760900  1.0  -0.1683
  C  C866  1  0.858400  0.055800  0.769000  1.0  0.1595
  C  C867  1  0.834300  0.150600  0.834200  1.0  0.0073
  C  C868  1  0.860000  0.155900  0.858500  1.0  0.0158
  C  C869  1  0.868600  0.189300  0.868400  1.0  -0.0623
  C  C870  1  0.851500  0.217200  0.854000  1.0  -0.0775
  C  C871  1  0.825700  0.211900  0.829700  1.0  -0.051
  C  C872  1  0.817100  0.178500  0.819800  1.0  -0.0166
  C  C873  1  0.852300  0.027200  0.748600  1.0  -0.0664
  C  C874  1  0.838200  0.996300  0.760800  1.0  0.1041
  C  C875  1  0.844800  0.961700  0.748000  1.0  -0.1335
  C  C876  1  0.825500  0.938100  0.765100  1.0  -0.1615
  C  C877  1  0.805900  0.959400  0.789000  1.0  0.1113
  C  C878  1  0.780100  0.946100  0.810900  1.0  -0.0625
  C  C879  1  0.759500  0.966000  0.832000  1.0  0.2136
  C  C880  1  0.728400  0.953600  0.848000  1.0  -0.1509
  C  C881  1  0.713500  0.981400  0.862500  1.0  -0.1518
  C  C882  1  0.735000  0.010900  0.856000  1.0  0.1079
  C  C883  1  0.747000  0.856700  0.792900  1.0  -0.0342
  C  C884  1  0.763600  0.838100  0.818500  1.0  -0.1003
  C  C885  1  0.785500  0.854700  0.841500  1.0  -0.0304
  C  C886  1  0.790800  0.890000  0.838800  1.0  -0.0213
  C  C887  1  0.774100  0.908700  0.813200  1.0  -0.0017
  C  C888  1  0.752200  0.892100  0.790200  1.0  -0.0293
  C  C889  1  0.465200  0.461500  0.317100  1.0  0.7432
  C  C890  1  0.359300  0.506300  0.375200  1.0  0.7232
  C  C891  1  0.375200  0.491000  0.345100  1.0  -0.1413
  C  C892  1  0.411600  0.481400  0.344100  1.0  -0.0325
  C  C893  1  0.426500  0.469600  0.316600  1.0  -0.0648
  C  C894  1  0.407400  0.468200  0.287000  1.0  -0.0888
  C  C895  1  0.373300  0.475100  0.284100  1.0  0.0768
  C  C896  1  0.358400  0.488500  0.313200  1.0  -0.0814
  C  C897  1  0.168700  0.457200  0.018200  1.0  0.7524
  C  C898  1  0.101200  0.437500  0.125900  1.0  0.6744
  C  C899  1  0.166000  0.442200  0.125100  1.0  -0.0654
  C  C900  1  0.135100  0.441500  0.107000  1.0  -0.1065
  C  C901  1  0.136400  0.447200  0.072200  1.0  -0.0092
  C  C902  1  0.167300  0.451800  0.055500  1.0  -0.1715
  C  C903  1  0.197200  0.454600  0.074800  1.0  -0.0992
  C  C904  1  0.197100  0.450100  0.108600  1.0  0.0681
  C  C905  1  0.229800  0.455800  0.130800  1.0  -0.0748
  C  C906  1  0.255400  0.431700  0.127000  1.0  0.2119
  C  C907  1  0.251800  0.399200  0.110400  1.0  -0.1713
  C  C908  1  0.276000  0.378300  0.124300  1.0  -0.1502
  C  C909  1  0.294400  0.397700  0.149900  1.0  0.2021
  C  C910  1  0.320200  0.384600  0.170600  1.0  -0.0836
  C  C911  1  0.338100  0.404900  0.193600  1.0  0.1127
  C  C912  1  0.363700  0.390600  0.216200  1.0  -0.0792
  C  C913  1  0.376800  0.413200  0.239100  1.0  -0.1685
  C  C914  1  0.358400  0.444200  0.231000  1.0  0.1603
  C  C915  1  0.334300  0.349400  0.165800  1.0  0.007
  C  C916  1  0.360000  0.344100  0.141500  1.0  0.0165
  C  C917  1  0.368600  0.310700  0.131600  1.0  -0.0639
  C  C918  1  0.351500  0.282800  0.146000  1.0  -0.0766
  C  C919  1  0.325700  0.288100  0.170300  1.0  -0.0502
  C  C920  1  0.317100  0.321500  0.180200  1.0  -0.0171
  C  C921  1  0.352300  0.472800  0.251400  1.0  -0.066
  C  C922  1  0.338200  0.503700  0.239200  1.0  0.1038
  C  C923  1  0.344800  0.538300  0.252000  1.0  -0.1341
  C  C924  1  0.325500  0.561900  0.234900  1.0  -0.1616
  C  C925  1  0.305900  0.540600  0.211000  1.0  0.1117
  C  C926  1  0.280100  0.553900  0.189100  1.0  -0.063
  C  C927  1  0.259500  0.534000  0.168000  1.0  0.2138
  C  C928  1  0.228400  0.546400  0.152000  1.0  -0.1497
  C  C929  1  0.213500  0.518600  0.137500  1.0  -0.1519
  C  C930  1  0.235000  0.489100  0.144000  1.0  0.1073
  C  C931  1  0.247000  0.643300  0.207100  1.0  -0.0328
  C  C932  1  0.263600  0.661900  0.181500  1.0  -0.1012
  C  C933  1  0.285500  0.645300  0.158500  1.0  -0.0305
  C  C934  1  0.290800  0.610000  0.161200  1.0  -0.02
  C  C935  1  0.274100  0.591300  0.186800  1.0  -0.0023
  C  C936  1  0.252200  0.607900  0.209800  1.0  -0.0278
  C  C937  1  0.182900  0.534800  0.961500  1.0  0.7439
  C  C938  1  0.124800  0.640700  0.006300  1.0  0.724
  C  C939  1  0.154900  0.624800  0.991000  1.0  -0.1406
  C  C940  1  0.155900  0.588400  0.981400  1.0  -0.0287
  C  C941  1  0.183400  0.573500  0.969600  1.0  -0.0608
  C  C942  1  0.213000  0.592600  0.968200  1.0  -0.0868
  C  C943  1  0.215900  0.626700  0.975100  1.0  0.0773
  C  C944  1  0.186800  0.641600  0.988500  1.0  -0.0837
  C  C945  1  0.481800  0.831300  0.957200  1.0  0.7485
  C  C946  1  0.374100  0.898800  0.937500  1.0  0.6734
  C  C947  1  0.374900  0.834000  0.942200  1.0  -0.0629
  C  C948  1  0.393000  0.864900  0.941500  1.0  -0.1046
  C  C949  1  0.427800  0.863600  0.947200  1.0  -0.0132
  C  C950  1  0.444500  0.832700  0.951800  1.0  -0.1741
  C  C951  1  0.425200  0.802800  0.954600  1.0  -0.0971
  C  C952  1  0.391400  0.802900  0.950100  1.0  0.0684
  C  C953  1  0.369200  0.770200  0.955800  1.0  -0.0755
  C  C954  1  0.373000  0.744600  0.931700  1.0  0.214
  C  C955  1  0.389600  0.748200  0.899200  1.0  -0.1697
  C  C956  1  0.375700  0.724000  0.878300  1.0  -0.1455
  C  C957  1  0.350100  0.705600  0.897700  1.0  0.2009
  C  C958  1  0.329400  0.679800  0.884600  1.0  -0.0839
  C  C959  1  0.306400  0.661900  0.904900  1.0  0.1149
  C  C960  1  0.283800  0.636300  0.890600  1.0  -0.0769
  C  C961  1  0.260900  0.623200  0.913200  1.0  -0.1698
  C  C962  1  0.269000  0.641600  0.944200  1.0  0.1607
  C  C963  1  0.334200  0.665700  0.849400  1.0  0.0063
  C  C964  1  0.358500  0.640000  0.844100  1.0  0.0173
  C  C965  1  0.368400  0.631400  0.810700  1.0  -0.0624
  C  C966  1  0.354000  0.648500  0.782800  1.0  -0.0752
  C  C967  1  0.329700  0.674300  0.788100  1.0  -0.052
  C  C968  1  0.319800  0.682900  0.821500  1.0  -0.0165
  C  C969  1  0.248600  0.647700  0.972800  1.0  -0.0659
  C  C970  1  0.260800  0.661800  0.003700  1.0  0.1044
  C  C971  1  0.248000  0.655200  0.038300  1.0  -0.1333
  C  C972  1  0.265100  0.674500  0.061900  1.0  -0.1601
  C  C973  1  0.289000  0.694100  0.040600  1.0  0.1099
  C  C974  1  0.310900  0.719900  0.053900  1.0  -0.0634
  C  C975  1  0.332000  0.740500  0.034000  1.0  0.2113
  C  C976  1  0.348000  0.771600  0.046400  1.0  -0.1509
  C  C977  1  0.362500  0.786500  0.018600  1.0  -0.1554
  C  C978  1  0.356000  0.765000  0.989100  1.0  0.1076
  C  C979  1  0.292900  0.753000  0.143300  1.0  -0.0352
  C  C980  1  0.318500  0.736400  0.161900  1.0  -0.0994
  C  C981  1  0.341500  0.714500  0.145300  1.0  -0.0303
  C  C982  1  0.338800  0.709200  0.110000  1.0  -0.0219
  C  C983  1  0.313200  0.725900  0.091300  1.0  -0.0024
  C  C984  1  0.290200  0.747800  0.107900  1.0  -0.0304
  C  C985  1  0.817100  0.034800  0.538500  1.0  0.7443
  C  C986  1  0.875200  0.140700  0.493700  1.0  0.7241
  C  C987  1  0.845100  0.124800  0.509000  1.0  -0.1411
  C  C988  1  0.844100  0.088400  0.518600  1.0  -0.0301
  C  C989  1  0.816600  0.073500  0.530400  1.0  -0.0615
  C  C990  1  0.787000  0.092600  0.531800  1.0  -0.0864
  C  C991  1  0.784100  0.126700  0.524900  1.0  0.0768
  C  C992  1  0.813200  0.141600  0.511500  1.0  -0.0839
  C  C993  1  0.518200  0.331300  0.542800  1.0  0.7508
  C  C994  1  0.625900  0.398800  0.562500  1.0  0.6742
  C  C995  1  0.625100  0.334000  0.557800  1.0  -0.0634
  C  C996  1  0.607000  0.364900  0.558500  1.0  -0.1047
  C  C997  1  0.572200  0.363600  0.552800  1.0  -0.0123
  C  C998  1  0.555500  0.332700  0.548200  1.0  -0.1738
  C  C999  1  0.574800  0.302800  0.545400  1.0  -0.0989
  C  C1000  1  0.608600  0.302900  0.549900  1.0  0.0681
  C  C1001  1  0.630800  0.270200  0.544200  1.0  -0.0739
  C  C1002  1  0.627000  0.244600  0.568300  1.0  0.2149
  C  C1003  1  0.610400  0.248200  0.600800  1.0  -0.1702
  C  C1004  1  0.624300  0.224000  0.621700  1.0  -0.1467
  C  C1005  1  0.649900  0.205600  0.602300  1.0  0.2012
  C  C1006  1  0.670600  0.179800  0.615400  1.0  -0.0831
  C  C1007  1  0.693600  0.161900  0.595100  1.0  0.114
  C  C1008  1  0.716200  0.136300  0.609400  1.0  -0.0766
  C  C1009  1  0.739100  0.123200  0.586800  1.0  -0.1706
  C  C1010  1  0.731000  0.141600  0.555800  1.0  0.1602
  C  C1011  1  0.665800  0.165700  0.650600  1.0  0.0071
  C  C1012  1  0.641500  0.140000  0.655900  1.0  0.0149
  C  C1013  1  0.631600  0.131400  0.689300  1.0  -0.0623
  C  C1014  1  0.646000  0.148500  0.717200  1.0  -0.0762
  C  C1015  1  0.670300  0.174300  0.711900  1.0  -0.0508
  C  C1016  1  0.680200  0.182900  0.678500  1.0  -0.0174
  C  C1017  1  0.751400  0.147700  0.527200  1.0  -0.0652
  C  C1018  1  0.739200  0.161800  0.496300  1.0  0.1036
  C  C1019  1  0.752000  0.155200  0.461700  1.0  -0.1344
  C  C1020  1  0.734900  0.174500  0.438100  1.0  -0.1614
  C  C1021  1  0.711000  0.194100  0.459400  1.0  0.11
  C  C1022  1  0.689100  0.219900  0.446100  1.0  -0.0638
  C  C1023  1  0.668000  0.240500  0.466000  1.0  0.2117
  C  C1024  1  0.652000  0.271600  0.453600  1.0  -0.1516
  C  C1025  1  0.637500  0.286500  0.481400  1.0  -0.1563
  C  C1026  1  0.644000  0.265000  0.510900  1.0  0.1079
  C  C1027  1  0.707100  0.253000  0.356700  1.0  -0.0338
  C  C1028  1  0.681500  0.236400  0.338100  1.0  -0.1003
  C  C1029  1  0.658500  0.214500  0.354700  1.0  -0.0317
  C  C1030  1  0.661200  0.209200  0.390000  1.0  -0.0215
  C  C1031  1  0.686800  0.225900  0.408700  1.0  -0.0025
  C  C1032  1  0.709800  0.247800  0.392100  1.0  -0.031
  C  C1033  1  0.682900  0.965200  0.038500  1.0  0.7442
  C  C1034  1  0.624800  0.859300  0.993700  1.0  0.724
  C  C1035  1  0.654900  0.875200  0.009000  1.0  -0.1409
  C  C1036  1  0.655900  0.911600  0.018600  1.0  -0.0281
  C  C1037  1  0.683400  0.926500  0.030400  1.0  -0.0598
  C  C1038  1  0.713000  0.907400  0.031800  1.0  -0.0871
  C  C1039  1  0.715900  0.873300  0.024900  1.0  0.0769
  C  C1040  1  0.686800  0.858400  0.011500  1.0  -0.0826
  C  C1041  1  0.981800  0.668700  0.042800  1.0  0.7488
  C  C1042  1  0.874100  0.601200  0.062500  1.0  0.6742
  C  C1043  1  0.874900  0.666000  0.057800  1.0  -0.0618
  C  C1044  1  0.893000  0.635100  0.058500  1.0  -0.1047
  C  C1045  1  0.927800  0.636400  0.052800  1.0  -0.0135
  C  C1046  1  0.944500  0.667300  0.048200  1.0  -0.1746
  C  C1047  1  0.925200  0.697200  0.045400  1.0  -0.0977
  C  C1048  1  0.891400  0.697100  0.049900  1.0  0.0687
  C  C1049  1  0.869200  0.729800  0.044200  1.0  -0.075
  C  C1050  1  0.873000  0.755400  0.068300  1.0  0.2144
  C  C1051  1  0.889600  0.751800  0.100800  1.0  -0.1685
  C  C1052  1  0.875700  0.776000  0.121700  1.0  -0.1447
  C  C1053  1  0.850100  0.794400  0.102300  1.0  0.2009
  C  C1054  1  0.829400  0.820200  0.115400  1.0  -0.0841
  C  C1055  1  0.806400  0.838100  0.095100  1.0  0.114
  C  C1056  1  0.783800  0.863700  0.109400  1.0  -0.0767
  C  C1057  1  0.760900  0.876800  0.086800  1.0  -0.1729
  C  C1058  1  0.769000  0.858400  0.055800  1.0  0.161
  C  C1059  1  0.834200  0.834300  0.150600  1.0  0.0066
  C  C1060  1  0.858500  0.860000  0.155900  1.0  0.0122
  C  C1061  1  0.868400  0.868600  0.189300  1.0  -0.0617
  C  C1062  1  0.854000  0.851500  0.217200  1.0  -0.0752
  C  C1063  1  0.829700  0.825700  0.211900  1.0  -0.0503
  C  C1064  1  0.819800  0.817100  0.178500  1.0  -0.0194
  C  C1065  1  0.748600  0.852300  0.027200  1.0  -0.065
  C  C1066  1  0.760800  0.838200  0.996300  1.0  0.1043
  C  C1067  1  0.748000  0.844800  0.961700  1.0  -0.1349
  C  C1068  1  0.765100  0.825500  0.938100  1.0  -0.1605
  C  C1069  1  0.789000  0.805900  0.959400  1.0  0.1099
  C  C1070  1  0.810900  0.780100  0.946100  1.0  -0.0639
  C  C1071  1  0.832000  0.759500  0.966000  1.0  0.2117
  C  C1072  1  0.848000  0.728400  0.953600  1.0  -0.1522
  C  C1073  1  0.862500  0.713500  0.981400  1.0  -0.1568
  C  C1074  1  0.856000  0.735000  0.010900  1.0  0.1078
  C  C1075  1  0.792900  0.747000  0.856700  1.0  -0.0348
  C  C1076  1  0.818500  0.763600  0.838100  1.0  -0.1004
  C  C1077  1  0.841500  0.785500  0.854700  1.0  -0.031
  C  C1078  1  0.838800  0.790800  0.890000  1.0  -0.0225
  C  C1079  1  0.813200  0.774100  0.908700  1.0  -0.0026
  C  C1080  1  0.790200  0.752200  0.892100  1.0  -0.029
  C  C1081  1  0.317100  0.465200  0.461500  1.0  0.7437
  C  C1082  1  0.375200  0.359300  0.506300  1.0  0.7246
  C  C1083  1  0.345100  0.375200  0.491000  1.0  -0.1411
  C  C1084  1  0.344100  0.411600  0.481400  1.0  -0.0296
  C  C1085  1  0.316600  0.426500  0.469600  1.0  -0.0612
  C  C1086  1  0.287000  0.407400  0.468200  1.0  -0.0864
  C  C1087  1  0.284100  0.373300  0.475100  1.0  0.0768
  C  C1088  1  0.313200  0.358400  0.488500  1.0  -0.0827
  C  C1089  1  0.018200  0.168700  0.457200  1.0  0.7503
  C  C1090  1  0.125900  0.101200  0.437500  1.0  0.6738
  C  C1091  1  0.125100  0.166000  0.442200  1.0  -0.0634
  C  C1092  1  0.107000  0.135100  0.441500  1.0  -0.1042
  C  C1093  1  0.072200  0.136400  0.447200  1.0  -0.0115
  C  C1094  1  0.055500  0.167300  0.451800  1.0  -0.1745
  C  C1095  1  0.074800  0.197200  0.454600  1.0  -0.0986
  C  C1096  1  0.108600  0.197100  0.450100  1.0  0.0683
  C  C1097  1  0.130800  0.229800  0.455800  1.0  -0.0737
  C  C1098  1  0.127000  0.255400  0.431700  1.0  0.2139
  C  C1099  1  0.110400  0.251800  0.399200  1.0  -0.1696
  C  C1100  1  0.124300  0.276000  0.378300  1.0  -0.1457
  C  C1101  1  0.149900  0.294400  0.397700  1.0  0.2012
  C  C1102  1  0.170600  0.320200  0.384600  1.0  -0.0838
  C  C1103  1  0.193600  0.338100  0.404900  1.0  0.1135
  C  C1104  1  0.216200  0.363700  0.390600  1.0  -0.0773
  C  C1105  1  0.239100  0.376800  0.413200  1.0  -0.1716
  C  C1106  1  0.231000  0.358400  0.444200  1.0  0.1611
  C  C1107  1  0.165800  0.334300  0.349400  1.0  0.0067
  C  C1108  1  0.141500  0.360000  0.344100  1.0  0.0162
  C  C1109  1  0.131600  0.368600  0.310700  1.0  -0.0628
  C  C1110  1  0.146000  0.351500  0.282800  1.0  -0.0751
  C  C1111  1  0.170300  0.325700  0.288100  1.0  -0.0533
  C  C1112  1  0.180200  0.317100  0.321500  1.0  -0.0176
  C  C1113  1  0.251400  0.352300  0.472800  1.0  -0.0652
  C  C1114  1  0.239200  0.338200  0.503700  1.0  0.1038
  C  C1115  1  0.252000  0.344800  0.538300  1.0  -0.1343
  C  C1116  1  0.234900  0.325500  0.561900  1.0  -0.1606
  C  C1117  1  0.211000  0.305900  0.540600  1.0  0.11
  C  C1118  1  0.189100  0.280100  0.553900  1.0  -0.0633
  C  C1119  1  0.168000  0.259500  0.534000  1.0  0.2128
  C  C1120  1  0.152000  0.228400  0.546400  1.0  -0.1512
  C  C1121  1  0.137500  0.213500  0.518600  1.0  -0.1555
  C  C1122  1  0.144000  0.235000  0.489100  1.0  0.1076
  C  C1123  1  0.207100  0.247000  0.643300  1.0  -0.0365
  C  C1124  1  0.181500  0.263600  0.661900  1.0  -0.0994
  C  C1125  1  0.158500  0.285500  0.645300  1.0  -0.0313
  C  C1126  1  0.161200  0.290800  0.610000  1.0  -0.0187
  C  C1127  1  0.186800  0.274100  0.591300  1.0  -0.0028
  C  C1128  1  0.209800  0.252200  0.607900  1.0  -0.029
  C  C1129  1  0.038500  0.817100  0.465200  1.0  0.7475
  C  C1130  1  0.993700  0.875200  0.359300  1.0  0.7231
  C  C1131  1  0.009000  0.845100  0.375200  1.0  -0.1378
  C  C1132  1  0.018600  0.844100  0.411600  1.0  -0.0348
  C  C1133  1  0.030400  0.816600  0.426500  1.0  -0.0606
  C  C1134  1  0.031800  0.787000  0.407400  1.0  -0.0848
  C  C1135  1  0.024900  0.784100  0.373300  1.0  0.0771
  C  C1136  1  0.011500  0.813200  0.358400  1.0  -0.0818
  C  C1137  1  0.042800  0.518200  0.168700  1.0  0.7495
  C  C1138  1  0.062500  0.625900  0.101200  1.0  0.6737
  C  C1139  1  0.057800  0.625100  0.166000  1.0  -0.0647
  C  C1140  1  0.058500  0.607000  0.135100  1.0  -0.1052
  C  C1141  1  0.052800  0.572200  0.136400  1.0  -0.0125
  C  C1142  1  0.048200  0.555500  0.167300  1.0  -0.1742
  C  C1143  1  0.045400  0.574800  0.197200  1.0  -0.0963
  C  C1144  1  0.049900  0.608600  0.197100  1.0  0.068
  C  C1145  1  0.044200  0.630800  0.229800  1.0  -0.0741
  C  C1146  1  0.068300  0.627000  0.255400  1.0  0.2138
  C  C1147  1  0.100800  0.610400  0.251800  1.0  -0.1701
  C  C1148  1  0.121700  0.624300  0.276000  1.0  -0.15
  C  C1149  1  0.102300  0.649900  0.294400  1.0  0.2024
  C  C1150  1  0.115400  0.670600  0.320200  1.0  -0.0832
  C  C1151  1  0.095100  0.693600  0.338100  1.0  0.113
  C  C1152  1  0.109400  0.716200  0.363700  1.0  -0.0774
  C  C1153  1  0.086800  0.739100  0.376800  1.0  -0.1671
  C  C1154  1  0.055800  0.731000  0.358400  1.0  0.1598
  C  C1155  1  0.150600  0.665800  0.334300  1.0  0.0074
  C  C1156  1  0.155900  0.641500  0.360000  1.0  0.017
  C  C1157  1  0.189300  0.631600  0.368600  1.0  -0.0627
  C  C1158  1  0.217200  0.646000  0.351500  1.0  -0.0753
  C  C1159  1  0.211900  0.670300  0.325700  1.0  -0.0501
  C  C1160  1  0.178500  0.680200  0.317100  1.0  -0.0179
  C  C1161  1  0.027200  0.751400  0.352300  1.0  -0.0664
  C  C1162  1  0.996300  0.739200  0.338200  1.0  0.1032
  C  C1163  1  0.961700  0.752000  0.344800  1.0  -0.1317
  C  C1164  1  0.938100  0.734900  0.325500  1.0  -0.1608
  C  C1165  1  0.959400  0.711000  0.305900  1.0  0.1097
  C  C1166  1  0.946100  0.689100  0.280100  1.0  -0.0621
  C  C1167  1  0.966000  0.668000  0.259500  1.0  0.2138
  C  C1168  1  0.953600  0.652000  0.228400  1.0  -0.1507
  C  C1169  1  0.981400  0.637500  0.213500  1.0  -0.1509
  C  C1170  1  0.010900  0.644000  0.235000  1.0  0.1066
  C  C1171  1  0.856700  0.707100  0.247000  1.0  -0.0319
  C  C1172  1  0.838100  0.681500  0.263600  1.0  -0.1022
  C  C1173  1  0.854700  0.658500  0.285500  1.0  -0.0314
  C  C1174  1  0.890000  0.661200  0.290800  1.0  -0.0192
  C  C1175  1  0.908700  0.686800  0.274100  1.0  -0.0023
  C  C1176  1  0.892100  0.709800  0.252200  1.0  -0.0261
  C  C1177  1  0.461500  0.182900  0.965200  1.0  0.7474
  C  C1178  1  0.506300  0.124800  0.859300  1.0  0.7233
  C  C1179  1  0.491000  0.154900  0.875200  1.0  -0.1384
  C  C1180  1  0.481400  0.155900  0.911600  1.0  -0.0346
  C  C1181  1  0.469600  0.183400  0.926500  1.0  -0.0606
  C  C1182  1  0.468200  0.213000  0.907400  1.0  -0.0839
  C  C1183  1  0.475100  0.215900  0.873300  1.0  0.0763
  C  C1184  1  0.488500  0.186800  0.858400  1.0  -0.0815
  C  C1185  1  0.457200  0.481800  0.668700  1.0  0.7495
  C  C1186  1  0.437500  0.374100  0.601200  1.0  0.6738
  C  C1187  1  0.442200  0.374900  0.666000  1.0  -0.0646
  C  C1188  1  0.441500  0.393000  0.635100  1.0  -0.1053
  C  C1189  1  0.447200  0.427800  0.636400  1.0  -0.0123
  C  C1190  1  0.451800  0.444500  0.667300  1.0  -0.1722
  C  C1191  1  0.454600  0.425200  0.697200  1.0  -0.0968
  C  C1192  1  0.450100  0.391400  0.697100  1.0  0.0673
  C  C1193  1  0.455800  0.369200  0.729800  1.0  -0.0744
  C  C1194  1  0.431700  0.373000  0.755400  1.0  0.2134
  C  C1195  1  0.399200  0.389600  0.751800  1.0  -0.1686
  C  C1196  1  0.378300  0.375700  0.776000  1.0  -0.1497
  C  C1197  1  0.397700  0.350100  0.794400  1.0  0.2023
  C  C1198  1  0.384600  0.329400  0.820200  1.0  -0.083
  C  C1199  1  0.404900  0.306400  0.838100  1.0  0.1141
  C  C1200  1  0.390600  0.283800  0.863700  1.0  -0.0788
  C  C1201  1  0.413200  0.260900  0.876800  1.0  -0.1678
  C  C1202  1  0.444200  0.269000  0.858400  1.0  0.1632
  C  C1203  1  0.349400  0.334200  0.834300  1.0  0.0074
  C  C1204  1  0.344100  0.358500  0.860000  1.0  0.017
  C  C1205  1  0.310700  0.368400  0.868600  1.0  -0.0641
  C  C1206  1  0.282800  0.354000  0.851500  1.0  -0.077
  C  C1207  1  0.288100  0.329700  0.825700  1.0  -0.0488
  C  C1208  1  0.321500  0.319800  0.817100  1.0  -0.018
  C  C1209  1  0.472800  0.248600  0.852300  1.0  -0.0661
  C  C1210  1  0.503700  0.260800  0.838200  1.0  0.1037
  C  C1211  1  0.538300  0.248000  0.844800  1.0  -0.1297
  C  C1212  1  0.561900  0.265100  0.825500  1.0  -0.1578
  C  C1213  1  0.540600  0.289000  0.805900  1.0  0.1092
  C  C1214  1  0.553900  0.310900  0.780100  1.0  -0.0617
  C  C1215  1  0.534000  0.332000  0.759500  1.0  0.2131
  C  C1216  1  0.546400  0.348000  0.728400  1.0  -0.1506
  C  C1217  1  0.518600  0.362500  0.713500  1.0  -0.1518
  C  C1218  1  0.489100  0.356000  0.735000  1.0  0.1068
  C  C1219  1  0.643300  0.292900  0.747000  1.0  -0.0324
  C  C1220  1  0.661900  0.318500  0.763600  1.0  -0.1034
  C  C1221  1  0.645300  0.341500  0.785500  1.0  -0.0331
  C  C1222  1  0.610000  0.338800  0.790800  1.0  -0.0201
  C  C1223  1  0.591300  0.313200  0.774100  1.0  -0.0022
  C  C1224  1  0.607900  0.290200  0.752200  1.0  -0.0258
  C  C1225  1  0.961500  0.317100  0.034800  1.0  0.7475
  C  C1226  1  0.006300  0.375200  0.140700  1.0  0.7229
  C  C1227  1  0.991000  0.345100  0.124800  1.0  -0.1373
  C  C1228  1  0.981400  0.344100  0.088400  1.0  -0.0341
  C  C1229  1  0.969600  0.316600  0.073500  1.0  -0.0599
  C  C1230  1  0.968200  0.287000  0.092600  1.0  -0.0841
  C  C1231  1  0.975100  0.284100  0.126700  1.0  0.0764
  C  C1232  1  0.988500  0.313200  0.141600  1.0  -0.0804
  C  C1233  1  0.957200  0.018200  0.331300  1.0  0.7492
  C  C1234  1  0.937500  0.125900  0.398800  1.0  0.6729
  C  C1235  1  0.942200  0.125100  0.334000  1.0  -0.0645
  C  C1236  1  0.941500  0.107000  0.364900  1.0  -0.1053
  C  C1237  1  0.947200  0.072200  0.363600  1.0  -0.0128
  C  C1238  1  0.951800  0.055500  0.332700  1.0  -0.173
  C  C1239  1  0.954600  0.074800  0.302800  1.0  -0.0971
  C  C1240  1  0.950100  0.108600  0.302900  1.0  0.0683
  C  C1241  1  0.955800  0.130800  0.270200  1.0  -0.0739
  C  C1242  1  0.931700  0.127000  0.244600  1.0  0.2132
  C  C1243  1  0.899200  0.110400  0.248200  1.0  -0.1701
  C  C1244  1  0.878300  0.124300  0.224000  1.0  -0.1494
  C  C1245  1  0.897700  0.149900  0.205600  1.0  0.2022
  C  C1246  1  0.884600  0.170600  0.179800  1.0  -0.0833
  C  C1247  1  0.904900  0.193600  0.161900  1.0  0.1129
  C  C1248  1  0.890600  0.216200  0.136300  1.0  -0.0786
  C  C1249  1  0.913200  0.239100  0.123200  1.0  -0.1668
  C  C1250  1  0.944200  0.231000  0.141600  1.0  0.163
  C  C1251  1  0.849400  0.165800  0.165700  1.0  0.0073
  C  C1252  1  0.844100  0.141500  0.140000  1.0  0.0197
  C  C1253  1  0.810700  0.131600  0.131400  1.0  -0.0635
  C  C1254  1  0.782800  0.146000  0.148500  1.0  -0.0757
  C  C1255  1  0.788100  0.170300  0.174300  1.0  -0.0512
  C  C1256  1  0.821500  0.180200  0.182900  1.0  -0.017
  C  C1257  1  0.972800  0.251400  0.147700  1.0  -0.0665
  C  C1258  1  0.003700  0.239200  0.161800  1.0  0.1029
  C  C1259  1  0.038300  0.252000  0.155200  1.0  -0.1305
  C  C1260  1  0.061900  0.234900  0.174500  1.0  -0.1574
  C  C1261  1  0.040600  0.211000  0.194100  1.0  0.1097
  C  C1262  1  0.053900  0.189100  0.219900  1.0  -0.0617
  C  C1263  1  0.034000  0.168000  0.240500  1.0  0.2141
  C  C1264  1  0.046400  0.152000  0.271600  1.0  -0.1498
  C  C1265  1  0.018600  0.137500  0.286500  1.0  -0.1512
  C  C1266  1  0.989100  0.144000  0.265000  1.0  0.1071
  C  C1267  1  0.143300  0.207100  0.253000  1.0  -0.0335
  C  C1268  1  0.161900  0.181500  0.236400  1.0  -0.1048
  C  C1269  1  0.145300  0.158500  0.214500  1.0  -0.0324
  C  C1270  1  0.110000  0.161200  0.209200  1.0  -0.0199
  C  C1271  1  0.091300  0.186800  0.225900  1.0  -0.0016
  C  C1272  1  0.107900  0.209800  0.247800  1.0  -0.027
  C  C1273  1  0.538500  0.682900  0.534800  1.0  0.7466
  C  C1274  1  0.493700  0.624800  0.640700  1.0  0.7226
  C  C1275  1  0.509000  0.654900  0.624800  1.0  -0.1382
  C  C1276  1  0.518600  0.655900  0.588400  1.0  -0.0348
  C  C1277  1  0.530400  0.683400  0.573500  1.0  -0.0599
  C  C1278  1  0.531800  0.713000  0.592600  1.0  -0.0831
  C  C1279  1  0.524900  0.715900  0.626700  1.0  0.0771
  C  C1280  1  0.511500  0.686800  0.641600  1.0  -0.0813
  C  C1281  1  0.542800  0.981800  0.831300  1.0  0.7496
  C  C1282  1  0.562500  0.874100  0.898800  1.0  0.6739
  C  C1283  1  0.557800  0.874900  0.834000  1.0  -0.0641
  C  C1284  1  0.558500  0.893000  0.864900  1.0  -0.1066
  C  C1285  1  0.552800  0.927800  0.863600  1.0  -0.0127
  C  C1286  1  0.548200  0.944500  0.832700  1.0  -0.1735
  C  C1287  1  0.545400  0.925200  0.802800  1.0  -0.0987
  C  C1288  1  0.549900  0.891400  0.802900  1.0  0.0684
  C  C1289  1  0.544200  0.869200  0.770200  1.0  -0.0743
  C  C1290  1  0.568300  0.873000  0.744600  1.0  0.2131
  C  C1291  1  0.600800  0.889600  0.748200  1.0  -0.1681
  C  C1292  1  0.621700  0.875700  0.724000  1.0  -0.1491
  C  C1293  1  0.602300  0.850100  0.705600  1.0  0.2019
  C  C1294  1  0.615400  0.829400  0.679800  1.0  -0.0838
  C  C1295  1  0.595100  0.806400  0.661900  1.0  0.1131
  C  C1296  1  0.609400  0.783800  0.636300  1.0  -0.0774
  C  C1297  1  0.586800  0.760900  0.623200  1.0  -0.1651
  C  C1298  1  0.555800  0.769000  0.641600  1.0  0.1605
  C  C1299  1  0.650600  0.834200  0.665700  1.0  0.0066
  C  C1300  1  0.655900  0.858500  0.640000  1.0  0.0185
  C  C1301  1  0.689300  0.868400  0.631400  1.0  -0.0643
  C  C1302  1  0.717200  0.854000  0.648500  1.0  -0.0759
  C  C1303  1  0.711900  0.829700  0.674300  1.0  -0.0477
  C  C1304  1  0.678500  0.819800  0.682900  1.0  -0.0175
  C  C1305  1  0.527200  0.748600  0.647700  1.0  -0.0673
  C  C1306  1  0.496300  0.760800  0.661800  1.0  0.1031
  C  C1307  1  0.461700  0.748000  0.655200  1.0  -0.1308
  C  C1308  1  0.438100  0.765100  0.674500  1.0  -0.1606
  C  C1309  1  0.459400  0.789000  0.694100  1.0  0.1099
  C  C1310  1  0.446100  0.810900  0.719900  1.0  -0.0619
  C  C1311  1  0.466000  0.832000  0.740500  1.0  0.2144
  C  C1312  1  0.453600  0.848000  0.771600  1.0  -0.1519
  C  C1313  1  0.481400  0.862500  0.786500  1.0  -0.1511
  C  C1314  1  0.510900  0.856000  0.765000  1.0  0.1067
  C  C1315  1  0.356700  0.792900  0.753000  1.0  -0.0325
  C  C1316  1  0.338100  0.818500  0.736400  1.0  -0.1053
  C  C1317  1  0.354700  0.841500  0.714500  1.0  -0.0333
  C  C1318  1  0.390000  0.838800  0.709200  1.0  -0.0201
  C  C1319  1  0.408700  0.813200  0.725900  1.0  -0.0019
  C  C1320  1  0.392100  0.790200  0.747800  1.0  -0.0272
  C  C1321  1  0.465200  0.038500  0.817100  1.0  0.743
  C  C1322  1  0.359300  0.993700  0.875200  1.0  0.7238
  C  C1323  1  0.375200  0.009000  0.845100  1.0  -0.1413
  C  C1324  1  0.411600  0.018600  0.844100  1.0  -0.0325
  C  C1325  1  0.426500  0.030400  0.816600  1.0  -0.0644
  C  C1326  1  0.407400  0.031800  0.787000  1.0  -0.0886
  C  C1327  1  0.373300  0.024900  0.784100  1.0  0.0768
  C  C1328  1  0.358400  0.011500  0.813200  1.0  -0.0817
  C  C1329  1  0.168700  0.042800  0.518200  1.0  0.7528
  C  C1330  1  0.101200  0.062500  0.625900  1.0  0.6742
  C  C1331  1  0.166000  0.057800  0.625100  1.0  -0.0652
  C  C1332  1  0.135100  0.058500  0.607000  1.0  -0.1052
  C  C1333  1  0.136400  0.052800  0.572200  1.0  -0.009
  C  C1334  1  0.167300  0.048200  0.555500  1.0  -0.1711
  C  C1335  1  0.197200  0.045400  0.574800  1.0  -0.0994
  C  C1336  1  0.197100  0.049900  0.608600  1.0  0.0678
  C  C1337  1  0.229800  0.044200  0.630800  1.0  -0.0748
  C  C1338  1  0.255400  0.068300  0.627000  1.0  0.212
  C  C1339  1  0.251800  0.100800  0.610400  1.0  -0.1713
  C  C1340  1  0.276000  0.121700  0.624300  1.0  -0.1503
  C  C1341  1  0.294400  0.102300  0.649900  1.0  0.2023
  C  C1342  1  0.320200  0.115400  0.670600  1.0  -0.084
  C  C1343  1  0.338100  0.095100  0.693600  1.0  0.113
  C  C1344  1  0.363700  0.109400  0.716200  1.0  -0.0789
  C  C1345  1  0.376800  0.086800  0.739100  1.0  -0.1686
  C  C1346  1  0.358400  0.055800  0.731000  1.0  0.16
  C  C1347  1  0.334300  0.150600  0.665800  1.0  0.007
  C  C1348  1  0.360000  0.155900  0.641500  1.0  0.0145
  C  C1349  1  0.368600  0.189300  0.631600  1.0  -0.0632
  C  C1350  1  0.351500  0.217200  0.646000  1.0  -0.0774
  C  C1351  1  0.325700  0.211900  0.670300  1.0  -0.0508
  C  C1352  1  0.317100  0.178500  0.680200  1.0  -0.0174
  C  C1353  1  0.352300  0.027200  0.751400  1.0  -0.0659
  C  C1354  1  0.338200  0.996300  0.739200  1.0  0.1041
  C  C1355  1  0.344800  0.961700  0.752000  1.0  -0.1325
  C  C1356  1  0.325500  0.938100  0.734900  1.0  -0.1607
  C  C1357  1  0.305900  0.959400  0.711000  1.0  0.1118
  C  C1358  1  0.280100  0.946100  0.689100  1.0  -0.0628
  C  C1359  1  0.259500  0.966000  0.668000  1.0  0.2138
  C  C1360  1  0.228400  0.953600  0.652000  1.0  -0.1508
  C  C1361  1  0.213500  0.981400  0.637500  1.0  -0.1529
  C  C1362  1  0.235000  0.010900  0.644000  1.0  0.1078
  C  C1363  1  0.247000  0.856700  0.707100  1.0  -0.0324
  C  C1364  1  0.263600  0.838100  0.681500  1.0  -0.1002
  C  C1365  1  0.285500  0.854700  0.658500  1.0  -0.0309
  C  C1366  1  0.290800  0.890000  0.661200  1.0  -0.0206
  C  C1367  1  0.274100  0.908700  0.686800  1.0  -0.0014
  C  C1368  1  0.252200  0.892100  0.709800  1.0  -0.0289
  C  C1369  1  0.965200  0.461500  0.182900  1.0  0.743
  C  C1370  1  0.859300  0.506300  0.124800  1.0  0.724
  C  C1371  1  0.875200  0.491000  0.154900  1.0  -0.1415
  C  C1372  1  0.911600  0.481400  0.155900  1.0  -0.0328
  C  C1373  1  0.926500  0.469600  0.183400  1.0  -0.0639
  C  C1374  1  0.907400  0.468200  0.213000  1.0  -0.0889
  C  C1375  1  0.873300  0.475100  0.215900  1.0  0.0763
  C  C1376  1  0.858400  0.488500  0.186800  1.0  -0.0815
  C  C1377  1  0.668700  0.457200  0.481800  1.0  0.7531
  C  C1378  1  0.601200  0.437500  0.374100  1.0  0.6746
  C  C1379  1  0.666000  0.442200  0.374900  1.0  -0.063
  C  C1380  1  0.635100  0.441500  0.393000  1.0  -0.107
  C  C1381  1  0.636400  0.447200  0.427800  1.0  -0.0092
  C  C1382  1  0.667300  0.451800  0.444500  1.0  -0.1706
  C  C1383  1  0.697200  0.454600  0.425200  1.0  -0.0985
  C  C1384  1  0.697100  0.450100  0.391400  1.0  0.0694
  C  C1385  1  0.729800  0.455800  0.369200  1.0  -0.0742
  C  C1386  1  0.755400  0.431700  0.373000  1.0  0.2135
  C  C1387  1  0.751800  0.399200  0.389600  1.0  -0.1709
  C  C1388  1  0.776000  0.378300  0.375700  1.0  -0.1491
  C  C1389  1  0.794400  0.397700  0.350100  1.0  0.2026
  C  C1390  1  0.820200  0.384600  0.329400  1.0  -0.0833
  C  C1391  1  0.838100  0.404900  0.306400  1.0  0.1122
  C  C1392  1  0.863700  0.390600  0.283800  1.0  -0.0795
  C  C1393  1  0.876800  0.413200  0.260900  1.0  -0.1683
  C  C1394  1  0.858400  0.444200  0.269000  1.0  0.16
  C  C1395  1  0.834300  0.349400  0.334200  1.0  0.0073
  C  C1396  1  0.860000  0.344100  0.358500  1.0  0.0175
  C  C1397  1  0.868600  0.310700  0.368400  1.0  -0.0622
  C  C1398  1  0.851500  0.282800  0.354000  1.0  -0.0772
  C  C1399  1  0.825700  0.288100  0.329700  1.0  -0.0504
  C  C1400  1  0.817100  0.321500  0.319800  1.0  -0.015
  C  C1401  1  0.852300  0.472800  0.248600  1.0  -0.0666
  C  C1402  1  0.838200  0.503700  0.260800  1.0  0.1036
  C  C1403  1  0.844800  0.538300  0.248000  1.0  -0.1343
  C  C1404  1  0.825500  0.561900  0.265100  1.0  -0.1622
  C  C1405  1  0.805900  0.540600  0.289000  1.0  0.1111
  C  C1406  1  0.780100  0.553900  0.310900  1.0  -0.0626
  C  C1407  1  0.759500  0.534000  0.332000  1.0  0.2136
  C  C1408  1  0.728400  0.546400  0.348000  1.0  -0.1497
  C  C1409  1  0.713500  0.518600  0.362500  1.0  -0.1515
  C  C1410  1  0.735000  0.489100  0.356000  1.0  0.1076
  C  C1411  1  0.747000  0.643300  0.292900  1.0  -0.0342
  C  C1412  1  0.763600  0.661900  0.318500  1.0  -0.1013
  C  C1413  1  0.785500  0.645300  0.341500  1.0  -0.0294
  C  C1414  1  0.790800  0.610000  0.338800  1.0  -0.0214
  C  C1415  1  0.774100  0.591300  0.313200  1.0  -0.0025
  C  C1416  1  0.752200  0.607900  0.290200  1.0  -0.0293
  C  C1417  1  0.034800  0.961500  0.317100  1.0  0.7434
  C  C1418  1  0.140700  0.006300  0.375200  1.0  0.7245
  C  C1419  1  0.124800  0.991000  0.345100  1.0  -0.1423
  C  C1420  1  0.088400  0.981400  0.344100  1.0  -0.0325
  C  C1421  1  0.073500  0.969600  0.316600  1.0  -0.0663
  C  C1422  1  0.092600  0.968200  0.287000  1.0  -0.0871
  C  C1423  1  0.126700  0.975100  0.284100  1.0  0.0772
  C  C1424  1  0.141600  0.988500  0.313200  1.0  -0.0831
  C  C1425  1  0.331300  0.957200  0.018200  1.0  0.7522
  C  C1426  1  0.398800  0.937500  0.125900  1.0  0.6747
  C  C1427  1  0.334000  0.942200  0.125100  1.0  -0.0646
  C  C1428  1  0.364900  0.941500  0.107000  1.0  -0.1073
  C  C1429  1  0.363600  0.947200  0.072200  1.0  -0.0104
  C  C1430  1  0.332700  0.951800  0.055500  1.0  -0.1718
  C  C1431  1  0.302800  0.954600  0.074800  1.0  -0.0985
  C  C1432  1  0.302900  0.950100  0.108600  1.0  0.0678
  C  C1433  1  0.270200  0.955800  0.130800  1.0  -0.0749
  C  C1434  1  0.244600  0.931700  0.127000  1.0  0.2117
  C  C1435  1  0.248200  0.899200  0.110400  1.0  -0.1713
  C  C1436  1  0.224000  0.878300  0.124300  1.0  -0.1505
  C  C1437  1  0.205600  0.897700  0.149900  1.0  0.2026
  C  C1438  1  0.179800  0.884600  0.170600  1.0  -0.0832
  C  C1439  1  0.161900  0.904900  0.193600  1.0  0.1119
  C  C1440  1  0.136300  0.890600  0.216200  1.0  -0.0788
  C  C1441  1  0.123200  0.913200  0.239100  1.0  -0.169
  C  C1442  1  0.141600  0.944200  0.231000  1.0  0.1614
  C  C1443  1  0.165700  0.849400  0.165800  1.0  0.0073
  C  C1444  1  0.140000  0.844100  0.141500  1.0  0.0184
  C  C1445  1  0.131400  0.810700  0.131600  1.0  -0.0636
  C  C1446  1  0.148500  0.782800  0.146000  1.0  -0.0778
  C  C1447  1  0.174300  0.788100  0.170300  1.0  -0.0499
  C  C1448  1  0.182900  0.821500  0.180200  1.0  -0.0165
  C  C1449  1  0.147700  0.972800  0.251400  1.0  -0.0644
  C  C1450  1  0.161800  0.003700  0.239200  1.0  0.1037
  C  C1451  1  0.155200  0.038300  0.252000  1.0  -0.1347
  C  C1452  1  0.174500  0.061900  0.234900  1.0  -0.1612
  C  C1453  1  0.194100  0.040600  0.211000  1.0  0.1113
  C  C1454  1  0.219900  0.053900  0.189100  1.0  -0.0631
  C  C1455  1  0.240500  0.034000  0.168000  1.0  0.211
  C  C1456  1  0.271600  0.046400  0.152000  1.0  -0.1487
  C  C1457  1  0.286500  0.018600  0.137500  1.0  -0.151
  C  C1458  1  0.265000  0.989100  0.144000  1.0  0.108
  C  C1459  1  0.253000  0.143300  0.207100  1.0  -0.0331
  C  C1460  1  0.236400  0.161900  0.181500  1.0  -0.1025
  C  C1461  1  0.214500  0.145300  0.158500  1.0  -0.0308
  C  C1462  1  0.209200  0.110000  0.161200  1.0  -0.0202
  C  C1463  1  0.225900  0.091300  0.186800  1.0  -0.0026
  C  C1464  1  0.247800  0.107900  0.209800  1.0  -0.0295
  C  C1465  1  0.534800  0.538500  0.682900  1.0  0.7432
  C  C1466  1  0.640700  0.493700  0.624800  1.0  0.7239
  C  C1467  1  0.624800  0.509000  0.654900  1.0  -0.1415
  C  C1468  1  0.588400  0.518600  0.655900  1.0  -0.031
  C  C1469  1  0.573500  0.530400  0.683400  1.0  -0.0652
  C  C1470  1  0.592600  0.531800  0.713000  1.0  -0.0865
  C  C1471  1  0.626700  0.524900  0.715900  1.0  0.0771
  C  C1472  1  0.641600  0.511500  0.686800  1.0  -0.0827
  C  C1473  1  0.831300  0.542800  0.981800  1.0  0.7529
  C  C1474  1  0.898800  0.562500  0.874100  1.0  0.6748
  C  C1475  1  0.834000  0.557800  0.874900  1.0  -0.0642
  C  C1476  1  0.864900  0.558500  0.893000  1.0  -0.1069
  C  C1477  1  0.863600  0.552800  0.927800  1.0  -0.0105
  C  C1478  1  0.832700  0.548200  0.944500  1.0  -0.1721
  C  C1479  1  0.802800  0.545400  0.925200  1.0  -0.0973
  C  C1480  1  0.802900  0.549900  0.891400  1.0  0.0689
  C  C1481  1  0.770200  0.544200  0.869200  1.0  -0.0741
  C  C1482  1  0.744600  0.568300  0.873000  1.0  0.2136
  C  C1483  1  0.748200  0.600800  0.889600  1.0  -0.1702
  C  C1484  1  0.724000  0.621700  0.875700  1.0  -0.1502
  C  C1485  1  0.705600  0.602300  0.850100  1.0  0.2033
  C  C1486  1  0.679800  0.615400  0.829400  1.0  -0.0831
  C  C1487  1  0.661900  0.595100  0.806400  1.0  0.1118
  C  C1488  1  0.636300  0.609400  0.783800  1.0  -0.0787
  C  C1489  1  0.623200  0.586800  0.760900  1.0  -0.1694
  C  C1490  1  0.641600  0.555800  0.769000  1.0  0.1602
  C  C1491  1  0.665700  0.650600  0.834200  1.0  0.0077
  C  C1492  1  0.640000  0.655900  0.858500  1.0  0.0173
  C  C1493  1  0.631400  0.689300  0.868400  1.0  -0.0636
  C  C1494  1  0.648500  0.717200  0.854000  1.0  -0.0781
  C  C1495  1  0.674300  0.711900  0.829700  1.0  -0.0503
  C  C1496  1  0.682900  0.678500  0.819800  1.0  -0.0168
  C  C1497  1  0.647700  0.527200  0.748600  1.0  -0.0651
  C  C1498  1  0.661800  0.496300  0.760800  1.0  0.104
  C  C1499  1  0.655200  0.461700  0.748000  1.0  -0.1335
  C  C1500  1  0.674500  0.438100  0.765100  1.0  -0.1609
  C  C1501  1  0.694100  0.459400  0.789000  1.0  0.1111
  C  C1502  1  0.719900  0.446100  0.810900  1.0  -0.0625
  C  C1503  1  0.740500  0.466000  0.832000  1.0  0.2109
  C  C1504  1  0.771600  0.453600  0.848000  1.0  -0.1497
  C  C1505  1  0.786500  0.481400  0.862500  1.0  -0.1512
  C  C1506  1  0.765000  0.510900  0.856000  1.0  0.1083
  C  C1507  1  0.753000  0.356700  0.792900  1.0  -0.0345
  C  C1508  1  0.736400  0.338100  0.818500  1.0  -0.1013
  C  C1509  1  0.714500  0.354700  0.841500  1.0  -0.0307
  C  C1510  1  0.709200  0.390000  0.838800  1.0  -0.0216
  C  C1511  1  0.725900  0.408700  0.813200  1.0  -0.002
  C  C1512  1  0.747800  0.392100  0.790200  1.0  -0.032
  C  C1513  1  0.817100  0.465200  0.038500  1.0  0.7441
  C  C1514  1  0.875200  0.359300  0.993700  1.0  0.7241
  C  C1515  1  0.845100  0.375200  0.009000  1.0  -0.1411
  C  C1516  1  0.844100  0.411600  0.018600  1.0  -0.0294
  C  C1517  1  0.816600  0.426500  0.030400  1.0  -0.0611
  C  C1518  1  0.787000  0.407400  0.031800  1.0  -0.0872
  C  C1519  1  0.784100  0.373300  0.024900  1.0  0.0767
  C  C1520  1  0.813200  0.358400  0.011500  1.0  -0.0823
  C  C1521  1  0.518200  0.168700  0.042800  1.0  0.7508
  C  C1522  1  0.625900  0.101200  0.062500  1.0  0.6745
  C  C1523  1  0.625100  0.166000  0.057800  1.0  -0.0627
  C  C1524  1  0.607000  0.135100  0.058500  1.0  -0.1047
  C  C1525  1  0.572200  0.136400  0.052800  1.0  -0.0115
  C  C1526  1  0.555500  0.167300  0.048200  1.0  -0.1744
  C  C1527  1  0.574800  0.197200  0.045400  1.0  -0.0982
  C  C1528  1  0.608600  0.197100  0.049900  1.0  0.0683
  C  C1529  1  0.630800  0.229800  0.044200  1.0  -0.0736
  C  C1530  1  0.627000  0.255400  0.068300  1.0  0.2148
  C  C1531  1  0.610400  0.251800  0.100800  1.0  -0.1702
  C  C1532  1  0.624300  0.276000  0.121700  1.0  -0.1461
  C  C1533  1  0.649900  0.294400  0.102300  1.0  0.2013
  C  C1534  1  0.670600  0.320200  0.115400  1.0  -0.0835
  C  C1535  1  0.693600  0.338100  0.095100  1.0  0.1135
  C  C1536  1  0.716200  0.363700  0.109400  1.0  -0.0767
  C  C1537  1  0.739100  0.376800  0.086800  1.0  -0.1713
  C  C1538  1  0.731000  0.358400  0.055800  1.0  0.1606
  C  C1539  1  0.665800  0.334300  0.150600  1.0  0.0071
  C  C1540  1  0.641500  0.360000  0.155900  1.0  0.013
  C  C1541  1  0.631600  0.368600  0.189300  1.0  -0.0633
  C  C1542  1  0.646000  0.351500  0.217200  1.0  -0.0769
  C  C1543  1  0.670300  0.325700  0.211900  1.0  -0.0499
  C  C1544  1  0.680200  0.317100  0.178500  1.0  -0.0182
  C  C1545  1  0.751400  0.352300  0.027200  1.0  -0.0646
  C  C1546  1  0.739200  0.338200  0.996300  1.0  0.1037
  C  C1547  1  0.752000  0.344800  0.961700  1.0  -0.1353
  C  C1548  1  0.734900  0.325500  0.938100  1.0  -0.1613
  C  C1549  1  0.711000  0.305900  0.959400  1.0  0.1101
  C  C1550  1  0.689100  0.280100  0.946100  1.0  -0.0637
  C  C1551  1  0.668000  0.259500  0.966000  1.0  0.2124
  C  C1552  1  0.652000  0.228400  0.953600  1.0  -0.1515
  C  C1553  1  0.637500  0.213500  0.981400  1.0  -0.1564
  C  C1554  1  0.644000  0.235000  0.010900  1.0  0.1077
  C  C1555  1  0.707100  0.247000  0.856700  1.0  -0.0362
  C  C1556  1  0.681500  0.263600  0.838100  1.0  -0.1003
  C  C1557  1  0.658500  0.285500  0.854700  1.0  -0.0318
  C  C1558  1  0.661200  0.290800  0.890000  1.0  -0.0195
  C  C1559  1  0.686800  0.274100  0.908700  1.0  -0.0028
  C  C1560  1  0.709800  0.252200  0.892100  1.0  -0.0281
  C  C1561  1  0.182900  0.965200  0.461500  1.0  0.7438
  C  C1562  1  0.124800  0.859300  0.506300  1.0  0.7243
  C  C1563  1  0.154900  0.875200  0.491000  1.0  -0.141
  C  C1564  1  0.155900  0.911600  0.481400  1.0  -0.0284
  C  C1565  1  0.183400  0.926500  0.469600  1.0  -0.06
  C  C1566  1  0.213000  0.907400  0.468200  1.0  -0.0866
  C  C1567  1  0.215900  0.873300  0.475100  1.0  0.077
  C  C1568  1  0.186800  0.858400  0.488500  1.0  -0.0827
  C  C1569  1  0.481800  0.668700  0.457200  1.0  0.7485
  C  C1570  1  0.374100  0.601200  0.437500  1.0  0.6735
  C  C1571  1  0.374900  0.666000  0.442200  1.0  -0.0626
  C  C1572  1  0.393000  0.635100  0.441500  1.0  -0.1046
  C  C1573  1  0.427800  0.636400  0.447200  1.0  -0.0136
  C  C1574  1  0.444500  0.667300  0.451800  1.0  -0.1743
  C  C1575  1  0.425200  0.697200  0.454600  1.0  -0.0978
  C  C1576  1  0.391400  0.697100  0.450100  1.0  0.0688
  C  C1577  1  0.369200  0.729800  0.455800  1.0  -0.0751
  C  C1578  1  0.373000  0.755400  0.431700  1.0  0.2135
  C  C1579  1  0.389600  0.751800  0.399200  1.0  -0.1695
  C  C1580  1  0.375700  0.776000  0.378300  1.0  -0.1454
  C  C1581  1  0.350100  0.794400  0.397700  1.0  0.2007
  C  C1582  1  0.329400  0.820200  0.384600  1.0  -0.0843
  C  C1583  1  0.306400  0.838100  0.404900  1.0  0.114
  C  C1584  1  0.283800  0.863700  0.390600  1.0  -0.0767
  C  C1585  1  0.260900  0.876800  0.413200  1.0  -0.1717
  C  C1586  1  0.269000  0.858400  0.444200  1.0  0.1612
  C  C1587  1  0.334200  0.834300  0.349400  1.0  0.0062
  C  C1588  1  0.358500  0.860000  0.344100  1.0  0.0154
  C  C1589  1  0.368400  0.868600  0.310700  1.0  -0.0619
  C  C1590  1  0.354000  0.851500  0.282800  1.0  -0.0751
  C  C1591  1  0.329700  0.825700  0.288100  1.0  -0.0517
  C  C1592  1  0.319800  0.817100  0.321500  1.0  -0.0175
  C  C1593  1  0.248600  0.852300  0.472800  1.0  -0.0656
  C  C1594  1  0.260800  0.838200  0.503700  1.0  0.1045
  C  C1595  1  0.248000  0.844800  0.538300  1.0  -0.1351
  C  C1596  1  0.265100  0.825500  0.561900  1.0  -0.1603
  C  C1597  1  0.289000  0.805900  0.540600  1.0  0.1099
  C  C1598  1  0.310900  0.780100  0.553900  1.0  -0.0635
  C  C1599  1  0.332000  0.759500  0.534000  1.0  0.2121
  C  C1600  1  0.348000  0.728400  0.546400  1.0  -0.1512
  C  C1601  1  0.362500  0.713500  0.518600  1.0  -0.1553
  C  C1602  1  0.356000  0.735000  0.489100  1.0  0.1074
  C  C1603  1  0.292900  0.747000  0.643300  1.0  -0.0345
  C  C1604  1  0.318500  0.763600  0.661900  1.0  -0.0989
  C  C1605  1  0.341500  0.785500  0.645300  1.0  -0.0303
  C  C1606  1  0.338800  0.790800  0.610000  1.0  -0.0214
  C  C1607  1  0.313200  0.774100  0.591300  1.0  -0.0026
  C  C1608  1  0.290200  0.752200  0.607900  1.0  -0.0301
  C  C1609  1  0.317100  0.034800  0.961500  1.0  0.7437
  C  C1610  1  0.375200  0.140700  0.006300  1.0  0.7243
  C  C1611  1  0.345100  0.124800  0.991000  1.0  -0.1412
  C  C1612  1  0.344100  0.088400  0.981400  1.0  -0.0302
  C  C1613  1  0.316600  0.073500  0.969600  1.0  -0.0615
  C  C1614  1  0.287000  0.092600  0.968200  1.0  -0.0862
  C  C1615  1  0.284100  0.126700  0.975100  1.0  0.077
  C  C1616  1  0.313200  0.141600  0.988500  1.0  -0.0843
  C  C1617  1  0.018200  0.331300  0.957200  1.0  0.7504
  C  C1618  1  0.125900  0.398800  0.937500  1.0  0.6737
  C  C1619  1  0.125100  0.334000  0.942200  1.0  -0.0639
  C  C1620  1  0.107000  0.364900  0.941500  1.0  -0.1043
  C  C1621  1  0.072200  0.363600  0.947200  1.0  -0.0123
  C  C1622  1  0.055500  0.332700  0.951800  1.0  -0.174
  C  C1623  1  0.074800  0.302800  0.954600  1.0  -0.0988
  C  C1624  1  0.108600  0.302900  0.950100  1.0  0.0679
  C  C1625  1  0.130800  0.270200  0.955800  1.0  -0.0741
  C  C1626  1  0.127000  0.244600  0.931700  1.0  0.2144
  C  C1627  1  0.110400  0.248200  0.899200  1.0  -0.17
  C  C1628  1  0.124300  0.224000  0.878300  1.0  -0.1461
  C  C1629  1  0.149900  0.205600  0.897700  1.0  0.201
  C  C1630  1  0.170600  0.179800  0.884600  1.0  -0.0833
  C  C1631  1  0.193600  0.161900  0.904900  1.0  0.1145
  C  C1632  1  0.216200  0.136300  0.890600  1.0  -0.0773
  C  C1633  1  0.239100  0.123200  0.913200  1.0  -0.1704
  C  C1634  1  0.231000  0.141600  0.944200  1.0  0.1606
  C  C1635  1  0.165800  0.165700  0.849400  1.0  0.0069
  C  C1636  1  0.141500  0.140000  0.844100  1.0  0.0166
  C  C1637  1  0.131600  0.131400  0.810700  1.0  -0.0628
  C  C1638  1  0.146000  0.148500  0.782800  1.0  -0.0752
  C  C1639  1  0.170300  0.174300  0.788100  1.0  -0.0538
  C  C1640  1  0.180200  0.182900  0.821500  1.0  -0.0178
  C  C1641  1  0.251400  0.147700  0.972800  1.0  -0.0655
  C  C1642  1  0.239200  0.161800  0.003700  1.0  0.1036
  C  C1643  1  0.252000  0.155200  0.038300  1.0  -0.1328
  C  C1644  1  0.234900  0.174500  0.061900  1.0  -0.1601
  C  C1645  1  0.211000  0.194100  0.040600  1.0  0.1099
  C  C1646  1  0.189100  0.219900  0.053900  1.0  -0.0633
  C  C1647  1  0.168000  0.240500  0.034000  1.0  0.2123
  C  C1648  1  0.152000  0.271600  0.046400  1.0  -0.1515
  C  C1649  1  0.137500  0.286500  0.018600  1.0  -0.1561
  C  C1650  1  0.144000  0.265000  0.989100  1.0  0.1079
  C  C1651  1  0.207100  0.253000  0.143300  1.0  -0.0349
  C  C1652  1  0.181500  0.236400  0.161900  1.0  -0.0994
  C  C1653  1  0.158500  0.214500  0.145300  1.0  -0.0313
  C  C1654  1  0.161200  0.209200  0.110000  1.0  -0.0204
  C  C1655  1  0.186800  0.225900  0.091300  1.0  -0.0025
  C  C1656  1  0.209800  0.247800  0.107900  1.0  -0.0316
  C  C1657  1  0.682900  0.534800  0.538500  1.0  0.7443
  C  C1658  1  0.624800  0.640700  0.493700  1.0  0.724
  C  C1659  1  0.654900  0.624800  0.509000  1.0  -0.1405
  C  C1660  1  0.655900  0.588400  0.518600  1.0  -0.0287
  C  C1661  1  0.683400  0.573500  0.530400  1.0  -0.0606
  C  C1662  1  0.713000  0.592600  0.531800  1.0  -0.0868
  C  C1663  1  0.715900  0.626700  0.524900  1.0  0.0771
  C  C1664  1  0.686800  0.641600  0.511500  1.0  -0.0836
  C  C1665  1  0.981800  0.831300  0.542800  1.0  0.7487
  C  C1666  1  0.874100  0.898800  0.562500  1.0  0.674
  C  C1667  1  0.874900  0.834000  0.557800  1.0  -0.0625
  C  C1668  1  0.893000  0.864900  0.558500  1.0  -0.1045
  C  C1669  1  0.927800  0.863600  0.552800  1.0  -0.0132
  C  C1670  1  0.944500  0.832700  0.548200  1.0  -0.1744
  C  C1671  1  0.925200  0.802800  0.545400  1.0  -0.0972
  C  C1672  1  0.891400  0.802900  0.549900  1.0  0.0684
  C  C1673  1  0.869200  0.770200  0.544200  1.0  -0.0754
  C  C1674  1  0.873000  0.744600  0.568300  1.0  0.2144
  C  C1675  1  0.889600  0.748200  0.600800  1.0  -0.1681
  C  C1676  1  0.875700  0.724000  0.621700  1.0  -0.1454
  C  C1677  1  0.850100  0.705600  0.602300  1.0  0.2011
  C  C1678  1  0.829400  0.679800  0.615400  1.0  -0.0836
  C  C1679  1  0.806400  0.661900  0.595100  1.0  0.1147
  C  C1680  1  0.783800  0.636300  0.609400  1.0  -0.0767
  C  C1681  1  0.760900  0.623200  0.586800  1.0  -0.1712
  C  C1682  1  0.769000  0.641600  0.555800  1.0  0.1606
  C  C1683  1  0.834200  0.665700  0.650600  1.0  0.0066
  C  C1684  1  0.858500  0.640000  0.655900  1.0  0.0158
  C  C1685  1  0.868400  0.631400  0.689300  1.0  -0.0615
  C  C1686  1  0.854000  0.648500  0.717200  1.0  -0.0748
  C  C1687  1  0.829700  0.674300  0.711900  1.0  -0.0513
  C  C1688  1  0.819800  0.682900  0.678500  1.0  -0.017
  C  C1689  1  0.748600  0.647700  0.527200  1.0  -0.0656
  C  C1690  1  0.760800  0.661800  0.496300  1.0  0.1043
  C  C1691  1  0.748000  0.655200  0.461700  1.0  -0.1335
  C  C1692  1  0.765100  0.674500  0.438100  1.0  -0.1607
  C  C1693  1  0.789000  0.694100  0.459400  1.0  0.11
  C  C1694  1  0.810900  0.719900  0.446100  1.0  -0.0639
  C  C1695  1  0.832000  0.740500  0.466000  1.0  0.2109
  C  C1696  1  0.848000  0.771600  0.453600  1.0  -0.1518
  C  C1697  1  0.862500  0.786500  0.481400  1.0  -0.1561
  C  C1698  1  0.856000  0.765000  0.510900  1.0  0.1079
  C  C1699  1  0.792900  0.753000  0.356700  1.0  -0.0344
  C  C1700  1  0.818500  0.736400  0.338100  1.0  -0.1006
  C  C1701  1  0.841500  0.714500  0.354700  1.0  -0.031
  C  C1702  1  0.838800  0.709200  0.390000  1.0  -0.0226
  C  C1703  1  0.813200  0.725900  0.408700  1.0  -0.0024
  C  C1704  1  0.790200  0.747800  0.392100  1.0  -0.0298
  Br  Br1705  1  0.084500  0.255700  0.771700  1.0  -0.0423
  Br  Br1706  1  0.827100  0.289300  0.719300  1.0  -0.0519
  Br  Br1707  1  0.880910  0.382790  0.619930  1.0  -0.0668
  Br  Br1708  1  0.088200  0.370300  0.678200  1.0  -0.0651
  Br  Br1709  1  0.415500  0.744300  0.271700  1.0  -0.042
  Br  Br1710  1  0.672900  0.710700  0.219300  1.0  -0.0516
  Br  Br1711  1  0.619090  0.617210  0.119930  1.0  -0.0653
  Br  Br1712  1  0.411800  0.629700  0.178200  1.0  -0.0645
  Br  Br1713  1  0.915500  0.755700  0.728300  1.0  -0.0419
  Br  Br1714  1  0.172900  0.789300  0.780700  1.0  -0.0525
  Br  Br1715  1  0.119090  0.882790  0.880070  1.0  -0.0685
  Br  Br1716  1  0.911800  0.870300  0.821800  1.0  -0.0636
  Br  Br1717  1  0.584500  0.244300  0.228300  1.0  -0.0437
  Br  Br1718  1  0.327100  0.210700  0.280700  1.0  -0.0536
  Br  Br1719  1  0.380910  0.117210  0.380070  1.0  -0.0666
  Br  Br1720  1  0.588200  0.129700  0.321800  1.0  -0.0641
  Br  Br1721  1  0.771700  0.084500  0.255700  1.0  -0.0436
  Br  Br1722  1  0.719300  0.827100  0.289300  1.0  -0.0539
  Br  Br1723  1  0.619930  0.880910  0.382790  1.0  -0.0653
  Br  Br1724  1  0.678200  0.088200  0.370300  1.0  -0.0617
  Br  Br1725  1  0.271700  0.415500  0.744300  1.0  -0.0426
  Br  Br1726  1  0.219300  0.672900  0.710700  1.0  -0.0514
  Br  Br1727  1  0.119930  0.619090  0.617210  1.0  -0.066
  Br  Br1728  1  0.178200  0.411800  0.629700  1.0  -0.064
  Br  Br1729  1  0.728300  0.915500  0.755700  1.0  -0.0448
  Br  Br1730  1  0.780700  0.172900  0.789300  1.0  -0.0545
  Br  Br1731  1  0.880070  0.119090  0.882790  1.0  -0.0688
  Br  Br1732  1  0.821800  0.911800  0.870300  1.0  -0.0621
  Br  Br1733  1  0.228300  0.584500  0.244300  1.0  -0.042
  Br  Br1734  1  0.280700  0.327100  0.210700  1.0  -0.053
  Br  Br1735  1  0.380070  0.380910  0.117210  1.0  -0.0657
  Br  Br1736  1  0.321800  0.588200  0.129700  1.0  -0.0643
  Br  Br1737  1  0.255700  0.771700  0.084500  1.0  -0.0448
  Br  Br1738  1  0.289300  0.719300  0.827100  1.0  -0.0511
  Br  Br1739  1  0.382790  0.619930  0.880910  1.0  -0.0677
  Br  Br1740  1  0.370300  0.678200  0.088200  1.0  -0.0649
  Br  Br1741  1  0.744300  0.271700  0.415500  1.0  -0.0434
  Br  Br1742  1  0.710700  0.219300  0.672900  1.0  -0.0512
  Br  Br1743  1  0.617210  0.119930  0.619090  1.0  -0.0671
  Br  Br1744  1  0.629700  0.178200  0.411800  1.0  -0.0636
  Br  Br1745  1  0.755700  0.728300  0.915500  1.0  -0.0432
  Br  Br1746  1  0.789300  0.780700  0.172900  1.0  -0.0517
  Br  Br1747  1  0.882790  0.880070  0.119090  1.0  -0.071
  Br  Br1748  1  0.870300  0.821800  0.911800  1.0  -0.0647
  Br  Br1749  1  0.244300  0.228300  0.584500  1.0  -0.0433
  Br  Br1750  1  0.210700  0.280700  0.327100  1.0  -0.0523
  Br  Br1751  1  0.117210  0.380070  0.380910  1.0  -0.0678
  Br  Br1752  1  0.129700  0.321800  0.588200  1.0  -0.0657
  Br  Br1753  1  0.915500  0.744300  0.228300  1.0  -0.0437
  Br  Br1754  1  0.172900  0.710700  0.280700  1.0  -0.0531
  Br  Br1755  1  0.119090  0.617210  0.380070  1.0  -0.0672
  Br  Br1756  1  0.911800  0.629700  0.321800  1.0  -0.0651
  Br  Br1757  1  0.584500  0.255700  0.728300  1.0  -0.0417
  Br  Br1758  1  0.327100  0.289300  0.780700  1.0  -0.0531
  Br  Br1759  1  0.380910  0.382790  0.880070  1.0  -0.0653
  Br  Br1760  1  0.588200  0.370300  0.821800  1.0  -0.0635
  Br  Br1761  1  0.084500  0.244300  0.271700  1.0  -0.0419
  Br  Br1762  1  0.827100  0.210700  0.219300  1.0  -0.0518
  Br  Br1763  1  0.880910  0.117210  0.119930  1.0  -0.0674
  Br  Br1764  1  0.088200  0.129700  0.178200  1.0  -0.0632
  Br  Br1765  1  0.415500  0.755700  0.771700  1.0  -0.0426
  Br  Br1766  1  0.672900  0.789300  0.719300  1.0  -0.0515
  Br  Br1767  1  0.619090  0.882790  0.619930  1.0  -0.0673
  Br  Br1768  1  0.411800  0.870300  0.678200  1.0  -0.066
  Br  Br1769  1  0.228300  0.915500  0.744300  1.0  -0.0425
  Br  Br1770  1  0.280700  0.172900  0.710700  1.0  -0.0514
  Br  Br1771  1  0.380070  0.119090  0.617210  1.0  -0.0653
  Br  Br1772  1  0.321800  0.911800  0.629700  1.0  -0.0646
  Br  Br1773  1  0.728300  0.584500  0.255700  1.0  -0.0426
  Br  Br1774  1  0.780700  0.327100  0.289300  1.0  -0.0544
  Br  Br1775  1  0.880070  0.380910  0.382790  1.0  -0.0645
  Br  Br1776  1  0.821800  0.588200  0.370300  1.0  -0.063
  Br  Br1777  1  0.271700  0.084500  0.244300  1.0  -0.0426
  Br  Br1778  1  0.219300  0.827100  0.210700  1.0  -0.0525
  Br  Br1779  1  0.119930  0.880910  0.117210  1.0  -0.0688
  Br  Br1780  1  0.178200  0.088200  0.129700  1.0  -0.0632
  Br  Br1781  1  0.771700  0.415500  0.755700  1.0  -0.0457
  Br  Br1782  1  0.719300  0.672900  0.789300  1.0  -0.0545
  Br  Br1783  1  0.619930  0.619090  0.882790  1.0  -0.0662
  Br  Br1784  1  0.678200  0.411800  0.870300  1.0  -0.0621
  Br  Br1785  1  0.744300  0.228300  0.915500  1.0  -0.0432
  Br  Br1786  1  0.710700  0.280700  0.172900  1.0  -0.052
  Br  Br1787  1  0.617210  0.380070  0.119090  1.0  -0.069
  Br  Br1788  1  0.629700  0.321800  0.911800  1.0  -0.0649
  Br  Br1789  1  0.255700  0.728300  0.584500  1.0  -0.0429
  Br  Br1790  1  0.289300  0.780700  0.327100  1.0  -0.0521
  Br  Br1791  1  0.382790  0.880070  0.380910  1.0  -0.0675
  Br  Br1792  1  0.370300  0.821800  0.588200  1.0  -0.064
  Br  Br1793  1  0.244300  0.271700  0.084500  1.0  -0.0443
  Br  Br1794  1  0.210700  0.219300  0.827100  1.0  -0.0508
  Br  Br1795  1  0.117210  0.119930  0.880910  1.0  -0.07
  Br  Br1796  1  0.129700  0.178200  0.088200  1.0  -0.0644
  Br  Br1797  1  0.755700  0.771700  0.415500  1.0  -0.0438
  Br  Br1798  1  0.789300  0.719300  0.672900  1.0  -0.0511
  Br  Br1799  1  0.882790  0.619930  0.619090  1.0  -0.0667
  Br  Br1800  1  0.870300  0.678200  0.411800  1.0  -0.0652
  N  N1801  1  0.930400  0.349100  0.718700  1.0  -0.364
  N  N1802  1  0.938500  0.296000  0.664000  1.0  -0.2812
  N  N1803  1  0.005900  0.287400  0.686100  1.0  -0.4372
  N  N1804  1  0.998700  0.335600  0.737400  1.0  -0.3836
  N  N1805  1  0.569600  0.650900  0.218700  1.0  -0.365
  N  N1806  1  0.561500  0.704000  0.164000  1.0  -0.2824
  N  N1807  1  0.494100  0.712600  0.186100  1.0  -0.4377
  N  N1808  1  0.501300  0.664400  0.237400  1.0  -0.3832
  N  N1809  1  0.069600  0.849100  0.781300  1.0  -0.3647
  N  N1810  1  0.061500  0.796000  0.836000  1.0  -0.2828
  N  N1811  1  0.994100  0.787400  0.813900  1.0  -0.4385
  N  N1812  1  0.001300  0.835600  0.762600  1.0  -0.3831
  N  N1813  1  0.430400  0.150900  0.281300  1.0  -0.3628
  N  N1814  1  0.438500  0.204000  0.336000  1.0  -0.2816
  N  N1815  1  0.505900  0.212600  0.313900  1.0  -0.4375
  N  N1816  1  0.498700  0.164400  0.262600  1.0  -0.3829
  N  N1817  1  0.718700  0.930400  0.349100  1.0  -0.3627
  N  N1818  1  0.664000  0.938500  0.296000  1.0  -0.2808
  N  N1819  1  0.686100  0.005900  0.287400  1.0  -0.4357
  N  N1820  1  0.737400  0.998700  0.335600  1.0  -0.3836
  N  N1821  1  0.218700  0.569600  0.650900  1.0  -0.3621
  N  N1822  1  0.164000  0.561500  0.704000  1.0  -0.2814
  N  N1823  1  0.186100  0.494100  0.712600  1.0  -0.4368
  N  N1824  1  0.237400  0.501300  0.664400  1.0  -0.3824
  N  N1825  1  0.781300  0.069600  0.849100  1.0  -0.3645
  N  N1826  1  0.836000  0.061500  0.796000  1.0  -0.282
  N  N1827  1  0.813900  0.994100  0.787400  1.0  -0.4364
  N  N1828  1  0.762600  0.001300  0.835600  1.0  -0.3825
  N  N1829  1  0.281300  0.430400  0.150900  1.0  -0.3623
  N  N1830  1  0.336000  0.438500  0.204000  1.0  -0.2812
  N  N1831  1  0.313900  0.505900  0.212600  1.0  -0.4363
  N  N1832  1  0.262600  0.498700  0.164400  1.0  -0.3835
  N  N1833  1  0.349100  0.718700  0.930400  1.0  -0.3645
  N  N1834  1  0.296000  0.664000  0.938500  1.0  -0.2817
  N  N1835  1  0.287400  0.686100  0.005900  1.0  -0.4366
  N  N1836  1  0.335600  0.737400  0.998700  1.0  -0.3817
  N  N1837  1  0.650900  0.218700  0.569600  1.0  -0.3657
  N  N1838  1  0.704000  0.164000  0.561500  1.0  -0.2819
  N  N1839  1  0.712600  0.186100  0.494100  1.0  -0.4372
  N  N1840  1  0.664400  0.237400  0.501300  1.0  -0.3812
  N  N1841  1  0.849100  0.781300  0.069600  1.0  -0.3658
  N  N1842  1  0.796000  0.836000  0.061500  1.0  -0.2819
  N  N1843  1  0.787400  0.813900  0.994100  1.0  -0.437
  N  N1844  1  0.835600  0.762600  0.001300  1.0  -0.3807
  N  N1845  1  0.150900  0.281300  0.430400  1.0  -0.3639
  N  N1846  1  0.204000  0.336000  0.438500  1.0  -0.2824
  N  N1847  1  0.212600  0.313900  0.505900  1.0  -0.4372
  N  N1848  1  0.164400  0.262600  0.498700  1.0  -0.3806
  N  N1849  1  0.069600  0.650900  0.281300  1.0  -0.3645
  N  N1850  1  0.061500  0.704000  0.336000  1.0  -0.2829
  N  N1851  1  0.994100  0.712600  0.313900  1.0  -0.4382
  N  N1852  1  0.001300  0.664400  0.262600  1.0  -0.3829
  N  N1853  1  0.430400  0.349100  0.781300  1.0  -0.3628
  N  N1854  1  0.438500  0.296000  0.836000  1.0  -0.2817
  N  N1855  1  0.505900  0.287400  0.813900  1.0  -0.4373
  N  N1856  1  0.498700  0.335600  0.762600  1.0  -0.3833
  N  N1857  1  0.930400  0.150900  0.218700  1.0  -0.3635
  N  N1858  1  0.938500  0.204000  0.164000  1.0  -0.2813
  N  N1859  1  0.005900  0.212600  0.186100  1.0  -0.4368
  N  N1860  1  0.998700  0.164400  0.237400  1.0  -0.3828
  N  N1861  1  0.569600  0.849100  0.718700  1.0  -0.3657
  N  N1862  1  0.561500  0.796000  0.664000  1.0  -0.2822
  N  N1863  1  0.494100  0.787400  0.686100  1.0  -0.4385
  N  N1864  1  0.501300  0.835600  0.737400  1.0  -0.3837
  N  N1865  1  0.281300  0.069600  0.650900  1.0  -0.3627
  N  N1866  1  0.336000  0.061500  0.704000  1.0  -0.2821
  N  N1867  1  0.313900  0.994100  0.712600  1.0  -0.4366
  N  N1868  1  0.262600  0.001300  0.664400  1.0  -0.3832
  N  N1869  1  0.781300  0.430400  0.349100  1.0  -0.3636
  N  N1870  1  0.836000  0.438500  0.296000  1.0  -0.2817
  N  N1871  1  0.813900  0.505900  0.287400  1.0  -0.4355
  N  N1872  1  0.762600  0.498700  0.335600  1.0  -0.3832
  N  N1873  1  0.218700  0.930400  0.150900  1.0  -0.3618
  N  N1874  1  0.164000  0.938500  0.204000  1.0  -0.2807
  N  N1875  1  0.186100  0.005900  0.212600  1.0  -0.4364
  N  N1876  1  0.237400  0.998700  0.164400  1.0  -0.3838
  N  N1877  1  0.718700  0.569600  0.849100  1.0  -0.3636
  N  N1878  1  0.664000  0.561500  0.796000  1.0  -0.2809
  N  N1879  1  0.686100  0.494100  0.787400  1.0  -0.4368
  N  N1880  1  0.737400  0.501300  0.835600  1.0  -0.3818
  N  N1881  1  0.650900  0.281300  0.069600  1.0  -0.365
  N  N1882  1  0.704000  0.336000  0.061500  1.0  -0.2826
  N  N1883  1  0.712600  0.313900  0.994100  1.0  -0.4371
  N  N1884  1  0.664400  0.262600  0.001300  1.0  -0.3806
  N  N1885  1  0.349100  0.781300  0.430400  1.0  -0.3647
  N  N1886  1  0.296000  0.836000  0.438500  1.0  -0.2818
  N  N1887  1  0.287400  0.813900  0.505900  1.0  -0.4372
  N  N1888  1  0.335600  0.762600  0.498700  1.0  -0.3808
  N  N1889  1  0.150900  0.218700  0.930400  1.0  -0.3637
  N  N1890  1  0.204000  0.164000  0.938500  1.0  -0.2824
  N  N1891  1  0.212600  0.186100  0.005900  1.0  -0.4364
  N  N1892  1  0.164400  0.237400  0.998700  1.0  -0.3814
  N  N1893  1  0.849100  0.718700  0.569600  1.0  -0.3665
  N  N1894  1  0.796000  0.664000  0.561500  1.0  -0.2813
  N  N1895  1  0.787400  0.686100  0.494100  1.0  -0.4371
  N  N1896  1  0.835600  0.737400  0.501300  1.0  -0.3815
  O  O1897  1  0.952300  0.211400  0.521180  1.0  -0.6251
  O  O1898  1  0.961720  0.154540  0.521330  1.0  -0.574
  O  O1899  1  0.010720  0.098600  0.621950  1.0  -0.5963
  O  O1900  1  0.012200  0.126400  0.671700  1.0  -0.4392
  O  O1901  1  0.926400  0.342400  0.896110  1.0  -0.4308
  O  O1902  1  0.941890  0.388780  0.925810  1.0  -0.553
  O  O1903  1  0.958790  0.498770  0.858670  1.0  -0.6119
  O  O1904  1  0.960500  0.494230  0.802140  1.0  -0.6222
  O  O1905  1  0.933480  0.316800  0.956160  1.0  -0.621
  O  O1906  1  0.547700  0.788600  0.021180  1.0  -0.624
  O  O1907  1  0.538280  0.845460  0.021330  1.0  -0.5753
  O  O1908  1  0.489280  0.901400  0.121950  1.0  -0.5971
  O  O1909  1  0.487800  0.873600  0.171700  1.0  -0.4415
  O  O1910  1  0.573600  0.657600  0.396110  1.0  -0.4328
  O  O1911  1  0.558110  0.611220  0.425810  1.0  -0.5523
  O  O1912  1  0.541210  0.501230  0.358670  1.0  -0.6122
  O  O1913  1  0.539500  0.505770  0.302140  1.0  -0.6222
  O  O1914  1  0.566520  0.683200  0.456160  1.0  -0.6203
  O  O1915  1  0.047700  0.711400  0.978820  1.0  -0.6228
  O  O1916  1  0.038280  0.654540  0.978670  1.0  -0.5738
  O  O1917  1  0.989280  0.598600  0.878050  1.0  -0.5974
  O  O1918  1  0.987800  0.626400  0.828300  1.0  -0.4428
  O  O1919  1  0.073600  0.842400  0.603890  1.0  -0.4313
  O  O1920  1  0.058110  0.888780  0.574190  1.0  -0.5525
  O  O1921  1  0.041210  0.998770  0.641330  1.0  -0.6115
  O  O1922  1  0.039500  0.994230  0.697860  1.0  -0.6208
  O  O1923  1  0.066520  0.816800  0.543840  1.0  -0.6223
  O  O1924  1  0.452300  0.288600  0.478820  1.0  -0.626
  O  O1925  1  0.461720  0.345460  0.478670  1.0  -0.5753
  O  O1926  1  0.510720  0.401400  0.378050  1.0  -0.5981
  O  O1927  1  0.512200  0.373600  0.328300  1.0  -0.4411
  O  O1928  1  0.426400  0.157600  0.103890  1.0  -0.4346
  O  O1929  1  0.441890  0.111220  0.074190  1.0  -0.553
  O  O1930  1  0.458790  0.001230  0.141330  1.0  -0.6114
  O  O1931  1  0.460500  0.005770  0.197860  1.0  -0.6207
  O  O1932  1  0.433480  0.183200  0.043840  1.0  -0.621
  O  O1933  1  0.521180  0.952300  0.211400  1.0  -0.625
  O  O1934  1  0.521330  0.961720  0.154540  1.0  -0.5741
  O  O1935  1  0.621950  0.010720  0.098600  1.0  -0.5961
  O  O1936  1  0.671700  0.012200  0.126400  1.0  -0.4467
  O  O1937  1  0.896110  0.926400  0.342400  1.0  -0.4307
  O  O1938  1  0.925810  0.941890  0.388780  1.0  -0.5515
  O  O1939  1  0.858670  0.958790  0.498770  1.0  -0.6135
  O  O1940  1  0.802140  0.960500  0.494230  1.0  -0.6184
  O  O1941  1  0.956160  0.933480  0.316800  1.0  -0.6225
  O  O1942  1  0.021180  0.547700  0.788600  1.0  -0.627
  O  O1943  1  0.021330  0.538280  0.845460  1.0  -0.5745
  O  O1944  1  0.121950  0.489280  0.901400  1.0  -0.5961
  O  O1945  1  0.171700  0.487800  0.873600  1.0  -0.4474
  O  O1946  1  0.396110  0.573600  0.657600  1.0  -0.4318
  O  O1947  1  0.425810  0.558110  0.611220  1.0  -0.5518
  O  O1948  1  0.358670  0.541210  0.501230  1.0  -0.6133
  O  O1949  1  0.302140  0.539500  0.505770  1.0  -0.6181
  O  O1950  1  0.456160  0.566520  0.683200  1.0  -0.6216
  O  O1951  1  0.978820  0.047700  0.711400  1.0  -0.6211
  O  O1952  1  0.978670  0.038280  0.654540  1.0  -0.5741
  O  O1953  1  0.878050  0.989280  0.598600  1.0  -0.5969
  O  O1954  1  0.828300  0.987800  0.626400  1.0  -0.4487
  O  O1955  1  0.603890  0.073600  0.842400  1.0  -0.4315
  O  O1956  1  0.574190  0.058110  0.888780  1.0  -0.5508
  O  O1957  1  0.641330  0.041210  0.998770  1.0  -0.6122
  O  O1958  1  0.697860  0.039500  0.994230  1.0  -0.619
  O  O1959  1  0.543840  0.066520  0.816800  1.0  -0.6231
  O  O1960  1  0.478820  0.452300  0.288600  1.0  -0.6255
  O  O1961  1  0.478670  0.461720  0.345460  1.0  -0.5743
  O  O1962  1  0.378050  0.510720  0.401400  1.0  -0.5961
  O  O1963  1  0.328300  0.512200  0.373600  1.0  -0.4486
  O  O1964  1  0.103890  0.426400  0.157600  1.0  -0.4305
  O  O1965  1  0.074190  0.441890  0.111220  1.0  -0.5504
  O  O1966  1  0.141330  0.458790  0.001230  1.0  -0.6122
  O  O1967  1  0.197860  0.460500  0.005770  1.0  -0.6183
  O  O1968  1  0.043840  0.433480  0.183200  1.0  -0.6213
  O  O1969  1  0.211400  0.521180  0.952300  1.0  -0.6229
  O  O1970  1  0.154540  0.521330  0.961720  1.0  -0.5746
  O  O1971  1  0.098600  0.621950  0.010720  1.0  -0.5982
  O  O1972  1  0.126400  0.671700  0.012200  1.0  -0.4382
  O  O1973  1  0.342400  0.896110  0.926400  1.0  -0.4346
  O  O1974  1  0.388780  0.925810  0.941890  1.0  -0.5534
  O  O1975  1  0.498770  0.858670  0.958790  1.0  -0.6128
  O  O1976  1  0.494230  0.802140  0.960500  1.0  -0.6229
  O  O1977  1  0.316800  0.956160  0.933480  1.0  -0.6211
  O  O1978  1  0.788600  0.021180  0.547700  1.0  -0.6231
  O  O1979  1  0.845460  0.021330  0.538280  1.0  -0.5744
  O  O1980  1  0.901400  0.121950  0.489280  1.0  -0.5978
  O  O1981  1  0.873600  0.171700  0.487800  1.0  -0.4394
  O  O1982  1  0.657600  0.396110  0.573600  1.0  -0.4318
  O  O1983  1  0.611220  0.425810  0.558110  1.0  -0.5526
  O  O1984  1  0.501230  0.358670  0.541210  1.0  -0.6116
  O  O1985  1  0.505770  0.302140  0.539500  1.0  -0.6235
  O  O1986  1  0.683200  0.456160  0.566520  1.0  -0.6218
  O  O1987  1  0.711400  0.978820  0.047700  1.0  -0.6227
  O  O1988  1  0.654540  0.978670  0.038280  1.0  -0.5748
  O  O1989  1  0.598600  0.878050  0.989280  1.0  -0.5982
  O  O1990  1  0.626400  0.828300  0.987800  1.0  -0.44
  O  O1991  1  0.842400  0.603890  0.073600  1.0  -0.4337
  O  O1992  1  0.888780  0.574190  0.058110  1.0  -0.5532
  O  O1993  1  0.998770  0.641330  0.041210  1.0  -0.6118
  O  O1994  1  0.994230  0.697860  0.039500  1.0  -0.6246
  O  O1995  1  0.816800  0.543840  0.066520  1.0  -0.6211
  O  O1996  1  0.288600  0.478820  0.452300  1.0  -0.6229
  O  O1997  1  0.345460  0.478670  0.461720  1.0  -0.5745
  O  O1998  1  0.401400  0.378050  0.510720  1.0  -0.5983
  O  O1999  1  0.373600  0.328300  0.512200  1.0  -0.4403
  O  O2000  1  0.157600  0.103890  0.426400  1.0  -0.4319
  O  O2001  1  0.111220  0.074190  0.441890  1.0  -0.5522
  O  O2002  1  0.001230  0.141330  0.458790  1.0  -0.6107
  O  O2003  1  0.005770  0.197860  0.460500  1.0  -0.6249
  O  O2004  1  0.183200  0.043840  0.433480  1.0  -0.6209
  O  O2005  1  0.047700  0.788600  0.478820  1.0  -0.6247
  O  O2006  1  0.038280  0.845460  0.478670  1.0  -0.5752
  O  O2007  1  0.989280  0.901400  0.378050  1.0  -0.598
  O  O2008  1  0.987800  0.873600  0.328300  1.0  -0.4429
  O  O2009  1  0.073600  0.657600  0.103890  1.0  -0.4333
  O  O2010  1  0.058110  0.611220  0.074190  1.0  -0.5527
  O  O2011  1  0.041210  0.501230  0.141330  1.0  -0.611
  O  O2012  1  0.039500  0.505770  0.197860  1.0  -0.6195
  O  O2013  1  0.066520  0.683200  0.043840  1.0  -0.6208
  O  O2014  1  0.452300  0.211400  0.978820  1.0  -0.6248
  O  O2015  1  0.461720  0.154540  0.978670  1.0  -0.5738
  O  O2016  1  0.510720  0.098600  0.878050  1.0  -0.5971
  O  O2017  1  0.512200  0.126400  0.828300  1.0  -0.4413
  O  O2018  1  0.426400  0.342400  0.603890  1.0  -0.4309
  O  O2019  1  0.441890  0.388780  0.574190  1.0  -0.553
  O  O2020  1  0.458790  0.498770  0.641330  1.0  -0.6111
  O  O2021  1  0.460500  0.494230  0.697860  1.0  -0.6195
  O  O2022  1  0.433480  0.316800  0.543840  1.0  -0.6215
  O  O2023  1  0.952300  0.288600  0.021180  1.0  -0.6251
  O  O2024  1  0.961720  0.345460  0.021330  1.0  -0.5753
  O  O2025  1  0.010720  0.401400  0.121950  1.0  -0.5973
  O  O2026  1  0.012200  0.373600  0.171700  1.0  -0.4391
  O  O2027  1  0.926400  0.157600  0.396110  1.0  -0.4342
  O  O2028  1  0.941890  0.111220  0.425810  1.0  -0.5523
  O  O2029  1  0.958790  0.001230  0.358670  1.0  -0.6117
  O  O2030  1  0.960500  0.005770  0.302140  1.0  -0.6197
  O  O2031  1  0.933480  0.183200  0.456160  1.0  -0.6205
  O  O2032  1  0.547700  0.711400  0.521180  1.0  -0.624
  O  O2033  1  0.538280  0.654540  0.521330  1.0  -0.574
  O  O2034  1  0.489280  0.598600  0.621950  1.0  -0.5966
  O  O2035  1  0.487800  0.626400  0.671700  1.0  -0.4415
  O  O2036  1  0.573600  0.842400  0.896110  1.0  -0.4306
  O  O2037  1  0.558110  0.888780  0.925810  1.0  -0.5528
  O  O2038  1  0.541210  0.998770  0.858670  1.0  -0.6115
  O  O2039  1  0.539500  0.994230  0.802140  1.0  -0.6209
  O  O2040  1  0.566520  0.816800  0.956160  1.0  -0.6219
  O  O2041  1  0.478820  0.047700  0.788600  1.0  -0.6263
  O  O2042  1  0.478670  0.038280  0.845460  1.0  -0.5743
  O  O2043  1  0.378050  0.989280  0.901400  1.0  -0.5962
  O  O2044  1  0.328300  0.987800  0.873600  1.0  -0.4489
  O  O2045  1  0.103890  0.073600  0.657600  1.0  -0.4301
  O  O2046  1  0.074190  0.058110  0.611220  1.0  -0.5506
  O  O2047  1  0.141330  0.041210  0.501230  1.0  -0.612
  O  O2048  1  0.197860  0.039500  0.505770  1.0  -0.6169
  O  O2049  1  0.043840  0.066520  0.683200  1.0  -0.6209
  O  O2050  1  0.978820  0.452300  0.211400  1.0  -0.6226
  O  O2051  1  0.978670  0.461720  0.154540  1.0  -0.5742
  O  O2052  1  0.878050  0.510720  0.098600  1.0  -0.5965
  O  O2053  1  0.828300  0.512200  0.126400  1.0  -0.4485
  O  O2054  1  0.603890  0.426400  0.342400  1.0  -0.4295
  O  O2055  1  0.574190  0.441890  0.388780  1.0  -0.5508
  O  O2056  1  0.641330  0.458790  0.498770  1.0  -0.6119
  O  O2057  1  0.697860  0.460500  0.494230  1.0  -0.617
  O  O2058  1  0.543840  0.433480  0.316800  1.0  -0.6234
  O  O2059  1  0.021180  0.952300  0.288600  1.0  -0.6264
  O  O2060  1  0.021330  0.961720  0.345460  1.0  -0.5746
  O  O2061  1  0.121950  0.010720  0.401400  1.0  -0.596
  O  O2062  1  0.171700  0.012200  0.373600  1.0  -0.4467
  O  O2063  1  0.396110  0.926400  0.157600  1.0  -0.4315
  O  O2064  1  0.425810  0.941890  0.111220  1.0  -0.5515
  O  O2065  1  0.358670  0.958790  0.001230  1.0  -0.6131
  O  O2066  1  0.302140  0.960500  0.005770  1.0  -0.6162
  O  O2067  1  0.456160  0.933480  0.183200  1.0  -0.6211
  O  O2068  1  0.521180  0.547700  0.711400  1.0  -0.6242
  O  O2069  1  0.521330  0.538280  0.654540  1.0  -0.5739
  O  O2070  1  0.621950  0.489280  0.598600  1.0  -0.5964
  O  O2071  1  0.671700  0.487800  0.626400  1.0  -0.4473
  O  O2072  1  0.896110  0.573600  0.842400  1.0  -0.433
  O  O2073  1  0.925810  0.558110  0.888780  1.0  -0.5517
  O  O2074  1  0.858670  0.541210  0.998770  1.0  -0.6134
  O  O2075  1  0.802140  0.539500  0.994230  1.0  -0.6172
  O  O2076  1  0.956160  0.566520  0.816800  1.0  -0.6229
  O  O2077  1  0.788600  0.478820  0.047700  1.0  -0.6239
  O  O2078  1  0.845460  0.478670  0.038280  1.0  -0.5742
  O  O2079  1  0.901400  0.378050  0.989280  1.0  -0.5983
  O  O2080  1  0.873600  0.328300  0.987800  1.0  -0.4405
  O  O2081  1  0.657600  0.103890  0.073600  1.0  -0.4315
  O  O2082  1  0.611220  0.074190  0.058110  1.0  -0.5524
  O  O2083  1  0.501230  0.141330  0.041210  1.0  -0.6103
  O  O2084  1  0.505770  0.197860  0.039500  1.0  -0.6231
  O  O2085  1  0.683200  0.043840  0.066520  1.0  -0.6212
  O  O2086  1  0.211400  0.978820  0.452300  1.0  -0.6226
  O  O2087  1  0.154540  0.978670  0.461720  1.0  -0.5749
  O  O2088  1  0.098600  0.878050  0.510720  1.0  -0.5982
  O  O2089  1  0.126400  0.828300  0.512200  1.0  -0.4399
  O  O2090  1  0.342400  0.603890  0.426400  1.0  -0.4342
  O  O2091  1  0.388780  0.574190  0.441890  1.0  -0.5529
  O  O2092  1  0.498770  0.641330  0.458790  1.0  -0.6114
  O  O2093  1  0.494230  0.697860  0.460500  1.0  -0.6223
  O  O2094  1  0.316800  0.543840  0.433480  1.0  -0.6214
  O  O2095  1  0.288600  0.021180  0.952300  1.0  -0.6231
  O  O2096  1  0.345460  0.021330  0.961720  1.0  -0.5746
  O  O2097  1  0.401400  0.121950  0.010720  1.0  -0.5978
  O  O2098  1  0.373600  0.171700  0.012200  1.0  -0.4396
  O  O2099  1  0.157600  0.396110  0.926400  1.0  -0.4326
  O  O2100  1  0.111220  0.425810  0.941890  1.0  -0.5524
  O  O2101  1  0.001230  0.358670  0.958790  1.0  -0.6111
  O  O2102  1  0.005770  0.302140  0.960500  1.0  -0.6211
  O  O2103  1  0.183200  0.456160  0.933480  1.0  -0.6213
  O  O2104  1  0.711400  0.521180  0.547700  1.0  -0.6233
  O  O2105  1  0.654540  0.521330  0.538280  1.0  -0.5745
  O  O2106  1  0.598600  0.621950  0.489280  1.0  -0.5982
  O  O2107  1  0.626400  0.671700  0.487800  1.0  -0.4383
  O  O2108  1  0.842400  0.896110  0.573600  1.0  -0.4337
  O  O2109  1  0.888780  0.925810  0.558110  1.0  -0.5536
  O  O2110  1  0.998770  0.858670  0.541210  1.0  -0.6125
  O  O2111  1  0.994230  0.802140  0.539500  1.0  -0.6217
  O  O2112  1  0.816800  0.956160  0.566520  1.0  -0.6208
