# generated using pymatgen
data_Cu6H33C63(N6O11)2
_symmetry_space_group_name_H-M   'P 1'
_cell_length_a   45.20600000
_cell_length_b   45.20600000
_cell_length_c   45.20600000
_cell_angle_alpha   60.00000000
_cell_angle_beta   60.00000000
_cell_angle_gamma   60.00000000
_symmetry_Int_Tables_number   1
_chemical_formula_structural   Cu6H33C63(N6O11)2
_chemical_formula_sum   'Cu48 H264 C504 N96 O176'
_cell_volume   65324.07131409
_cell_formula_units_Z   8
loop_
 _symmetry_equiv_pos_site_id
 _symmetry_equiv_pos_as_xyz
  1  'x, y, z'
loop_
 _atom_site_type_symbol
 _atom_site_label
 _atom_site_symmetry_multiplicity
 _atom_site_fract_x
 _atom_site_fract_y
 _atom_site_fract_z
 _atom_site_occupancy
 _atom_site_charge
  Cu  Cu1  1  0.835340  0.500000  0.164660  1.0  0.6436
  Cu  Cu2  1  0.894320  0.500000  0.105680  1.0  0.8565
  Cu  Cu3  1  0.500000  0.835340  0.500000  1.0  0.6398
  Cu  Cu4  1  0.500000  0.894320  0.500000  1.0  0.8595
  Cu  Cu5  1  0.164660  0.500000  0.835340  1.0  0.6413
  Cu  Cu6  1  0.105680  0.500000  0.894320  1.0  0.8597
  Cu  Cu7  1  0.500000  0.164660  0.500000  1.0  0.6425
  Cu  Cu8  1  0.500000  0.105680  0.500000  1.0  0.857
  Cu  Cu9  1  0.835340  0.164660  0.500000  1.0  0.6426
  Cu  Cu10  1  0.894320  0.105680  0.500000  1.0  0.8566
  Cu  Cu11  1  0.500000  0.500000  0.164660  1.0  0.6389
  Cu  Cu12  1  0.500000  0.500000  0.105680  1.0  0.85
  Cu  Cu13  1  0.164660  0.835340  0.500000  1.0  0.6392
  Cu  Cu14  1  0.105680  0.894320  0.500000  1.0  0.8595
  Cu  Cu15  1  0.500000  0.500000  0.835340  1.0  0.639
  Cu  Cu16  1  0.500000  0.500000  0.894320  1.0  0.8533
  Cu  Cu17  1  0.835340  0.500000  0.500000  1.0  0.6434
  Cu  Cu18  1  0.894320  0.500000  0.500000  1.0  0.8577
  Cu  Cu19  1  0.500000  0.164660  0.835340  1.0  0.6427
  Cu  Cu20  1  0.500000  0.105680  0.894320  1.0  0.8574
  Cu  Cu21  1  0.164660  0.500000  0.500000  1.0  0.6415
  Cu  Cu22  1  0.105680  0.500000  0.500000  1.0  0.8588
  Cu  Cu23  1  0.500000  0.835340  0.164660  1.0  0.6395
  Cu  Cu24  1  0.500000  0.894320  0.105680  1.0  0.8592
  Cu  Cu25  1  0.892070  0.399050  0.892070  1.0  0.9011
  Cu  Cu26  1  0.399050  0.892070  0.816810  1.0  0.9024
  Cu  Cu27  1  0.892070  0.816810  0.892070  1.0  0.9037
  Cu  Cu28  1  0.816810  0.892070  0.399050  1.0  0.9017
  Cu  Cu29  1  0.892070  0.892070  0.816810  1.0  0.901
  Cu  Cu30  1  0.399050  0.816810  0.892070  1.0  0.9035
  Cu  Cu31  1  0.892070  0.892070  0.399050  1.0  0.9008
  Cu  Cu32  1  0.816810  0.399050  0.892070  1.0  0.9013
  Cu  Cu33  1  0.892070  0.816810  0.399050  1.0  0.9033
  Cu  Cu34  1  0.399050  0.892070  0.892070  1.0  0.9024
  Cu  Cu35  1  0.892070  0.399050  0.816810  1.0  0.9016
  Cu  Cu36  1  0.816810  0.892070  0.892070  1.0  0.9021
  Cu  Cu37  1  0.600950  0.107930  0.107930  1.0  0.9038
  Cu  Cu38  1  0.107930  0.600950  0.183190  1.0  0.9016
  Cu  Cu39  1  0.183190  0.107930  0.107930  1.0  0.9026
  Cu  Cu40  1  0.107930  0.183190  0.600950  1.0  0.9017
  Cu  Cu41  1  0.107930  0.107930  0.183190  1.0  0.9015
  Cu  Cu42  1  0.183190  0.600950  0.107930  1.0  0.9011
  Cu  Cu43  1  0.107930  0.107930  0.600950  1.0  0.9034
  Cu  Cu44  1  0.600950  0.183190  0.107930  1.0  0.9005
  Cu  Cu45  1  0.183190  0.107930  0.600950  1.0  0.9028
  Cu  Cu46  1  0.107930  0.600950  0.107930  1.0  0.9029
  Cu  Cu47  1  0.600950  0.107930  0.183190  1.0  0.9028
  Cu  Cu48  1  0.107930  0.183190  0.107930  1.0  0.9013
  H  H49  1  0.779600  0.472000  0.138400  1.0  0.1575
  H  H50  1  0.752800  0.456600  0.119800  1.0  0.1451
  H  H51  1  0.832200  0.470000  0.022600  1.0  0.146
  H  H52  1  0.860000  0.485200  0.044200  1.0  0.1432
  H  H53  1  0.823200  0.430800  0.013200  1.0  0.1512
  H  H54  1  0.472000  0.779600  0.610000  1.0  0.1583
  H  H55  1  0.456600  0.752800  0.670800  1.0  0.1445
  H  H56  1  0.470000  0.832200  0.675200  1.0  0.1463
  H  H57  1  0.485200  0.860000  0.610600  1.0  0.1435
  H  H58  1  0.430800  0.823200  0.732800  1.0  0.1503
  H  H59  1  0.138400  0.610000  0.779600  1.0  0.1577
  H  H60  1  0.119800  0.670800  0.752800  1.0  0.1456
  H  H61  1  0.022600  0.675200  0.832200  1.0  0.1463
  H  H62  1  0.044200  0.610600  0.860000  1.0  0.143
  H  H63  1  0.013200  0.732800  0.823200  1.0  0.1517
  H  H64  1  0.610000  0.138400  0.472000  1.0  0.1568
  H  H65  1  0.670800  0.119800  0.456600  1.0  0.1446
  H  H66  1  0.675200  0.022600  0.470000  1.0  0.1448
  H  H67  1  0.610600  0.044200  0.485200  1.0  0.1431
  H  H68  1  0.732800  0.013200  0.430800  1.0  0.1512
  H  H69  1  0.779600  0.138400  0.610000  1.0  0.1571
  H  H70  1  0.752800  0.119800  0.670800  1.0  0.1452
  H  H71  1  0.832200  0.022600  0.675200  1.0  0.146
  H  H72  1  0.860000  0.044200  0.610600  1.0  0.1427
  H  H73  1  0.823200  0.013200  0.732800  1.0  0.1509
  H  H74  1  0.472000  0.610000  0.138400  1.0  0.1575
  H  H75  1  0.456600  0.670800  0.119800  1.0  0.1448
  H  H76  1  0.470000  0.675200  0.022600  1.0  0.1462
  H  H77  1  0.485200  0.610600  0.044200  1.0  0.1416
  H  H78  1  0.430800  0.732800  0.013200  1.0  0.1515
  H  H79  1  0.138400  0.779600  0.472000  1.0  0.1571
  H  H80  1  0.119800  0.752800  0.456600  1.0  0.1449
  H  H81  1  0.022600  0.832200  0.470000  1.0  0.145
  H  H82  1  0.044200  0.860000  0.485200  1.0  0.1425
  H  H83  1  0.013200  0.823200  0.430800  1.0  0.1503
  H  H84  1  0.610000  0.472000  0.779600  1.0  0.1593
  H  H85  1  0.670800  0.456600  0.752800  1.0  0.1453
  H  H86  1  0.675200  0.470000  0.832200  1.0  0.146
  H  H87  1  0.610600  0.485200  0.860000  1.0  0.1417
  H  H88  1  0.732800  0.430800  0.823200  1.0  0.1517
  H  H89  1  0.779600  0.610000  0.472000  1.0  0.1575
  H  H90  1  0.752800  0.670800  0.456600  1.0  0.1452
  H  H91  1  0.832200  0.675200  0.470000  1.0  0.1453
  H  H92  1  0.860000  0.610600  0.485200  1.0  0.1427
  H  H93  1  0.823200  0.732800  0.430800  1.0  0.1512
  H  H94  1  0.472000  0.138400  0.779600  1.0  0.1579
  H  H95  1  0.456600  0.119800  0.752800  1.0  0.1451
  H  H96  1  0.470000  0.022600  0.832200  1.0  0.1469
  H  H97  1  0.485200  0.044200  0.860000  1.0  0.1441
  H  H98  1  0.430800  0.013200  0.823200  1.0  0.1518
  H  H99  1  0.138400  0.472000  0.610000  1.0  0.1572
  H  H100  1  0.119800  0.456600  0.670800  1.0  0.1452
  H  H101  1  0.022600  0.470000  0.675200  1.0  0.1461
  H  H102  1  0.044200  0.485200  0.610600  1.0  0.143
  H  H103  1  0.013200  0.430800  0.732800  1.0  0.1512
  H  H104  1  0.610000  0.779600  0.138400  1.0  0.1577
  H  H105  1  0.670800  0.752800  0.119800  1.0  0.1442
  H  H106  1  0.675200  0.832200  0.022600  1.0  0.145
  H  H107  1  0.610600  0.860000  0.044200  1.0  0.142
  H  H108  1  0.732800  0.823200  0.013200  1.0  0.1501
  H  H109  1  0.528000  0.220400  0.861600  1.0  0.1576
  H  H110  1  0.543400  0.247200  0.880200  1.0  0.1451
  H  H111  1  0.530000  0.167800  0.977400  1.0  0.1463
  H  H112  1  0.514800  0.140000  0.955800  1.0  0.1432
  H  H113  1  0.569200  0.176800  0.986800  1.0  0.1514
  H  H114  1  0.220400  0.528000  0.390000  1.0  0.1565
  H  H115  1  0.247200  0.543400  0.329200  1.0  0.1445
  H  H116  1  0.167800  0.530000  0.324800  1.0  0.1459
  H  H117  1  0.140000  0.514800  0.389400  1.0  0.142
  H  H118  1  0.176800  0.569200  0.267200  1.0  0.1505
  H  H119  1  0.390000  0.861600  0.220400  1.0  0.1567
  H  H120  1  0.329200  0.880200  0.247200  1.0  0.1449
  H  H121  1  0.324800  0.977400  0.167800  1.0  0.1448
  H  H122  1  0.389400  0.955800  0.140000  1.0  0.1431
  H  H123  1  0.267200  0.986800  0.176800  1.0  0.1512
  H  H124  1  0.861600  0.390000  0.528000  1.0  0.1573
  H  H125  1  0.880200  0.329200  0.543400  1.0  0.1452
  H  H126  1  0.977400  0.324800  0.530000  1.0  0.1455
  H  H127  1  0.955800  0.389400  0.514800  1.0  0.1431
  H  H128  1  0.986800  0.267200  0.569200  1.0  0.1513
  H  H129  1  0.861600  0.220400  0.390000  1.0  0.1567
  H  H130  1  0.880200  0.247200  0.329200  1.0  0.145
  H  H131  1  0.977400  0.167800  0.324800  1.0  0.1448
  H  H132  1  0.955800  0.140000  0.389400  1.0  0.1423
  H  H133  1  0.986800  0.176800  0.267200  1.0  0.152
  H  H134  1  0.390000  0.528000  0.861600  1.0  0.1588
  H  H135  1  0.329200  0.543400  0.880200  1.0  0.1457
  H  H136  1  0.324800  0.530000  0.977400  1.0  0.1466
  H  H137  1  0.389400  0.514800  0.955800  1.0  0.1415
  H  H138  1  0.267200  0.569200  0.986800  1.0  0.1515
  H  H139  1  0.220400  0.861600  0.528000  1.0  0.1573
  H  H140  1  0.247200  0.880200  0.543400  1.0  0.1457
  H  H141  1  0.167800  0.977400  0.530000  1.0  0.1449
  H  H142  1  0.140000  0.955800  0.514800  1.0  0.1426
  H  H143  1  0.176800  0.986800  0.569200  1.0  0.1503
  H  H144  1  0.528000  0.390000  0.220400  1.0  0.1574
  H  H145  1  0.543400  0.329200  0.247200  1.0  0.1452
  H  H146  1  0.530000  0.324800  0.167800  1.0  0.1452
  H  H147  1  0.514800  0.389400  0.140000  1.0  0.1415
  H  H148  1  0.569200  0.267200  0.176800  1.0  0.1514
  H  H149  1  0.390000  0.220400  0.528000  1.0  0.157
  H  H150  1  0.329200  0.247200  0.543400  1.0  0.1445
  H  H151  1  0.324800  0.167800  0.530000  1.0  0.145
  H  H152  1  0.389400  0.140000  0.514800  1.0  0.1417
  H  H153  1  0.267200  0.176800  0.569200  1.0  0.1516
  H  H154  1  0.861600  0.528000  0.220400  1.0  0.1566
  H  H155  1  0.880200  0.543400  0.247200  1.0  0.1449
  H  H156  1  0.977400  0.530000  0.167800  1.0  0.146
  H  H157  1  0.955800  0.514800  0.140000  1.0  0.1431
  H  H158  1  0.986800  0.569200  0.176800  1.0  0.1513
  H  H159  1  0.528000  0.861600  0.390000  1.0  0.1583
  H  H160  1  0.543400  0.880200  0.329200  1.0  0.1448
  H  H161  1  0.530000  0.977400  0.324800  1.0  0.1465
  H  H162  1  0.514800  0.955800  0.389400  1.0  0.1433
  H  H163  1  0.569200  0.986800  0.267200  1.0  0.1513
  H  H164  1  0.220400  0.390000  0.861600  1.0  0.1579
  H  H165  1  0.247200  0.329200  0.880200  1.0  0.1453
  H  H166  1  0.167800  0.324800  0.977400  1.0  0.1455
  H  H167  1  0.140000  0.389400  0.955800  1.0  0.1422
  H  H168  1  0.176800  0.267200  0.986800  1.0  0.1506
  H  H169  1  0.220400  0.528000  0.861600  1.0  0.1579
  H  H170  1  0.247200  0.543400  0.880200  1.0  0.1452
  H  H171  1  0.167800  0.530000  0.977400  1.0  0.1463
  H  H172  1  0.140000  0.514800  0.955800  1.0  0.1418
  H  H173  1  0.176800  0.569200  0.986800  1.0  0.1504
  H  H174  1  0.528000  0.220400  0.390000  1.0  0.1568
  H  H175  1  0.543400  0.247200  0.329200  1.0  0.145
  H  H176  1  0.530000  0.167800  0.324800  1.0  0.1458
  H  H177  1  0.514800  0.140000  0.389400  1.0  0.1431
  H  H178  1  0.569200  0.176800  0.267200  1.0  0.1515
  H  H179  1  0.861600  0.390000  0.220400  1.0  0.1569
  H  H180  1  0.880200  0.329200  0.247200  1.0  0.1445
  H  H181  1  0.977400  0.324800  0.167800  1.0  0.1451
  H  H182  1  0.955800  0.389400  0.140000  1.0  0.1433
  H  H183  1  0.986800  0.267200  0.176800  1.0  0.1512
  H  H184  1  0.390000  0.861600  0.528000  1.0  0.1573
  H  H185  1  0.329200  0.880200  0.543400  1.0  0.1451
  H  H186  1  0.324800  0.977400  0.530000  1.0  0.1454
  H  H187  1  0.389400  0.955800  0.514800  1.0  0.1433
  H  H188  1  0.267200  0.986800  0.569200  1.0  0.1513
  H  H189  1  0.220400  0.861600  0.390000  1.0  0.1569
  H  H190  1  0.247200  0.880200  0.329200  1.0  0.1457
  H  H191  1  0.167800  0.977400  0.324800  1.0  0.145
  H  H192  1  0.140000  0.955800  0.389400  1.0  0.1425
  H  H193  1  0.176800  0.986800  0.267200  1.0  0.1506
  H  H194  1  0.528000  0.390000  0.861600  1.0  0.1587
  H  H195  1  0.543400  0.329200  0.880200  1.0  0.1458
  H  H196  1  0.530000  0.324800  0.977400  1.0  0.1456
  H  H197  1  0.514800  0.389400  0.955800  1.0  0.1417
  H  H198  1  0.569200  0.267200  0.986800  1.0  0.1512
  H  H199  1  0.861600  0.220400  0.528000  1.0  0.1573
  H  H200  1  0.880200  0.247200  0.543400  1.0  0.1447
  H  H201  1  0.977400  0.167800  0.530000  1.0  0.1446
  H  H202  1  0.955800  0.140000  0.514800  1.0  0.1426
  H  H203  1  0.986800  0.176800  0.569200  1.0  0.1516
  H  H204  1  0.390000  0.528000  0.220400  1.0  0.1579
  H  H205  1  0.329200  0.543400  0.247200  1.0  0.1447
  H  H206  1  0.324800  0.530000  0.167800  1.0  0.1466
  H  H207  1  0.389400  0.514800  0.140000  1.0  0.1409
  H  H208  1  0.267200  0.569200  0.176800  1.0  0.1514
  H  H209  1  0.220400  0.390000  0.528000  1.0  0.1572
  H  H210  1  0.247200  0.329200  0.543400  1.0  0.1451
  H  H211  1  0.167800  0.324800  0.530000  1.0  0.1454
  H  H212  1  0.140000  0.389400  0.514800  1.0  0.1418
  H  H213  1  0.176800  0.267200  0.569200  1.0  0.1504
  H  H214  1  0.528000  0.861600  0.220400  1.0  0.158
  H  H215  1  0.543400  0.880200  0.247200  1.0  0.1456
  H  H216  1  0.530000  0.977400  0.167800  1.0  0.1462
  H  H217  1  0.514800  0.955800  0.140000  1.0  0.1428
  H  H218  1  0.569200  0.986800  0.176800  1.0  0.1512
  H  H219  1  0.861600  0.528000  0.390000  1.0  0.1572
  H  H220  1  0.880200  0.543400  0.329200  1.0  0.1448
  H  H221  1  0.977400  0.530000  0.324800  1.0  0.1463
  H  H222  1  0.955800  0.514800  0.389400  1.0  0.1432
  H  H223  1  0.986800  0.569200  0.267200  1.0  0.1513
  H  H224  1  0.390000  0.220400  0.861600  1.0  0.1573
  H  H225  1  0.329200  0.247200  0.880200  1.0  0.1446
  H  H226  1  0.324800  0.167800  0.977400  1.0  0.1453
  H  H227  1  0.389400  0.140000  0.955800  1.0  0.1425
  H  H228  1  0.267200  0.176800  0.986800  1.0  0.1517
  H  H229  1  0.472000  0.779600  0.138400  1.0  0.1577
  H  H230  1  0.456600  0.752800  0.119800  1.0  0.1448
  H  H231  1  0.470000  0.832200  0.022600  1.0  0.1459
  H  H232  1  0.485200  0.860000  0.044200  1.0  0.1436
  H  H233  1  0.430800  0.823200  0.013200  1.0  0.1505
  H  H234  1  0.779600  0.472000  0.610000  1.0  0.1579
  H  H235  1  0.752800  0.456600  0.670800  1.0  0.1447
  H  H236  1  0.832200  0.470000  0.675200  1.0  0.1459
  H  H237  1  0.860000  0.485200  0.610600  1.0  0.1425
  H  H238  1  0.823200  0.430800  0.732800  1.0  0.151
  H  H239  1  0.610000  0.138400  0.779600  1.0  0.1571
  H  H240  1  0.670800  0.119800  0.752800  1.0  0.1454
  H  H241  1  0.675200  0.022600  0.832200  1.0  0.1453
  H  H242  1  0.610600  0.044200  0.860000  1.0  0.1434
  H  H243  1  0.732800  0.013200  0.823200  1.0  0.1514
  H  H244  1  0.138400  0.610000  0.472000  1.0  0.1573
  H  H245  1  0.119800  0.670800  0.456600  1.0  0.1447
  H  H246  1  0.022600  0.675200  0.470000  1.0  0.1459
  H  H247  1  0.044200  0.610600  0.485200  1.0  0.1429
  H  H248  1  0.013200  0.732800  0.430800  1.0  0.1515
  H  H249  1  0.138400  0.779600  0.610000  1.0  0.1574
  H  H250  1  0.119800  0.752800  0.670800  1.0  0.1445
  H  H251  1  0.022600  0.832200  0.675200  1.0  0.145
  H  H252  1  0.044200  0.860000  0.610600  1.0  0.1427
  H  H253  1  0.013200  0.823200  0.732800  1.0  0.1501
  H  H254  1  0.610000  0.472000  0.138400  1.0  0.1581
  H  H255  1  0.670800  0.456600  0.119800  1.0  0.1451
  H  H256  1  0.675200  0.470000  0.022600  1.0  0.146
  H  H257  1  0.610600  0.485200  0.044200  1.0  0.1415
  H  H258  1  0.732800  0.430800  0.013200  1.0  0.1514
  H  H259  1  0.779600  0.138400  0.472000  1.0  0.1567
  H  H260  1  0.752800  0.119800  0.456600  1.0  0.1455
  H  H261  1  0.832200  0.022600  0.470000  1.0  0.1463
  H  H262  1  0.860000  0.044200  0.485200  1.0  0.1424
  H  H263  1  0.823200  0.013200  0.430800  1.0  0.1512
  H  H264  1  0.472000  0.610000  0.779600  1.0  0.159
  H  H265  1  0.456600  0.670800  0.752800  1.0  0.1455
  H  H266  1  0.470000  0.675200  0.832200  1.0  0.1461
  H  H267  1  0.485200  0.610600  0.860000  1.0  0.142
  H  H268  1  0.430800  0.732800  0.823200  1.0  0.1518
  H  H269  1  0.610000  0.779600  0.472000  1.0  0.1579
  H  H270  1  0.670800  0.752800  0.456600  1.0  0.1438
  H  H271  1  0.675200  0.832200  0.470000  1.0  0.1455
  H  H272  1  0.610600  0.860000  0.485200  1.0  0.1423
  H  H273  1  0.732800  0.823200  0.430800  1.0  0.1501
  H  H274  1  0.138400  0.472000  0.779600  1.0  0.158
  H  H275  1  0.119800  0.456600  0.752800  1.0  0.145
  H  H276  1  0.022600  0.470000  0.832200  1.0  0.1463
  H  H277  1  0.044200  0.485200  0.860000  1.0  0.1437
  H  H278  1  0.013200  0.430800  0.823200  1.0  0.1517
  H  H279  1  0.472000  0.138400  0.610000  1.0  0.1572
  H  H280  1  0.456600  0.119800  0.670800  1.0  0.1452
  H  H281  1  0.470000  0.022600  0.675200  1.0  0.1469
  H  H282  1  0.485200  0.044200  0.610600  1.0  0.1432
  H  H283  1  0.430800  0.013200  0.732800  1.0  0.1511
  H  H284  1  0.779600  0.610000  0.138400  1.0  0.1577
  H  H285  1  0.752800  0.670800  0.119800  1.0  0.1449
  H  H286  1  0.832200  0.675200  0.022600  1.0  0.1452
  H  H287  1  0.860000  0.610600  0.044200  1.0  0.1426
  H  H288  1  0.823200  0.732800  0.013200  1.0  0.1512
  H  H289  1  0.724100  0.466100  0.085700  1.0  0.1547
  H  H290  1  0.466100  0.724100  0.724100  1.0  0.1542
  H  H291  1  0.085700  0.724100  0.724100  1.0  0.1539
  H  H292  1  0.724100  0.085700  0.466100  1.0  0.1535
  H  H293  1  0.724100  0.085700  0.724100  1.0  0.1534
  H  H294  1  0.466100  0.724100  0.085700  1.0  0.155
  H  H295  1  0.085700  0.724100  0.466100  1.0  0.154
  H  H296  1  0.724100  0.466100  0.724100  1.0  0.1541
  H  H297  1  0.724100  0.724100  0.466100  1.0  0.1537
  H  H298  1  0.466100  0.085700  0.724100  1.0  0.1529
  H  H299  1  0.085700  0.466100  0.724100  1.0  0.1546
  H  H300  1  0.724100  0.724100  0.085700  1.0  0.1538
  H  H301  1  0.533900  0.275900  0.914300  1.0  0.1538
  H  H302  1  0.275900  0.533900  0.275900  1.0  0.1548
  H  H303  1  0.275900  0.914300  0.275900  1.0  0.1537
  H  H304  1  0.914300  0.275900  0.533900  1.0  0.1537
  H  H305  1  0.914300  0.275900  0.275900  1.0  0.1539
  H  H306  1  0.275900  0.533900  0.914300  1.0  0.1541
  H  H307  1  0.275900  0.914300  0.533900  1.0  0.1538
  H  H308  1  0.533900  0.275900  0.275900  1.0  0.1543
  H  H309  1  0.275900  0.275900  0.533900  1.0  0.1532
  H  H310  1  0.914300  0.533900  0.275900  1.0  0.1543
  H  H311  1  0.533900  0.914300  0.275900  1.0  0.1532
  H  H312  1  0.275900  0.275900  0.914300  1.0  0.1533
  C  C313  1  0.838400  0.488800  0.106600  1.0  0.6283
  C  C314  1  0.821000  0.479400  0.091600  1.0  -0.0509
  C  C315  1  0.789900  0.471300  0.114500  1.0  -0.0937
  C  C316  1  0.774500  0.462100  0.103500  1.0  -0.0724
  C  C317  1  0.788400  0.460600  0.069400  1.0  -0.0264
  C  C318  1  0.821300  0.470100  0.046700  1.0  -0.0882
  C  C319  1  0.838300  0.479500  0.058900  1.0  -0.0722
  C  C320  1  0.775800  0.449400  0.051200  1.0  0.0752
  C  C321  1  0.797700  0.435700  0.022900  1.0  -0.0625
  C  C322  1  0.488800  0.838400  0.566200  1.0  0.6279
  C  C323  1  0.479400  0.821000  0.608000  1.0  -0.0525
  C  C324  1  0.471300  0.789900  0.624300  1.0  -0.0939
  C  C325  1  0.462100  0.774500  0.659900  1.0  -0.0726
  C  C326  1  0.460600  0.788400  0.681600  1.0  -0.0259
  C  C327  1  0.470100  0.821300  0.661900  1.0  -0.0884
  C  C328  1  0.479500  0.838300  0.623300  1.0  -0.0758
  C  C329  1  0.449400  0.775800  0.723600  1.0  0.0763
  C  C330  1  0.435700  0.797700  0.743700  1.0  -0.0649
  C  C331  1  0.106600  0.566200  0.838400  1.0  0.6273
  C  C332  1  0.091600  0.608000  0.821000  1.0  -0.0514
  C  C333  1  0.114500  0.624300  0.789900  1.0  -0.0942
  C  C334  1  0.103500  0.659900  0.774500  1.0  -0.0728
  C  C335  1  0.069400  0.681600  0.788400  1.0  -0.026
  C  C336  1  0.046700  0.661900  0.821300  1.0  -0.0901
  C  C337  1  0.058900  0.623300  0.838300  1.0  -0.0749
  C  C338  1  0.051200  0.723600  0.775800  1.0  0.0761
  C  C339  1  0.022900  0.743700  0.797700  1.0  -0.0666
  C  C340  1  0.566200  0.106600  0.488800  1.0  0.6288
  C  C341  1  0.608000  0.091600  0.479400  1.0  -0.0528
  C  C342  1  0.624300  0.114500  0.471300  1.0  -0.0981
  C  C343  1  0.659900  0.103500  0.462100  1.0  -0.076
  C  C344  1  0.681600  0.069400  0.460600  1.0  -0.0263
  C  C345  1  0.661900  0.046700  0.470100  1.0  -0.0922
  C  C346  1  0.623300  0.058900  0.479500  1.0  -0.0781
  C  C347  1  0.723600  0.051200  0.449400  1.0  0.0756
  C  C348  1  0.743700  0.022900  0.435700  1.0  -0.0645
  C  C349  1  0.838400  0.106600  0.566200  1.0  0.629
  C  C350  1  0.821000  0.091600  0.608000  1.0  -0.053
  C  C351  1  0.789900  0.114500  0.624300  1.0  -0.0948
  C  C352  1  0.774500  0.103500  0.659900  1.0  -0.0761
  C  C353  1  0.788400  0.069400  0.681600  1.0  -0.0259
  C  C354  1  0.821300  0.046700  0.661900  1.0  -0.0919
  C  C355  1  0.838300  0.058900  0.623300  1.0  -0.0756
  C  C356  1  0.775800  0.051200  0.723600  1.0  0.075
  C  C357  1  0.797700  0.022900  0.743700  1.0  -0.0633
  C  C358  1  0.488800  0.566200  0.106600  1.0  0.6274
  C  C359  1  0.479400  0.608000  0.091600  1.0  -0.0517
  C  C360  1  0.471300  0.624300  0.114500  1.0  -0.0961
  C  C361  1  0.462100  0.659900  0.103500  1.0  -0.0758
  C  C362  1  0.460600  0.681600  0.069400  1.0  -0.0258
  C  C363  1  0.470100  0.661900  0.046700  1.0  -0.0891
  C  C364  1  0.479500  0.623300  0.058900  1.0  -0.0751
  C  C365  1  0.449400  0.723600  0.051200  1.0  0.0748
  C  C366  1  0.435700  0.743700  0.022900  1.0  -0.0667
  C  C367  1  0.106600  0.838400  0.488800  1.0  0.6295
  C  C368  1  0.091600  0.821000  0.479400  1.0  -0.0524
  C  C369  1  0.114500  0.789900  0.471300  1.0  -0.0946
  C  C370  1  0.103500  0.774500  0.462100  1.0  -0.0699
  C  C371  1  0.069400  0.788400  0.460600  1.0  -0.0267
  C  C372  1  0.046700  0.821300  0.470100  1.0  -0.0916
  C  C373  1  0.058900  0.838300  0.479500  1.0  -0.0761
  C  C374  1  0.051200  0.775800  0.449400  1.0  0.0761
  C  C375  1  0.022900  0.797700  0.435700  1.0  -0.0647
  C  C376  1  0.566200  0.488800  0.838400  1.0  0.627
  C  C377  1  0.608000  0.479400  0.821000  1.0  -0.0577
  C  C378  1  0.624300  0.471300  0.789900  1.0  -0.0963
  C  C379  1  0.659900  0.462100  0.774500  1.0  -0.0752
  C  C380  1  0.681600  0.460600  0.788400  1.0  -0.0263
  C  C381  1  0.661900  0.470100  0.821300  1.0  -0.0879
  C  C382  1  0.623300  0.479500  0.838300  1.0  -0.0753
  C  C383  1  0.723600  0.449400  0.775800  1.0  0.0739
  C  C384  1  0.743700  0.435700  0.797700  1.0  -0.0667
  C  C385  1  0.838400  0.566200  0.488800  1.0  0.6276
  C  C386  1  0.821000  0.608000  0.479400  1.0  -0.0516
  C  C387  1  0.789900  0.624300  0.471300  1.0  -0.0946
  C  C388  1  0.774500  0.659900  0.462100  1.0  -0.0735
  C  C389  1  0.788400  0.681600  0.460600  1.0  -0.0253
  C  C390  1  0.821300  0.661900  0.470100  1.0  -0.0871
  C  C391  1  0.838300  0.623300  0.479500  1.0  -0.0734
  C  C392  1  0.775800  0.723600  0.449400  1.0  0.0752
  C  C393  1  0.797700  0.743700  0.435700  1.0  -0.064
  C  C394  1  0.488800  0.106600  0.838400  1.0  0.6298
  C  C395  1  0.479400  0.091600  0.821000  1.0  -0.0524
  C  C396  1  0.471300  0.114500  0.789900  1.0  -0.0957
  C  C397  1  0.462100  0.103500  0.774500  1.0  -0.0764
  C  C398  1  0.460600  0.069400  0.788400  1.0  -0.0267
  C  C399  1  0.470100  0.046700  0.821300  1.0  -0.0924
  C  C400  1  0.479500  0.058900  0.838300  1.0  -0.0753
  C  C401  1  0.449400  0.051200  0.775800  1.0  0.0759
  C  C402  1  0.435700  0.022900  0.797700  1.0  -0.0655
  C  C403  1  0.106600  0.488800  0.566200  1.0  0.6273
  C  C404  1  0.091600  0.479400  0.608000  1.0  -0.0559
  C  C405  1  0.114500  0.471300  0.624300  1.0  -0.0936
  C  C406  1  0.103500  0.462100  0.659900  1.0  -0.0719
  C  C407  1  0.069400  0.460600  0.681600  1.0  -0.0262
  C  C408  1  0.046700  0.470100  0.661900  1.0  -0.0907
  C  C409  1  0.058900  0.479500  0.623300  1.0  -0.0747
  C  C410  1  0.051200  0.449400  0.723600  1.0  0.0746
  C  C411  1  0.022900  0.435700  0.743700  1.0  -0.0649
  C  C412  1  0.566200  0.838400  0.106600  1.0  0.6281
  C  C413  1  0.608000  0.821000  0.091600  1.0  -0.0579
  C  C414  1  0.624300  0.789900  0.114500  1.0  -0.095
  C  C415  1  0.659900  0.774500  0.103500  1.0  -0.074
  C  C416  1  0.681600  0.788400  0.069400  1.0  -0.0262
  C  C417  1  0.661900  0.821300  0.046700  1.0  -0.0898
  C  C418  1  0.623300  0.838300  0.058900  1.0  -0.0784
  C  C419  1  0.723600  0.775800  0.051200  1.0  0.0756
  C  C420  1  0.743700  0.797700  0.022900  1.0  -0.0655
  C  C421  1  0.511200  0.161600  0.893400  1.0  0.6279
  C  C422  1  0.520600  0.179000  0.908400  1.0  -0.0519
  C  C423  1  0.528700  0.210100  0.885500  1.0  -0.0956
  C  C424  1  0.537900  0.225500  0.896500  1.0  -0.0731
  C  C425  1  0.539400  0.211600  0.930600  1.0  -0.0262
  C  C426  1  0.529900  0.178700  0.953300  1.0  -0.0893
  C  C427  1  0.520500  0.161700  0.941100  1.0  -0.0775
  C  C428  1  0.550600  0.224200  0.948800  1.0  0.0759
  C  C429  1  0.564300  0.202300  0.977100  1.0  -0.0646
  C  C430  1  0.161600  0.511200  0.433800  1.0  0.6274
  C  C431  1  0.179000  0.520600  0.392000  1.0  -0.0507
  C  C432  1  0.210100  0.528700  0.375700  1.0  -0.0943
  C  C433  1  0.225500  0.537900  0.340100  1.0  -0.0741
  C  C434  1  0.211600  0.539400  0.318400  1.0  -0.0266
  C  C435  1  0.178700  0.529900  0.338100  1.0  -0.0893
  C  C436  1  0.161700  0.520500  0.376700  1.0  -0.0747
  C  C437  1  0.224200  0.550600  0.276400  1.0  0.0752
  C  C438  1  0.202300  0.564300  0.256300  1.0  -0.0662
  C  C439  1  0.433800  0.893400  0.161600  1.0  0.6266
  C  C440  1  0.392000  0.908400  0.179000  1.0  -0.0514
  C  C441  1  0.375700  0.885500  0.210100  1.0  -0.094
  C  C442  1  0.340100  0.896500  0.225500  1.0  -0.0745
  C  C443  1  0.318400  0.930600  0.211600  1.0  -0.0259
  C  C444  1  0.338100  0.953300  0.178700  1.0  -0.0921
  C  C445  1  0.376700  0.941100  0.161700  1.0  -0.0766
  C  C446  1  0.276400  0.948800  0.224200  1.0  0.0761
  C  C447  1  0.256300  0.977100  0.202300  1.0  -0.0657
  C  C448  1  0.893400  0.433800  0.511200  1.0  0.6289
  C  C449  1  0.908400  0.392000  0.520600  1.0  -0.0515
  C  C450  1  0.885500  0.375700  0.528700  1.0  -0.094
  C  C451  1  0.896500  0.340100  0.537900  1.0  -0.0729
  C  C452  1  0.930600  0.318400  0.539400  1.0  -0.025
  C  C453  1  0.953300  0.338100  0.529900  1.0  -0.0882
  C  C454  1  0.941100  0.376700  0.520500  1.0  -0.0722
  C  C455  1  0.948800  0.276400  0.550600  1.0  0.0759
  C  C456  1  0.977100  0.256300  0.564300  1.0  -0.0658
  C  C457  1  0.893400  0.161600  0.433800  1.0  0.6292
  C  C458  1  0.908400  0.179000  0.392000  1.0  -0.0559
  C  C459  1  0.885500  0.210100  0.375700  1.0  -0.0951
  C  C460  1  0.896500  0.225500  0.340100  1.0  -0.0713
  C  C461  1  0.930600  0.211600  0.318400  1.0  -0.0265
  C  C462  1  0.953300  0.178700  0.338100  1.0  -0.09
  C  C463  1  0.941100  0.161700  0.376700  1.0  -0.0758
  C  C464  1  0.948800  0.224200  0.276400  1.0  0.0753
  C  C465  1  0.977100  0.202300  0.256300  1.0  -0.065
  C  C466  1  0.433800  0.511200  0.893400  1.0  0.6267
  C  C467  1  0.392000  0.520600  0.908400  1.0  -0.0522
  C  C468  1  0.375700  0.528700  0.885500  1.0  -0.0968
  C  C469  1  0.340100  0.537900  0.896500  1.0  -0.0769
  C  C470  1  0.318400  0.539400  0.930600  1.0  -0.026
  C  C471  1  0.338100  0.529900  0.953300  1.0  -0.0894
  C  C472  1  0.376700  0.520500  0.941100  1.0  -0.0743
  C  C473  1  0.276400  0.550600  0.948800  1.0  0.0753
  C  C474  1  0.256300  0.564300  0.977100  1.0  -0.0663
  C  C475  1  0.161600  0.893400  0.511200  1.0  0.6283
  C  C476  1  0.179000  0.908400  0.520600  1.0  -0.0531
  C  C477  1  0.210100  0.885500  0.528700  1.0  -0.0929
  C  C478  1  0.225500  0.896500  0.537900  1.0  -0.0745
  C  C479  1  0.211600  0.930600  0.539400  1.0  -0.0259
  C  C480  1  0.178700  0.953300  0.529900  1.0  -0.0905
  C  C481  1  0.161700  0.941100  0.520500  1.0  -0.0766
  C  C482  1  0.224200  0.948800  0.550600  1.0  0.074
  C  C483  1  0.202300  0.977100  0.564300  1.0  -0.0663
  C  C484  1  0.511200  0.433800  0.161600  1.0  0.6287
  C  C485  1  0.520600  0.392000  0.179000  1.0  -0.0508
  C  C486  1  0.528700  0.375700  0.210100  1.0  -0.0959
  C  C487  1  0.537900  0.340100  0.225500  1.0  -0.0732
  C  C488  1  0.539400  0.318400  0.211600  1.0  -0.0252
  C  C489  1  0.529900  0.338100  0.178700  1.0  -0.0906
  C  C490  1  0.520500  0.376700  0.161700  1.0  -0.0751
  C  C491  1  0.550600  0.276400  0.224200  1.0  0.0759
  C  C492  1  0.564300  0.256300  0.202300  1.0  -0.0663
  C  C493  1  0.433800  0.161600  0.511200  1.0  0.6277
  C  C494  1  0.392000  0.179000  0.520600  1.0  -0.0569
  C  C495  1  0.375700  0.210100  0.528700  1.0  -0.0965
  C  C496  1  0.340100  0.225500  0.537900  1.0  -0.0756
  C  C497  1  0.318400  0.211600  0.539400  1.0  -0.026
  C  C498  1  0.338100  0.178700  0.529900  1.0  -0.0895
  C  C499  1  0.376700  0.161700  0.520500  1.0  -0.0775
  C  C500  1  0.276400  0.224200  0.550600  1.0  0.0758
  C  C501  1  0.256300  0.202300  0.564300  1.0  -0.065
  C  C502  1  0.893400  0.511200  0.161600  1.0  0.6271
  C  C503  1  0.908400  0.520600  0.179000  1.0  -0.0589
  C  C504  1  0.885500  0.528700  0.210100  1.0  -0.0941
  C  C505  1  0.896500  0.537900  0.225500  1.0  -0.0736
  C  C506  1  0.930600  0.539400  0.211600  1.0  -0.0259
  C  C507  1  0.953300  0.529900  0.178700  1.0  -0.0872
  C  C508  1  0.941100  0.520500  0.161700  1.0  -0.0741
  C  C509  1  0.948800  0.550600  0.224200  1.0  0.075
  C  C510  1  0.977100  0.564300  0.202300  1.0  -0.0644
  C  C511  1  0.511200  0.893400  0.433800  1.0  0.6294
  C  C512  1  0.520600  0.908400  0.392000  1.0  -0.0516
  C  C513  1  0.528700  0.885500  0.375700  1.0  -0.0938
  C  C514  1  0.537900  0.896500  0.340100  1.0  -0.0745
  C  C515  1  0.539400  0.930600  0.318400  1.0  -0.0261
  C  C516  1  0.529900  0.953300  0.338100  1.0  -0.0898
  C  C517  1  0.520500  0.941100  0.376700  1.0  -0.0757
  C  C518  1  0.550600  0.948800  0.276400  1.0  0.0754
  C  C519  1  0.564300  0.977100  0.256300  1.0  -0.0651
  C  C520  1  0.161600  0.433800  0.893400  1.0  0.6293
  C  C521  1  0.179000  0.392000  0.908400  1.0  -0.0508
  C  C522  1  0.210100  0.375700  0.885500  1.0  -0.0957
  C  C523  1  0.225500  0.340100  0.896500  1.0  -0.0734
  C  C524  1  0.211600  0.318400  0.930600  1.0  -0.0248
  C  C525  1  0.178700  0.338100  0.953300  1.0  -0.0885
  C  C526  1  0.161700  0.376700  0.941100  1.0  -0.0753
  C  C527  1  0.224200  0.276400  0.948800  1.0  0.0754
  C  C528  1  0.202300  0.256300  0.977100  1.0  -0.0661
  C  C529  1  0.161600  0.511200  0.893400  1.0  0.6267
  C  C530  1  0.179000  0.520600  0.908400  1.0  -0.0518
  C  C531  1  0.210100  0.528700  0.885500  1.0  -0.0943
  C  C532  1  0.225500  0.537900  0.896500  1.0  -0.0729
  C  C533  1  0.211600  0.539400  0.930600  1.0  -0.0261
  C  C534  1  0.178700  0.529900  0.953300  1.0  -0.0883
  C  C535  1  0.161700  0.520500  0.941100  1.0  -0.0745
  C  C536  1  0.224200  0.550600  0.948800  1.0  0.0748
  C  C537  1  0.202300  0.564300  0.977100  1.0  -0.0661
  C  C538  1  0.511200  0.161600  0.433800  1.0  0.6287
  C  C539  1  0.520600  0.179000  0.392000  1.0  -0.0507
  C  C540  1  0.528700  0.210100  0.375700  1.0  -0.0955
  C  C541  1  0.537900  0.225500  0.340100  1.0  -0.0743
  C  C542  1  0.539400  0.211600  0.318400  1.0  -0.0267
  C  C543  1  0.529900  0.178700  0.338100  1.0  -0.0901
  C  C544  1  0.520500  0.161700  0.376700  1.0  -0.0778
  C  C545  1  0.550600  0.224200  0.276400  1.0  0.0761
  C  C546  1  0.564300  0.202300  0.256300  1.0  -0.0644
  C  C547  1  0.893400  0.433800  0.161600  1.0  0.6288
  C  C548  1  0.908400  0.392000  0.179000  1.0  -0.0516
  C  C549  1  0.885500  0.375700  0.210100  1.0  -0.0944
  C  C550  1  0.896500  0.340100  0.225500  1.0  -0.0731
  C  C551  1  0.930600  0.318400  0.211600  1.0  -0.025
  C  C552  1  0.953300  0.338100  0.178700  1.0  -0.0883
  C  C553  1  0.941100  0.376700  0.161700  1.0  -0.0727
  C  C554  1  0.948800  0.276400  0.224200  1.0  0.0759
  C  C555  1  0.977100  0.256300  0.202300  1.0  -0.0652
  C  C556  1  0.433800  0.893400  0.511200  1.0  0.6268
  C  C557  1  0.392000  0.908400  0.520600  1.0  -0.0514
  C  C558  1  0.375700  0.885500  0.528700  1.0  -0.0938
  C  C559  1  0.340100  0.896500  0.537900  1.0  -0.0741
  C  C560  1  0.318400  0.930600  0.539400  1.0  -0.0259
  C  C561  1  0.338100  0.953300  0.529900  1.0  -0.0919
  C  C562  1  0.376700  0.941100  0.520500  1.0  -0.077
  C  C563  1  0.276400  0.948800  0.550600  1.0  0.076
  C  C564  1  0.256300  0.977100  0.564300  1.0  -0.0657
  C  C565  1  0.161600  0.893400  0.433800  1.0  0.6292
  C  C566  1  0.179000  0.908400  0.392000  1.0  -0.0517
  C  C567  1  0.210100  0.885500  0.375700  1.0  -0.0939
  C  C568  1  0.225500  0.896500  0.340100  1.0  -0.0734
  C  C569  1  0.211600  0.930600  0.318400  1.0  -0.0263
  C  C570  1  0.178700  0.953300  0.338100  1.0  -0.0915
  C  C571  1  0.161700  0.941100  0.376700  1.0  -0.077
  C  C572  1  0.224200  0.948800  0.276400  1.0  0.0745
  C  C573  1  0.202300  0.977100  0.256300  1.0  -0.0661
  C  C574  1  0.511200  0.433800  0.893400  1.0  0.6289
  C  C575  1  0.520600  0.392000  0.908400  1.0  -0.0509
  C  C576  1  0.528700  0.375700  0.885500  1.0  -0.0965
  C  C577  1  0.537900  0.340100  0.896500  1.0  -0.0747
  C  C578  1  0.539400  0.318400  0.930600  1.0  -0.025
  C  C579  1  0.529900  0.338100  0.953300  1.0  -0.0907
  C  C580  1  0.520500  0.376700  0.941100  1.0  -0.0756
  C  C581  1  0.550600  0.276400  0.948800  1.0  0.0758
  C  C582  1  0.564300  0.256300  0.977100  1.0  -0.0663
  C  C583  1  0.893400  0.161600  0.511200  1.0  0.6285
  C  C584  1  0.908400  0.179000  0.520600  1.0  -0.0573
  C  C585  1  0.885500  0.210100  0.528700  1.0  -0.0944
  C  C586  1  0.896500  0.225500  0.537900  1.0  -0.0721
  C  C587  1  0.930600  0.211600  0.539400  1.0  -0.0261
  C  C588  1  0.953300  0.178700  0.529900  1.0  -0.0895
  C  C589  1  0.941100  0.161700  0.520500  1.0  -0.0755
  C  C590  1  0.948800  0.224200  0.550600  1.0  0.0748
  C  C591  1  0.977100  0.202300  0.564300  1.0  -0.0648
  C  C592  1  0.433800  0.511200  0.161600  1.0  0.6265
  C  C593  1  0.392000  0.520600  0.179000  1.0  -0.052
  C  C594  1  0.375700  0.528700  0.210100  1.0  -0.0961
  C  C595  1  0.340100  0.537900  0.225500  1.0  -0.0754
  C  C596  1  0.318400  0.539400  0.211600  1.0  -0.0262
  C  C597  1  0.338100  0.529900  0.178700  1.0  -0.0883
  C  C598  1  0.376700  0.520500  0.161700  1.0  -0.0747
  C  C599  1  0.276400  0.550600  0.224200  1.0  0.0754
  C  C600  1  0.256300  0.564300  0.202300  1.0  -0.0657
  C  C601  1  0.161600  0.433800  0.511200  1.0  0.6293
  C  C602  1  0.179000  0.392000  0.520600  1.0  -0.0509
  C  C603  1  0.210100  0.375700  0.528700  1.0  -0.0953
  C  C604  1  0.225500  0.340100  0.537900  1.0  -0.0729
  C  C605  1  0.211600  0.318400  0.539400  1.0  -0.025
  C  C606  1  0.178700  0.338100  0.529900  1.0  -0.0889
  C  C607  1  0.161700  0.376700  0.520500  1.0  -0.0751
  C  C608  1  0.224200  0.276400  0.550600  1.0  0.075
  C  C609  1  0.202300  0.256300  0.564300  1.0  -0.0658
  C  C610  1  0.511200  0.893400  0.161600  1.0  0.6285
  C  C611  1  0.520600  0.908400  0.179000  1.0  -0.0532
  C  C612  1  0.528700  0.885500  0.210100  1.0  -0.0938
  C  C613  1  0.537900  0.896500  0.225500  1.0  -0.0755
  C  C614  1  0.539400  0.930600  0.211600  1.0  -0.0259
  C  C615  1  0.529900  0.953300  0.178700  1.0  -0.0888
  C  C616  1  0.520500  0.941100  0.161700  1.0  -0.0778
  C  C617  1  0.550600  0.948800  0.224200  1.0  0.075
  C  C618  1  0.564300  0.977100  0.202300  1.0  -0.0644
  C  C619  1  0.893400  0.511200  0.433800  1.0  0.6277
  C  C620  1  0.908400  0.520600  0.392000  1.0  -0.0576
  C  C621  1  0.885500  0.528700  0.375700  1.0  -0.0931
  C  C622  1  0.896500  0.537900  0.340100  1.0  -0.0725
  C  C623  1  0.930600  0.539400  0.318400  1.0  -0.0262
  C  C624  1  0.953300  0.529900  0.338100  1.0  -0.0884
  C  C625  1  0.941100  0.520500  0.376700  1.0  -0.0722
  C  C626  1  0.948800  0.550600  0.276400  1.0  0.0755
  C  C627  1  0.977100  0.564300  0.256300  1.0  -0.0646
  C  C628  1  0.433800  0.161600  0.893400  1.0  0.6276
  C  C629  1  0.392000  0.179000  0.908400  1.0  -0.0571
  C  C630  1  0.375700  0.210100  0.885500  1.0  -0.0965
  C  C631  1  0.340100  0.225500  0.896500  1.0  -0.075
  C  C632  1  0.318400  0.211600  0.930600  1.0  -0.0259
  C  C633  1  0.338100  0.178700  0.953300  1.0  -0.0897
  C  C634  1  0.376700  0.161700  0.941100  1.0  -0.0772
  C  C635  1  0.276400  0.224200  0.948800  1.0  0.0763
  C  C636  1  0.256300  0.202300  0.977100  1.0  -0.0646
  C  C637  1  0.488800  0.838400  0.106600  1.0  0.6291
  C  C638  1  0.479400  0.821000  0.091600  1.0  -0.0514
  C  C639  1  0.471300  0.789900  0.114500  1.0  -0.0942
  C  C640  1  0.462100  0.774500  0.103500  1.0  -0.0731
  C  C641  1  0.460600  0.788400  0.069400  1.0  -0.0267
  C  C642  1  0.470100  0.821300  0.046700  1.0  -0.0894
  C  C643  1  0.479500  0.838300  0.058900  1.0  -0.0769
  C  C644  1  0.449400  0.775800  0.051200  1.0  0.0765
  C  C645  1  0.435700  0.797700  0.022900  1.0  -0.0644
  C  C646  1  0.838400  0.488800  0.566200  1.0  0.6272
  C  C647  1  0.821000  0.479400  0.608000  1.0  -0.0521
  C  C648  1  0.789900  0.471300  0.624300  1.0  -0.0933
  C  C649  1  0.774500  0.462100  0.659900  1.0  -0.0721
  C  C650  1  0.788400  0.460600  0.681600  1.0  -0.0257
  C  C651  1  0.821300  0.470100  0.661900  1.0  -0.087
  C  C652  1  0.838300  0.479500  0.623300  1.0  -0.0719
  C  C653  1  0.775800  0.449400  0.723600  1.0  0.0749
  C  C654  1  0.797700  0.435700  0.743700  1.0  -0.0626
  C  C655  1  0.566200  0.106600  0.838400  1.0  0.629
  C  C656  1  0.608000  0.091600  0.821000  1.0  -0.0527
  C  C657  1  0.624300  0.114500  0.789900  1.0  -0.0973
  C  C658  1  0.659900  0.103500  0.774500  1.0  -0.0756
  C  C659  1  0.681600  0.069400  0.788400  1.0  -0.0264
  C  C660  1  0.661900  0.046700  0.821300  1.0  -0.0921
  C  C661  1  0.623300  0.058900  0.838300  1.0  -0.0773
  C  C662  1  0.723600  0.051200  0.775800  1.0  0.0756
  C  C663  1  0.743700  0.022900  0.797700  1.0  -0.0654
  C  C664  1  0.106600  0.566200  0.488800  1.0  0.6271
  C  C665  1  0.091600  0.608000  0.479400  1.0  -0.0512
  C  C666  1  0.114500  0.624300  0.471300  1.0  -0.0944
  C  C667  1  0.103500  0.659900  0.462100  1.0  -0.0734
  C  C668  1  0.069400  0.681600  0.460600  1.0  -0.0259
  C  C669  1  0.046700  0.661900  0.470100  1.0  -0.0903
  C  C670  1  0.058900  0.623300  0.479500  1.0  -0.0752
  C  C671  1  0.051200  0.723600  0.449400  1.0  0.0758
  C  C672  1  0.022900  0.743700  0.435700  1.0  -0.0651
  C  C673  1  0.106600  0.838400  0.566200  1.0  0.629
  C  C674  1  0.091600  0.821000  0.608000  1.0  -0.0533
  C  C675  1  0.114500  0.789900  0.624300  1.0  -0.0936
  C  C676  1  0.103500  0.774500  0.659900  1.0  -0.071
  C  C677  1  0.069400  0.788400  0.681600  1.0  -0.0261
  C  C678  1  0.046700  0.821300  0.661900  1.0  -0.0909
  C  C679  1  0.058900  0.838300  0.623300  1.0  -0.0757
  C  C680  1  0.051200  0.775800  0.723600  1.0  0.0756
  C  C681  1  0.022900  0.797700  0.743700  1.0  -0.0648
  C  C682  1  0.566200  0.488800  0.106600  1.0  0.6269
  C  C683  1  0.608000  0.479400  0.091600  1.0  -0.0576
  C  C684  1  0.624300  0.471300  0.114500  1.0  -0.0966
  C  C685  1  0.659900  0.462100  0.103500  1.0  -0.0755
  C  C686  1  0.681600  0.460600  0.069400  1.0  -0.0264
  C  C687  1  0.661900  0.470100  0.046700  1.0  -0.0888
  C  C688  1  0.623300  0.479500  0.058900  1.0  -0.0749
  C  C689  1  0.723600  0.449400  0.051200  1.0  0.0739
  C  C690  1  0.743700  0.435700  0.022900  1.0  -0.0658
  C  C691  1  0.838400  0.106600  0.488800  1.0  0.6296
  C  C692  1  0.821000  0.091600  0.479400  1.0  -0.0522
  C  C693  1  0.789900  0.114500  0.471300  1.0  -0.0958
  C  C694  1  0.774500  0.103500  0.462100  1.0  -0.0757
  C  C695  1  0.788400  0.069400  0.460600  1.0  -0.0266
  C  C696  1  0.821300  0.046700  0.470100  1.0  -0.0919
  C  C697  1  0.838300  0.058900  0.479500  1.0  -0.0758
  C  C698  1  0.775800  0.051200  0.449400  1.0  0.0754
  C  C699  1  0.797700  0.022900  0.435700  1.0  -0.0629
  C  C700  1  0.488800  0.566200  0.838400  1.0  0.6276
  C  C701  1  0.479400  0.608000  0.821000  1.0  -0.052
  C  C702  1  0.471300  0.624300  0.789900  1.0  -0.096
  C  C703  1  0.462100  0.659900  0.774500  1.0  -0.0752
  C  C704  1  0.460600  0.681600  0.788400  1.0  -0.0256
  C  C705  1  0.470100  0.661900  0.821300  1.0  -0.0885
  C  C706  1  0.479500  0.623300  0.838300  1.0  -0.0749
  C  C707  1  0.449400  0.723600  0.775800  1.0  0.0748
  C  C708  1  0.435700  0.743700  0.797700  1.0  -0.0678
  C  C709  1  0.566200  0.838400  0.488800  1.0  0.628
  C  C710  1  0.608000  0.821000  0.479400  1.0  -0.0581
  C  C711  1  0.624300  0.789900  0.471300  1.0  -0.0947
  C  C712  1  0.659900  0.774500  0.462100  1.0  -0.0734
  C  C713  1  0.681600  0.788400  0.460600  1.0  -0.0259
  C  C714  1  0.661900  0.821300  0.470100  1.0  -0.0882
  C  C715  1  0.623300  0.838300  0.479500  1.0  -0.0768
  C  C716  1  0.723600  0.775800  0.449400  1.0  0.076
  C  C717  1  0.743700  0.797700  0.435700  1.0  -0.0654
  C  C718  1  0.106600  0.488800  0.838400  1.0  0.6279
  C  C719  1  0.091600  0.479400  0.821000  1.0  -0.0548
  C  C720  1  0.114500  0.471300  0.789900  1.0  -0.0933
  C  C721  1  0.103500  0.462100  0.774500  1.0  -0.0718
  C  C722  1  0.069400  0.460600  0.788400  1.0  -0.0265
  C  C723  1  0.046700  0.470100  0.821300  1.0  -0.0914
  C  C724  1  0.058900  0.479500  0.838300  1.0  -0.0737
  C  C725  1  0.051200  0.449400  0.775800  1.0  0.075
  C  C726  1  0.022900  0.435700  0.797700  1.0  -0.0644
  C  C727  1  0.488800  0.106600  0.566200  1.0  0.6291
  C  C728  1  0.479400  0.091600  0.608000  1.0  -0.0534
  C  C729  1  0.471300  0.114500  0.624300  1.0  -0.0963
  C  C730  1  0.462100  0.103500  0.659900  1.0  -0.0768
  C  C731  1  0.460600  0.069400  0.681600  1.0  -0.0265
  C  C732  1  0.470100  0.046700  0.661900  1.0  -0.0915
  C  C733  1  0.479500  0.058900  0.623300  1.0  -0.0772
  C  C734  1  0.449400  0.051200  0.723600  1.0  0.0754
  C  C735  1  0.435700  0.022900  0.743700  1.0  -0.0651
  C  C736  1  0.838400  0.566200  0.106600  1.0  0.6278
  C  C737  1  0.821000  0.608000  0.091600  1.0  -0.0515
  C  C738  1  0.789900  0.624300  0.114500  1.0  -0.0951
  C  C739  1  0.774500  0.659900  0.103500  1.0  -0.0741
  C  C740  1  0.788400  0.681600  0.069400  1.0  -0.0255
  C  C741  1  0.821300  0.661900  0.046700  1.0  -0.0884
  C  C742  1  0.838300  0.623300  0.058900  1.0  -0.0739
  C  C743  1  0.775800  0.723600  0.051200  1.0  0.0749
  C  C744  1  0.797700  0.743700  0.022900  1.0  -0.0637
  C  C745  1  0.738500  0.456620  0.066380  1.0  -0.1208
  C  C746  1  0.780600  0.429340  0.009460  1.0  0.066
  C  C747  1  0.800800  0.418800  0.979600  1.0  0.1892
  C  C748  1  0.456620  0.738500  0.738500  1.0  -0.1195
  C  C749  1  0.429340  0.780600  0.780600  1.0  0.0647
  C  C750  1  0.418800  0.800800  0.800800  1.0  0.1897
  C  C751  1  0.066380  0.738500  0.738500  1.0  -0.1186
  C  C752  1  0.009460  0.780600  0.780600  1.0  0.066
  C  C753  1  0.979600  0.800800  0.800800  1.0  0.19
  C  C754  1  0.738500  0.066380  0.456620  1.0  -0.1188
  C  C755  1  0.780600  0.009460  0.429340  1.0  0.0665
  C  C756  1  0.800800  0.979600  0.418800  1.0  0.1899
  C  C757  1  0.738500  0.066380  0.738500  1.0  -0.1198
  C  C758  1  0.780600  0.009460  0.780600  1.0  0.0672
  C  C759  1  0.800800  0.979600  0.800800  1.0  0.1897
  C  C760  1  0.456620  0.738500  0.066380  1.0  -0.119
  C  C761  1  0.429340  0.780600  0.009460  1.0  0.065
  C  C762  1  0.418800  0.800800  0.979600  1.0  0.1898
  C  C763  1  0.066380  0.738500  0.456620  1.0  -0.1178
  C  C764  1  0.009460  0.780600  0.429340  1.0  0.0657
  C  C765  1  0.979600  0.800800  0.418800  1.0  0.1901
  C  C766  1  0.738500  0.456620  0.738500  1.0  -0.1207
  C  C767  1  0.780600  0.429340  0.780600  1.0  0.066
  C  C768  1  0.800800  0.418800  0.800800  1.0  0.1891
  C  C769  1  0.738500  0.738500  0.456620  1.0  -0.1185
  C  C770  1  0.780600  0.780600  0.429340  1.0  0.0673
  C  C771  1  0.800800  0.800800  0.418800  1.0  0.1903
  C  C772  1  0.456620  0.066380  0.738500  1.0  -0.1162
  C  C773  1  0.429340  0.009460  0.780600  1.0  0.0656
  C  C774  1  0.418800  0.979600  0.800800  1.0  0.189
  C  C775  1  0.066380  0.456620  0.738500  1.0  -0.118
  C  C776  1  0.009460  0.429340  0.780600  1.0  0.0653
  C  C777  1  0.979600  0.418800  0.800800  1.0  0.1887
  C  C778  1  0.738500  0.738500  0.066380  1.0  -0.119
  C  C779  1  0.780600  0.780600  0.009460  1.0  0.0675
  C  C780  1  0.800800  0.800800  0.979600  1.0  0.1904
  C  C781  1  0.543380  0.261500  0.933620  1.0  -0.1194
  C  C782  1  0.570660  0.219400  0.990540  1.0  0.066
  C  C783  1  0.581200  0.199200  0.020400  1.0  0.1897
  C  C784  1  0.261500  0.543380  0.261500  1.0  -0.1187
  C  C785  1  0.219400  0.570660  0.219400  1.0  0.0654
  C  C786  1  0.199200  0.581200  0.199200  1.0  0.1897
  C  C787  1  0.261500  0.933620  0.261500  1.0  -0.1183
  C  C788  1  0.219400  0.990540  0.219400  1.0  0.0656
  C  C789  1  0.199200  0.020400  0.199200  1.0  0.19
  C  C790  1  0.933620  0.261500  0.543380  1.0  -0.12
  C  C791  1  0.990540  0.219400  0.570660  1.0  0.0673
  C  C792  1  0.020400  0.199200  0.581200  1.0  0.1893
  C  C793  1  0.933620  0.261500  0.261500  1.0  -0.1193
  C  C794  1  0.990540  0.219400  0.219400  1.0  0.0665
  C  C795  1  0.020400  0.199200  0.199200  1.0  0.1896
  C  C796  1  0.261500  0.543380  0.933620  1.0  -0.1192
  C  C797  1  0.219400  0.570660  0.990540  1.0  0.065
  C  C798  1  0.199200  0.581200  0.020400  1.0  0.1895
  C  C799  1  0.261500  0.933620  0.543380  1.0  -0.1191
  C  C800  1  0.219400  0.990540  0.570660  1.0  0.0659
  C  C801  1  0.199200  0.020400  0.581200  1.0  0.1898
  C  C802  1  0.543380  0.261500  0.261500  1.0  -0.1194
  C  C803  1  0.570660  0.219400  0.219400  1.0  0.066
  C  C804  1  0.581200  0.199200  0.199200  1.0  0.1898
  C  C805  1  0.261500  0.261500  0.543380  1.0  -0.1171
  C  C806  1  0.219400  0.219400  0.570660  1.0  0.0654
  C  C807  1  0.199200  0.199200  0.581200  1.0  0.1892
  C  C808  1  0.933620  0.543380  0.261500  1.0  -0.1188
  C  C809  1  0.990540  0.570660  0.219400  1.0  0.0673
  C  C810  1  0.020400  0.581200  0.199200  1.0  0.1901
  C  C811  1  0.543380  0.933620  0.261500  1.0  -0.119
  C  C812  1  0.570660  0.990540  0.219400  1.0  0.0678
  C  C813  1  0.581200  0.020400  0.199200  1.0  0.1905
  C  C814  1  0.261500  0.261500  0.933620  1.0  -0.1166
  C  C815  1  0.219400  0.219400  0.990540  1.0  0.0652
  C  C816  1  0.199200  0.199200  0.020400  1.0  0.1891
  N  N817  1  0.838300  0.411100  0.960900  1.0  -0.1935
  N  N818  1  0.849200  0.399600  0.932600  1.0  -0.1287
  N  N819  1  0.411100  0.838300  0.789700  1.0  -0.1942
  N  N820  1  0.399600  0.849200  0.818600  1.0  -0.1285
  N  N821  1  0.960900  0.789700  0.838300  1.0  -0.1954
  N  N822  1  0.932600  0.818600  0.849200  1.0  -0.1291
  N  N823  1  0.789700  0.960900  0.411100  1.0  -0.1931
  N  N824  1  0.818600  0.932600  0.399600  1.0  -0.1274
  N  N825  1  0.838300  0.960900  0.789700  1.0  -0.1954
  N  N826  1  0.849200  0.932600  0.818600  1.0  -0.1292
  N  N827  1  0.411100  0.789700  0.960900  1.0  -0.1955
  N  N828  1  0.399600  0.818600  0.932600  1.0  -0.1268
  N  N829  1  0.960900  0.838300  0.411100  1.0  -0.1937
  N  N830  1  0.932600  0.849200  0.399600  1.0  -0.1278
  N  N831  1  0.789700  0.411100  0.838300  1.0  -0.1925
  N  N832  1  0.818600  0.399600  0.849200  1.0  -0.1268
  N  N833  1  0.838300  0.789700  0.411100  1.0  -0.194
  N  N834  1  0.849200  0.818600  0.399600  1.0  -0.1281
  N  N835  1  0.411100  0.960900  0.838300  1.0  -0.191
  N  N836  1  0.399600  0.932600  0.849200  1.0  -0.128
  N  N837  1  0.960900  0.411100  0.789700  1.0  -0.1941
  N  N838  1  0.932600  0.399600  0.818600  1.0  -0.129
  N  N839  1  0.789700  0.838300  0.960900  1.0  -0.1922
  N  N840  1  0.818600  0.849200  0.932600  1.0  -0.1281
  N  N841  1  0.588900  0.161700  0.039100  1.0  -0.1944
  N  N842  1  0.600400  0.150800  0.067400  1.0  -0.1286
  N  N843  1  0.161700  0.588900  0.210300  1.0  -0.1937
  N  N844  1  0.150800  0.600400  0.181400  1.0  -0.1291
  N  N845  1  0.210300  0.039100  0.161700  1.0  -0.1948
  N  N846  1  0.181400  0.067400  0.150800  1.0  -0.1256
  N  N847  1  0.039100  0.210300  0.588900  1.0  -0.1936
  N  N848  1  0.067400  0.181400  0.600400  1.0  -0.1288
  N  N849  1  0.039100  0.161700  0.210300  1.0  -0.1947
  N  N850  1  0.067400  0.150800  0.181400  1.0  -0.1276
  N  N851  1  0.210300  0.588900  0.039100  1.0  -0.1941
  N  N852  1  0.181400  0.600400  0.067400  1.0  -0.1256
  N  N853  1  0.161700  0.039100  0.588900  1.0  -0.1944
  N  N854  1  0.150800  0.067400  0.600400  1.0  -0.1296
  N  N855  1  0.588900  0.210300  0.161700  1.0  -0.1937
  N  N856  1  0.600400  0.181400  0.150800  1.0  -0.1248
  N  N857  1  0.210300  0.161700  0.588900  1.0  -0.1943
  N  N858  1  0.181400  0.150800  0.600400  1.0  -0.1271
  N  N859  1  0.039100  0.588900  0.161700  1.0  -0.1947
  N  N860  1  0.067400  0.600400  0.150800  1.0  -0.1279
  N  N861  1  0.588900  0.039100  0.210300  1.0  -0.1905
  N  N862  1  0.600400  0.067400  0.181400  1.0  -0.1263
  N  N863  1  0.161700  0.210300  0.039100  1.0  -0.1944
  N  N864  1  0.150800  0.181400  0.067400  1.0  -0.1291
  N  N865  1  0.161700  0.588900  0.039100  1.0  -0.194
  N  N866  1  0.150800  0.600400  0.067400  1.0  -0.1302
  N  N867  1  0.588900  0.161700  0.210300  1.0  -0.194
  N  N868  1  0.600400  0.150800  0.181400  1.0  -0.1286
  N  N869  1  0.039100  0.210300  0.161700  1.0  -0.1942
  N  N870  1  0.067400  0.181400  0.150800  1.0  -0.1282
  N  N871  1  0.210300  0.039100  0.588900  1.0  -0.194
  N  N872  1  0.181400  0.067400  0.600400  1.0  -0.1273
  N  N873  1  0.161700  0.039100  0.210300  1.0  -0.1944
  N  N874  1  0.150800  0.067400  0.181400  1.0  -0.1302
  N  N875  1  0.588900  0.210300  0.039100  1.0  -0.1937
  N  N876  1  0.600400  0.181400  0.067400  1.0  -0.1256
  N  N877  1  0.039100  0.161700  0.588900  1.0  -0.1949
  N  N878  1  0.067400  0.150800  0.600400  1.0  -0.1286
  N  N879  1  0.210300  0.588900  0.161700  1.0  -0.1943
  N  N880  1  0.181400  0.600400  0.150800  1.0  -0.1263
  N  N881  1  0.161700  0.210300  0.588900  1.0  -0.1945
  N  N882  1  0.150800  0.181400  0.600400  1.0  -0.1298
  N  N883  1  0.588900  0.039100  0.161700  1.0  -0.1947
  N  N884  1  0.600400  0.067400  0.150800  1.0  -0.1279
  N  N885  1  0.039100  0.588900  0.210300  1.0  -0.1911
  N  N886  1  0.067400  0.600400  0.181400  1.0  -0.128
  N  N887  1  0.210300  0.161700  0.039100  1.0  -0.1941
  N  N888  1  0.181400  0.150800  0.067400  1.0  -0.128
  N  N889  1  0.411100  0.838300  0.960900  1.0  -0.1935
  N  N890  1  0.399600  0.849200  0.932600  1.0  -0.1295
  N  N891  1  0.838300  0.411100  0.789700  1.0  -0.1933
  N  N892  1  0.849200  0.399600  0.818600  1.0  -0.1296
  N  N893  1  0.789700  0.960900  0.838300  1.0  -0.1926
  N  N894  1  0.818600  0.932600  0.849200  1.0  -0.1283
  N  N895  1  0.960900  0.789700  0.411100  1.0  -0.1954
  N  N896  1  0.932600  0.818600  0.399600  1.0  -0.1293
  N  N897  1  0.960900  0.838300  0.789700  1.0  -0.1938
  N  N898  1  0.932600  0.849200  0.818600  1.0  -0.1284
  N  N899  1  0.789700  0.411100  0.960900  1.0  -0.1927
  N  N900  1  0.818600  0.399600  0.932600  1.0  -0.128
  N  N901  1  0.838300  0.960900  0.411100  1.0  -0.1963
  N  N902  1  0.849200  0.932600  0.399600  1.0  -0.1296
  N  N903  1  0.411100  0.789700  0.838300  1.0  -0.1953
  N  N904  1  0.399600  0.818600  0.849200  1.0  -0.1271
  N  N905  1  0.789700  0.838300  0.411100  1.0  -0.1922
  N  N906  1  0.818600  0.849200  0.399600  1.0  -0.1289
  N  N907  1  0.960900  0.411100  0.838300  1.0  -0.1907
  N  N908  1  0.932600  0.399600  0.849200  1.0  -0.1287
  N  N909  1  0.411100  0.960900  0.789700  1.0  -0.1949
  N  N910  1  0.399600  0.932600  0.818600  1.0  -0.1298
  N  N911  1  0.838300  0.789700  0.960900  1.0  -0.1942
  N  N912  1  0.849200  0.818600  0.932600  1.0  -0.1289
  O  O913  1  0.816220  0.491120  0.138040  1.0  -0.5472
  O  O914  1  0.869700  0.491080  0.087800  1.0  -0.5167
  O  O915  1  0.491120  0.816220  0.554620  1.0  -0.5477
  O  O916  1  0.491080  0.869700  0.551420  1.0  -0.515
  O  O917  1  0.138040  0.554620  0.816220  1.0  -0.5482
  O  O918  1  0.087800  0.551420  0.869700  1.0  -0.5141
  O  O919  1  0.554620  0.138040  0.491120  1.0  -0.5485
  O  O920  1  0.551420  0.087800  0.491080  1.0  -0.514
  O  O921  1  0.816220  0.138040  0.554620  1.0  -0.55
  O  O922  1  0.869700  0.087800  0.551420  1.0  -0.5136
  O  O923  1  0.491120  0.554620  0.138040  1.0  -0.5469
  O  O924  1  0.491080  0.551420  0.087800  1.0  -0.514
  O  O925  1  0.138040  0.816220  0.491120  1.0  -0.5478
  O  O926  1  0.087800  0.869700  0.491080  1.0  -0.5148
  O  O927  1  0.554620  0.491120  0.816220  1.0  -0.5485
  O  O928  1  0.551420  0.491080  0.869700  1.0  -0.5161
  O  O929  1  0.816220  0.554620  0.491120  1.0  -0.547
  O  O930  1  0.869700  0.551420  0.491080  1.0  -0.5156
  O  O931  1  0.491120  0.138040  0.816220  1.0  -0.55
  O  O932  1  0.491080  0.087800  0.869700  1.0  -0.5155
  O  O933  1  0.138040  0.491120  0.554620  1.0  -0.5498
  O  O934  1  0.087800  0.491080  0.551420  1.0  -0.5141
  O  O935  1  0.554620  0.816220  0.138040  1.0  -0.5489
  O  O936  1  0.551420  0.869700  0.087800  1.0  -0.514
  O  O937  1  0.508880  0.183780  0.861960  1.0  -0.5488
  O  O938  1  0.508920  0.130300  0.912200  1.0  -0.5165
  O  O939  1  0.183780  0.508880  0.445380  1.0  -0.5487
  O  O940  1  0.130300  0.508920  0.448580  1.0  -0.5151
  O  O941  1  0.445380  0.861960  0.183780  1.0  -0.548
  O  O942  1  0.448580  0.912200  0.130300  1.0  -0.5136
  O  O943  1  0.861960  0.445380  0.508880  1.0  -0.5473
  O  O944  1  0.912200  0.448580  0.508920  1.0  -0.515
  O  O945  1  0.861960  0.183780  0.445380  1.0  -0.5482
  O  O946  1  0.912200  0.130300  0.448580  1.0  -0.5169
  O  O947  1  0.445380  0.508880  0.861960  1.0  -0.5477
  O  O948  1  0.448580  0.508920  0.912200  1.0  -0.5165
  O  O949  1  0.183780  0.861960  0.508880  1.0  -0.5492
  O  O950  1  0.130300  0.912200  0.508920  1.0  -0.5121
  O  O951  1  0.508880  0.445380  0.183780  1.0  -0.5463
  O  O952  1  0.508920  0.448580  0.130300  1.0  -0.513
  O  O953  1  0.445380  0.183780  0.508880  1.0  -0.5486
  O  O954  1  0.448580  0.130300  0.508920  1.0  -0.5135
  O  O955  1  0.861960  0.508880  0.183780  1.0  -0.5498
  O  O956  1  0.912200  0.508920  0.130300  1.0  -0.5154
  O  O957  1  0.508880  0.861960  0.445380  1.0  -0.5483
  O  O958  1  0.508920  0.912200  0.448580  1.0  -0.5147
  O  O959  1  0.183780  0.445380  0.861960  1.0  -0.5471
  O  O960  1  0.130300  0.448580  0.912200  1.0  -0.5134
  O  O961  1  0.183780  0.508880  0.861960  1.0  -0.5482
  O  O962  1  0.130300  0.508920  0.912200  1.0  -0.5133
  O  O963  1  0.508880  0.183780  0.445380  1.0  -0.5479
  O  O964  1  0.508920  0.130300  0.448580  1.0  -0.5169
  O  O965  1  0.861960  0.445380  0.183780  1.0  -0.5471
  O  O966  1  0.912200  0.448580  0.130300  1.0  -0.5139
  O  O967  1  0.445380  0.861960  0.508880  1.0  -0.5473
  O  O968  1  0.448580  0.912200  0.508920  1.0  -0.5133
  O  O969  1  0.183780  0.861960  0.445380  1.0  -0.5492
  O  O970  1  0.130300  0.912200  0.448580  1.0  -0.5125
  O  O971  1  0.508880  0.445380  0.861960  1.0  -0.5456
  O  O972  1  0.508920  0.448580  0.912200  1.0  -0.5137
  O  O973  1  0.861960  0.183780  0.508880  1.0  -0.5486
  O  O974  1  0.912200  0.130300  0.508920  1.0  -0.5162
  O  O975  1  0.445380  0.508880  0.183780  1.0  -0.5486
  O  O976  1  0.448580  0.508920  0.130300  1.0  -0.5149
  O  O977  1  0.183780  0.445380  0.508880  1.0  -0.5469
  O  O978  1  0.130300  0.448580  0.508920  1.0  -0.5131
  O  O979  1  0.508880  0.861960  0.183780  1.0  -0.549
  O  O980  1  0.508920  0.912200  0.130300  1.0  -0.5146
  O  O981  1  0.861960  0.508880  0.445380  1.0  -0.5491
  O  O982  1  0.912200  0.508920  0.448580  1.0  -0.5154
  O  O983  1  0.445380  0.183780  0.861960  1.0  -0.5494
  O  O984  1  0.448580  0.130300  0.912200  1.0  -0.5143
  O  O985  1  0.491120  0.816220  0.138040  1.0  -0.5493
  O  O986  1  0.491080  0.869700  0.087800  1.0  -0.5161
  O  O987  1  0.816220  0.491120  0.554620  1.0  -0.5473
  O  O988  1  0.869700  0.491080  0.551420  1.0  -0.5149
  O  O989  1  0.554620  0.138040  0.816220  1.0  -0.5494
  O  O990  1  0.551420  0.087800  0.869700  1.0  -0.5153
  O  O991  1  0.138040  0.554620  0.491120  1.0  -0.5472
  O  O992  1  0.087800  0.551420  0.491080  1.0  -0.5128
  O  O993  1  0.138040  0.816220  0.554620  1.0  -0.5478
  O  O994  1  0.087800  0.869700  0.551420  1.0  -0.5147
  O  O995  1  0.554620  0.491120  0.138040  1.0  -0.548
  O  O996  1  0.551420  0.491080  0.087800  1.0  -0.5154
  O  O997  1  0.816220  0.138040  0.491120  1.0  -0.5491
  O  O998  1  0.869700  0.087800  0.491080  1.0  -0.514
  O  O999  1  0.491120  0.554620  0.816220  1.0  -0.5468
  O  O1000  1  0.491080  0.551420  0.869700  1.0  -0.5147
  O  O1001  1  0.554620  0.816220  0.491120  1.0  -0.5493
  O  O1002  1  0.551420  0.869700  0.491080  1.0  -0.5144
  O  O1003  1  0.138040  0.491120  0.816220  1.0  -0.5494
  O  O1004  1  0.087800  0.491080  0.869700  1.0  -0.5146
  O  O1005  1  0.491120  0.138040  0.554620  1.0  -0.55
  O  O1006  1  0.491080  0.087800  0.551420  1.0  -0.5146
  O  O1007  1  0.816220  0.554620  0.138040  1.0  -0.5464
  O  O1008  1  0.869700  0.551420  0.087800  1.0  -0.5147
  O  O1009  1  0.940800  0.500000  0.059200  1.0  -0.2492
  O  O1010  1  0.786200  0.500000  0.213800  1.0  -0.2453
  O  O1011  1  0.500000  0.940800  0.500000  1.0  -0.251
  O  O1012  1  0.500000  0.786200  0.500000  1.0  -0.2461
  O  O1013  1  0.059200  0.500000  0.940800  1.0  -0.2515
  O  O1014  1  0.213800  0.500000  0.786200  1.0  -0.2444
  O  O1015  1  0.500000  0.059200  0.500000  1.0  -0.252
  O  O1016  1  0.500000  0.213800  0.500000  1.0  -0.2456
  O  O1017  1  0.940800  0.059200  0.500000  1.0  -0.25
  O  O1018  1  0.786200  0.213800  0.500000  1.0  -0.2452
  O  O1019  1  0.500000  0.500000  0.059200  1.0  -0.252
  O  O1020  1  0.500000  0.500000  0.213800  1.0  -0.2462
  O  O1021  1  0.059200  0.940800  0.500000  1.0  -0.2508
  O  O1022  1  0.213800  0.786200  0.500000  1.0  -0.2456
  O  O1023  1  0.500000  0.500000  0.940800  1.0  -0.2528
  O  O1024  1  0.500000  0.500000  0.786200  1.0  -0.2465
  O  O1025  1  0.940800  0.500000  0.500000  1.0  -0.251
  O  O1026  1  0.786200  0.500000  0.500000  1.0  -0.2444
  O  O1027  1  0.500000  0.059200  0.940800  1.0  -0.2538
  O  O1028  1  0.500000  0.213800  0.786200  1.0  -0.245
  O  O1029  1  0.059200  0.500000  0.500000  1.0  -0.2508
  O  O1030  1  0.213800  0.500000  0.500000  1.0  -0.2463
  O  O1031  1  0.500000  0.940800  0.059200  1.0  -0.2514
  O  O1032  1  0.500000  0.786200  0.213800  1.0  -0.2472
  O  O1033  1  0.913800  0.406200  0.913800  1.0  -0.322
  O  O1034  1  0.913300  0.344700  0.913300  1.0  -0.2434
  O  O1035  1  0.406200  0.913800  0.766200  1.0  -0.3265
  O  O1036  1  0.344700  0.913300  0.828700  1.0  -0.2496
  O  O1037  1  0.913800  0.766200  0.913800  1.0  -0.3199
  O  O1038  1  0.913300  0.828700  0.913300  1.0  -0.2447
  O  O1039  1  0.766200  0.913800  0.406200  1.0  -0.3247
  O  O1040  1  0.828700  0.913300  0.344700  1.0  -0.252
  O  O1041  1  0.913800  0.913800  0.766200  1.0  -0.321
  O  O1042  1  0.913300  0.913300  0.828700  1.0  -0.2442
  O  O1043  1  0.406200  0.766200  0.913800  1.0  -0.3258
  O  O1044  1  0.344700  0.828700  0.913300  1.0  -0.2449
  O  O1045  1  0.913800  0.913800  0.406200  1.0  -0.3216
  O  O1046  1  0.913300  0.913300  0.344700  1.0  -0.2442
  O  O1047  1  0.766200  0.406200  0.913800  1.0  -0.3234
  O  O1048  1  0.828700  0.344700  0.913300  1.0  -0.2469
  O  O1049  1  0.913800  0.766200  0.406200  1.0  -0.3257
  O  O1050  1  0.913300  0.828700  0.344700  1.0  -0.2491
  O  O1051  1  0.406200  0.913800  0.913800  1.0  -0.3229
  O  O1052  1  0.344700  0.913300  0.913300  1.0  -0.2442
  O  O1053  1  0.913800  0.406200  0.766200  1.0  -0.3256
  O  O1054  1  0.913300  0.344700  0.828700  1.0  -0.2479
  O  O1055  1  0.766200  0.913800  0.913800  1.0  -0.3188
  O  O1056  1  0.828700  0.913300  0.913300  1.0  -0.2437
  O  O1057  1  0.593800  0.086200  0.086200  1.0  -0.3229
  O  O1058  1  0.655300  0.086700  0.086700  1.0  -0.2428
  O  O1059  1  0.086200  0.593800  0.233800  1.0  -0.3284
  O  O1060  1  0.086700  0.655300  0.171300  1.0  -0.2475
  O  O1061  1  0.233800  0.086200  0.086200  1.0  -0.32
  O  O1062  1  0.171300  0.086700  0.086700  1.0  -0.2422
  O  O1063  1  0.086200  0.233800  0.593800  1.0  -0.3242
  O  O1064  1  0.086700  0.171300  0.655300  1.0  -0.2501
  O  O1065  1  0.086200  0.086200  0.233800  1.0  -0.3227
  O  O1066  1  0.086700  0.086700  0.171300  1.0  -0.2437
  O  O1067  1  0.233800  0.593800  0.086200  1.0  -0.3243
  O  O1068  1  0.171300  0.655300  0.086700  1.0  -0.2473
  O  O1069  1  0.086200  0.086200  0.593800  1.0  -0.3222
  O  O1070  1  0.086700  0.086700  0.655300  1.0  -0.2465
  O  O1071  1  0.593800  0.233800  0.086200  1.0  -0.3242
  O  O1072  1  0.655300  0.171300  0.086700  1.0  -0.2444
  O  O1073  1  0.233800  0.086200  0.593800  1.0  -0.3246
  O  O1074  1  0.171300  0.086700  0.655300  1.0  -0.251
  O  O1075  1  0.086200  0.593800  0.086200  1.0  -0.3223
  O  O1076  1  0.086700  0.655300  0.086700  1.0  -0.2424
  O  O1077  1  0.593800  0.086200  0.233800  1.0  -0.3289
  O  O1078  1  0.655300  0.086700  0.171300  1.0  -0.2475
  O  O1079  1  0.086200  0.233800  0.086200  1.0  -0.3201
  O  O1080  1  0.086700  0.171300  0.086700  1.0  -0.2429
  O  O1081  1  0.871100  0.386700  0.871100  1.0  -0.8652
  O  O1082  1  0.386700  0.871100  0.871100  1.0  -0.8675
  O  O1083  1  0.871100  0.871100  0.871100  1.0  -0.8656
  O  O1084  1  0.871100  0.871100  0.386700  1.0  -0.8663
  O  O1085  1  0.613300  0.128900  0.128900  1.0  -0.8669
  O  O1086  1  0.128900  0.613300  0.128900  1.0  -0.8661
  O  O1087  1  0.128900  0.128900  0.128900  1.0  -0.8662
  O  O1088  1  0.128900  0.128900  0.613300  1.0  -0.8655
