# generated using pymatgen
data_Cu6H21C45N12O13
_symmetry_space_group_name_H-M   'P 1'
_cell_length_a   38.45940000
_cell_length_b   38.45940000
_cell_length_c   38.45940000
_cell_angle_alpha   60.00000000
_cell_angle_beta   60.00000000
_cell_angle_gamma   60.00000000
_symmetry_Int_Tables_number   1
_chemical_formula_structural   Cu6H21C45N12O13
_chemical_formula_sum   'Cu48 H168 C360 N96 O104'
_cell_volume   40224.67241313
_cell_formula_units_Z   8
loop_
 _symmetry_equiv_pos_site_id
 _symmetry_equiv_pos_as_xyz
  1  'x, y, z'
loop_
 _atom_site_type_symbol
 _atom_site_label
 _atom_site_symmetry_multiplicity
 _atom_site_fract_x
 _atom_site_fract_y
 _atom_site_fract_z
 _atom_site_occupancy
 _atom_site_charge
  Cu  Cu1  1  0.724940  0.000000  0.275060  1.0  0.8789
  Cu  Cu2  1  0.794520  0.000000  0.205480  1.0  0.8834
  Cu  Cu3  1  0.000000  0.724940  0.000000  1.0  0.8788
  Cu  Cu4  1  0.000000  0.794520  0.000000  1.0  0.8834
  Cu  Cu5  1  0.275060  0.000000  0.724940  1.0  0.8773
  Cu  Cu6  1  0.205480  0.000000  0.794520  1.0  0.8845
  Cu  Cu7  1  0.000000  0.275060  0.000000  1.0  0.8783
  Cu  Cu8  1  0.000000  0.205480  0.000000  1.0  0.8844
  Cu  Cu9  1  0.724940  0.275060  0.000000  1.0  0.8781
  Cu  Cu10  1  0.794520  0.205480  0.000000  1.0  0.883
  Cu  Cu11  1  0.000000  0.000000  0.275060  1.0  0.8763
  Cu  Cu12  1  0.000000  0.000000  0.205480  1.0  0.8831
  Cu  Cu13  1  0.275060  0.724940  0.000000  1.0  0.8778
  Cu  Cu14  1  0.205480  0.794520  0.000000  1.0  0.8843
  Cu  Cu15  1  0.000000  0.000000  0.724940  1.0  0.8768
  Cu  Cu16  1  0.000000  0.000000  0.794520  1.0  0.883
  Cu  Cu17  1  0.724940  0.000000  0.000000  1.0  0.8781
  Cu  Cu18  1  0.794520  0.000000  0.000000  1.0  0.883
  Cu  Cu19  1  0.000000  0.275060  0.724940  1.0  0.8779
  Cu  Cu20  1  0.000000  0.205480  0.794520  1.0  0.8843
  Cu  Cu21  1  0.275060  0.000000  0.000000  1.0  0.8775
  Cu  Cu22  1  0.205480  0.000000  0.000000  1.0  0.8851
  Cu  Cu23  1  0.000000  0.724940  0.275060  1.0  0.8794
  Cu  Cu24  1  0.000000  0.794520  0.205480  1.0  0.8839
  Cu  Cu25  1  0.609900  0.088400  0.609900  1.0  0.386
  Cu  Cu26  1  0.088400  0.609900  0.691800  1.0  0.4086
  Cu  Cu27  1  0.609900  0.691800  0.609900  1.0  0.4064
  Cu  Cu28  1  0.691800  0.609900  0.088400  1.0  0.4088
  Cu  Cu29  1  0.609900  0.609900  0.691800  1.0  0.4053
  Cu  Cu30  1  0.088400  0.691800  0.609900  1.0  0.409
  Cu  Cu31  1  0.609900  0.609900  0.088400  1.0  0.3862
  Cu  Cu32  1  0.691800  0.088400  0.609900  1.0  0.4078
  Cu  Cu33  1  0.609900  0.691800  0.088400  1.0  0.4085
  Cu  Cu34  1  0.088400  0.609900  0.609900  1.0  0.3853
  Cu  Cu35  1  0.609900  0.088400  0.691800  1.0  0.4083
  Cu  Cu36  1  0.691800  0.609900  0.609900  1.0  0.4059
  Cu  Cu37  1  0.911600  0.390100  0.390100  1.0  0.3842
  Cu  Cu38  1  0.390100  0.911600  0.308200  1.0  0.4091
  Cu  Cu39  1  0.308200  0.390100  0.390100  1.0  0.4047
  Cu  Cu40  1  0.390100  0.308200  0.911600  1.0  0.4101
  Cu  Cu41  1  0.390100  0.390100  0.308200  1.0  0.4039
  Cu  Cu42  1  0.308200  0.911600  0.390100  1.0  0.4093
  Cu  Cu43  1  0.390100  0.390100  0.911600  1.0  0.3851
  Cu  Cu44  1  0.911600  0.308200  0.390100  1.0  0.4096
  Cu  Cu45  1  0.308200  0.390100  0.911600  1.0  0.4101
  Cu  Cu46  1  0.390100  0.911600  0.390100  1.0  0.3855
  Cu  Cu47  1  0.911600  0.390100  0.308200  1.0  0.4094
  Cu  Cu48  1  0.390100  0.308200  0.390100  1.0  0.4057
  H  H49  1  0.760400  0.027800  0.345800  1.0  0.1436
  H  H50  1  0.687700  0.062900  0.457700  1.0  0.1142
  H  H51  1  0.727000  0.041400  0.398800  1.0  0.1265
  H  H52  1  0.027800  0.760400  0.866000  1.0  0.1441
  H  H53  1  0.062900  0.687700  0.791700  1.0  0.1151
  H  H54  1  0.041400  0.727000  0.832800  1.0  0.1282
  H  H55  1  0.345800  0.866000  0.760400  1.0  0.1433
  H  H56  1  0.457700  0.791700  0.687700  1.0  0.1138
  H  H57  1  0.398800  0.832800  0.727000  1.0  0.128
  H  H58  1  0.866000  0.345800  0.027800  1.0  0.1432
  H  H59  1  0.791700  0.457700  0.062900  1.0  0.1141
  H  H60  1  0.832800  0.398800  0.041400  1.0  0.1263
  H  H61  1  0.760400  0.345800  0.866000  1.0  0.1426
  H  H62  1  0.687700  0.457700  0.791700  1.0  0.1146
  H  H63  1  0.727000  0.398800  0.832800  1.0  0.1259
  H  H64  1  0.027800  0.866000  0.345800  1.0  0.1451
  H  H65  1  0.062900  0.791700  0.457700  1.0  0.1138
  H  H66  1  0.041400  0.832800  0.398800  1.0  0.1291
  H  H67  1  0.345800  0.760400  0.027800  1.0  0.1437
  H  H68  1  0.457700  0.687700  0.062900  1.0  0.1137
  H  H69  1  0.398800  0.727000  0.041400  1.0  0.128
  H  H70  1  0.866000  0.027800  0.760400  1.0  0.1444
  H  H71  1  0.791700  0.062900  0.687700  1.0  0.1145
  H  H72  1  0.832800  0.041400  0.727000  1.0  0.1267
  H  H73  1  0.760400  0.866000  0.027800  1.0  0.1425
  H  H74  1  0.687700  0.791700  0.062900  1.0  0.1152
  H  H75  1  0.727000  0.832800  0.041400  1.0  0.1279
  H  H76  1  0.027800  0.345800  0.760400  1.0  0.1431
  H  H77  1  0.062900  0.457700  0.687700  1.0  0.1141
  H  H78  1  0.041400  0.398800  0.727000  1.0  0.1287
  H  H79  1  0.345800  0.027800  0.866000  1.0  0.1445
  H  H80  1  0.457700  0.062900  0.791700  1.0  0.113
  H  H81  1  0.398800  0.041400  0.832800  1.0  0.1283
  H  H82  1  0.866000  0.760400  0.345800  1.0  0.1433
  H  H83  1  0.791700  0.687700  0.457700  1.0  0.1148
  H  H84  1  0.832800  0.727000  0.398800  1.0  0.1271
  H  H85  1  0.972200  0.239600  0.654200  1.0  0.144
  H  H86  1  0.937100  0.312300  0.542300  1.0  0.1146
  H  H87  1  0.958600  0.273000  0.601200  1.0  0.1288
  H  H88  1  0.239600  0.972200  0.134000  1.0  0.1432
  H  H89  1  0.312300  0.937100  0.208300  1.0  0.1136
  H  H90  1  0.273000  0.958600  0.167200  1.0  0.1272
  H  H91  1  0.134000  0.654200  0.239600  1.0  0.144
  H  H92  1  0.208300  0.542300  0.312300  1.0  0.1144
  H  H93  1  0.167200  0.601200  0.273000  1.0  0.1261
  H  H94  1  0.654200  0.134000  0.972200  1.0  0.1435
  H  H95  1  0.542300  0.208300  0.937100  1.0  0.1138
  H  H96  1  0.601200  0.167200  0.958600  1.0  0.1271
  H  H97  1  0.654200  0.239600  0.134000  1.0  0.144
  H  H98  1  0.542300  0.312300  0.208300  1.0  0.1136
  H  H99  1  0.601200  0.273000  0.167200  1.0  0.1291
  H  H100  1  0.134000  0.972200  0.654200  1.0  0.1445
  H  H101  1  0.208300  0.937100  0.542300  1.0  0.1139
  H  H102  1  0.167200  0.958600  0.601200  1.0  0.1265
  H  H103  1  0.239600  0.654200  0.972200  1.0  0.1425
  H  H104  1  0.312300  0.542300  0.937100  1.0  0.1144
  H  H105  1  0.273000  0.601200  0.958600  1.0  0.1264
  H  H106  1  0.972200  0.134000  0.239600  1.0  0.1453
  H  H107  1  0.937100  0.208300  0.312300  1.0  0.114
  H  H108  1  0.958600  0.167200  0.273000  1.0  0.1286
  H  H109  1  0.134000  0.239600  0.972200  1.0  0.1431
  H  H110  1  0.208300  0.312300  0.937100  1.0  0.1142
  H  H111  1  0.167200  0.273000  0.958600  1.0  0.1278
  H  H112  1  0.654200  0.972200  0.239600  1.0  0.1445
  H  H113  1  0.542300  0.937100  0.312300  1.0  0.1134
  H  H114  1  0.601200  0.958600  0.273000  1.0  0.1284
  H  H115  1  0.972200  0.654200  0.134000  1.0  0.1435
  H  H116  1  0.937100  0.542300  0.208300  1.0  0.1138
  H  H117  1  0.958600  0.601200  0.167200  1.0  0.1284
  H  H118  1  0.239600  0.134000  0.654200  1.0  0.1427
  H  H119  1  0.312300  0.208300  0.542300  1.0  0.1151
  H  H120  1  0.273000  0.167200  0.601200  1.0  0.1274
  H  H121  1  0.239600  0.972200  0.654200  1.0  0.1429
  H  H122  1  0.312300  0.937100  0.542300  1.0  0.1138
  H  H123  1  0.273000  0.958600  0.601200  1.0  0.1267
  H  H124  1  0.972200  0.239600  0.134000  1.0  0.1444
  H  H125  1  0.937100  0.312300  0.208300  1.0  0.1145
  H  H126  1  0.958600  0.273000  0.167200  1.0  0.1287
  H  H127  1  0.654200  0.134000  0.239600  1.0  0.1441
  H  H128  1  0.542300  0.208300  0.312300  1.0  0.1143
  H  H129  1  0.601200  0.167200  0.273000  1.0  0.1276
  H  H130  1  0.134000  0.654200  0.972200  1.0  0.1435
  H  H131  1  0.208300  0.542300  0.937100  1.0  0.114
  H  H132  1  0.167200  0.601200  0.958600  1.0  0.1261
  H  H133  1  0.239600  0.654200  0.134000  1.0  0.1428
  H  H134  1  0.312300  0.542300  0.208300  1.0  0.1142
  H  H135  1  0.273000  0.601200  0.167200  1.0  0.1264
  H  H136  1  0.972200  0.134000  0.654200  1.0  0.1445
  H  H137  1  0.937100  0.208300  0.542300  1.0  0.1138
  H  H138  1  0.958600  0.167200  0.601200  1.0  0.1293
  H  H139  1  0.654200  0.239600  0.972200  1.0  0.1438
  H  H140  1  0.542300  0.312300  0.937100  1.0  0.1138
  H  H141  1  0.601200  0.273000  0.958600  1.0  0.1295
  H  H142  1  0.134000  0.972200  0.239600  1.0  0.1452
  H  H143  1  0.208300  0.937100  0.312300  1.0  0.1142
  H  H144  1  0.167200  0.958600  0.273000  1.0  0.1258
  H  H145  1  0.239600  0.134000  0.972200  1.0  0.1425
  H  H146  1  0.312300  0.208300  0.937100  1.0  0.1148
  H  H147  1  0.273000  0.167200  0.958600  1.0  0.1274
  H  H148  1  0.972200  0.654200  0.239600  1.0  0.1443
  H  H149  1  0.937100  0.542300  0.312300  1.0  0.1134
  H  H150  1  0.958600  0.601200  0.273000  1.0  0.1286
  H  H151  1  0.654200  0.972200  0.134000  1.0  0.1436
  H  H152  1  0.542300  0.937100  0.208300  1.0  0.1138
  H  H153  1  0.601200  0.958600  0.167200  1.0  0.128
  H  H154  1  0.134000  0.239600  0.654200  1.0  0.1431
  H  H155  1  0.208300  0.312300  0.542300  1.0  0.1145
  H  H156  1  0.167200  0.273000  0.601200  1.0  0.1281
  H  H157  1  0.027800  0.760400  0.345800  1.0  0.1444
  H  H158  1  0.062900  0.687700  0.457700  1.0  0.1143
  H  H159  1  0.041400  0.727000  0.398800  1.0  0.1278
  H  H160  1  0.760400  0.027800  0.866000  1.0  0.143
  H  H161  1  0.687700  0.062900  0.791700  1.0  0.114
  H  H162  1  0.727000  0.041400  0.832800  1.0  0.1266
  H  H163  1  0.866000  0.345800  0.760400  1.0  0.143
  H  H164  1  0.791700  0.457700  0.687700  1.0  0.1143
  H  H165  1  0.832800  0.398800  0.727000  1.0  0.1258
  H  H166  1  0.345800  0.866000  0.027800  1.0  0.1436
  H  H167  1  0.457700  0.791700  0.062900  1.0  0.114
  H  H168  1  0.398800  0.832800  0.041400  1.0  0.1285
  H  H169  1  0.345800  0.760400  0.866000  1.0  0.1439
  H  H170  1  0.457700  0.687700  0.791700  1.0  0.1143
  H  H171  1  0.398800  0.727000  0.832800  1.0  0.1282
  H  H172  1  0.866000  0.027800  0.345800  1.0  0.1449
  H  H173  1  0.791700  0.062900  0.457700  1.0  0.1137
  H  H174  1  0.832800  0.041400  0.398800  1.0  0.1265
  H  H175  1  0.760400  0.345800  0.027800  1.0  0.1428
  H  H176  1  0.687700  0.457700  0.062900  1.0  0.1145
  H  H177  1  0.727000  0.398800  0.041400  1.0  0.1259
  H  H178  1  0.027800  0.866000  0.760400  1.0  0.144
  H  H179  1  0.062900  0.791700  0.687700  1.0  0.1139
  H  H180  1  0.041400  0.832800  0.727000  1.0  0.1289
  H  H181  1  0.866000  0.760400  0.027800  1.0  0.1432
  H  H182  1  0.791700  0.687700  0.062900  1.0  0.1146
  H  H183  1  0.832800  0.727000  0.041400  1.0  0.1272
  H  H184  1  0.345800  0.027800  0.760400  1.0  0.1438
  H  H185  1  0.457700  0.062900  0.687700  1.0  0.1142
  H  H186  1  0.398800  0.041400  0.727000  1.0  0.1283
  H  H187  1  0.027800  0.345800  0.866000  1.0  0.144
  H  H188  1  0.062900  0.457700  0.791700  1.0  0.1129
  H  H189  1  0.041400  0.398800  0.832800  1.0  0.1287
  H  H190  1  0.760400  0.866000  0.345800  1.0  0.1421
  H  H191  1  0.687700  0.791700  0.457700  1.0  0.115
  H  H192  1  0.727000  0.832800  0.398800  1.0  0.1275
  H  H193  1  0.868700  0.015700  0.246900  1.0  0.1184
  H  H194  1  0.015700  0.868700  0.868700  1.0  0.1178
  H  H195  1  0.246900  0.868700  0.868700  1.0  0.1177
  H  H196  1  0.868700  0.246900  0.015700  1.0  0.1185
  H  H197  1  0.868700  0.246900  0.868700  1.0  0.1184
  H  H198  1  0.015700  0.868700  0.246900  1.0  0.1181
  H  H199  1  0.246900  0.868700  0.015700  1.0  0.118
  H  H200  1  0.868700  0.015700  0.868700  1.0  0.1183
  H  H201  1  0.868700  0.868700  0.015700  1.0  0.1177
  H  H202  1  0.015700  0.246900  0.868700  1.0  0.1191
  H  H203  1  0.246900  0.015700  0.868700  1.0  0.1184
  H  H204  1  0.868700  0.868700  0.246900  1.0  0.1175
  H  H205  1  0.984300  0.131300  0.753100  1.0  0.1179
  H  H206  1  0.131300  0.984300  0.131300  1.0  0.119
  H  H207  1  0.131300  0.753100  0.131300  1.0  0.1183
  H  H208  1  0.753100  0.131300  0.984300  1.0  0.1175
  H  H209  1  0.753100  0.131300  0.131300  1.0  0.1179
  H  H210  1  0.131300  0.984300  0.753100  1.0  0.1185
  H  H211  1  0.131300  0.753100  0.984300  1.0  0.118
  H  H212  1  0.984300  0.131300  0.131300  1.0  0.1184
  H  H213  1  0.131300  0.131300  0.984300  1.0  0.1179
  H  H214  1  0.753100  0.984300  0.131300  1.0  0.119
  H  H215  1  0.984300  0.753100  0.131300  1.0  0.1182
  H  H216  1  0.131300  0.131300  0.753100  1.0  0.1181
  C  C217  1  0.811580  0.021380  0.293020  1.0  0.0568
  C  C218  1  0.789370  0.026110  0.332290  1.0  -0.1056
  C  C219  1  0.792700  0.017500  0.273700  1.0  0.5449
  C  C220  1  0.717400  0.058400  0.445800  1.0  -0.0879
  C  C221  1  0.740580  0.045720  0.410680  1.0  -0.1954
  C  C222  1  0.021380  0.811580  0.874020  1.0  0.0555
  C  C223  1  0.026110  0.789370  0.852230  1.0  -0.1063
  C  C224  1  0.017500  0.792700  0.916100  1.0  0.5454
  C  C225  1  0.058400  0.717400  0.778400  1.0  -0.0915
  C  C226  1  0.045720  0.740580  0.803020  1.0  -0.1986
  C  C227  1  0.293020  0.874020  0.811580  1.0  0.057
  C  C228  1  0.332290  0.852230  0.789370  1.0  -0.1085
  C  C229  1  0.273700  0.916100  0.792700  1.0  0.5427
  C  C230  1  0.445800  0.778400  0.717400  1.0  -0.0919
  C  C231  1  0.410680  0.803020  0.740580  1.0  -0.1966
  C  C232  1  0.874020  0.293020  0.021380  1.0  0.0564
  C  C233  1  0.852230  0.332290  0.026110  1.0  -0.1074
  C  C234  1  0.916100  0.273700  0.017500  1.0  0.542
  C  C235  1  0.778400  0.445800  0.058400  1.0  -0.091
  C  C236  1  0.803020  0.410680  0.045720  1.0  -0.1964
  C  C237  1  0.811580  0.293020  0.874020  1.0  0.0568
  C  C238  1  0.789370  0.332290  0.852230  1.0  -0.1064
  C  C239  1  0.792700  0.273700  0.916100  1.0  0.5414
  C  C240  1  0.717400  0.445800  0.778400  1.0  -0.0877
  C  C241  1  0.740580  0.410680  0.803020  1.0  -0.1973
  C  C242  1  0.021380  0.874020  0.293020  1.0  0.0568
  C  C243  1  0.026110  0.852230  0.332290  1.0  -0.1054
  C  C244  1  0.017500  0.916100  0.273700  1.0  0.5431
  C  C245  1  0.058400  0.778400  0.445800  1.0  -0.0924
  C  C246  1  0.045720  0.803020  0.410680  1.0  -0.1973
  C  C247  1  0.293020  0.811580  0.021380  1.0  0.0549
  C  C248  1  0.332290  0.789370  0.026110  1.0  -0.1061
  C  C249  1  0.273700  0.792700  0.017500  1.0  0.5431
  C  C250  1  0.445800  0.717400  0.058400  1.0  -0.0912
  C  C251  1  0.410680  0.740580  0.045720  1.0  -0.1992
  C  C252  1  0.874020  0.021380  0.811580  1.0  0.0554
  C  C253  1  0.852230  0.026110  0.789370  1.0  -0.1071
  C  C254  1  0.916100  0.017500  0.792700  1.0  0.5437
  C  C255  1  0.778400  0.058400  0.717400  1.0  -0.0914
  C  C256  1  0.803020  0.045720  0.740580  1.0  -0.196
  C  C257  1  0.811580  0.874020  0.021380  1.0  0.0573
  C  C258  1  0.789370  0.852230  0.026110  1.0  -0.1068
  C  C259  1  0.792700  0.916100  0.017500  1.0  0.5451
  C  C260  1  0.717400  0.778400  0.058400  1.0  -0.0897
  C  C261  1  0.740580  0.803020  0.045720  1.0  -0.1966
  C  C262  1  0.021380  0.293020  0.811580  1.0  0.0574
  C  C263  1  0.026110  0.332290  0.789370  1.0  -0.1058
  C  C264  1  0.017500  0.273700  0.792700  1.0  0.544
  C  C265  1  0.058400  0.445800  0.717400  1.0  -0.0912
  C  C266  1  0.045720  0.410680  0.740580  1.0  -0.1968
  C  C267  1  0.293020  0.021380  0.874020  1.0  0.0562
  C  C268  1  0.332290  0.026110  0.852230  1.0  -0.1071
  C  C269  1  0.273700  0.017500  0.916100  1.0  0.5456
  C  C270  1  0.445800  0.058400  0.778400  1.0  -0.0928
  C  C271  1  0.410680  0.045720  0.803020  1.0  -0.1971
  C  C272  1  0.874020  0.811580  0.293020  1.0  0.056
  C  C273  1  0.852230  0.789370  0.332290  1.0  -0.1064
  C  C274  1  0.916100  0.792700  0.273700  1.0  0.5437
  C  C275  1  0.778400  0.717400  0.445800  1.0  -0.0921
  C  C276  1  0.803020  0.740580  0.410680  1.0  -0.1986
  C  C277  1  0.978620  0.188420  0.706980  1.0  0.0558
  C  C278  1  0.973890  0.210630  0.667710  1.0  -0.1076
  C  C279  1  0.982500  0.207300  0.726300  1.0  0.5452
  C  C280  1  0.941600  0.282600  0.554200  1.0  -0.0895
  C  C281  1  0.954280  0.259420  0.589320  1.0  -0.2009
  C  C282  1  0.188420  0.978620  0.125980  1.0  0.0566
  C  C283  1  0.210630  0.973890  0.147770  1.0  -0.1049
  C  C284  1  0.207300  0.982500  0.083900  1.0  0.545
  C  C285  1  0.282600  0.941600  0.221600  1.0  -0.0865
  C  C286  1  0.259420  0.954280  0.196980  1.0  -0.1969
  C  C287  1  0.125980  0.706980  0.188420  1.0  0.0567
  C  C288  1  0.147770  0.667710  0.210630  1.0  -0.1078
  C  C289  1  0.083900  0.726300  0.207300  1.0  0.5432
  C  C290  1  0.221600  0.554200  0.282600  1.0  -0.0908
  C  C291  1  0.196980  0.589320  0.259420  1.0  -0.1961
  C  C292  1  0.706980  0.125980  0.978620  1.0  0.0569
  C  C293  1  0.667710  0.147770  0.973890  1.0  -0.1081
  C  C294  1  0.726300  0.083900  0.982500  1.0  0.5421
  C  C295  1  0.554200  0.221600  0.941600  1.0  -0.0921
  C  C296  1  0.589320  0.196980  0.954280  1.0  -0.1957
  C  C297  1  0.706980  0.188420  0.125980  1.0  0.0552
  C  C298  1  0.667710  0.210630  0.147770  1.0  -0.1066
  C  C299  1  0.726300  0.207300  0.083900  1.0  0.5431
  C  C300  1  0.554200  0.282600  0.221600  1.0  -0.0889
  C  C301  1  0.589320  0.259420  0.196980  1.0  -0.1999
  C  C302  1  0.125980  0.978620  0.706980  1.0  0.0559
  C  C303  1  0.147770  0.973890  0.667710  1.0  -0.1067
  C  C304  1  0.083900  0.982500  0.726300  1.0  0.5423
  C  C305  1  0.221600  0.941600  0.554200  1.0  -0.0905
  C  C306  1  0.196980  0.954280  0.589320  1.0  -0.1943
  C  C307  1  0.188420  0.706980  0.978620  1.0  0.0566
  C  C308  1  0.210630  0.667710  0.973890  1.0  -0.1061
  C  C309  1  0.207300  0.726300  0.982500  1.0  0.5424
  C  C310  1  0.282600  0.554200  0.941600  1.0  -0.0866
  C  C311  1  0.259420  0.589320  0.954280  1.0  -0.1969
  C  C312  1  0.978620  0.125980  0.188420  1.0  0.0564
  C  C313  1  0.973890  0.147770  0.210630  1.0  -0.1054
  C  C314  1  0.982500  0.083900  0.207300  1.0  0.5421
  C  C315  1  0.941600  0.221600  0.282600  1.0  -0.0931
  C  C316  1  0.954280  0.196980  0.259420  1.0  -0.1969
  C  C317  1  0.125980  0.188420  0.978620  1.0  0.0556
  C  C318  1  0.147770  0.210630  0.973890  1.0  -0.107
  C  C319  1  0.083900  0.207300  0.982500  1.0  0.5438
  C  C320  1  0.221600  0.282600  0.941600  1.0  -0.09
  C  C321  1  0.196980  0.259420  0.954280  1.0  -0.1992
  C  C322  1  0.706980  0.978620  0.188420  1.0  0.0564
  C  C323  1  0.667710  0.973890  0.210630  1.0  -0.1077
  C  C324  1  0.726300  0.982500  0.207300  1.0  0.5458
  C  C325  1  0.554200  0.941600  0.282600  1.0  -0.0919
  C  C326  1  0.589320  0.954280  0.259420  1.0  -0.1971
  C  C327  1  0.978620  0.706980  0.125980  1.0  0.0577
  C  C328  1  0.973890  0.667710  0.147770  1.0  -0.1055
  C  C329  1  0.982500  0.726300  0.083900  1.0  0.5447
  C  C330  1  0.941600  0.554200  0.221600  1.0  -0.0899
  C  C331  1  0.954280  0.589320  0.196980  1.0  -0.1968
  C  C332  1  0.188420  0.125980  0.706980  1.0  0.0571
  C  C333  1  0.210630  0.147770  0.667710  1.0  -0.1051
  C  C334  1  0.207300  0.083900  0.726300  1.0  0.5441
  C  C335  1  0.282600  0.221600  0.554200  1.0  -0.09
  C  C336  1  0.259420  0.196980  0.589320  1.0  -0.1957
  C  C337  1  0.188420  0.978620  0.706980  1.0  0.0562
  C  C338  1  0.210630  0.973890  0.667710  1.0  -0.1046
  C  C339  1  0.207300  0.982500  0.726300  1.0  0.545
  C  C340  1  0.282600  0.941600  0.554200  1.0  -0.0864
  C  C341  1  0.259420  0.954280  0.589320  1.0  -0.1974
  C  C342  1  0.978620  0.188420  0.125980  1.0  0.0568
  C  C343  1  0.973890  0.210630  0.147770  1.0  -0.1077
  C  C344  1  0.982500  0.207300  0.083900  1.0  0.5449
  C  C345  1  0.941600  0.282600  0.221600  1.0  -0.0906
  C  C346  1  0.954280  0.259420  0.196980  1.0  -0.2005
  C  C347  1  0.706980  0.125980  0.188420  1.0  0.0565
  C  C348  1  0.667710  0.147770  0.210630  1.0  -0.1076
  C  C349  1  0.726300  0.083900  0.207300  1.0  0.5423
  C  C350  1  0.554200  0.221600  0.282600  1.0  -0.0937
  C  C351  1  0.589320  0.196980  0.259420  1.0  -0.1955
  C  C352  1  0.125980  0.706980  0.978620  1.0  0.0569
  C  C353  1  0.147770  0.667710  0.973890  1.0  -0.1078
  C  C354  1  0.083900  0.726300  0.982500  1.0  0.5429
  C  C355  1  0.221600  0.554200  0.941600  1.0  -0.0908
  C  C356  1  0.196980  0.589320  0.954280  1.0  -0.195
  C  C357  1  0.188420  0.706980  0.125980  1.0  0.0564
  C  C358  1  0.210630  0.667710  0.147770  1.0  -0.1056
  C  C359  1  0.207300  0.726300  0.083900  1.0  0.5423
  C  C360  1  0.282600  0.554200  0.221600  1.0  -0.088
  C  C361  1  0.259420  0.589320  0.196980  1.0  -0.1965
  C  C362  1  0.978620  0.125980  0.706980  1.0  0.0561
  C  C363  1  0.973890  0.147770  0.667710  1.0  -0.1063
  C  C364  1  0.982500  0.083900  0.726300  1.0  0.5418
  C  C365  1  0.941600  0.221600  0.554200  1.0  -0.0928
  C  C366  1  0.954280  0.196980  0.589320  1.0  -0.1967
  C  C367  1  0.706980  0.188420  0.978620  1.0  0.0551
  C  C368  1  0.667710  0.210630  0.973890  1.0  -0.1065
  C  C369  1  0.726300  0.207300  0.982500  1.0  0.5435
  C  C370  1  0.554200  0.282600  0.941600  1.0  -0.0899
  C  C371  1  0.589320  0.259420  0.954280  1.0  -0.2006
  C  C372  1  0.125980  0.978620  0.188420  1.0  0.0562
  C  C373  1  0.147770  0.973890  0.210630  1.0  -0.1058
  C  C374  1  0.083900  0.982500  0.207300  1.0  0.5424
  C  C375  1  0.221600  0.941600  0.282600  1.0  -0.092
  C  C376  1  0.196980  0.954280  0.259420  1.0  -0.1955
  C  C377  1  0.188420  0.125980  0.978620  1.0  0.0568
  C  C378  1  0.210630  0.147770  0.973890  1.0  -0.1053
  C  C379  1  0.207300  0.083900  0.982500  1.0  0.5433
  C  C380  1  0.282600  0.221600  0.941600  1.0  -0.0909
  C  C381  1  0.259420  0.196980  0.954280  1.0  -0.1963
  C  C382  1  0.978620  0.706980  0.188420  1.0  0.0571
  C  C383  1  0.973890  0.667710  0.210630  1.0  -0.1075
  C  C384  1  0.982500  0.726300  0.207300  1.0  0.5457
  C  C385  1  0.941600  0.554200  0.282600  1.0  -0.093
  C  C386  1  0.954280  0.589320  0.259420  1.0  -0.197
  C  C387  1  0.706980  0.978620  0.125980  1.0  0.0567
  C  C388  1  0.667710  0.973890  0.147770  1.0  -0.1057
  C  C389  1  0.726300  0.982500  0.083900  1.0  0.5444
  C  C390  1  0.554200  0.941600  0.221600  1.0  -0.0906
  C  C391  1  0.589320  0.954280  0.196980  1.0  -0.1963
  C  C392  1  0.125980  0.188420  0.706980  1.0  0.0558
  C  C393  1  0.147770  0.210630  0.667710  1.0  -0.1062
  C  C394  1  0.083900  0.207300  0.726300  1.0  0.5445
  C  C395  1  0.221600  0.282600  0.554200  1.0  -0.0906
  C  C396  1  0.196980  0.259420  0.589320  1.0  -0.199
  C  C397  1  0.021380  0.811580  0.293020  1.0  0.0556
  C  C398  1  0.026110  0.789370  0.332290  1.0  -0.1064
  C  C399  1  0.017500  0.792700  0.273700  1.0  0.5453
  C  C400  1  0.058400  0.717400  0.445800  1.0  -0.0923
  C  C401  1  0.045720  0.740580  0.410680  1.0  -0.1989
  C  C402  1  0.811580  0.021380  0.874020  1.0  0.0561
  C  C403  1  0.789370  0.026110  0.852230  1.0  -0.1053
  C  C404  1  0.792700  0.017500  0.916100  1.0  0.545
  C  C405  1  0.717400  0.058400  0.778400  1.0  -0.0882
  C  C406  1  0.740580  0.045720  0.803020  1.0  -0.196
  C  C407  1  0.874020  0.293020  0.811580  1.0  0.0566
  C  C408  1  0.852230  0.332290  0.789370  1.0  -0.1078
  C  C409  1  0.916100  0.273700  0.792700  1.0  0.5418
  C  C410  1  0.778400  0.445800  0.717400  1.0  -0.0916
  C  C411  1  0.803020  0.410680  0.740580  1.0  -0.196
  C  C412  1  0.293020  0.874020  0.021380  1.0  0.0568
  C  C413  1  0.332290  0.852230  0.026110  1.0  -0.1081
  C  C414  1  0.273700  0.916100  0.017500  1.0  0.543
  C  C415  1  0.445800  0.778400  0.058400  1.0  -0.0931
  C  C416  1  0.410680  0.803020  0.045720  1.0  -0.1974
  C  C417  1  0.293020  0.811580  0.874020  1.0  0.0551
  C  C418  1  0.332290  0.789370  0.852230  1.0  -0.1061
  C  C419  1  0.273700  0.792700  0.916100  1.0  0.5432
  C  C420  1  0.445800  0.717400  0.778400  1.0  -0.0919
  C  C421  1  0.410680  0.740580  0.803020  1.0  -0.1991
  C  C422  1  0.874020  0.021380  0.293020  1.0  0.056
  C  C423  1  0.852230  0.026110  0.332290  1.0  -0.1059
  C  C424  1  0.916100  0.017500  0.273700  1.0  0.5441
  C  C425  1  0.778400  0.058400  0.445800  1.0  -0.0925
  C  C426  1  0.803020  0.045720  0.410680  1.0  -0.1961
  C  C427  1  0.811580  0.293020  0.021380  1.0  0.0566
  C  C428  1  0.789370  0.332290  0.026110  1.0  -0.1061
  C  C429  1  0.792700  0.273700  0.017500  1.0  0.5412
  C  C430  1  0.717400  0.445800  0.058400  1.0  -0.0884
  C  C431  1  0.740580  0.410680  0.045720  1.0  -0.1964
  C  C432  1  0.021380  0.874020  0.811580  1.0  0.0563
  C  C433  1  0.026110  0.852230  0.789370  1.0  -0.1068
  C  C434  1  0.017500  0.916100  0.792700  1.0  0.5431
  C  C435  1  0.058400  0.778400  0.717400  1.0  -0.0936
  C  C436  1  0.045720  0.803020  0.740580  1.0  -0.1973
  C  C437  1  0.874020  0.811580  0.021380  1.0  0.0562
  C  C438  1  0.852230  0.789370  0.026110  1.0  -0.1059
  C  C439  1  0.916100  0.792700  0.017500  1.0  0.5446
  C  C440  1  0.778400  0.717400  0.058400  1.0  -0.0929
  C  C441  1  0.803020  0.740580  0.045720  1.0  -0.1981
  C  C442  1  0.293020  0.021380  0.811580  1.0  0.0566
  C  C443  1  0.332290  0.026110  0.789370  1.0  -0.1058
  C  C444  1  0.273700  0.017500  0.792700  1.0  0.5444
  C  C445  1  0.445800  0.058400  0.717400  1.0  -0.0926
  C  C446  1  0.410680  0.045720  0.740580  1.0  -0.1973
  C  C447  1  0.021380  0.293020  0.874020  1.0  0.0576
  C  C448  1  0.026110  0.332290  0.852230  1.0  -0.1067
  C  C449  1  0.017500  0.273700  0.916100  1.0  0.5454
  C  C450  1  0.058400  0.445800  0.778400  1.0  -0.0934
  C  C451  1  0.045720  0.410680  0.803020  1.0  -0.1966
  C  C452  1  0.811580  0.874020  0.293020  1.0  0.057
  C  C453  1  0.789370  0.852230  0.332290  1.0  -0.1072
  C  C454  1  0.792700  0.916100  0.273700  1.0  0.5443
  C  C455  1  0.717400  0.778400  0.445800  1.0  -0.0906
  C  C456  1  0.740580  0.803020  0.410680  1.0  -0.197
  C  C457  1  0.853400  0.019200  0.274000  1.0  -0.0937
  C  C458  1  0.735400  0.065000  0.464200  1.0  0.1919
  C  C459  1  0.784400  0.039000  0.392200  1.0  0.2396
  C  C460  1  0.809700  0.028300  0.352300  1.0  0.0621
  C  C461  1  0.716800  0.060800  0.505600  1.0  0.0792
  C  C462  1  0.019200  0.853400  0.853400  1.0  -0.0927
  C  C463  1  0.065000  0.735400  0.735400  1.0  0.1944
  C  C464  1  0.039000  0.784400  0.784400  1.0  0.2401
  C  C465  1  0.028300  0.809700  0.809700  1.0  0.0624
  C  C466  1  0.060800  0.716800  0.716800  1.0  0.0798
  C  C467  1  0.274000  0.853400  0.853400  1.0  -0.093
  C  C468  1  0.464200  0.735400  0.735400  1.0  0.1929
  C  C469  1  0.392200  0.784400  0.784400  1.0  0.2386
  C  C470  1  0.352300  0.809700  0.809700  1.0  0.0617
  C  C471  1  0.505600  0.716800  0.716800  1.0  0.0797
  C  C472  1  0.853400  0.274000  0.019200  1.0  -0.0945
  C  C473  1  0.735400  0.464200  0.065000  1.0  0.192
  C  C474  1  0.784400  0.392200  0.039000  1.0  0.2403
  C  C475  1  0.809700  0.352300  0.028300  1.0  0.0633
  C  C476  1  0.716800  0.505600  0.060800  1.0  0.0812
  C  C477  1  0.853400  0.274000  0.853400  1.0  -0.0944
  C  C478  1  0.735400  0.464200  0.735400  1.0  0.1917
  C  C479  1  0.784400  0.392200  0.784400  1.0  0.24
  C  C480  1  0.809700  0.352300  0.809700  1.0  0.0631
  C  C481  1  0.716800  0.505600  0.716800  1.0  0.0805
  C  C482  1  0.019200  0.853400  0.274000  1.0  -0.0926
  C  C483  1  0.065000  0.735400  0.464200  1.0  0.194
  C  C484  1  0.039000  0.784400  0.392200  1.0  0.2395
  C  C485  1  0.028300  0.809700  0.352300  1.0  0.0623
  C  C486  1  0.060800  0.716800  0.505600  1.0  0.0787
  C  C487  1  0.274000  0.853400  0.019200  1.0  -0.0934
  C  C488  1  0.464200  0.735400  0.065000  1.0  0.1931
  C  C489  1  0.392200  0.784400  0.039000  1.0  0.239
  C  C490  1  0.352300  0.809700  0.028300  1.0  0.0618
  C  C491  1  0.505600  0.716800  0.060800  1.0  0.0808
  C  C492  1  0.853400  0.019200  0.853400  1.0  -0.0937
  C  C493  1  0.735400  0.065000  0.735400  1.0  0.1918
  C  C494  1  0.784400  0.039000  0.784400  1.0  0.2404
  C  C495  1  0.809700  0.028300  0.809700  1.0  0.0621
  C  C496  1  0.716800  0.060800  0.716800  1.0  0.0799
  C  C497  1  0.853400  0.853400  0.019200  1.0  -0.0924
  C  C498  1  0.735400  0.735400  0.065000  1.0  0.1916
  C  C499  1  0.784400  0.784400  0.039000  1.0  0.2404
  C  C500  1  0.809700  0.809700  0.028300  1.0  0.0629
  C  C501  1  0.716800  0.716800  0.060800  1.0  0.0794
  C  C502  1  0.019200  0.274000  0.853400  1.0  -0.0952
  C  C503  1  0.065000  0.464200  0.735400  1.0  0.1947
  C  C504  1  0.039000  0.392200  0.784400  1.0  0.2404
  C  C505  1  0.028300  0.352300  0.809700  1.0  0.0628
  C  C506  1  0.060800  0.505600  0.716800  1.0  0.0809
  C  C507  1  0.274000  0.019200  0.853400  1.0  -0.0923
  C  C508  1  0.464200  0.065000  0.735400  1.0  0.1933
  C  C509  1  0.392200  0.039000  0.784400  1.0  0.2387
  C  C510  1  0.352300  0.028300  0.809700  1.0  0.0617
  C  C511  1  0.505600  0.060800  0.716800  1.0  0.0809
  C  C512  1  0.853400  0.853400  0.274000  1.0  -0.0926
  C  C513  1  0.735400  0.735400  0.464200  1.0  0.1912
  C  C514  1  0.784400  0.784400  0.392200  1.0  0.24
  C  C515  1  0.809700  0.809700  0.352300  1.0  0.0628
  C  C516  1  0.716800  0.716800  0.505600  1.0  0.0783
  C  C517  1  0.980800  0.146600  0.726000  1.0  -0.0922
  C  C518  1  0.935000  0.264600  0.535800  1.0  0.1904
  C  C519  1  0.961000  0.215600  0.607800  1.0  0.2394
  C  C520  1  0.971700  0.190300  0.647700  1.0  0.0618
  C  C521  1  0.939200  0.283200  0.494400  1.0  0.0803
  C  C522  1  0.146600  0.980800  0.146600  1.0  -0.093
  C  C523  1  0.264600  0.935000  0.264600  1.0  0.1932
  C  C524  1  0.215600  0.961000  0.215600  1.0  0.2398
  C  C525  1  0.190300  0.971700  0.190300  1.0  0.0625
  C  C526  1  0.283200  0.939200  0.283200  1.0  0.0798
  C  C527  1  0.146600  0.726000  0.146600  1.0  -0.0943
  C  C528  1  0.264600  0.535800  0.264600  1.0  0.1934
  C  C529  1  0.215600  0.607800  0.215600  1.0  0.241
  C  C530  1  0.190300  0.647700  0.190300  1.0  0.063
  C  C531  1  0.283200  0.494400  0.283200  1.0  0.0823
  C  C532  1  0.726000  0.146600  0.980800  1.0  -0.0928
  C  C533  1  0.535800  0.264600  0.935000  1.0  0.1937
  C  C534  1  0.607800  0.215600  0.961000  1.0  0.239
  C  C535  1  0.647700  0.190300  0.971700  1.0  0.0605
  C  C536  1  0.494400  0.283200  0.939200  1.0  0.0802
  C  C537  1  0.726000  0.146600  0.146600  1.0  -0.0927
  C  C538  1  0.535800  0.264600  0.264600  1.0  0.1936
  C  C539  1  0.607800  0.215600  0.215600  1.0  0.2392
  C  C540  1  0.647700  0.190300  0.190300  1.0  0.0607
  C  C541  1  0.494400  0.283200  0.283200  1.0  0.0811
  C  C542  1  0.146600  0.980800  0.726000  1.0  -0.0938
  C  C543  1  0.264600  0.935000  0.535800  1.0  0.1932
  C  C544  1  0.215600  0.961000  0.607800  1.0  0.2403
  C  C545  1  0.190300  0.971700  0.647700  1.0  0.0625
  C  C546  1  0.283200  0.939200  0.494400  1.0  0.08
  C  C547  1  0.146600  0.726000  0.980800  1.0  -0.0946
  C  C548  1  0.264600  0.535800  0.935000  1.0  0.1934
  C  C549  1  0.215600  0.607800  0.961000  1.0  0.2407
  C  C550  1  0.190300  0.647700  0.971700  1.0  0.063
  C  C551  1  0.283200  0.494400  0.939200  1.0  0.081
  C  C552  1  0.980800  0.146600  0.146600  1.0  -0.092
  C  C553  1  0.935000  0.264600  0.264600  1.0  0.1904
  C  C554  1  0.961000  0.215600  0.215600  1.0  0.2389
  C  C555  1  0.971700  0.190300  0.190300  1.0  0.0617
  C  C556  1  0.939200  0.283200  0.283200  1.0  0.08
  C  C557  1  0.146600  0.146600  0.980800  1.0  -0.0924
  C  C558  1  0.264600  0.264600  0.935000  1.0  0.1947
  C  C559  1  0.215600  0.215600  0.961000  1.0  0.2399
  C  C560  1  0.190300  0.190300  0.971700  1.0  0.0629
  C  C561  1  0.283200  0.283200  0.939200  1.0  0.0786
  C  C562  1  0.726000  0.980800  0.146600  1.0  -0.0904
  C  C563  1  0.535800  0.935000  0.264600  1.0  0.1919
  C  C564  1  0.607800  0.961000  0.215600  1.0  0.2393
  C  C565  1  0.647700  0.971700  0.190300  1.0  0.0619
  C  C566  1  0.494400  0.939200  0.283200  1.0  0.0812
  C  C567  1  0.980800  0.726000  0.146600  1.0  -0.0927
  C  C568  1  0.935000  0.535800  0.264600  1.0  0.1904
  C  C569  1  0.961000  0.607800  0.215600  1.0  0.2407
  C  C570  1  0.971700  0.647700  0.190300  1.0  0.063
  C  C571  1  0.939200  0.494400  0.283200  1.0  0.0814
  C  C572  1  0.146600  0.146600  0.726000  1.0  -0.0923
  C  C573  1  0.264600  0.264600  0.535800  1.0  0.1947
  C  C574  1  0.215600  0.215600  0.607800  1.0  0.2401
  C  C575  1  0.190300  0.190300  0.647700  1.0  0.0631
  C  C576  1  0.283200  0.283200  0.494400  1.0  0.0799
  N  N577  1  0.674700  0.064500  0.530100  1.0  -0.1554
  N  N578  1  0.666667  0.068100  0.563700  1.0  -0.0977
  N  N579  1  0.064500  0.674700  0.730700  1.0  -0.1579
  N  N580  1  0.068100  0.666667  0.701500  1.0  -0.0812
  N  N581  1  0.530100  0.730700  0.674700  1.0  -0.1555
  N  N582  1  0.563700  0.701500  0.666667  1.0  -0.0945
  N  N583  1  0.730700  0.530100  0.064500  1.0  -0.1509
  N  N584  1  0.701500  0.563700  0.068100  1.0  -0.0932
  N  N585  1  0.674700  0.530100  0.730700  1.0  -0.1549
  N  N586  1  0.666667  0.563700  0.701500  1.0  -0.0939
  N  N587  1  0.064500  0.730700  0.530100  1.0  -0.1499
  N  N588  1  0.068100  0.701500  0.563700  1.0  -0.0915
  N  N589  1  0.530100  0.674700  0.064500  1.0  -0.1557
  N  N590  1  0.563700  0.666667  0.068100  1.0  -0.1008
  N  N591  1  0.730700  0.064500  0.674700  1.0  -0.1559
  N  N592  1  0.701500  0.068100  0.666667  1.0  -0.0806
  N  N593  1  0.674700  0.730700  0.064500  1.0  -0.1582
  N  N594  1  0.666667  0.701500  0.068100  1.0  -0.082
  N  N595  1  0.064500  0.530100  0.674700  1.0  -0.1536
  N  N596  1  0.068100  0.563700  0.666667  1.0  -0.0991
  N  N597  1  0.530100  0.064500  0.730700  1.0  -0.1506
  N  N598  1  0.563700  0.068100  0.701500  1.0  -0.0894
  N  N599  1  0.730700  0.674700  0.530100  1.0  -0.1567
  N  N600  1  0.701500  0.666667  0.563700  1.0  -0.0967
  N  N601  1  0.935500  0.325300  0.469900  1.0  -0.1542
  N  N602  1  0.931900  0.333333  0.436300  1.0  -0.099
  N  N603  1  0.325300  0.935500  0.269300  1.0  -0.1579
  N  N604  1  0.333333  0.931900  0.298500  1.0  -0.0822
  N  N605  1  0.269300  0.469900  0.325300  1.0  -0.1541
  N  N606  1  0.298500  0.436300  0.333333  1.0  -0.0893
  N  N607  1  0.469900  0.269300  0.935500  1.0  -0.1529
  N  N608  1  0.436300  0.298500  0.931900  1.0  -0.0946
  N  N609  1  0.469900  0.325300  0.269300  1.0  -0.1573
  N  N610  1  0.436300  0.333333  0.298500  1.0  -0.0915
  N  N611  1  0.269300  0.935500  0.469900  1.0  -0.1497
  N  N612  1  0.298500  0.931900  0.436300  1.0  -0.0901
  N  N613  1  0.325300  0.469900  0.935500  1.0  -0.1521
  N  N614  1  0.333333  0.436300  0.931900  1.0  -0.0995
  N  N615  1  0.935500  0.269300  0.325300  1.0  -0.1564
  N  N616  1  0.931900  0.298500  0.333333  1.0  -0.0804
  N  N617  1  0.269300  0.325300  0.935500  1.0  -0.1579
  N  N618  1  0.298500  0.333333  0.931900  1.0  -0.084
  N  N619  1  0.469900  0.935500  0.325300  1.0  -0.1498
  N  N620  1  0.436300  0.931900  0.333333  1.0  -0.0973
  N  N621  1  0.935500  0.469900  0.269300  1.0  -0.153
  N  N622  1  0.931900  0.436300  0.298500  1.0  -0.0932
  N  N623  1  0.325300  0.269300  0.469900  1.0  -0.1584
  N  N624  1  0.333333  0.298500  0.436300  1.0  -0.0893
  N  N625  1  0.325300  0.935500  0.469900  1.0  -0.1531
  N  N626  1  0.333333  0.931900  0.436300  1.0  -0.0976
  N  N627  1  0.935500  0.325300  0.269300  1.0  -0.1595
  N  N628  1  0.931900  0.333333  0.298500  1.0  -0.0803
  N  N629  1  0.469900  0.269300  0.325300  1.0  -0.1556
  N  N630  1  0.436300  0.298500  0.333333  1.0  -0.09
  N  N631  1  0.269300  0.469900  0.935500  1.0  -0.1504
  N  N632  1  0.298500  0.436300  0.931900  1.0  -0.0932
  N  N633  1  0.325300  0.469900  0.269300  1.0  -0.1558
  N  N634  1  0.333333  0.436300  0.298500  1.0  -0.0907
  N  N635  1  0.935500  0.269300  0.469900  1.0  -0.1521
  N  N636  1  0.931900  0.298500  0.436300  1.0  -0.0921
  N  N637  1  0.469900  0.325300  0.935500  1.0  -0.1522
  N  N638  1  0.436300  0.333333  0.931900  1.0  -0.1008
  N  N639  1  0.269300  0.935500  0.325300  1.0  -0.1546
  N  N640  1  0.298500  0.931900  0.333333  1.0  -0.079
  N  N641  1  0.325300  0.269300  0.935500  1.0  -0.1583
  N  N642  1  0.333333  0.298500  0.931900  1.0  -0.0831
  N  N643  1  0.935500  0.469900  0.325300  1.0  -0.1486
  N  N644  1  0.931900  0.436300  0.333333  1.0  -0.0987
  N  N645  1  0.469900  0.935500  0.269300  1.0  -0.1532
  N  N646  1  0.436300  0.931900  0.298500  1.0  -0.0919
  N  N647  1  0.269300  0.325300  0.469900  1.0  -0.1567
  N  N648  1  0.298500  0.333333  0.436300  1.0  -0.0914
  N  N649  1  0.064500  0.674700  0.530100  1.0  -0.156
  N  N650  1  0.068100  0.666667  0.563700  1.0  -0.0989
  N  N651  1  0.674700  0.064500  0.730700  1.0  -0.156
  N  N652  1  0.666667  0.068100  0.701500  1.0  -0.0828
  N  N653  1  0.730700  0.530100  0.674700  1.0  -0.1544
  N  N654  1  0.701500  0.563700  0.666667  1.0  -0.0947
  N  N655  1  0.530100  0.730700  0.064500  1.0  -0.1514
  N  N656  1  0.563700  0.701500  0.068100  1.0  -0.0935
  N  N657  1  0.530100  0.674700  0.730700  1.0  -0.1581
  N  N658  1  0.563700  0.666667  0.701500  1.0  -0.0948
  N  N659  1  0.730700  0.064500  0.530100  1.0  -0.1493
  N  N660  1  0.701500  0.068100  0.563700  1.0  -0.0905
  N  N661  1  0.674700  0.530100  0.064500  1.0  -0.1531
  N  N662  1  0.666667  0.563700  0.068100  1.0  -0.099
  N  N663  1  0.064500  0.730700  0.674700  1.0  -0.1567
  N  N664  1  0.068100  0.701500  0.666667  1.0  -0.0804
  N  N665  1  0.730700  0.674700  0.064500  1.0  -0.1567
  N  N666  1  0.701500  0.666667  0.068100  1.0  -0.0838
  N  N667  1  0.530100  0.064500  0.674700  1.0  -0.1533
  N  N668  1  0.563700  0.068100  0.666667  1.0  -0.0977
  N  N669  1  0.064500  0.530100  0.730700  1.0  -0.1487
  N  N670  1  0.068100  0.563700  0.701500  1.0  -0.0916
  N  N671  1  0.674700  0.730700  0.530100  1.0  -0.1573
  N  N672  1  0.666667  0.701500  0.563700  1.0  -0.0942
  O  O673  1  0.756690  0.009510  0.294810  1.0  -0.5712
  O  O674  1  0.814560  0.010860  0.233540  1.0  -0.5781
  O  O675  1  0.009510  0.756690  0.938990  1.0  -0.5721
  O  O676  1  0.010860  0.814560  0.941040  1.0  -0.5813
  O  O677  1  0.294810  0.938990  0.756690  1.0  -0.57
  O  O678  1  0.233540  0.941040  0.814560  1.0  -0.577
  O  O679  1  0.938990  0.294810  0.009510  1.0  -0.5726
  O  O680  1  0.941040  0.233540  0.010860  1.0  -0.5785
  O  O681  1  0.756690  0.294810  0.938990  1.0  -0.5744
  O  O682  1  0.814560  0.233540  0.941040  1.0  -0.5779
  O  O683  1  0.009510  0.938990  0.294810  1.0  -0.571
  O  O684  1  0.010860  0.941040  0.233540  1.0  -0.5794
  O  O685  1  0.294810  0.756690  0.009510  1.0  -0.574
  O  O686  1  0.233540  0.814560  0.010860  1.0  -0.5795
  O  O687  1  0.938990  0.009510  0.756690  1.0  -0.5721
  O  O688  1  0.941040  0.010860  0.814560  1.0  -0.578
  O  O689  1  0.756690  0.938990  0.009510  1.0  -0.5712
  O  O690  1  0.814560  0.941040  0.010860  1.0  -0.5772
  O  O691  1  0.009510  0.294810  0.756690  1.0  -0.573
  O  O692  1  0.010860  0.233540  0.814560  1.0  -0.5789
  O  O693  1  0.294810  0.009510  0.938990  1.0  -0.5708
  O  O694  1  0.233540  0.010860  0.941040  1.0  -0.5764
  O  O695  1  0.938990  0.756690  0.294810  1.0  -0.5725
  O  O696  1  0.941040  0.814560  0.233540  1.0  -0.5809
  O  O697  1  0.990490  0.243310  0.705190  1.0  -0.5723
  O  O698  1  0.989140  0.185440  0.766460  1.0  -0.58
  O  O699  1  0.243310  0.990490  0.061010  1.0  -0.5705
  O  O700  1  0.185440  0.989140  0.058960  1.0  -0.5773
  O  O701  1  0.061010  0.705190  0.243310  1.0  -0.5729
  O  O702  1  0.058960  0.766460  0.185440  1.0  -0.5799
  O  O703  1  0.705190  0.061010  0.990490  1.0  -0.5707
  O  O704  1  0.766460  0.058960  0.989140  1.0  -0.5776
  O  O705  1  0.705190  0.243310  0.061010  1.0  -0.574
  O  O706  1  0.766460  0.185440  0.058960  1.0  -0.5794
  O  O707  1  0.061010  0.990490  0.705190  1.0  -0.572
  O  O708  1  0.058960  0.989140  0.766460  1.0  -0.5788
  O  O709  1  0.243310  0.705190  0.990490  1.0  -0.573
  O  O710  1  0.185440  0.766460  0.989140  1.0  -0.579
  O  O711  1  0.990490  0.061010  0.243310  1.0  -0.5709
  O  O712  1  0.989140  0.058960  0.185440  1.0  -0.5798
  O  O713  1  0.061010  0.243310  0.990490  1.0  -0.572
  O  O714  1  0.058960  0.185440  0.989140  1.0  -0.5793
  O  O715  1  0.705190  0.990490  0.243310  1.0  -0.5707
  O  O716  1  0.766460  0.989140  0.185440  1.0  -0.5767
  O  O717  1  0.990490  0.705190  0.061010  1.0  -0.5724
  O  O718  1  0.989140  0.766460  0.058960  1.0  -0.5797
  O  O719  1  0.243310  0.061010  0.705190  1.0  -0.5711
  O  O720  1  0.185440  0.058960  0.766460  1.0  -0.5772
  O  O721  1  0.243310  0.990490  0.705190  1.0  -0.5709
  O  O722  1  0.185440  0.989140  0.766460  1.0  -0.5752
  O  O723  1  0.990490  0.243310  0.061010  1.0  -0.572
  O  O724  1  0.989140  0.185440  0.058960  1.0  -0.5786
  O  O725  1  0.705190  0.061010  0.243310  1.0  -0.5709
  O  O726  1  0.766460  0.058960  0.185440  1.0  -0.5778
  O  O727  1  0.061010  0.705190  0.990490  1.0  -0.5727
  O  O728  1  0.058960  0.766460  0.989140  1.0  -0.5801
  O  O729  1  0.243310  0.705190  0.061010  1.0  -0.5732
  O  O730  1  0.185440  0.766460  0.058960  1.0  -0.578
  O  O731  1  0.990490  0.061010  0.705190  1.0  -0.5715
  O  O732  1  0.989140  0.058960  0.766460  1.0  -0.5787
  O  O733  1  0.705190  0.243310  0.990490  1.0  -0.5737
  O  O734  1  0.766460  0.185440  0.989140  1.0  -0.579
  O  O735  1  0.061010  0.990490  0.243310  1.0  -0.5719
  O  O736  1  0.058960  0.989140  0.185440  1.0  -0.5799
  O  O737  1  0.243310  0.061010  0.990490  1.0  -0.5713
  O  O738  1  0.185440  0.058960  0.989140  1.0  -0.5784
  O  O739  1  0.990490  0.705190  0.243310  1.0  -0.5725
  O  O740  1  0.989140  0.766460  0.185440  1.0  -0.5802
  O  O741  1  0.705190  0.990490  0.061010  1.0  -0.5713
  O  O742  1  0.766460  0.989140  0.058960  1.0  -0.5749
  O  O743  1  0.061010  0.243310  0.705190  1.0  -0.5722
  O  O744  1  0.058960  0.185440  0.766460  1.0  -0.5793
  O  O745  1  0.009510  0.756690  0.294810  1.0  -0.5724
  O  O746  1  0.010860  0.814560  0.233540  1.0  -0.5817
  O  O747  1  0.756690  0.009510  0.938990  1.0  -0.5716
  O  O748  1  0.814560  0.010860  0.941040  1.0  -0.5786
  O  O749  1  0.938990  0.294810  0.756690  1.0  -0.5727
  O  O750  1  0.941040  0.233540  0.814560  1.0  -0.579
  O  O751  1  0.294810  0.938990  0.009510  1.0  -0.5702
  O  O752  1  0.233540  0.941040  0.010860  1.0  -0.5782
  O  O753  1  0.294810  0.756690  0.938990  1.0  -0.5739
  O  O754  1  0.233540  0.814560  0.941040  1.0  -0.5797
  O  O755  1  0.938990  0.009510  0.294810  1.0  -0.5719
  O  O756  1  0.941040  0.010860  0.233540  1.0  -0.5792
  O  O757  1  0.756690  0.294810  0.009510  1.0  -0.5747
  O  O758  1  0.814560  0.233540  0.010860  1.0  -0.5788
  O  O759  1  0.009510  0.938990  0.756690  1.0  -0.5708
  O  O760  1  0.010860  0.941040  0.814560  1.0  -0.5783
  O  O761  1  0.938990  0.756690  0.009510  1.0  -0.5724
  O  O762  1  0.941040  0.814560  0.010860  1.0  -0.5811
  O  O763  1  0.294810  0.009510  0.756690  1.0  -0.5706
  O  O764  1  0.233540  0.010860  0.814560  1.0  -0.5758
  O  O765  1  0.009510  0.294810  0.938990  1.0  -0.5732
  O  O766  1  0.010860  0.233540  0.941040  1.0  -0.579
  O  O767  1  0.756690  0.938990  0.294810  1.0  -0.5709
  O  O768  1  0.814560  0.941040  0.233540  1.0  -0.5773
  O  O769  1  0.630800  0.107600  0.630800  1.0  -0.8247
  O  O770  1  0.107600  0.630800  0.630800  1.0  -0.8213
  O  O771  1  0.630800  0.630800  0.630800  1.0  -0.8
  O  O772  1  0.630800  0.630800  0.107600  1.0  -0.8232
  O  O773  1  0.892400  0.369200  0.369200  1.0  -0.8258
  O  O774  1  0.369200  0.892400  0.369200  1.0  -0.824
  O  O775  1  0.369200  0.369200  0.369200  1.0  -0.7988
  O  O776  1  0.369200  0.369200  0.892400  1.0  -0.8219
