# generated using pymatgen
data_ZnH10C17N2O5
_symmetry_space_group_name_H-M   'P 1'
_cell_length_a   40.16230000
_cell_length_b   40.16230000
_cell_length_c   40.16230000
_cell_angle_alpha   60.00000000
_cell_angle_beta   60.00000000
_cell_angle_gamma   60.00000000
_symmetry_Int_Tables_number   1
_chemical_formula_structural   ZnH10C17N2O5
_chemical_formula_sum   'Zn24 H240 C408 N48 O120'
_cell_volume   45807.93661835
_cell_formula_units_Z   24
loop_
 _symmetry_equiv_pos_site_id
 _symmetry_equiv_pos_as_xyz
  1  'x, y, z'
loop_
 _atom_site_type_symbol
 _atom_site_label
 _atom_site_symmetry_multiplicity
 _atom_site_fract_x
 _atom_site_fract_y
 _atom_site_fract_z
 _atom_site_occupancy
 _atom_site_charge
  Zn  Zn1  1  0.304100  0.695900  0.497780  1.0  1.1338
  Zn  Zn2  1  0.229890  0.770110  0.501390  1.0  1.0768
  Zn  Zn3  1  0.695900  0.304100  0.502220  1.0  1.1355
  Zn  Zn4  1  0.770110  0.229890  0.498610  1.0  1.0775
  Zn  Zn5  1  0.497780  0.502220  0.304100  1.0  1.1329
  Zn  Zn6  1  0.501390  0.498610  0.229890  1.0  1.076
  Zn  Zn7  1  0.502220  0.497780  0.695900  1.0  1.1331
  Zn  Zn8  1  0.498610  0.501390  0.770110  1.0  1.0698
  Zn  Zn9  1  0.304100  0.497780  0.502220  1.0  1.1374
  Zn  Zn10  1  0.229890  0.501390  0.498610  1.0  1.0773
  Zn  Zn11  1  0.695900  0.502220  0.497780  1.0  1.1382
  Zn  Zn12  1  0.770110  0.498610  0.501390  1.0  1.0796
  Zn  Zn13  1  0.497780  0.304100  0.695900  1.0  1.1341
  Zn  Zn14  1  0.501390  0.229890  0.770110  1.0  1.0803
  Zn  Zn15  1  0.502220  0.695900  0.304100  1.0  1.1333
  Zn  Zn16  1  0.498610  0.770110  0.229890  1.0  1.0769
  Zn  Zn17  1  0.304100  0.502220  0.695900  1.0  1.1386
  Zn  Zn18  1  0.229890  0.498610  0.770110  1.0  1.0799
  Zn  Zn19  1  0.695900  0.497780  0.304100  1.0  1.1401
  Zn  Zn20  1  0.770110  0.501390  0.229890  1.0  1.0807
  Zn  Zn21  1  0.497780  0.695900  0.502220  1.0  1.136
  Zn  Zn22  1  0.501390  0.770110  0.498610  1.0  1.0773
  Zn  Zn23  1  0.502220  0.304100  0.497780  1.0  1.1353
  Zn  Zn24  1  0.498610  0.229890  0.501390  1.0  1.0791
  H  H25  1  0.376300  0.739500  0.374900  1.0  0.1199
  H  H26  1  0.377200  0.832400  0.269800  1.0  0.122
  H  H27  1  0.275800  0.839800  0.367400  1.0  0.1268
  H  H28  1  0.192600  0.932400  0.311000  1.0  0.134
  H  H29  1  0.160900  0.996700  0.272100  1.0  0.1131
  H  H30  1  0.269700  0.007100  0.192100  1.0  0.1054
  H  H31  1  0.303200  0.941200  0.231400  1.0  0.1148
  H  H32  1  0.222100  0.059100  0.149100  1.0  0.0847
  H  H33  1  0.231900  0.072700  0.173700  1.0  0.0819
  H  H34  1  0.215200  0.134200  0.102200  1.0  0.1195
  H  H35  1  0.739500  0.376300  0.509300  1.0  0.121
  H  H36  1  0.832400  0.377200  0.520600  1.0  0.1225
  H  H37  1  0.839800  0.275800  0.517000  1.0  0.1287
  H  H38  1  0.932400  0.192600  0.564000  1.0  0.1342
  H  H39  1  0.996700  0.160900  0.570300  1.0  0.1122
  H  H40  1  0.007100  0.269700  0.531100  1.0  0.1047
  H  H41  1  0.941200  0.303200  0.524200  1.0  0.1154
  H  H42  1  0.059100  0.222100  0.569700  1.0  0.085
  H  H43  1  0.072700  0.231900  0.521700  1.0  0.0811
  H  H44  1  0.134200  0.215200  0.548400  1.0  0.1189
  H  H45  1  0.374900  0.509300  0.376300  1.0  0.1204
  H  H46  1  0.269800  0.520600  0.377200  1.0  0.1242
  H  H47  1  0.367400  0.517000  0.275800  1.0  0.1283
  H  H48  1  0.311000  0.564000  0.192600  1.0  0.133
  H  H49  1  0.272100  0.570300  0.160900  1.0  0.11
  H  H50  1  0.192100  0.531100  0.269700  1.0  0.1051
  H  H51  1  0.231400  0.524200  0.303200  1.0  0.1152
  H  H52  1  0.149100  0.569700  0.222100  1.0  0.0845
  H  H53  1  0.173700  0.521700  0.231900  1.0  0.0808
  H  H54  1  0.102200  0.548400  0.215200  1.0  0.1198
  H  H55  1  0.509300  0.374900  0.739500  1.0  0.1203
  H  H56  1  0.520600  0.269800  0.832400  1.0  0.1225
  H  H57  1  0.517000  0.367400  0.839800  1.0  0.127
  H  H58  1  0.564000  0.311000  0.932400  1.0  0.1343
  H  H59  1  0.570300  0.272100  0.996700  1.0  0.1095
  H  H60  1  0.531100  0.192100  0.007100  1.0  0.107
  H  H61  1  0.524200  0.231400  0.941200  1.0  0.1142
  H  H62  1  0.569700  0.149100  0.059100  1.0  0.0855
  H  H63  1  0.521700  0.173700  0.072700  1.0  0.0771
  H  H64  1  0.548400  0.102200  0.134200  1.0  0.1197
  H  H65  1  0.376300  0.374900  0.509300  1.0  0.1208
  H  H66  1  0.377200  0.269800  0.520600  1.0  0.1231
  H  H67  1  0.275800  0.367400  0.517000  1.0  0.1276
  H  H68  1  0.192600  0.311000  0.564000  1.0  0.1342
  H  H69  1  0.160900  0.272100  0.570300  1.0  0.1112
  H  H70  1  0.269700  0.192100  0.531100  1.0  0.1044
  H  H71  1  0.303200  0.231400  0.524200  1.0  0.1143
  H  H72  1  0.222100  0.149100  0.569700  1.0  0.0852
  H  H73  1  0.231900  0.173700  0.521700  1.0  0.0829
  H  H74  1  0.215200  0.102200  0.548400  1.0  0.1188
  H  H75  1  0.739500  0.509300  0.374900  1.0  0.1221
  H  H76  1  0.832400  0.520600  0.269800  1.0  0.1229
  H  H77  1  0.839800  0.517000  0.367400  1.0  0.1278
  H  H78  1  0.932400  0.564000  0.311000  1.0  0.1322
  H  H79  1  0.996700  0.570300  0.272100  1.0  0.1098
  H  H80  1  0.007100  0.531100  0.192100  1.0  0.1067
  H  H81  1  0.941200  0.524200  0.231400  1.0  0.1139
  H  H82  1  0.059100  0.569700  0.149100  1.0  0.0843
  H  H83  1  0.072700  0.521700  0.173700  1.0  0.0794
  H  H84  1  0.134200  0.548400  0.102200  1.0  0.1198
  H  H85  1  0.374900  0.376300  0.739500  1.0  0.1212
  H  H86  1  0.269800  0.377200  0.832400  1.0  0.1225
  H  H87  1  0.367400  0.275800  0.839800  1.0  0.129
  H  H88  1  0.311000  0.192600  0.932400  1.0  0.1341
  H  H89  1  0.272100  0.160900  0.996700  1.0  0.1126
  H  H90  1  0.192100  0.269700  0.007100  1.0  0.1061
  H  H91  1  0.231400  0.303200  0.941200  1.0  0.1155
  H  H92  1  0.149100  0.222100  0.059100  1.0  0.0828
  H  H93  1  0.173700  0.231900  0.072700  1.0  0.0818
  H  H94  1  0.102200  0.215200  0.134200  1.0  0.1199
  H  H95  1  0.509300  0.739500  0.376300  1.0  0.1214
  H  H96  1  0.520600  0.832400  0.377200  1.0  0.1229
  H  H97  1  0.517000  0.839800  0.275800  1.0  0.1276
  H  H98  1  0.564000  0.932400  0.192600  1.0  0.1335
  H  H99  1  0.570300  0.996700  0.160900  1.0  0.1114
  H  H100  1  0.531100  0.007100  0.269700  1.0  0.1066
  H  H101  1  0.524200  0.941200  0.303200  1.0  0.1146
  H  H102  1  0.569700  0.059100  0.222100  1.0  0.0853
  H  H103  1  0.521700  0.072700  0.231900  1.0  0.078
  H  H104  1  0.548400  0.134200  0.215200  1.0  0.1196
  H  H105  1  0.376300  0.509300  0.739500  1.0  0.1215
  H  H106  1  0.377200  0.520600  0.832400  1.0  0.1226
  H  H107  1  0.275800  0.517000  0.839800  1.0  0.1276
  H  H108  1  0.192600  0.564000  0.932400  1.0  0.133
  H  H109  1  0.160900  0.570300  0.996700  1.0  0.1124
  H  H110  1  0.269700  0.531100  0.007100  1.0  0.1046
  H  H111  1  0.303200  0.524200  0.941200  1.0  0.1153
  H  H112  1  0.222100  0.569700  0.059100  1.0  0.084
  H  H113  1  0.231900  0.521700  0.072700  1.0  0.0805
  H  H114  1  0.215200  0.548400  0.134200  1.0  0.1193
  H  H115  1  0.739500  0.374900  0.376300  1.0  0.1204
  H  H116  1  0.832400  0.269800  0.377200  1.0  0.1226
  H  H117  1  0.839800  0.367400  0.275800  1.0  0.1271
  H  H118  1  0.932400  0.311000  0.192600  1.0  0.1355
  H  H119  1  0.996700  0.272100  0.160900  1.0  0.1115
  H  H120  1  0.007100  0.192100  0.269700  1.0  0.1065
  H  H121  1  0.941200  0.231400  0.303200  1.0  0.1148
  H  H122  1  0.059100  0.149100  0.222100  1.0  0.0851
  H  H123  1  0.072700  0.173700  0.231900  1.0  0.0845
  H  H124  1  0.134200  0.102200  0.215200  1.0  0.1194
  H  H125  1  0.374900  0.739500  0.509300  1.0  0.1204
  H  H126  1  0.269800  0.832400  0.520600  1.0  0.1221
  H  H127  1  0.367400  0.839800  0.517000  1.0  0.1271
  H  H128  1  0.311000  0.932400  0.564000  1.0  0.1331
  H  H129  1  0.272100  0.996700  0.570300  1.0  0.1099
  H  H130  1  0.192100  0.007100  0.531100  1.0  0.1066
  H  H131  1  0.231400  0.941200  0.524200  1.0  0.1142
  H  H132  1  0.149100  0.059100  0.569700  1.0  0.0751
  H  H133  1  0.173700  0.072700  0.521700  1.0  0.084
  H  H134  1  0.102200  0.134200  0.548400  1.0  0.1191
  H  H135  1  0.509300  0.376300  0.374900  1.0  0.1199
  H  H136  1  0.520600  0.377200  0.269800  1.0  0.1224
  H  H137  1  0.517000  0.275800  0.367400  1.0  0.1292
  H  H138  1  0.564000  0.192600  0.311000  1.0  0.1324
  H  H139  1  0.570300  0.160900  0.272100  1.0  0.1128
  H  H140  1  0.531100  0.269700  0.192100  1.0  0.1055
  H  H141  1  0.524200  0.303200  0.231400  1.0  0.116
  H  H142  1  0.569700  0.222100  0.149100  1.0  0.0796
  H  H143  1  0.521700  0.231900  0.173700  1.0  0.082
  H  H144  1  0.548400  0.215200  0.102200  1.0  0.1197
  H  H145  1  0.623700  0.260500  0.625100  1.0  0.12
  H  H146  1  0.622800  0.167600  0.730200  1.0  0.1229
  H  H147  1  0.724200  0.160200  0.632600  1.0  0.127
  H  H148  1  0.807400  0.067600  0.689000  1.0  0.1346
  H  H149  1  0.839100  0.003300  0.727900  1.0  0.1121
  H  H150  1  0.730300  0.992900  0.807900  1.0  0.1056
  H  H151  1  0.696800  0.058800  0.768600  1.0  0.1143
  H  H152  1  0.777900  0.940900  0.850900  1.0  0.0842
  H  H153  1  0.768100  0.927300  0.826300  1.0  0.081
  H  H154  1  0.784800  0.865800  0.897800  1.0  0.1188
  H  H155  1  0.260500  0.623700  0.490700  1.0  0.1203
  H  H156  1  0.167600  0.622800  0.479400  1.0  0.1224
  H  H157  1  0.160200  0.724200  0.483000  1.0  0.1283
  H  H158  1  0.067600  0.807400  0.436000  1.0  0.135
  H  H159  1  0.003300  0.839100  0.429700  1.0  0.1132
  H  H160  1  0.992900  0.730300  0.468900  1.0  0.1044
  H  H161  1  0.058800  0.696800  0.475800  1.0  0.1153
  H  H162  1  0.940900  0.777900  0.430300  1.0  0.0861
  H  H163  1  0.927300  0.768100  0.478300  1.0  0.0821
  H  H164  1  0.865800  0.784800  0.451600  1.0  0.1198
  H  H165  1  0.625100  0.490700  0.623700  1.0  0.1216
  H  H166  1  0.730200  0.479400  0.622800  1.0  0.1223
  H  H167  1  0.632600  0.483000  0.724200  1.0  0.1279
  H  H168  1  0.689000  0.436000  0.807400  1.0  0.1331
  H  H169  1  0.727900  0.429700  0.839100  1.0  0.1102
  H  H170  1  0.807900  0.468900  0.730300  1.0  0.106
  H  H171  1  0.768600  0.475800  0.696800  1.0  0.1147
  H  H172  1  0.850900  0.430300  0.777900  1.0  0.0851
  H  H173  1  0.826300  0.478300  0.768100  1.0  0.0801
  H  H174  1  0.897800  0.451600  0.784800  1.0  0.1193
  H  H175  1  0.490700  0.625100  0.260500  1.0  0.1199
  H  H176  1  0.479400  0.730200  0.167600  1.0  0.1222
  H  H177  1  0.483000  0.632600  0.160200  1.0  0.1276
  H  H178  1  0.436000  0.689000  0.067600  1.0  0.1339
  H  H179  1  0.429700  0.727900  0.003300  1.0  0.1091
  H  H180  1  0.468900  0.807900  0.992900  1.0  0.1062
  H  H181  1  0.475800  0.768600  0.058800  1.0  0.1145
  H  H182  1  0.430300  0.850900  0.940900  1.0  0.0846
  H  H183  1  0.478300  0.826300  0.927300  1.0  0.0774
  H  H184  1  0.451600  0.897800  0.865800  1.0  0.1202
  H  H185  1  0.623700  0.625100  0.490700  1.0  0.1209
  H  H186  1  0.622800  0.730200  0.479400  1.0  0.1224
  H  H187  1  0.724200  0.632600  0.483000  1.0  0.1276
  H  H188  1  0.807400  0.689000  0.436000  1.0  0.1334
  H  H189  1  0.839100  0.727900  0.429700  1.0  0.1106
  H  H190  1  0.730300  0.807900  0.468900  1.0  0.1042
  H  H191  1  0.696800  0.768600  0.475800  1.0  0.1141
  H  H192  1  0.777900  0.850900  0.430300  1.0  0.0833
  H  H193  1  0.768100  0.826300  0.478300  1.0  0.0822
  H  H194  1  0.784800  0.897800  0.451600  1.0  0.1195
  H  H195  1  0.260500  0.490700  0.625100  1.0  0.1222
  H  H196  1  0.167600  0.479400  0.730200  1.0  0.1228
  H  H197  1  0.160200  0.483000  0.632600  1.0  0.1285
  H  H198  1  0.067600  0.436000  0.689000  1.0  0.1325
  H  H199  1  0.003300  0.429700  0.727900  1.0  0.1093
  H  H200  1  0.992900  0.468900  0.807900  1.0  0.1075
  H  H201  1  0.058800  0.475800  0.768600  1.0  0.115
  H  H202  1  0.940900  0.430300  0.850900  1.0  0.0863
  H  H203  1  0.927300  0.478300  0.826300  1.0  0.0799
  H  H204  1  0.865800  0.451600  0.897800  1.0  0.1199
  H  H205  1  0.625100  0.623700  0.260500  1.0  0.121
  H  H206  1  0.730200  0.622800  0.167600  1.0  0.1221
  H  H207  1  0.632600  0.724200  0.160200  1.0  0.1292
  H  H208  1  0.689000  0.807400  0.067600  1.0  0.1347
  H  H209  1  0.727900  0.839100  0.003300  1.0  0.1133
  H  H210  1  0.807900  0.730300  0.992900  1.0  0.1057
  H  H211  1  0.768600  0.696800  0.058800  1.0  0.1154
  H  H212  1  0.850900  0.777900  0.940900  1.0  0.0836
  H  H213  1  0.826300  0.768100  0.927300  1.0  0.0824
  H  H214  1  0.897800  0.784800  0.865800  1.0  0.1197
  H  H215  1  0.490700  0.260500  0.623700  1.0  0.1203
  H  H216  1  0.479400  0.167600  0.622800  1.0  0.1231
  H  H217  1  0.483000  0.160200  0.724200  1.0  0.1274
  H  H218  1  0.436000  0.067600  0.807400  1.0  0.1331
  H  H219  1  0.429700  0.003300  0.839100  1.0  0.1117
  H  H220  1  0.468900  0.992900  0.730300  1.0  0.1058
  H  H221  1  0.475800  0.058800  0.696800  1.0  0.1142
  H  H222  1  0.430300  0.940900  0.777900  1.0  0.0854
  H  H223  1  0.478300  0.927300  0.768100  1.0  0.0765
  H  H224  1  0.451600  0.865800  0.784800  1.0  0.1197
  H  H225  1  0.623700  0.490700  0.260500  1.0  0.121
  H  H226  1  0.622800  0.479400  0.167600  1.0  0.1229
  H  H227  1  0.724200  0.483000  0.160200  1.0  0.1287
  H  H228  1  0.807400  0.436000  0.067600  1.0  0.1323
  H  H229  1  0.839100  0.429700  0.003300  1.0  0.1121
  H  H230  1  0.730300  0.468900  0.992900  1.0  0.1044
  H  H231  1  0.696800  0.475800  0.058800  1.0  0.1146
  H  H232  1  0.777900  0.430300  0.940900  1.0  0.0856
  H  H233  1  0.768100  0.478300  0.927300  1.0  0.0805
  H  H234  1  0.784800  0.451600  0.865800  1.0  0.1185
  H  H235  1  0.260500  0.625100  0.623700  1.0  0.1206
  H  H236  1  0.167600  0.730200  0.622800  1.0  0.1223
  H  H237  1  0.160200  0.632600  0.724200  1.0  0.1274
  H  H238  1  0.067600  0.689000  0.807400  1.0  0.136
  H  H239  1  0.003300  0.727900  0.839100  1.0  0.1119
  H  H240  1  0.992900  0.807900  0.730300  1.0  0.1062
  H  H241  1  0.058800  0.768600  0.696800  1.0  0.1145
  H  H242  1  0.940900  0.850900  0.777900  1.0  0.0844
  H  H243  1  0.927300  0.826300  0.768100  1.0  0.0839
  H  H244  1  0.865800  0.897800  0.784800  1.0  0.119
  H  H245  1  0.625100  0.260500  0.490700  1.0  0.1199
  H  H246  1  0.730200  0.167600  0.479400  1.0  0.122
  H  H247  1  0.632600  0.160200  0.483000  1.0  0.1271
  H  H248  1  0.689000  0.067600  0.436000  1.0  0.1326
  H  H249  1  0.727900  0.003300  0.429700  1.0  0.1094
  H  H250  1  0.807900  0.992900  0.468900  1.0  0.1072
  H  H251  1  0.768600  0.058800  0.475800  1.0  0.1143
  H  H252  1  0.850900  0.940900  0.430300  1.0  0.08
  H  H253  1  0.826300  0.927300  0.478300  1.0  0.0842
  H  H254  1  0.897800  0.865800  0.451600  1.0  0.1196
  H  H255  1  0.490700  0.623700  0.625100  1.0  0.1212
  H  H256  1  0.479400  0.622800  0.730200  1.0  0.1224
  H  H257  1  0.483000  0.724200  0.632600  1.0  0.129
  H  H258  1  0.436000  0.807400  0.689000  1.0  0.1327
  H  H259  1  0.429700  0.839100  0.727900  1.0  0.1126
  H  H260  1  0.468900  0.730300  0.807900  1.0  0.1056
  H  H261  1  0.475800  0.696800  0.768600  1.0  0.1158
  H  H262  1  0.430300  0.777900  0.850900  1.0  0.0743
  H  H263  1  0.478300  0.768100  0.826300  1.0  0.0827
  H  H264  1  0.451600  0.784800  0.897800  1.0  0.1198
  C  C265  1  0.302600  0.766600  0.421400  1.0  0.7033
  C  C266  1  0.323210  0.786610  0.377590  1.0  -0.1527
  C  C267  1  0.362790  0.765770  0.359550  1.0  -0.0181
  C  C268  1  0.382720  0.782680  0.319680  1.0  -0.1168
  C  C269  1  0.426000  0.761200  0.298800  1.0  0.6904
  C  C270  1  0.363240  0.820580  0.297640  1.0  -0.0765
  C  C271  1  0.323700  0.841500  0.315500  1.0  0.1947
  C  C272  1  0.303160  0.825280  0.355120  1.0  -0.0444
  C  C273  1  0.250930  0.932070  0.273670  1.0  0.1692
  C  C274  1  0.208400  0.947600  0.286800  1.0  -0.1662
  C  C275  1  0.189900  0.985700  0.263500  1.0  -0.1984
  C  C276  1  0.212600  0.008400  0.227800  1.0  0.2817
  C  C277  1  0.253900  0.991900  0.216300  1.0  -0.15
  C  C278  1  0.274300  0.952500  0.239700  1.0  -0.1091
  C  C279  1  0.209900  0.070700  0.170900  1.0  0.0421
  C  C280  1  0.179100  0.112300  0.160100  1.0  0.1244
  C  C281  1  0.189000  0.140800  0.121800  1.0  -0.1907
  C  C282  1  0.766600  0.302600  0.509400  1.0  0.7031
  C  C283  1  0.786610  0.323210  0.512590  1.0  -0.1525
  C  C284  1  0.765770  0.362790  0.511890  1.0  -0.0184
  C  C285  1  0.782680  0.382720  0.514920  1.0  -0.1171
  C  C286  1  0.761200  0.426000  0.514000  1.0  0.6904
  C  C287  1  0.820580  0.363240  0.518540  1.0  -0.0746
  C  C288  1  0.841500  0.323700  0.519300  1.0  0.1939
  C  C289  1  0.825280  0.303160  0.516440  1.0  -0.0464
  C  C290  1  0.932070  0.250930  0.543330  1.0  0.1702
  C  C291  1  0.947600  0.208400  0.557200  1.0  -0.1674
  C  C292  1  0.985700  0.189900  0.560900  1.0  -0.197
  C  C293  1  0.008400  0.212600  0.551200  1.0  0.2846
  C  C294  1  0.991900  0.253900  0.537900  1.0  -0.1533
  C  C295  1  0.952500  0.274300  0.533500  1.0  -0.1099
  C  C296  1  0.070700  0.209900  0.548500  1.0  0.0429
  C  C297  1  0.112300  0.179100  0.548500  1.0  0.1245
  C  C298  1  0.140800  0.189000  0.548400  1.0  -0.1867
  C  C299  1  0.421400  0.509400  0.302600  1.0  0.7025
  C  C300  1  0.377590  0.512590  0.323210  1.0  -0.1506
  C  C301  1  0.359550  0.511890  0.362790  1.0  -0.0202
  C  C302  1  0.319680  0.514920  0.382720  1.0  -0.1161
  C  C303  1  0.298800  0.514000  0.426000  1.0  0.6919
  C  C304  1  0.297640  0.518540  0.363240  1.0  -0.0729
  C  C305  1  0.315500  0.519300  0.323700  1.0  0.1939
  C  C306  1  0.355120  0.516440  0.303160  1.0  -0.0467
  C  C307  1  0.273670  0.543330  0.250930  1.0  0.1694
  C  C308  1  0.286800  0.557200  0.208400  1.0  -0.1642
  C  C309  1  0.263500  0.560900  0.189900  1.0  -0.1956
  C  C310  1  0.227800  0.551200  0.212600  1.0  0.2847
  C  C311  1  0.216300  0.537900  0.253900  1.0  -0.1522
  C  C312  1  0.239700  0.533500  0.274300  1.0  -0.1127
  C  C313  1  0.170900  0.548500  0.209900  1.0  0.0414
  C  C314  1  0.160100  0.548500  0.179100  1.0  0.1247
  C  C315  1  0.121800  0.548400  0.189000  1.0  -0.1895
  C  C316  1  0.509400  0.421400  0.766600  1.0  0.7036
  C  C317  1  0.512590  0.377590  0.786610  1.0  -0.1525
  C  C318  1  0.511890  0.359550  0.765770  1.0  -0.0196
  C  C319  1  0.514920  0.319680  0.782680  1.0  -0.1165
  C  C320  1  0.514000  0.298800  0.761200  1.0  0.6917
  C  C321  1  0.518540  0.297640  0.820580  1.0  -0.0771
  C  C322  1  0.519300  0.315500  0.841500  1.0  0.1921
  C  C323  1  0.516440  0.355120  0.825280  1.0  -0.046
  C  C324  1  0.543330  0.273670  0.932070  1.0  0.1694
  C  C325  1  0.557200  0.286800  0.947600  1.0  -0.1678
  C  C326  1  0.560900  0.263500  0.985700  1.0  -0.1956
  C  C327  1  0.551200  0.227800  0.008400  1.0  0.2831
  C  C328  1  0.537900  0.216300  0.991900  1.0  -0.153
  C  C329  1  0.533500  0.239700  0.952500  1.0  -0.1122
  C  C330  1  0.548500  0.170900  0.070700  1.0  0.0428
  C  C331  1  0.548500  0.160100  0.112300  1.0  0.1245
  C  C332  1  0.548400  0.121800  0.140800  1.0  -0.1878
  C  C333  1  0.302600  0.421400  0.509400  1.0  0.7029
  C  C334  1  0.323210  0.377590  0.512590  1.0  -0.1523
  C  C335  1  0.362790  0.359550  0.511890  1.0  -0.0186
  C  C336  1  0.382720  0.319680  0.514920  1.0  -0.117
  C  C337  1  0.426000  0.298800  0.514000  1.0  0.6904
  C  C338  1  0.363240  0.297640  0.518540  1.0  -0.0767
  C  C339  1  0.323700  0.315500  0.519300  1.0  0.1924
  C  C340  1  0.303160  0.355120  0.516440  1.0  -0.0455
  C  C341  1  0.250930  0.273670  0.543330  1.0  0.1678
  C  C342  1  0.208400  0.286800  0.557200  1.0  -0.1693
  C  C343  1  0.189900  0.263500  0.560900  1.0  -0.1977
  C  C344  1  0.212600  0.227800  0.551200  1.0  0.2834
  C  C345  1  0.253900  0.216300  0.537900  1.0  -0.1519
  C  C346  1  0.274300  0.239700  0.533500  1.0  -0.1077
  C  C347  1  0.209900  0.170900  0.548500  1.0  0.0422
  C  C348  1  0.179100  0.160100  0.548500  1.0  0.1249
  C  C349  1  0.189000  0.121800  0.548400  1.0  -0.1894
  C  C350  1  0.766600  0.509400  0.421400  1.0  0.7053
  C  C351  1  0.786610  0.512590  0.377590  1.0  -0.1512
  C  C352  1  0.765770  0.511890  0.359550  1.0  -0.0192
  C  C353  1  0.782680  0.514920  0.319680  1.0  -0.1179
  C  C354  1  0.761200  0.514000  0.298800  1.0  0.6908
  C  C355  1  0.820580  0.518540  0.297640  1.0  -0.0755
  C  C356  1  0.841500  0.519300  0.315500  1.0  0.194
  C  C357  1  0.825280  0.516440  0.355120  1.0  -0.0449
  C  C358  1  0.932070  0.543330  0.273670  1.0  0.1709
  C  C359  1  0.947600  0.557200  0.286800  1.0  -0.1674
  C  C360  1  0.985700  0.560900  0.263500  1.0  -0.1945
  C  C361  1  0.008400  0.551200  0.227800  1.0  0.2836
  C  C362  1  0.991900  0.537900  0.216300  1.0  -0.1542
  C  C363  1  0.952500  0.533500  0.239700  1.0  -0.1122
  C  C364  1  0.070700  0.548500  0.170900  1.0  0.0435
  C  C365  1  0.112300  0.548500  0.160100  1.0  0.1239
  C  C366  1  0.140800  0.548400  0.121800  1.0  -0.1886
  C  C367  1  0.421400  0.302600  0.766600  1.0  0.7023
  C  C368  1  0.377590  0.323210  0.786610  1.0  -0.1514
  C  C369  1  0.359550  0.362790  0.765770  1.0  -0.0195
  C  C370  1  0.319680  0.382720  0.782680  1.0  -0.1165
  C  C371  1  0.298800  0.426000  0.761200  1.0  0.6904
  C  C372  1  0.297640  0.363240  0.820580  1.0  -0.075
  C  C373  1  0.315500  0.323700  0.841500  1.0  0.1922
  C  C374  1  0.355120  0.303160  0.825280  1.0  -0.0473
  C  C375  1  0.273670  0.250930  0.932070  1.0  0.1689
  C  C376  1  0.286800  0.208400  0.947600  1.0  -0.1673
  C  C377  1  0.263500  0.189900  0.985700  1.0  -0.1968
  C  C378  1  0.227800  0.212600  0.008400  1.0  0.2848
  C  C379  1  0.216300  0.253900  0.991900  1.0  -0.1557
  C  C380  1  0.239700  0.274300  0.952500  1.0  -0.1106
  C  C381  1  0.170900  0.209900  0.070700  1.0  0.0443
  C  C382  1  0.160100  0.179100  0.112300  1.0  0.1239
  C  C383  1  0.121800  0.189000  0.140800  1.0  -0.1874
  C  C384  1  0.509400  0.766600  0.302600  1.0  0.7043
  C  C385  1  0.512590  0.786610  0.323210  1.0  -0.1516
  C  C386  1  0.511890  0.765770  0.362790  1.0  -0.0179
  C  C387  1  0.514920  0.782680  0.382720  1.0  -0.1186
  C  C388  1  0.514000  0.761200  0.426000  1.0  0.6911
  C  C389  1  0.518540  0.820580  0.363240  1.0  -0.0759
  C  C390  1  0.519300  0.841500  0.323700  1.0  0.1945
  C  C391  1  0.516440  0.825280  0.303160  1.0  -0.0456
  C  C392  1  0.543330  0.932070  0.250930  1.0  0.1697
  C  C393  1  0.557200  0.947600  0.208400  1.0  -0.1677
  C  C394  1  0.560900  0.985700  0.189900  1.0  -0.1988
  C  C395  1  0.551200  0.008400  0.212600  1.0  0.2843
  C  C396  1  0.537900  0.991900  0.253900  1.0  -0.1525
  C  C397  1  0.533500  0.952500  0.274300  1.0  -0.114
  C  C398  1  0.548500  0.070700  0.209900  1.0  0.0431
  C  C399  1  0.548500  0.112300  0.179100  1.0  0.1243
  C  C400  1  0.548400  0.140800  0.189000  1.0  -0.1871
  C  C401  1  0.302600  0.509400  0.766600  1.0  0.7039
  C  C402  1  0.323210  0.512590  0.786610  1.0  -0.1524
  C  C403  1  0.362790  0.511890  0.765770  1.0  -0.0199
  C  C404  1  0.382720  0.514920  0.782680  1.0  -0.1159
  C  C405  1  0.426000  0.514000  0.761200  1.0  0.6898
  C  C406  1  0.363240  0.518540  0.820580  1.0  -0.075
  C  C407  1  0.323700  0.519300  0.841500  1.0  0.1962
  C  C408  1  0.303160  0.516440  0.825280  1.0  -0.0445
  C  C409  1  0.250930  0.543330  0.932070  1.0  0.1722
  C  C410  1  0.208400  0.557200  0.947600  1.0  -0.1663
  C  C411  1  0.189900  0.560900  0.985700  1.0  -0.1969
  C  C412  1  0.212600  0.551200  0.008400  1.0  0.2832
  C  C413  1  0.253900  0.537900  0.991900  1.0  -0.1507
  C  C414  1  0.274300  0.533500  0.952500  1.0  -0.1087
  C  C415  1  0.209900  0.548500  0.070700  1.0  0.0426
  C  C416  1  0.179100  0.548500  0.112300  1.0  0.1248
  C  C417  1  0.189000  0.548400  0.140800  1.0  -0.1923
  C  C418  1  0.766600  0.421400  0.302600  1.0  0.7036
  C  C419  1  0.786610  0.377590  0.323210  1.0  -0.1514
  C  C420  1  0.765770  0.359550  0.362790  1.0  -0.0181
  C  C421  1  0.782680  0.319680  0.382720  1.0  -0.1169
  C  C422  1  0.761200  0.298800  0.426000  1.0  0.6896
  C  C423  1  0.820580  0.297640  0.363240  1.0  -0.0758
  C  C424  1  0.841500  0.315500  0.323700  1.0  0.1935
  C  C425  1  0.825280  0.355120  0.303160  1.0  -0.0457
  C  C426  1  0.932070  0.273670  0.250930  1.0  0.1701
  C  C427  1  0.947600  0.286800  0.208400  1.0  -0.1728
  C  C428  1  0.985700  0.263500  0.189900  1.0  -0.1959
  C  C429  1  0.008400  0.227800  0.212600  1.0  0.2848
  C  C430  1  0.991900  0.216300  0.253900  1.0  -0.1537
  C  C431  1  0.952500  0.239700  0.274300  1.0  -0.1126
  C  C432  1  0.070700  0.170900  0.209900  1.0  0.0456
  C  C433  1  0.112300  0.160100  0.179100  1.0  0.1243
  C  C434  1  0.140800  0.121800  0.189000  1.0  -0.1894
  C  C435  1  0.421400  0.766600  0.509400  1.0  0.7026
  C  C436  1  0.377590  0.786610  0.512590  1.0  -0.1512
  C  C437  1  0.359550  0.765770  0.511890  1.0  -0.0171
  C  C438  1  0.319680  0.782680  0.514920  1.0  -0.1173
  C  C439  1  0.298800  0.761200  0.514000  1.0  0.6899
  C  C440  1  0.297640  0.820580  0.518540  1.0  -0.0759
  C  C441  1  0.315500  0.841500  0.519300  1.0  0.1947
  C  C442  1  0.355120  0.825280  0.516440  1.0  -0.0462
  C  C443  1  0.273670  0.932070  0.543330  1.0  0.169
  C  C444  1  0.286800  0.947600  0.557200  1.0  -0.165
  C  C445  1  0.263500  0.985700  0.560900  1.0  -0.1961
  C  C446  1  0.227800  0.008400  0.551200  1.0  0.2833
  C  C447  1  0.216300  0.991900  0.537900  1.0  -0.1527
  C  C448  1  0.239700  0.952500  0.533500  1.0  -0.1115
  C  C449  1  0.170900  0.070700  0.548500  1.0  0.0462
  C  C450  1  0.160100  0.112300  0.548500  1.0  0.1241
  C  C451  1  0.121800  0.140800  0.548400  1.0  -0.1898
  C  C452  1  0.509400  0.302600  0.421400  1.0  0.7049
  C  C453  1  0.512590  0.323210  0.377590  1.0  -0.1524
  C  C454  1  0.511890  0.362790  0.359550  1.0  -0.0193
  C  C455  1  0.514920  0.382720  0.319680  1.0  -0.1172
  C  C456  1  0.514000  0.426000  0.298800  1.0  0.6909
  C  C457  1  0.518540  0.363240  0.297640  1.0  -0.0769
  C  C458  1  0.519300  0.323700  0.315500  1.0  0.1971
  C  C459  1  0.516440  0.303160  0.355120  1.0  -0.0462
  C  C460  1  0.543330  0.250930  0.273670  1.0  0.1708
  C  C461  1  0.557200  0.208400  0.286800  1.0  -0.1685
  C  C462  1  0.560900  0.189900  0.263500  1.0  -0.1949
  C  C463  1  0.551200  0.212600  0.227800  1.0  0.2848
  C  C464  1  0.537900  0.253900  0.216300  1.0  -0.1543
  C  C465  1  0.533500  0.274300  0.239700  1.0  -0.1103
  C  C466  1  0.548500  0.209900  0.170900  1.0  0.0441
  C  C467  1  0.548500  0.179100  0.160100  1.0  0.1244
  C  C468  1  0.548400  0.189000  0.121800  1.0  -0.1876
  C  C469  1  0.697400  0.233400  0.578600  1.0  0.703
  C  C470  1  0.676790  0.213390  0.622410  1.0  -0.1527
  C  C471  1  0.637210  0.234230  0.640450  1.0  -0.0171
  C  C472  1  0.617280  0.217320  0.680320  1.0  -0.1178
  C  C473  1  0.574000  0.238800  0.701200  1.0  0.6889
  C  C474  1  0.636760  0.179420  0.702360  1.0  -0.0746
  C  C475  1  0.676300  0.158500  0.684500  1.0  0.194
  C  C476  1  0.696840  0.174720  0.644880  1.0  -0.0444
  C  C477  1  0.749070  0.067930  0.726330  1.0  0.1702
  C  C478  1  0.791600  0.052400  0.713200  1.0  -0.1688
  C  C479  1  0.810100  0.014300  0.736500  1.0  -0.1954
  C  C480  1  0.787400  0.991600  0.772200  1.0  0.2815
  C  C481  1  0.746100  0.008100  0.783700  1.0  -0.1513
  C  C482  1  0.725700  0.047500  0.760300  1.0  -0.1106
  C  C483  1  0.790100  0.929300  0.829100  1.0  0.0427
  C  C484  1  0.820900  0.887700  0.839900  1.0  0.124
  C  C485  1  0.811000  0.859200  0.878200  1.0  -0.1895
  C  C486  1  0.233400  0.697400  0.490600  1.0  0.7034
  C  C487  1  0.213390  0.676790  0.487410  1.0  -0.152
  C  C488  1  0.234230  0.637210  0.488110  1.0  -0.0184
  C  C489  1  0.217320  0.617280  0.485080  1.0  -0.1163
  C  C490  1  0.238800  0.574000  0.486000  1.0  0.6905
  C  C491  1  0.179420  0.636760  0.481460  1.0  -0.0755
  C  C492  1  0.158500  0.676300  0.480700  1.0  0.1939
  C  C493  1  0.174720  0.696840  0.483560  1.0  -0.0449
  C  C494  1  0.067930  0.749070  0.456670  1.0  0.1703
  C  C495  1  0.052400  0.791600  0.442800  1.0  -0.1678
  C  C496  1  0.014300  0.810100  0.439100  1.0  -0.1954
  C  C497  1  0.991600  0.787400  0.448800  1.0  0.2847
  C  C498  1  0.008100  0.746100  0.462100  1.0  -0.1564
  C  C499  1  0.047500  0.725700  0.466500  1.0  -0.11
  C  C500  1  0.929300  0.790100  0.451500  1.0  0.0418
  C  C501  1  0.887700  0.820900  0.451500  1.0  0.1252
  C  C502  1  0.859200  0.811000  0.451600  1.0  -0.186
  C  C503  1  0.578600  0.490600  0.697400  1.0  0.7026
  C  C504  1  0.622410  0.487410  0.676790  1.0  -0.1514
  C  C505  1  0.640450  0.488110  0.637210  1.0  -0.0199
  C  C506  1  0.680320  0.485080  0.617280  1.0  -0.1157
  C  C507  1  0.701200  0.486000  0.574000  1.0  0.6917
  C  C508  1  0.702360  0.481460  0.636760  1.0  -0.0725
  C  C509  1  0.684500  0.480700  0.676300  1.0  0.1915
  C  C510  1  0.644880  0.483560  0.696840  1.0  -0.0467
  C  C511  1  0.726330  0.456670  0.749070  1.0  0.1703
  C  C512  1  0.713200  0.442800  0.791600  1.0  -0.1628
  C  C513  1  0.736500  0.439100  0.810100  1.0  -0.1976
  C  C514  1  0.772200  0.448800  0.787400  1.0  0.283
  C  C515  1  0.783700  0.462100  0.746100  1.0  -0.1496
  C  C516  1  0.760300  0.466500  0.725700  1.0  -0.1112
  C  C517  1  0.829100  0.451500  0.790100  1.0  0.0409
  C  C518  1  0.839900  0.451500  0.820900  1.0  0.1244
  C  C519  1  0.878200  0.451600  0.811000  1.0  -0.1906
  C  C520  1  0.490600  0.578600  0.233400  1.0  0.7033
  C  C521  1  0.487410  0.622410  0.213390  1.0  -0.1518
  C  C522  1  0.488110  0.640450  0.234230  1.0  -0.0188
  C  C523  1  0.485080  0.680320  0.217320  1.0  -0.1159
  C  C524  1  0.486000  0.701200  0.238800  1.0  0.6917
  C  C525  1  0.481460  0.702360  0.179420  1.0  -0.0772
  C  C526  1  0.480700  0.684500  0.158500  1.0  0.1944
  C  C527  1  0.483560  0.644880  0.174720  1.0  -0.0465
  C  C528  1  0.456670  0.726330  0.067930  1.0  0.1682
  C  C529  1  0.442800  0.713200  0.052400  1.0  -0.1663
  C  C530  1  0.439100  0.736500  0.014300  1.0  -0.1962
  C  C531  1  0.448800  0.772200  0.991600  1.0  0.2849
  C  C532  1  0.462100  0.783700  0.008100  1.0  -0.152
  C  C533  1  0.466500  0.760300  0.047500  1.0  -0.1116
  C  C534  1  0.451500  0.829100  0.929300  1.0  0.0414
  C  C535  1  0.451500  0.839900  0.887700  1.0  0.1244
  C  C536  1  0.451600  0.878200  0.859200  1.0  -0.1885
  C  C537  1  0.697400  0.578600  0.490600  1.0  0.7022
  C  C538  1  0.676790  0.622410  0.487410  1.0  -0.1514
  C  C539  1  0.637210  0.640450  0.488110  1.0  -0.02
  C  C540  1  0.617280  0.680320  0.485080  1.0  -0.1172
  C  C541  1  0.574000  0.701200  0.486000  1.0  0.689
  C  C542  1  0.636760  0.702360  0.481460  1.0  -0.0772
  C  C543  1  0.676300  0.684500  0.480700  1.0  0.191
  C  C544  1  0.696840  0.644880  0.483560  1.0  -0.0454
  C  C545  1  0.749070  0.726330  0.456670  1.0  0.1681
  C  C546  1  0.791600  0.713200  0.442800  1.0  -0.168
  C  C547  1  0.810100  0.736500  0.439100  1.0  -0.1954
  C  C548  1  0.787400  0.772200  0.448800  1.0  0.2834
  C  C549  1  0.746100  0.783700  0.462100  1.0  -0.1524
  C  C550  1  0.725700  0.760300  0.466500  1.0  -0.1089
  C  C551  1  0.790100  0.829100  0.451500  1.0  0.0441
  C  C552  1  0.820900  0.839900  0.451500  1.0  0.1234
  C  C553  1  0.811000  0.878200  0.451600  1.0  -0.1885
  C  C554  1  0.233400  0.490600  0.578600  1.0  0.704
  C  C555  1  0.213390  0.487410  0.622410  1.0  -0.1512
  C  C556  1  0.234230  0.488110  0.640450  1.0  -0.0177
  C  C557  1  0.217320  0.485080  0.680320  1.0  -0.1173
  C  C558  1  0.238800  0.486000  0.701200  1.0  0.6915
  C  C559  1  0.179420  0.481460  0.702360  1.0  -0.0755
  C  C560  1  0.158500  0.480700  0.684500  1.0  0.1934
  C  C561  1  0.174720  0.483560  0.644880  1.0  -0.0445
  C  C562  1  0.067930  0.456670  0.726330  1.0  0.17
  C  C563  1  0.052400  0.442800  0.713200  1.0  -0.1673
  C  C564  1  0.014300  0.439100  0.736500  1.0  -0.1972
  C  C565  1  0.991600  0.448800  0.772200  1.0  0.285
  C  C566  1  0.008100  0.462100  0.783700  1.0  -0.1538
  C  C567  1  0.047500  0.466500  0.760300  1.0  -0.1124
  C  C568  1  0.929300  0.451500  0.829100  1.0  0.0422
  C  C569  1  0.887700  0.451500  0.839900  1.0  0.1248
  C  C570  1  0.859200  0.451600  0.878200  1.0  -0.1895
  C  C571  1  0.578600  0.697400  0.233400  1.0  0.701
  C  C572  1  0.622410  0.676790  0.213390  1.0  -0.1516
  C  C573  1  0.640450  0.637210  0.234230  1.0  -0.0191
  C  C574  1  0.680320  0.617280  0.217320  1.0  -0.117
  C  C575  1  0.701200  0.574000  0.238800  1.0  0.6902
  C  C576  1  0.702360  0.636760  0.179420  1.0  -0.0761
  C  C577  1  0.684500  0.676300  0.158500  1.0  0.1934
  C  C578  1  0.644880  0.696840  0.174720  1.0  -0.0463
  C  C579  1  0.726330  0.749070  0.067930  1.0  0.1687
  C  C580  1  0.713200  0.791600  0.052400  1.0  -0.1666
  C  C581  1  0.736500  0.810100  0.014300  1.0  -0.1953
  C  C582  1  0.772200  0.787400  0.991600  1.0  0.2855
  C  C583  1  0.783700  0.746100  0.008100  1.0  -0.1554
  C  C584  1  0.760300  0.725700  0.047500  1.0  -0.1105
  C  C585  1  0.829100  0.790100  0.929300  1.0  0.0423
  C  C586  1  0.839900  0.820900  0.887700  1.0  0.1242
  C  C587  1  0.878200  0.811000  0.859200  1.0  -0.187
  C  C588  1  0.490600  0.233400  0.697400  1.0  0.7054
  C  C589  1  0.487410  0.213390  0.676790  1.0  -0.1513
  C  C590  1  0.488110  0.234230  0.637210  1.0  -0.0165
  C  C591  1  0.485080  0.217320  0.617280  1.0  -0.1184
  C  C592  1  0.486000  0.238800  0.574000  1.0  0.6914
  C  C593  1  0.481460  0.179420  0.636760  1.0  -0.0765
  C  C594  1  0.480700  0.158500  0.676300  1.0  0.1944
  C  C595  1  0.483560  0.174720  0.696840  1.0  -0.0456
  C  C596  1  0.456670  0.067930  0.749070  1.0  0.1699
  C  C597  1  0.442800  0.052400  0.791600  1.0  -0.1667
  C  C598  1  0.439100  0.014300  0.810100  1.0  -0.1962
  C  C599  1  0.448800  0.991600  0.787400  1.0  0.284
  C  C600  1  0.462100  0.008100  0.746100  1.0  -0.1531
  C  C601  1  0.466500  0.047500  0.725700  1.0  -0.1128
  C  C602  1  0.451500  0.929300  0.790100  1.0  0.0438
  C  C603  1  0.451500  0.887700  0.820900  1.0  0.1242
  C  C604  1  0.451600  0.859200  0.811000  1.0  -0.1871
  C  C605  1  0.697400  0.490600  0.233400  1.0  0.705
  C  C606  1  0.676790  0.487410  0.213390  1.0  -0.1525
  C  C607  1  0.637210  0.488110  0.234230  1.0  -0.0203
  C  C608  1  0.617280  0.485080  0.217320  1.0  -0.1165
  C  C609  1  0.574000  0.486000  0.238800  1.0  0.6895
  C  C610  1  0.636760  0.481460  0.179420  1.0  -0.0744
  C  C611  1  0.676300  0.480700  0.158500  1.0  0.1968
  C  C612  1  0.696840  0.483560  0.174720  1.0  -0.044
  C  C613  1  0.749070  0.456670  0.067930  1.0  0.1709
  C  C614  1  0.791600  0.442800  0.052400  1.0  -0.1661
  C  C615  1  0.810100  0.439100  0.014300  1.0  -0.1954
  C  C616  1  0.787400  0.448800  0.991600  1.0  0.2832
  C  C617  1  0.746100  0.462100  0.008100  1.0  -0.1527
  C  C618  1  0.725700  0.466500  0.047500  1.0  -0.1086
  C  C619  1  0.790100  0.451500  0.929300  1.0  0.0435
  C  C620  1  0.820900  0.451500  0.887700  1.0  0.1244
  C  C621  1  0.811000  0.451600  0.859200  1.0  -0.1894
  C  C622  1  0.233400  0.578600  0.697400  1.0  0.7029
  C  C623  1  0.213390  0.622410  0.676790  1.0  -0.1509
  C  C624  1  0.234230  0.640450  0.637210  1.0  -0.0178
  C  C625  1  0.217320  0.680320  0.617280  1.0  -0.1166
  C  C626  1  0.238800  0.701200  0.574000  1.0  0.6901
  C  C627  1  0.179420  0.702360  0.636760  1.0  -0.0764
  C  C628  1  0.158500  0.684500  0.676300  1.0  0.1936
  C  C629  1  0.174720  0.644880  0.696840  1.0  -0.0466
  C  C630  1  0.067930  0.726330  0.749070  1.0  0.1691
  C  C631  1  0.052400  0.713200  0.791600  1.0  -0.1679
  C  C632  1  0.014300  0.736500  0.810100  1.0  -0.1963
  C  C633  1  0.991600  0.772200  0.787400  1.0  0.2838
  C  C634  1  0.008100  0.783700  0.746100  1.0  -0.1548
  C  C635  1  0.047500  0.760300  0.725700  1.0  -0.1126
  C  C636  1  0.929300  0.829100  0.790100  1.0  0.0432
  C  C637  1  0.887700  0.839900  0.820900  1.0  0.1245
  C  C638  1  0.859200  0.878200  0.811000  1.0  -0.191
  C  C639  1  0.578600  0.233400  0.490600  1.0  0.7014
  C  C640  1  0.622410  0.213390  0.487410  1.0  -0.1511
  C  C641  1  0.640450  0.234230  0.488110  1.0  -0.0178
  C  C642  1  0.680320  0.217320  0.485080  1.0  -0.1171
  C  C643  1  0.701200  0.238800  0.486000  1.0  0.6898
  C  C644  1  0.702360  0.179420  0.481460  1.0  -0.0741
  C  C645  1  0.684500  0.158500  0.480700  1.0  0.1942
  C  C646  1  0.644880  0.174720  0.483560  1.0  -0.0457
  C  C647  1  0.726330  0.067930  0.456670  1.0  0.17
  C  C648  1  0.713200  0.052400  0.442800  1.0  -0.1676
  C  C649  1  0.736500  0.014300  0.439100  1.0  -0.1971
  C  C650  1  0.772200  0.991600  0.448800  1.0  0.2845
  C  C651  1  0.783700  0.008100  0.462100  1.0  -0.151
  C  C652  1  0.760300  0.047500  0.466500  1.0  -0.1113
  C  C653  1  0.829100  0.929300  0.451500  1.0  0.0442
  C  C654  1  0.839900  0.887700  0.451500  1.0  0.1251
  C  C655  1  0.878200  0.859200  0.451600  1.0  -0.1913
  C  C656  1  0.490600  0.697400  0.578600  1.0  0.7041
  C  C657  1  0.487410  0.676790  0.622410  1.0  -0.1525
  C  C658  1  0.488110  0.637210  0.640450  1.0  -0.0194
  C  C659  1  0.485080  0.617280  0.680320  1.0  -0.1172
  C  C660  1  0.486000  0.574000  0.701200  1.0  0.6908
  C  C661  1  0.481460  0.636760  0.702360  1.0  -0.0767
  C  C662  1  0.480700  0.676300  0.684500  1.0  0.1958
  C  C663  1  0.483560  0.696840  0.644880  1.0  -0.0458
  C  C664  1  0.456670  0.749070  0.726330  1.0  0.1719
  C  C665  1  0.442800  0.791600  0.713200  1.0  -0.1679
  C  C666  1  0.439100  0.810100  0.736500  1.0  -0.1925
  C  C667  1  0.448800  0.787400  0.772200  1.0  0.2854
  C  C668  1  0.462100  0.746100  0.783700  1.0  -0.1557
  C  C669  1  0.466500  0.725700  0.760300  1.0  -0.1106
  C  C670  1  0.451500  0.790100  0.829100  1.0  0.0435
  C  C671  1  0.451500  0.820900  0.839900  1.0  0.1243
  C  C672  1  0.451600  0.811000  0.878200  1.0  -0.1885
  N  N673  1  0.305090  0.880710  0.291090  1.0  -0.2989
  N  N674  1  0.268300  0.892100  0.299500  1.0  -0.1779
  N  N675  1  0.880710  0.305090  0.523110  1.0  -0.2991
  N  N676  1  0.892100  0.268300  0.540100  1.0  -0.1779
  N  N677  1  0.291090  0.523110  0.305090  1.0  -0.3003
  N  N678  1  0.299500  0.540100  0.268300  1.0  -0.1782
  N  N679  1  0.523110  0.291090  0.880710  1.0  -0.3006
  N  N680  1  0.540100  0.299500  0.892100  1.0  -0.1789
  N  N681  1  0.305090  0.291090  0.523110  1.0  -0.301
  N  N682  1  0.268300  0.299500  0.540100  1.0  -0.1803
  N  N683  1  0.880710  0.523110  0.291090  1.0  -0.3014
  N  N684  1  0.892100  0.540100  0.299500  1.0  -0.1796
  N  N685  1  0.291090  0.305090  0.880710  1.0  -0.301
  N  N686  1  0.299500  0.268300  0.892100  1.0  -0.1801
  N  N687  1  0.523110  0.880710  0.305090  1.0  -0.3024
  N  N688  1  0.540100  0.892100  0.268300  1.0  -0.1821
  N  N689  1  0.305090  0.523110  0.880710  1.0  -0.2998
  N  N690  1  0.268300  0.540100  0.892100  1.0  -0.1811
  N  N691  1  0.880710  0.291090  0.305090  1.0  -0.302
  N  N692  1  0.892100  0.299500  0.268300  1.0  -0.1825
  N  N693  1  0.291090  0.880710  0.523110  1.0  -0.3024
  N  N694  1  0.299500  0.892100  0.540100  1.0  -0.1783
  N  N695  1  0.523110  0.305090  0.291090  1.0  -0.3005
  N  N696  1  0.540100  0.268300  0.299500  1.0  -0.1792
  N  N697  1  0.694910  0.119290  0.708910  1.0  -0.3005
  N  N698  1  0.731700  0.107900  0.700500  1.0  -0.1783
  N  N699  1  0.119290  0.694910  0.476890  1.0  -0.3003
  N  N700  1  0.107900  0.731700  0.459900  1.0  -0.1788
  N  N701  1  0.708910  0.476890  0.694910  1.0  -0.2992
  N  N702  1  0.700500  0.459900  0.731700  1.0  -0.1784
  N  N703  1  0.476890  0.708910  0.119290  1.0  -0.3003
  N  N704  1  0.459900  0.700500  0.107900  1.0  -0.1784
  N  N705  1  0.694910  0.708910  0.476890  1.0  -0.3025
  N  N706  1  0.731700  0.700500  0.459900  1.0  -0.1796
  N  N707  1  0.119290  0.476890  0.708910  1.0  -0.3022
  N  N708  1  0.107900  0.459900  0.700500  1.0  -0.1807
  N  N709  1  0.708910  0.694910  0.119290  1.0  -0.3007
  N  N710  1  0.700500  0.731700  0.107900  1.0  -0.1802
  N  N711  1  0.476890  0.119290  0.694910  1.0  -0.3024
  N  N712  1  0.459900  0.107900  0.731700  1.0  -0.1794
  N  N713  1  0.694910  0.476890  0.119290  1.0  -0.3014
  N  N714  1  0.731700  0.459900  0.107900  1.0  -0.1783
  N  N715  1  0.119290  0.708910  0.694910  1.0  -0.3035
  N  N716  1  0.107900  0.700500  0.731700  1.0  -0.1785
  N  N717  1  0.708910  0.119290  0.476890  1.0  -0.3011
  N  N718  1  0.700500  0.107900  0.459900  1.0  -0.1822
  N  N719  1  0.476890  0.694910  0.708910  1.0  -0.3012
  N  N720  1  0.459900  0.731700  0.700500  1.0  -0.1822
  O  O721  1  0.442170  0.780230  0.262170  1.0  -0.5925
  O  O722  1  0.445400  0.725800  0.317000  1.0  -0.6103
  O  O723  1  0.267670  0.785590  0.440610  1.0  -0.6495
  O  O724  1  0.320510  0.730350  0.439390  1.0  -0.62
  O  O725  1  0.190300  0.045500  0.207900  1.0  -0.2625
  O  O726  1  0.780230  0.442170  0.515430  1.0  -0.5915
  O  O727  1  0.725800  0.445400  0.511800  1.0  -0.6093
  O  O728  1  0.785590  0.267670  0.506130  1.0  -0.6472
  O  O729  1  0.730350  0.320510  0.509750  1.0  -0.621
  O  O730  1  0.045500  0.190300  0.556300  1.0  -0.2629
  O  O731  1  0.262170  0.515430  0.442170  1.0  -0.5902
  O  O732  1  0.317000  0.511800  0.445400  1.0  -0.6096
  O  O733  1  0.440610  0.506130  0.267670  1.0  -0.6475
  O  O734  1  0.439390  0.509750  0.320510  1.0  -0.6192
  O  O735  1  0.207900  0.556300  0.190300  1.0  -0.2623
  O  O736  1  0.515430  0.262170  0.780230  1.0  -0.5926
  O  O737  1  0.511800  0.317000  0.725800  1.0  -0.6114
  O  O738  1  0.506130  0.440610  0.785590  1.0  -0.6476
  O  O739  1  0.509750  0.439390  0.730350  1.0  -0.6184
  O  O740  1  0.556300  0.207900  0.045500  1.0  -0.2622
  O  O741  1  0.442170  0.262170  0.515430  1.0  -0.591
  O  O742  1  0.445400  0.317000  0.511800  1.0  -0.6099
  O  O743  1  0.267670  0.440610  0.506130  1.0  -0.646
  O  O744  1  0.320510  0.439390  0.509750  1.0  -0.6196
  O  O745  1  0.190300  0.207900  0.556300  1.0  -0.2624
  O  O746  1  0.780230  0.515430  0.262170  1.0  -0.5911
  O  O747  1  0.725800  0.511800  0.317000  1.0  -0.6091
  O  O748  1  0.785590  0.506130  0.440610  1.0  -0.6449
  O  O749  1  0.730350  0.509750  0.439390  1.0  -0.6202
  O  O750  1  0.045500  0.556300  0.207900  1.0  -0.2595
  O  O751  1  0.262170  0.442170  0.780230  1.0  -0.5897
  O  O752  1  0.317000  0.445400  0.725800  1.0  -0.6102
  O  O753  1  0.440610  0.267670  0.785590  1.0  -0.6477
  O  O754  1  0.439390  0.320510  0.730350  1.0  -0.6211
  O  O755  1  0.207900  0.190300  0.045500  1.0  -0.2627
  O  O756  1  0.515430  0.780230  0.442170  1.0  -0.5926
  O  O757  1  0.511800  0.725800  0.445400  1.0  -0.609
  O  O758  1  0.506130  0.785590  0.267670  1.0  -0.6481
  O  O759  1  0.509750  0.730350  0.320510  1.0  -0.6195
  O  O760  1  0.556300  0.045500  0.190300  1.0  -0.2606
  O  O761  1  0.442170  0.515430  0.780230  1.0  -0.5938
  O  O762  1  0.445400  0.511800  0.725800  1.0  -0.6095
  O  O763  1  0.267670  0.506130  0.785590  1.0  -0.6475
  O  O764  1  0.320510  0.509750  0.730350  1.0  -0.6187
  O  O765  1  0.190300  0.556300  0.045500  1.0  -0.2625
  O  O766  1  0.780230  0.262170  0.442170  1.0  -0.5921
  O  O767  1  0.725800  0.317000  0.445400  1.0  -0.6112
  O  O768  1  0.785590  0.440610  0.267670  1.0  -0.6458
  O  O769  1  0.730350  0.439390  0.320510  1.0  -0.6189
  O  O770  1  0.045500  0.207900  0.190300  1.0  -0.2627
  O  O771  1  0.262170  0.780230  0.515430  1.0  -0.5924
  O  O772  1  0.317000  0.725800  0.511800  1.0  -0.6103
  O  O773  1  0.440610  0.785590  0.506130  1.0  -0.6489
  O  O774  1  0.439390  0.730350  0.509750  1.0  -0.6193
  O  O775  1  0.207900  0.045500  0.556300  1.0  -0.2602
  O  O776  1  0.515430  0.442170  0.262170  1.0  -0.592
  O  O777  1  0.511800  0.445400  0.317000  1.0  -0.6108
  O  O778  1  0.506130  0.267670  0.440610  1.0  -0.6469
  O  O779  1  0.509750  0.320510  0.439390  1.0  -0.6207
  O  O780  1  0.556300  0.190300  0.207900  1.0  -0.2622
  O  O781  1  0.557830  0.219770  0.737830  1.0  -0.5919
  O  O782  1  0.554600  0.274200  0.683000  1.0  -0.6104
  O  O783  1  0.732330  0.214410  0.559390  1.0  -0.6479
  O  O784  1  0.679490  0.269650  0.560610  1.0  -0.6213
  O  O785  1  0.809700  0.954500  0.792100  1.0  -0.2643
  O  O786  1  0.219770  0.557830  0.484570  1.0  -0.5901
  O  O787  1  0.274200  0.554600  0.488200  1.0  -0.6101
  O  O788  1  0.214410  0.732330  0.493870  1.0  -0.6495
  O  O789  1  0.269650  0.679490  0.490250  1.0  -0.6215
  O  O790  1  0.954500  0.809700  0.443700  1.0  -0.2607
  O  O791  1  0.737830  0.484570  0.557830  1.0  -0.5904
  O  O792  1  0.683000  0.488200  0.554600  1.0  -0.6095
  O  O793  1  0.559390  0.493870  0.732330  1.0  -0.6482
  O  O794  1  0.560610  0.490250  0.679490  1.0  -0.6196
  O  O795  1  0.792100  0.443700  0.809700  1.0  -0.2623
  O  O796  1  0.484570  0.737830  0.219770  1.0  -0.5925
  O  O797  1  0.488200  0.683000  0.274200  1.0  -0.6102
  O  O798  1  0.493870  0.559390  0.214410  1.0  -0.6475
  O  O799  1  0.490250  0.560610  0.269650  1.0  -0.6205
  O  O800  1  0.443700  0.792100  0.954500  1.0  -0.2628
  O  O801  1  0.557830  0.737830  0.484570  1.0  -0.5915
  O  O802  1  0.554600  0.683000  0.488200  1.0  -0.6089
  O  O803  1  0.732330  0.559390  0.493870  1.0  -0.6464
  O  O804  1  0.679490  0.560610  0.490250  1.0  -0.6189
  O  O805  1  0.809700  0.792100  0.443700  1.0  -0.2644
  O  O806  1  0.219770  0.484570  0.737830  1.0  -0.5894
  O  O807  1  0.274200  0.488200  0.683000  1.0  -0.6101
  O  O808  1  0.214410  0.493870  0.559390  1.0  -0.6453
  O  O809  1  0.269650  0.490250  0.560610  1.0  -0.6208
  O  O810  1  0.954500  0.443700  0.792100  1.0  -0.2614
  O  O811  1  0.737830  0.557830  0.219770  1.0  -0.5898
  O  O812  1  0.683000  0.554600  0.274200  1.0  -0.61
  O  O813  1  0.559390  0.732330  0.214410  1.0  -0.6487
  O  O814  1  0.560610  0.679490  0.269650  1.0  -0.6196
  O  O815  1  0.792100  0.809700  0.954500  1.0  -0.2615
  O  O816  1  0.484570  0.219770  0.557830  1.0  -0.5915
  O  O817  1  0.488200  0.274200  0.554600  1.0  -0.6097
  O  O818  1  0.493870  0.214410  0.732330  1.0  -0.6476
  O  O819  1  0.490250  0.269650  0.679490  1.0  -0.6201
  O  O820  1  0.443700  0.954500  0.809700  1.0  -0.2592
  O  O821  1  0.557830  0.484570  0.219770  1.0  -0.5925
  O  O822  1  0.554600  0.488200  0.274200  1.0  -0.6103
  O  O823  1  0.732330  0.493870  0.214410  1.0  -0.6477
  O  O824  1  0.679490  0.490250  0.269650  1.0  -0.619
  O  O825  1  0.809700  0.443700  0.954500  1.0  -0.2636
  O  O826  1  0.219770  0.737830  0.557830  1.0  -0.5928
  O  O827  1  0.274200  0.683000  0.554600  1.0  -0.6102
  O  O828  1  0.214410  0.559390  0.732330  1.0  -0.6464
  O  O829  1  0.269650  0.560610  0.679490  1.0  -0.6199
  O  O830  1  0.954500  0.792100  0.809700  1.0  -0.2598
  O  O831  1  0.737830  0.219770  0.484570  1.0  -0.5922
  O  O832  1  0.683000  0.274200  0.488200  1.0  -0.612
  O  O833  1  0.559390  0.214410  0.493870  1.0  -0.647
  O  O834  1  0.560610  0.269650  0.490250  1.0  -0.6212
  O  O835  1  0.792100  0.954500  0.443700  1.0  -0.2623
  O  O836  1  0.484570  0.557830  0.737830  1.0  -0.5933
  O  O837  1  0.488200  0.554600  0.683000  1.0  -0.6102
  O  O838  1  0.493870  0.732330  0.559390  1.0  -0.6471
  O  O839  1  0.490250  0.679490  0.560610  1.0  -0.6188
  O  O840  1  0.443700  0.809700  0.792100  1.0  -0.263
