# generated using pymatgen
data_Cu6H24C48N15O16
_symmetry_space_group_name_H-M   'P 1'
_cell_length_a   41.55700000
_cell_length_b   41.55700000
_cell_length_c   41.63930000
_cell_angle_alpha   119.93500000
_cell_angle_beta   119.93500000
_cell_angle_gamma   90.00000000
_symmetry_Int_Tables_number   1
_chemical_formula_structural   Cu6H24C48N15O16
_chemical_formula_sum   'Cu48 H192 C384 N120 O128'
_cell_volume   50948.09329822
_cell_formula_units_Z   8
loop_
 _symmetry_equiv_pos_site_id
 _symmetry_equiv_pos_as_xyz
  1  'x, y, z'
loop_
 _atom_site_type_symbol
 _atom_site_label
 _atom_site_symmetry_multiplicity
 _atom_site_fract_x
 _atom_site_fract_y
 _atom_site_fract_z
 _atom_site_occupancy
 _atom_site_charge
  Cu  Cu1  1  0.173970  0.205260  0.189040  1.0  0.9094
  Cu  Cu2  1  0.231790  0.272870  0.252180  1.0  0.9221
  Cu  Cu3  1  0.898290  0.619740  0.302480  1.0  0.6993
  Cu  Cu4  1  0.313870  0.615340  0.215600  1.0  0.5911
  Cu  Cu5  1  0.374990  0.603560  0.297660  1.0  0.5733
  Cu  Cu6  1  0.015070  0.983780  0.189040  1.0  0.9081
  Cu  Cu7  1  0.020390  0.979310  0.252180  1.0  0.9218
  Cu  Cu8  1  0.404190  0.682740  0.302480  1.0  0.702
  Cu  Cu9  1  0.901730  0.600260  0.215600  1.0  0.5876
  Cu  Cu10  1  0.922670  0.694100  0.297660  1.0  0.572
  Cu  Cu11  1  0.205260  0.015070  0.189040  1.0  0.9073
  Cu  Cu12  1  0.272870  0.020390  0.252180  1.0  0.9216
  Cu  Cu13  1  0.619740  0.404190  0.302480  1.0  0.7144
  Cu  Cu14  1  0.615340  0.901730  0.215600  1.0  0.5937
  Cu  Cu15  1  0.603560  0.922670  0.297660  1.0  0.5702
  Cu  Cu16  1  0.983780  0.173970  0.189040  1.0  0.9052
  Cu  Cu17  1  0.979310  0.231790  0.252180  1.0  0.9222
  Cu  Cu18  1  0.682740  0.898290  0.302480  1.0  0.7124
  Cu  Cu19  1  0.600260  0.313870  0.215600  1.0  0.5904
  Cu  Cu20  1  0.694100  0.374990  0.297660  1.0  0.5694
  Cu  Cu21  1  0.826030  0.794740  0.810960  1.0  0.9079
  Cu  Cu22  1  0.768210  0.727130  0.747820  1.0  0.9231
  Cu  Cu23  1  0.101710  0.380260  0.697520  1.0  0.6986
  Cu  Cu24  1  0.686130  0.384660  0.784400  1.0  0.5913
  Cu  Cu25  1  0.625010  0.396440  0.702340  1.0  0.5699
  Cu  Cu26  1  0.984930  0.016220  0.810960  1.0  0.9074
  Cu  Cu27  1  0.979610  0.020690  0.747820  1.0  0.9201
  Cu  Cu28  1  0.595810  0.317260  0.697520  1.0  0.7032
  Cu  Cu29  1  0.098270  0.399740  0.784400  1.0  0.5863
  Cu  Cu30  1  0.077330  0.305900  0.702340  1.0  0.5728
  Cu  Cu31  1  0.794740  0.984930  0.810960  1.0  0.9072
  Cu  Cu32  1  0.727130  0.979610  0.747820  1.0  0.9217
  Cu  Cu33  1  0.380260  0.595810  0.697520  1.0  0.7147
  Cu  Cu34  1  0.384660  0.098270  0.784400  1.0  0.5934
  Cu  Cu35  1  0.396440  0.077330  0.702340  1.0  0.5707
  Cu  Cu36  1  0.016220  0.826030  0.810960  1.0  0.9063
  Cu  Cu37  1  0.020690  0.768210  0.747820  1.0  0.9218
  Cu  Cu38  1  0.317260  0.101710  0.697520  1.0  0.7143
  Cu  Cu39  1  0.399740  0.686130  0.784400  1.0  0.5905
  Cu  Cu40  1  0.305900  0.625010  0.702340  1.0  0.5698
  Cu  Cu41  1  0.970060  0.190650  0.000000  1.0  0.9154
  Cu  Cu42  1  0.959970  0.253260  0.000000  1.0  0.9104
  Cu  Cu43  1  0.029940  0.809350  0.000000  1.0  0.9165
  Cu  Cu44  1  0.040030  0.746740  0.000000  1.0  0.9107
  Cu  Cu45  1  0.190650  0.029940  0.000000  1.0  0.9178
  Cu  Cu46  1  0.253260  0.040030  0.000000  1.0  0.914
  Cu  Cu47  1  0.809350  0.970060  0.000000  1.0  0.9148
  Cu  Cu48  1  0.746740  0.959970  0.000000  1.0  0.9144
  H  H49  1  0.309500  0.241700  0.341000  1.0  0.1194
  H  H50  1  0.226000  0.134900  0.234200  1.0  0.123
  H  H51  1  0.323900  0.144800  0.340000  1.0  0.128
  H  H52  1  0.434900  0.321000  0.469200  1.0  0.1175
  H  H53  1  0.493300  0.349400  0.541200  1.0  0.1278
  H  H54  1  0.457500  0.262000  0.545800  1.0  0.1174
  H  H55  1  0.399100  0.233600  0.473800  1.0  0.1276
  H  H56  1  0.089400  0.238400  0.109600  1.0  0.1251
  H  H57  1  0.186900  0.333100  0.190000  1.0  0.122
  H  H58  1  0.083000  0.328300  0.095400  1.0  0.1141
  H  H59  1  0.225700  0.430900  0.212200  1.0  0.12
  H  H60  1  0.270200  0.485400  0.235800  1.0  0.1128
  H  H61  1  0.182200  0.494300  0.139400  1.0  0.1273
  H  H62  1  0.137900  0.439900  0.116000  1.0  0.1204
  H  H63  1  0.964600  0.216300  0.109400  1.0  0.1217
  H  H64  1  0.943400  0.299800  0.195600  1.0  0.1127
  H  H65  1  0.933200  0.303200  0.095400  1.0  0.1277
  H  H66  1  0.909300  0.413100  0.250800  1.0  0.12
  H  H67  1  0.902700  0.474900  0.270400  1.0  0.1244
  H  H68  1  0.923300  0.467900  0.182000  1.0  0.1158
  H  H69  1  0.930000  0.406100  0.162600  1.0  0.1223
  H  H70  1  0.366600  0.206300  0.403000  1.0  0.2761
  H  H71  1  0.179200  0.386500  0.187000  1.0  0.293
  H  H72  1  0.919900  0.347800  0.142200  1.0  0.294
  H  H73  1  0.031500  0.099300  0.341000  1.0  0.119
  H  H74  1  0.008200  0.099300  0.234200  1.0  0.1244
  H  H75  1  0.016100  0.195200  0.340000  1.0  0.1287
  H  H76  1  0.034300  0.148200  0.469200  1.0  0.1178
  H  H77  1  0.047900  0.191800  0.541200  1.0  0.1265
  H  H78  1  0.088300  0.283800  0.545800  1.0  0.1186
  H  H79  1  0.074700  0.240200  0.473800  1.0  0.1282
  H  H80  1  0.020200  0.871200  0.109600  1.0  0.1241
  H  H81  1  0.003100  0.856900  0.190000  1.0  0.1224
  H  H82  1  0.012400  0.767100  0.095400  1.0  0.1145
  H  H83  1  0.986500  0.781300  0.212200  1.0  0.1228
  H  H84  1  0.965600  0.750400  0.235800  1.0  0.1172
  H  H85  1  0.957200  0.645100  0.139400  1.0  0.1283
  H  H86  1  0.978100  0.676100  0.116000  1.0  0.12
  H  H87  1  0.144800  0.893100  0.109400  1.0  0.1216
  H  H88  1  0.252200  0.895800  0.195600  1.0  0.1114
  H  H89  1  0.162200  0.792200  0.095400  1.0  0.1286
  H  H90  1  0.341500  0.837700  0.250800  1.0  0.1195
  H  H91  1  0.367700  0.795500  0.270400  1.0  0.124
  H  H92  1  0.258700  0.714100  0.182000  1.0  0.1159
  H  H93  1  0.232600  0.756500  0.162600  1.0  0.1212
  H  H94  1  0.036400  0.196700  0.403000  1.0  0.2732
  H  H95  1  0.007800  0.800500  0.187000  1.0  0.2929
  H  H96  1  0.222300  0.794400  0.142200  1.0  0.2984
  H  H97  1  0.241700  0.031500  0.341000  1.0  0.1193
  H  H98  1  0.134900  0.008200  0.234200  1.0  0.1243
  H  H99  1  0.144800  0.016100  0.340000  1.0  0.1286
  H  H100  1  0.321000  0.034300  0.469200  1.0  0.1181
  H  H101  1  0.349400  0.047900  0.541200  1.0  0.1275
  H  H102  1  0.262000  0.088300  0.545800  1.0  0.1186
  H  H103  1  0.233600  0.074700  0.473800  1.0  0.1274
  H  H104  1  0.238400  0.020200  0.109600  1.0  0.1257
  H  H105  1  0.333100  0.003100  0.190000  1.0  0.1223
  H  H106  1  0.328300  0.012400  0.095400  1.0  0.1162
  H  H107  1  0.430900  0.986500  0.212200  1.0  0.1237
  H  H108  1  0.485400  0.965600  0.235800  1.0  0.1181
  H  H109  1  0.494300  0.957200  0.139400  1.0  0.128
  H  H110  1  0.439900  0.978100  0.116000  1.0  0.1212
  H  H111  1  0.216300  0.144800  0.109400  1.0  0.1213
  H  H112  1  0.299800  0.252200  0.195600  1.0  0.1115
  H  H113  1  0.303200  0.162200  0.095400  1.0  0.1283
  H  H114  1  0.413100  0.341500  0.250800  1.0  0.1207
  H  H115  1  0.474900  0.367700  0.270400  1.0  0.124
  H  H116  1  0.467900  0.258700  0.182000  1.0  0.1157
  H  H117  1  0.406100  0.232600  0.162600  1.0  0.1199
  H  H118  1  0.206300  0.036400  0.403000  1.0  0.2762
  H  H119  1  0.386500  0.007800  0.187000  1.0  0.2931
  H  H120  1  0.347800  0.222300  0.142200  1.0  0.2974
  H  H121  1  0.099300  0.309500  0.341000  1.0  0.1184
  H  H122  1  0.099300  0.226000  0.234200  1.0  0.1238
  H  H123  1  0.195200  0.323900  0.340000  1.0  0.1284
  H  H124  1  0.148200  0.434900  0.469200  1.0  0.1176
  H  H125  1  0.191800  0.493300  0.541200  1.0  0.1269
  H  H126  1  0.283800  0.457500  0.545800  1.0  0.1192
  H  H127  1  0.240200  0.399100  0.473800  1.0  0.1274
  H  H128  1  0.871200  0.089400  0.109600  1.0  0.1253
  H  H129  1  0.856900  0.186900  0.190000  1.0  0.1231
  H  H130  1  0.767100  0.083000  0.095400  1.0  0.1142
  H  H131  1  0.781300  0.225700  0.212200  1.0  0.1198
  H  H132  1  0.750400  0.270200  0.235800  1.0  0.1168
  H  H133  1  0.645100  0.182200  0.139400  1.0  0.1284
  H  H134  1  0.676100  0.137900  0.116000  1.0  0.1185
  H  H135  1  0.893100  0.964600  0.109400  1.0  0.1214
  H  H136  1  0.895800  0.943400  0.195600  1.0  0.1132
  H  H137  1  0.792200  0.933200  0.095400  1.0  0.1278
  H  H138  1  0.837700  0.909300  0.250800  1.0  0.1199
  H  H139  1  0.795500  0.902700  0.270400  1.0  0.1229
  H  H140  1  0.714100  0.923300  0.182000  1.0  0.116
  H  H141  1  0.756500  0.930000  0.162600  1.0  0.121
  H  H142  1  0.196700  0.366600  0.403000  1.0  0.2763
  H  H143  1  0.800500  0.179200  0.187000  1.0  0.2922
  H  H144  1  0.794400  0.919900  0.142200  1.0  0.2936
  H  H145  1  0.690500  0.758300  0.659000  1.0  0.119
  H  H146  1  0.774000  0.865100  0.765800  1.0  0.1229
  H  H147  1  0.676100  0.855200  0.660000  1.0  0.1277
  H  H148  1  0.565100  0.679000  0.530800  1.0  0.1174
  H  H149  1  0.506700  0.650600  0.458800  1.0  0.1271
  H  H150  1  0.542500  0.738000  0.454200  1.0  0.1179
  H  H151  1  0.600900  0.766400  0.526200  1.0  0.1276
  H  H152  1  0.910600  0.761600  0.890400  1.0  0.1248
  H  H153  1  0.813100  0.666900  0.810000  1.0  0.1222
  H  H154  1  0.917000  0.671700  0.904600  1.0  0.114
  H  H155  1  0.774300  0.569100  0.787800  1.0  0.1209
  H  H156  1  0.729800  0.514600  0.764200  1.0  0.1142
  H  H157  1  0.817800  0.505700  0.860600  1.0  0.1276
  H  H158  1  0.862100  0.560100  0.884000  1.0  0.1202
  H  H159  1  0.035400  0.783700  0.890600  1.0  0.1218
  H  H160  1  0.056600  0.700200  0.804400  1.0  0.1133
  H  H161  1  0.066800  0.696800  0.904600  1.0  0.1275
  H  H162  1  0.090700  0.586900  0.749200  1.0  0.1202
  H  H163  1  0.097300  0.525100  0.729600  1.0  0.1245
  H  H164  1  0.076700  0.532100  0.818000  1.0  0.1159
  H  H165  1  0.070000  0.593900  0.837400  1.0  0.1225
  H  H166  1  0.633400  0.793700  0.597000  1.0  0.2754
  H  H167  1  0.820800  0.613500  0.813000  1.0  0.2936
  H  H168  1  0.080100  0.652200  0.857800  1.0  0.2934
  H  H169  1  0.968500  0.900700  0.659000  1.0  0.1197
  H  H170  1  0.991800  0.900700  0.765800  1.0  0.1243
  H  H171  1  0.983900  0.804800  0.660000  1.0  0.1292
  H  H172  1  0.965700  0.851800  0.530800  1.0  0.1179
  H  H173  1  0.952100  0.808200  0.458800  1.0  0.1261
  H  H174  1  0.911700  0.716200  0.454200  1.0  0.1188
  H  H175  1  0.925300  0.759800  0.526200  1.0  0.1282
  H  H176  1  0.979800  0.128800  0.890400  1.0  0.1249
  H  H177  1  0.996900  0.143100  0.810000  1.0  0.123
  H  H178  1  0.987600  0.232900  0.904600  1.0  0.1139
  H  H179  1  0.013500  0.218700  0.787800  1.0  0.1229
  H  H180  1  0.034400  0.249600  0.764200  1.0  0.1164
  H  H181  1  0.042800  0.354900  0.860600  1.0  0.1283
  H  H182  1  0.021900  0.323900  0.884000  1.0  0.1199
  H  H183  1  0.855200  0.106900  0.890600  1.0  0.1216
  H  H184  1  0.747800  0.104200  0.804400  1.0  0.113
  H  H185  1  0.837800  0.207800  0.904600  1.0  0.128
  H  H186  1  0.658500  0.162300  0.749200  1.0  0.1194
  H  H187  1  0.632300  0.204500  0.729600  1.0  0.1235
  H  H188  1  0.741300  0.285900  0.818000  1.0  0.1162
  H  H189  1  0.767400  0.243500  0.837400  1.0  0.1207
  H  H190  1  0.963600  0.803300  0.597000  1.0  0.2754
  H  H191  1  0.992200  0.199500  0.813000  1.0  0.2934
  H  H192  1  0.777700  0.205600  0.857800  1.0  0.2952
  H  H193  1  0.758300  0.968500  0.659000  1.0  0.118
  H  H194  1  0.865100  0.991800  0.765800  1.0  0.1244
  H  H195  1  0.855200  0.983900  0.660000  1.0  0.1296
  H  H196  1  0.679000  0.965700  0.530800  1.0  0.1176
  H  H197  1  0.650600  0.952100  0.458800  1.0  0.1276
  H  H198  1  0.738000  0.911700  0.454200  1.0  0.1184
  H  H199  1  0.766400  0.925300  0.526200  1.0  0.1273
  H  H200  1  0.761600  0.979800  0.890400  1.0  0.1269
  H  H201  1  0.666900  0.996900  0.810000  1.0  0.1228
  H  H202  1  0.671700  0.987600  0.904600  1.0  0.1159
  H  H203  1  0.569100  0.013500  0.787800  1.0  0.1235
  H  H204  1  0.514600  0.034400  0.764200  1.0  0.118
  H  H205  1  0.505700  0.042800  0.860600  1.0  0.1287
  H  H206  1  0.560100  0.021900  0.884000  1.0  0.121
  H  H207  1  0.783700  0.855200  0.890600  1.0  0.1209
  H  H208  1  0.700200  0.747800  0.804400  1.0  0.1129
  H  H209  1  0.696800  0.837800  0.904600  1.0  0.128
  H  H210  1  0.586900  0.658500  0.749200  1.0  0.1197
  H  H211  1  0.525100  0.632300  0.729600  1.0  0.1229
  H  H212  1  0.532100  0.741300  0.818000  1.0  0.1166
  H  H213  1  0.593900  0.767400  0.837400  1.0  0.1206
  H  H214  1  0.793700  0.963600  0.597000  1.0  0.2766
  H  H215  1  0.613500  0.992200  0.813000  1.0  0.293
  H  H216  1  0.652200  0.777700  0.857800  1.0  0.2949
  H  H217  1  0.900700  0.690500  0.659000  1.0  0.1193
  H  H218  1  0.900700  0.774000  0.765800  1.0  0.1237
  H  H219  1  0.804800  0.676100  0.660000  1.0  0.1281
  H  H220  1  0.851800  0.565100  0.530800  1.0  0.1182
  H  H221  1  0.808200  0.506700  0.458800  1.0  0.127
  H  H222  1  0.716200  0.542500  0.454200  1.0  0.1188
  H  H223  1  0.759800  0.600900  0.526200  1.0  0.1275
  H  H224  1  0.128800  0.910600  0.890400  1.0  0.1251
  H  H225  1  0.143100  0.813100  0.810000  1.0  0.124
  H  H226  1  0.232900  0.917000  0.904600  1.0  0.1136
  H  H227  1  0.218700  0.774300  0.787800  1.0  0.1204
  H  H228  1  0.249600  0.729800  0.764200  1.0  0.1164
  H  H229  1  0.354900  0.817800  0.860600  1.0  0.129
  H  H230  1  0.323900  0.862100  0.884000  1.0  0.1182
  H  H231  1  0.106900  0.035400  0.890600  1.0  0.1216
  H  H232  1  0.104200  0.056600  0.804400  1.0  0.1138
  H  H233  1  0.207800  0.066800  0.904600  1.0  0.1272
  H  H234  1  0.162300  0.090700  0.749200  1.0  0.1203
  H  H235  1  0.204500  0.097300  0.729600  1.0  0.1231
  H  H236  1  0.285900  0.076700  0.818000  1.0  0.1163
  H  H237  1  0.243500  0.070000  0.837400  1.0  0.1212
  H  H238  1  0.803300  0.633400  0.597000  1.0  0.2766
  H  H239  1  0.199500  0.820800  0.813000  1.0  0.2943
  H  H240  1  0.205600  0.080100  0.857800  1.0  0.2936
  C  C241  1  0.260490  0.089260  0.259780  1.0  0.668
  C  C242  1  0.240280  0.209900  0.261840  1.0  0.6902
  C  C243  1  0.300110  0.214110  0.326360  1.0  -0.0727
  C  C244  1  0.264180  0.190990  0.284260  1.0  -0.1457
  C  C245  1  0.250480  0.150650  0.262900  1.0  0.041
  C  C246  1  0.272710  0.133430  0.283640  1.0  -0.1478
  C  C247  1  0.308640  0.156550  0.325740  1.0  -0.1031
  C  C248  1  0.322330  0.196890  0.347100  1.0  0.2285
  C  C249  1  0.375520  0.258590  0.418380  1.0  0.4551
  C  C250  1  0.411570  0.274680  0.464760  1.0  -0.0131
  C  C251  1  0.439530  0.309070  0.484780  1.0  -0.0428
  C  C252  1  0.474190  0.325920  0.527540  1.0  -0.0787
  C  C253  1  0.480890  0.308390  0.550300  1.0  0.0591
  C  C254  1  0.452940  0.274000  0.530280  1.0  -0.0857
  C  C255  1  0.418270  0.257140  0.487520  1.0  -0.0885
  C  C256  1  0.516600  0.323910  0.595020  1.0  0.2421
  C  C257  1  0.165840  0.266930  0.179140  1.0  0.6732
  C  C258  1  0.036710  0.258770  0.059660  1.0  0.6739
  C  C259  1  0.101680  0.263340  0.118520  1.0  0.0214
  C  C260  1  0.141560  0.283050  0.153160  1.0  -0.1504
  C  C261  1  0.159590  0.319600  0.166260  1.0  -0.0953
  C  C262  1  0.137750  0.336460  0.144740  1.0  0.2464
  C  C263  1  0.097890  0.316760  0.110120  1.0  -0.07
  C  C264  1  0.079850  0.280200  0.097000  1.0  -0.1517
  C  C265  1  0.146470  0.395220  0.143720  1.0  0.5179
  C  C266  1  0.177600  0.430270  0.161840  1.0  0.0129
  C  C267  1  0.216900  0.443780  0.197420  1.0  -0.1139
  C  C268  1  0.243290  0.476150  0.211400  1.0  -0.0814
  C  C269  1  0.230380  0.495000  0.189800  1.0  0.0713
  C  C270  1  0.191110  0.481490  0.154220  1.0  -0.0551
  C  C271  1  0.164700  0.449120  0.140240  1.0  -0.0779
  C  C272  1  0.261800  0.528220  0.207640  1.0  0.1065
  C  C273  1  0.965340  0.236690  0.181800  1.0  0.6815
  C  C274  1  0.956520  0.244620  0.061040  1.0  0.6632
  C  C275  1  0.957430  0.239310  0.119100  1.0  0.0218
  C  C276  1  0.955270  0.255190  0.156020  1.0  -0.1427
  C  C277  1  0.944870  0.288940  0.170320  1.0  -0.0734
  C  C278  1  0.936630  0.306810  0.147700  1.0  0.266
  C  C279  1  0.938780  0.290930  0.110780  1.0  -0.1507
  C  C280  1  0.949180  0.257180  0.096480  1.0  -0.1484
  C  C281  1  0.923570  0.363990  0.194480  1.0  0.509
  C  C282  1  0.920290  0.403780  0.204860  1.0  -0.0237
  C  C283  1  0.912190  0.424220  0.236900  1.0  -0.0582
  C  C284  1  0.908240  0.460940  0.248480  1.0  -0.075
  C  C285  1  0.912310  0.477210  0.228020  1.0  0.1103
  C  C286  1  0.920390  0.456690  0.195980  1.0  -0.0523
  C  C287  1  0.924420  0.420040  0.184400  1.0  -0.1236
  C  C288  1  0.908160  0.514260  0.237320  1.0  0.2237
  C  C289  1  0.999290  0.170520  0.259780  1.0  0.667
  C  C290  1  0.021560  0.051940  0.261840  1.0  0.6905
  C  C291  1  0.026250  0.112250  0.326360  1.0  -0.0747
  C  C292  1  0.020080  0.093270  0.284260  1.0  -0.1454
  C  C293  1  0.012420  0.112250  0.262900  1.0  0.0379
  C  C294  1  0.010930  0.150210  0.283640  1.0  -0.1496
  C  C295  1  0.017100  0.169190  0.325740  1.0  -0.1008
  C  C296  1  0.024770  0.150210  0.347100  1.0  0.2296
  C  C297  1  0.042860  0.159790  0.418380  1.0  0.4544
  C  C298  1  0.053190  0.190080  0.464760  1.0  -0.0137
  C  C299  1  0.045250  0.175710  0.484780  1.0  -0.0413
  C  C300  1  0.053350  0.201620  0.527540  1.0  -0.0864
  C  C301  1  0.069410  0.241910  0.550300  1.0  0.0568
  C  C302  1  0.077340  0.256280  0.530280  1.0  -0.0865
  C  C303  1  0.069250  0.230380  0.487520  1.0  -0.0882
  C  C304  1  0.078420  0.271110  0.595020  1.0  0.244
  C  C305  1  0.013300  0.912210  0.179140  1.0  0.6733
  C  C306  1  0.022950  0.800890  0.059660  1.0  0.6831
  C  C307  1  0.016840  0.855180  0.118520  1.0  0.0267
  C  C308  1  0.011600  0.870110  0.153160  1.0  -0.1504
  C  C309  1  0.006670  0.846660  0.166260  1.0  -0.0986
  C  C310  1  0.006990  0.808280  0.144740  1.0  0.2476
  C  C311  1  0.012230  0.793360  0.110120  1.0  -0.0658
  C  C312  1  0.017150  0.816800  0.097000  1.0  -0.1489
  C  C313  1  0.997250  0.748500  0.143720  1.0  0.5146
  C  C314  1  0.984240  0.731570  0.161840  1.0  0.0098
  C  C315  1  0.980520  0.753640  0.197420  1.0  -0.1153
  C  C316  1  0.968110  0.735250  0.211400  1.0  -0.0829
  C  C317  1  0.959420  0.694800  0.189800  1.0  0.0716
  C  C318  1  0.963110  0.672730  0.154220  1.0  -0.0662
  C  C319  1  0.975540  0.691120  0.140240  1.0  -0.0803
  C  C320  1  0.945840  0.679420  0.207640  1.0  0.1078
  C  C321  1  0.216460  0.945110  0.181800  1.0  0.6823
  C  C322  1  0.104520  0.816420  0.061040  1.0  0.6609
  C  C323  1  0.161670  0.879790  0.119100  1.0  0.0201
  C  C324  1  0.200750  0.900830  0.156020  1.0  -0.14
  C  C325  1  0.225450  0.881380  0.170320  1.0  -0.071
  C  C326  1  0.211070  0.840890  0.147700  1.0  0.2669
  C  C327  1  0.172000  0.819850  0.110780  1.0  -0.1469
  C  C328  1  0.147300  0.839300  0.096480  1.0  -0.1494
  C  C329  1  0.270910  0.830490  0.194480  1.0  0.5062
  C  C330  1  0.284570  0.801080  0.204860  1.0  -0.0267
  C  C331  1  0.324710  0.812680  0.236900  1.0  -0.0666
  C  C332  1  0.340240  0.787540  0.248480  1.0  -0.0752
  C  C333  1  0.315710  0.750810  0.228020  1.0  0.1114
  C  C334  1  0.275590  0.739290  0.195980  1.0  -0.0573
  C  C335  1  0.259980  0.764360  0.184400  1.0  -0.123
  C  C336  1  0.329160  0.723060  0.237320  1.0  0.223
  C  C337  1  0.089260  0.999290  0.259780  1.0  0.6648
  C  C338  1  0.209900  0.021560  0.261840  1.0  0.6908
  C  C339  1  0.214110  0.026250  0.326360  1.0  -0.0717
  C  C340  1  0.190990  0.020080  0.284260  1.0  -0.146
  C  C341  1  0.150650  0.012420  0.262900  1.0  0.0382
  C  C342  1  0.133430  0.010930  0.283640  1.0  -0.1461
  C  C343  1  0.156550  0.017100  0.325740  1.0  -0.1019
  C  C344  1  0.196890  0.024770  0.347100  1.0  0.2276
  C  C345  1  0.258590  0.042860  0.418380  1.0  0.4568
  C  C346  1  0.274680  0.053190  0.464760  1.0  -0.0137
  C  C347  1  0.309070  0.045250  0.484780  1.0  -0.0389
  C  C348  1  0.325920  0.053350  0.527540  1.0  -0.083
  C  C349  1  0.308390  0.069410  0.550300  1.0  0.0564
  C  C350  1  0.274000  0.077340  0.530280  1.0  -0.0843
  C  C351  1  0.257140  0.069250  0.487520  1.0  -0.0891
  C  C352  1  0.323910  0.078420  0.595020  1.0  0.2436
  C  C353  1  0.266930  0.013300  0.179140  1.0  0.6738
  C  C354  1  0.258770  0.022950  0.059660  1.0  0.6771
  C  C355  1  0.263340  0.016840  0.118520  1.0  0.0202
  C  C356  1  0.283050  0.011600  0.153160  1.0  -0.1528
  C  C357  1  0.319600  0.006670  0.166260  1.0  -0.0972
  C  C358  1  0.336460  0.006990  0.144740  1.0  0.2514
  C  C359  1  0.316760  0.012230  0.110120  1.0  -0.0638
  C  C360  1  0.280200  0.017150  0.097000  1.0  -0.1474
  C  C361  1  0.395220  0.997250  0.143720  1.0  0.5214
  C  C362  1  0.430270  0.984240  0.161840  1.0  0.0146
  C  C363  1  0.443780  0.980520  0.197420  1.0  -0.1149
  C  C364  1  0.476150  0.968110  0.211400  1.0  -0.0845
  C  C365  1  0.495000  0.959420  0.189800  1.0  0.0728
  C  C366  1  0.481490  0.963110  0.154220  1.0  -0.0656
  C  C367  1  0.449120  0.975540  0.140240  1.0  -0.0823
  C  C368  1  0.528220  0.945840  0.207640  1.0  0.1082
  C  C369  1  0.236690  0.216460  0.181800  1.0  0.6815
  C  C370  1  0.244620  0.104520  0.061040  1.0  0.659
  C  C371  1  0.239310  0.161670  0.119100  1.0  0.0227
  C  C372  1  0.255190  0.200750  0.156020  1.0  -0.142
  C  C373  1  0.288940  0.225450  0.170320  1.0  -0.0718
  C  C374  1  0.306810  0.211070  0.147700  1.0  0.2651
  C  C375  1  0.290930  0.172000  0.110780  1.0  -0.1481
  C  C376  1  0.257180  0.147300  0.096480  1.0  -0.1506
  C  C377  1  0.363990  0.270910  0.194480  1.0  0.5013
  C  C378  1  0.403780  0.284570  0.204860  1.0  -0.0209
  C  C379  1  0.424220  0.324710  0.236900  1.0  -0.0612
  C  C380  1  0.460940  0.340240  0.248480  1.0  -0.0698
  C  C381  1  0.477210  0.315710  0.228020  1.0  0.1128
  C  C382  1  0.456690  0.275590  0.195980  1.0  -0.0521
  C  C383  1  0.420040  0.259980  0.184400  1.0  -0.1254
  C  C384  1  0.514260  0.329160  0.237320  1.0  0.2244
  C  C385  1  0.170520  0.260490  0.259780  1.0  0.6673
  C  C386  1  0.051940  0.240280  0.261840  1.0  0.6898
  C  C387  1  0.112250  0.300110  0.326360  1.0  -0.0773
  C  C388  1  0.093270  0.264180  0.284260  1.0  -0.1449
  C  C389  1  0.112250  0.250480  0.262900  1.0  0.033
  C  C390  1  0.150210  0.272710  0.283640  1.0  -0.1482
  C  C391  1  0.169190  0.308640  0.325740  1.0  -0.0982
  C  C392  1  0.150210  0.322330  0.347100  1.0  0.2301
  C  C393  1  0.159790  0.375520  0.418380  1.0  0.4566
  C  C394  1  0.190080  0.411570  0.464760  1.0  -0.0149
  C  C395  1  0.175710  0.439530  0.484780  1.0  -0.0365
  C  C396  1  0.201620  0.474190  0.527540  1.0  -0.0787
  C  C397  1  0.241910  0.480890  0.550300  1.0  0.0587
  C  C398  1  0.256280  0.452940  0.530280  1.0  -0.0821
  C  C399  1  0.230380  0.418270  0.487520  1.0  -0.0864
  C  C400  1  0.271110  0.516600  0.595020  1.0  0.243
  C  C401  1  0.912210  0.165840  0.179140  1.0  0.6709
  C  C402  1  0.800890  0.036710  0.059660  1.0  0.6783
  C  C403  1  0.855180  0.101680  0.118520  1.0  0.0115
  C  C404  1  0.870110  0.141560  0.153160  1.0  -0.1525
  C  C405  1  0.846660  0.159590  0.166260  1.0  -0.0931
  C  C406  1  0.808280  0.137750  0.144740  1.0  0.2496
  C  C407  1  0.793360  0.097890  0.110120  1.0  -0.0645
  C  C408  1  0.816800  0.079850  0.097000  1.0  -0.1491
  C  C409  1  0.748500  0.146470  0.143720  1.0  0.5246
  C  C410  1  0.731570  0.177600  0.161840  1.0  0.0081
  C  C411  1  0.753640  0.216900  0.197420  1.0  -0.1148
  C  C412  1  0.735250  0.243290  0.211400  1.0  -0.0785
  C  C413  1  0.694800  0.230380  0.189800  1.0  0.0774
  C  C414  1  0.672730  0.191110  0.154220  1.0  -0.0631
  C  C415  1  0.691120  0.164700  0.140240  1.0  -0.0815
  C  C416  1  0.679420  0.261800  0.207640  1.0  0.107
  C  C417  1  0.945110  0.965340  0.181800  1.0  0.6796
  C  C418  1  0.816420  0.956520  0.061040  1.0  0.6452
  C  C419  1  0.879790  0.957430  0.119100  1.0  0.0197
  C  C420  1  0.900830  0.955270  0.156020  1.0  -0.1411
  C  C421  1  0.881380  0.944870  0.170320  1.0  -0.0719
  C  C422  1  0.840890  0.936630  0.147700  1.0  0.2676
  C  C423  1  0.819850  0.938780  0.110780  1.0  -0.1494
  C  C424  1  0.839300  0.949180  0.096480  1.0  -0.1513
  C  C425  1  0.830490  0.923570  0.194480  1.0  0.5067
  C  C426  1  0.801080  0.920290  0.204860  1.0  -0.0263
  C  C427  1  0.812680  0.912190  0.236900  1.0  -0.0658
  C  C428  1  0.787540  0.908240  0.248480  1.0  -0.0747
  C  C429  1  0.750810  0.912310  0.228020  1.0  0.1092
  C  C430  1  0.739290  0.920390  0.195980  1.0  -0.0554
  C  C431  1  0.764360  0.924420  0.184400  1.0  -0.126
  C  C432  1  0.723060  0.908160  0.237320  1.0  0.2244
  C  C433  1  0.739510  0.910740  0.740220  1.0  0.6673
  C  C434  1  0.759720  0.790100  0.738160  1.0  0.6897
  C  C435  1  0.699890  0.785890  0.673640  1.0  -0.0731
  C  C436  1  0.735820  0.809010  0.715740  1.0  -0.1462
  C  C437  1  0.749520  0.849350  0.737100  1.0  0.0411
  C  C438  1  0.727290  0.866570  0.716360  1.0  -0.1469
  C  C439  1  0.691360  0.843450  0.674260  1.0  -0.104
  C  C440  1  0.677670  0.803110  0.652900  1.0  0.228
  C  C441  1  0.624480  0.741410  0.581620  1.0  0.4542
  C  C442  1  0.588430  0.725320  0.535240  1.0  -0.0137
  C  C443  1  0.560470  0.690930  0.515220  1.0  -0.0419
  C  C444  1  0.525810  0.674080  0.472460  1.0  -0.078
  C  C445  1  0.519110  0.691610  0.449700  1.0  0.0578
  C  C446  1  0.547060  0.726000  0.469720  1.0  -0.0869
  C  C447  1  0.581730  0.742860  0.512480  1.0  -0.0889
  C  C448  1  0.483400  0.676090  0.404980  1.0  0.2437
  C  C449  1  0.834160  0.733070  0.820860  1.0  0.6734
  C  C450  1  0.963290  0.741230  0.940340  1.0  0.6741
  C  C451  1  0.898320  0.736660  0.881480  1.0  0.0212
  C  C452  1  0.858440  0.716950  0.846840  1.0  -0.1494
  C  C453  1  0.840410  0.680400  0.833740  1.0  -0.0952
  C  C454  1  0.862250  0.663540  0.855260  1.0  0.2464
  C  C455  1  0.902110  0.683240  0.889880  1.0  -0.07
  C  C456  1  0.920150  0.719800  0.903000  1.0  -0.1516
  C  C457  1  0.853530  0.604780  0.856280  1.0  0.5196
  C  C458  1  0.822400  0.569730  0.838160  1.0  0.0121
  C  C459  1  0.783100  0.556220  0.802580  1.0  -0.1147
  C  C460  1  0.756710  0.523850  0.788600  1.0  -0.0836
  C  C461  1  0.769620  0.505000  0.810200  1.0  0.0708
  C  C462  1  0.808890  0.518510  0.845780  1.0  -0.056
  C  C463  1  0.835300  0.550880  0.859760  1.0  -0.0785
  C  C464  1  0.738200  0.471780  0.792360  1.0  0.1055
  C  C465  1  0.034660  0.763310  0.818200  1.0  0.6815
  C  C466  1  0.043480  0.755380  0.938960  1.0  0.6637
  C  C467  1  0.042570  0.760690  0.880900  1.0  0.0213
  C  C468  1  0.044730  0.744810  0.843980  1.0  -0.1424
  C  C469  1  0.055130  0.711060  0.829680  1.0  -0.073
  C  C470  1  0.063370  0.693190  0.852300  1.0  0.2669
  C  C471  1  0.061220  0.709070  0.889220  1.0  -0.1495
  C  C472  1  0.050820  0.742820  0.903520  1.0  -0.1482
  C  C473  1  0.076430  0.636010  0.805520  1.0  0.5089
  C  C474  1  0.079710  0.596220  0.795140  1.0  -0.0233
  C  C475  1  0.087810  0.575780  0.763100  1.0  -0.0603
  C  C476  1  0.091760  0.539060  0.751520  1.0  -0.0753
  C  C477  1  0.087690  0.522790  0.771980  1.0  0.1101
  C  C478  1  0.079610  0.543310  0.804020  1.0  -0.0539
  C  C479  1  0.075580  0.579960  0.815600  1.0  -0.1235
  C  C480  1  0.091840  0.485740  0.762680  1.0  0.2237
  C  C481  1  0.000710  0.829480  0.740220  1.0  0.6673
  C  C482  1  0.978440  0.948060  0.738160  1.0  0.6912
  C  C483  1  0.973750  0.887750  0.673640  1.0  -0.075
  C  C484  1  0.979920  0.906730  0.715740  1.0  -0.1448
  C  C485  1  0.987580  0.887750  0.737100  1.0  0.0386
  C  C486  1  0.989070  0.849790  0.716360  1.0  -0.1492
  C  C487  1  0.982900  0.830810  0.674260  1.0  -0.0994
  C  C488  1  0.975230  0.849790  0.652900  1.0  0.2288
  C  C489  1  0.957140  0.840210  0.581620  1.0  0.4543
  C  C490  1  0.946810  0.809920  0.535240  1.0  -0.013
  C  C491  1  0.954750  0.824290  0.515220  1.0  -0.0413
  C  C492  1  0.946650  0.798380  0.472460  1.0  -0.0864
  C  C493  1  0.930590  0.758090  0.449700  1.0  0.0576
  C  C494  1  0.922660  0.743720  0.469720  1.0  -0.0874
  C  C495  1  0.930750  0.769620  0.512480  1.0  -0.0881
  C  C496  1  0.921580  0.728890  0.404980  1.0  0.2448
  C  C497  1  0.986700  0.087790  0.820860  1.0  0.6739
  C  C498  1  0.977050  0.199110  0.940340  1.0  0.6832
  C  C499  1  0.983160  0.144820  0.881480  1.0  0.0268
  C  C500  1  0.988400  0.129890  0.846840  1.0  -0.151
  C  C501  1  0.993330  0.153340  0.833740  1.0  -0.0976
  C  C502  1  0.993010  0.191720  0.855260  1.0  0.2477
  C  C503  1  0.987770  0.206640  0.889880  1.0  -0.0659
  C  C504  1  0.982850  0.183200  0.903000  1.0  -0.1482
  C  C505  1  0.002750  0.251500  0.856280  1.0  0.5155
  C  C506  1  0.015760  0.268430  0.838160  1.0  0.0111
  C  C507  1  0.019480  0.246360  0.802580  1.0  -0.116
  C  C508  1  0.031890  0.264750  0.788600  1.0  -0.0827
  C  C509  1  0.040580  0.305200  0.810200  1.0  0.0689
  C  C510  1  0.036890  0.327270  0.845780  1.0  -0.0656
  C  C511  1  0.024460  0.308880  0.859760  1.0  -0.0802
  C  C512  1  0.054160  0.320580  0.792360  1.0  0.1097
  C  C513  1  0.783540  0.054890  0.818200  1.0  0.6812
  C  C514  1  0.895480  0.183580  0.938960  1.0  0.6614
  C  C515  1  0.838330  0.120210  0.880900  1.0  0.02
  C  C516  1  0.799250  0.099170  0.843980  1.0  -0.1405
  C  C517  1  0.774550  0.118620  0.829680  1.0  -0.0716
  C  C518  1  0.788930  0.159110  0.852300  1.0  0.2668
  C  C519  1  0.828000  0.180150  0.889220  1.0  -0.1464
  C  C520  1  0.852700  0.160700  0.903520  1.0  -0.1493
  C  C521  1  0.729090  0.169510  0.805520  1.0  0.5035
  C  C522  1  0.715430  0.198920  0.795140  1.0  -0.027
  C  C523  1  0.675290  0.187320  0.763100  1.0  -0.068
  C  C524  1  0.659760  0.212460  0.751520  1.0  -0.0735
  C  C525  1  0.684290  0.249190  0.771980  1.0  0.1105
  C  C526  1  0.724410  0.260710  0.804020  1.0  -0.0557
  C  C527  1  0.740020  0.235640  0.815600  1.0  -0.122
  C  C528  1  0.670840  0.276940  0.762680  1.0  0.224
  C  C529  1  0.910740  0.000710  0.740220  1.0  0.6656
  C  C530  1  0.790100  0.978440  0.738160  1.0  0.6917
  C  C531  1  0.785890  0.973750  0.673640  1.0  -0.0742
  C  C532  1  0.809010  0.979920  0.715740  1.0  -0.146
  C  C533  1  0.849350  0.987580  0.737100  1.0  0.0384
  C  C534  1  0.866570  0.989070  0.716360  1.0  -0.1455
  C  C535  1  0.843450  0.982900  0.674260  1.0  -0.1008
  C  C536  1  0.803110  0.975230  0.652900  1.0  0.2286
  C  C537  1  0.741410  0.957140  0.581620  1.0  0.457
  C  C538  1  0.725320  0.946810  0.535240  1.0  -0.0138
  C  C539  1  0.690930  0.954750  0.515220  1.0  -0.04
  C  C540  1  0.674080  0.946650  0.472460  1.0  -0.0824
  C  C541  1  0.691610  0.930590  0.449700  1.0  0.0558
  C  C542  1  0.726000  0.922660  0.469720  1.0  -0.084
  C  C543  1  0.742860  0.930750  0.512480  1.0  -0.0869
  C  C544  1  0.676090  0.921580  0.404980  1.0  0.244
  C  C545  1  0.733070  0.986700  0.820860  1.0  0.6734
  C  C546  1  0.741230  0.977050  0.940340  1.0  0.6765
  C  C547  1  0.736660  0.983160  0.881480  1.0  0.0198
  C  C548  1  0.716950  0.988400  0.846840  1.0  -0.1527
  C  C549  1  0.680400  0.993330  0.833740  1.0  -0.0961
  C  C550  1  0.663540  0.993010  0.855260  1.0  0.2508
  C  C551  1  0.683240  0.987770  0.889880  1.0  -0.0656
  C  C552  1  0.719800  0.982850  0.903000  1.0  -0.147
  C  C553  1  0.604780  0.002750  0.856280  1.0  0.522
  C  C554  1  0.569730  0.015760  0.838160  1.0  0.0147
  C  C555  1  0.556220  0.019480  0.802580  1.0  -0.1155
  C  C556  1  0.523850  0.031890  0.788600  1.0  -0.0833
  C  C557  1  0.505000  0.040580  0.810200  1.0  0.071
  C  C558  1  0.518510  0.036890  0.845780  1.0  -0.0662
  C  C559  1  0.550880  0.024460  0.859760  1.0  -0.0833
  C  C560  1  0.471780  0.054160  0.792360  1.0  0.1078
  C  C561  1  0.763310  0.783540  0.818200  1.0  0.6818
  C  C562  1  0.755380  0.895480  0.938960  1.0  0.6604
  C  C563  1  0.760690  0.838330  0.880900  1.0  0.0227
  C  C564  1  0.744810  0.799250  0.843980  1.0  -0.143
  C  C565  1  0.711060  0.774550  0.829680  1.0  -0.0712
  C  C566  1  0.693190  0.788930  0.852300  1.0  0.2657
  C  C567  1  0.709070  0.828000  0.889220  1.0  -0.1484
  C  C568  1  0.742820  0.852700  0.903520  1.0  -0.1516
  C  C569  1  0.636010  0.729090  0.805520  1.0  0.5006
  C  C570  1  0.596220  0.715430  0.795140  1.0  -0.0214
  C  C571  1  0.575780  0.675290  0.763100  1.0  -0.0622
  C  C572  1  0.539060  0.659760  0.751520  1.0  -0.0713
  C  C573  1  0.522790  0.684290  0.771980  1.0  0.1118
  C  C574  1  0.543310  0.724410  0.804020  1.0  -0.0509
  C  C575  1  0.579960  0.740020  0.815600  1.0  -0.1256
  C  C576  1  0.485740  0.670840  0.762680  1.0  0.2244
  C  C577  1  0.829480  0.739510  0.740220  1.0  0.6676
  C  C578  1  0.948060  0.759720  0.738160  1.0  0.6905
  C  C579  1  0.887750  0.699890  0.673640  1.0  -0.0766
  C  C580  1  0.906730  0.735820  0.715740  1.0  -0.1442
  C  C581  1  0.887750  0.749520  0.737100  1.0  0.033
  C  C582  1  0.849790  0.727290  0.716360  1.0  -0.1479
  C  C583  1  0.830810  0.691360  0.674260  1.0  -0.0987
  C  C584  1  0.849790  0.677670  0.652900  1.0  0.2305
  C  C585  1  0.840210  0.624480  0.581620  1.0  0.4572
  C  C586  1  0.809920  0.588430  0.535240  1.0  -0.0136
  C  C587  1  0.824290  0.560470  0.515220  1.0  -0.036
  C  C588  1  0.798380  0.525810  0.472460  1.0  -0.0788
  C  C589  1  0.758090  0.519110  0.449700  1.0  0.0577
  C  C590  1  0.743720  0.547060  0.469720  1.0  -0.0832
  C  C591  1  0.769620  0.581730  0.512480  1.0  -0.088
  C  C592  1  0.728890  0.483400  0.404980  1.0  0.2433
  C  C593  1  0.087790  0.834160  0.820860  1.0  0.6724
  C  C594  1  0.199110  0.963290  0.940340  1.0  0.6788
  C  C595  1  0.144820  0.898320  0.881480  1.0  0.0123
  C  C596  1  0.129890  0.858440  0.846840  1.0  -0.1524
  C  C597  1  0.153340  0.840410  0.833740  1.0  -0.0922
  C  C598  1  0.191720  0.862250  0.855260  1.0  0.2492
  C  C599  1  0.206640  0.902110  0.889880  1.0  -0.0641
  C  C600  1  0.183200  0.920150  0.903000  1.0  -0.1491
  C  C601  1  0.251500  0.853530  0.856280  1.0  0.5256
  C  C602  1  0.268430  0.822400  0.838160  1.0  0.0087
  C  C603  1  0.246360  0.783100  0.802580  1.0  -0.1148
  C  C604  1  0.264750  0.756710  0.788600  1.0  -0.0798
  C  C605  1  0.305200  0.769620  0.810200  1.0  0.0757
  C  C606  1  0.327270  0.808890  0.845780  1.0  -0.0643
  C  C607  1  0.308880  0.835300  0.859760  1.0  -0.0804
  C  C608  1  0.320580  0.738200  0.792360  1.0  0.1076
  C  C609  1  0.054890  0.034660  0.818200  1.0  0.6796
  C  C610  1  0.183580  0.043480  0.938960  1.0  0.6449
  C  C611  1  0.120210  0.042570  0.880900  1.0  0.0201
  C  C612  1  0.099170  0.044730  0.843980  1.0  -0.1416
  C  C613  1  0.118620  0.055130  0.829680  1.0  -0.0728
  C  C614  1  0.159110  0.063370  0.852300  1.0  0.2662
  C  C615  1  0.180150  0.061220  0.889220  1.0  -0.1464
  C  C616  1  0.160700  0.050820  0.903520  1.0  -0.1513
  C  C617  1  0.169510  0.076430  0.805520  1.0  0.506
  C  C618  1  0.198920  0.079710  0.795140  1.0  -0.0256
  C  C619  1  0.187320  0.087810  0.763100  1.0  -0.0676
  C  C620  1  0.212460  0.091760  0.751520  1.0  -0.0746
  C  C621  1  0.249190  0.087690  0.771980  1.0  0.1103
  C  C622  1  0.260710  0.079610  0.804020  1.0  -0.0548
  C  C623  1  0.235640  0.075580  0.815600  1.0  -0.1253
  C  C624  1  0.276940  0.091840  0.762680  1.0  0.2232
  N  N625  1  0.543970  0.358970  0.623940  1.0  -0.2312
  N  N626  1  0.570420  0.359820  0.659440  1.0  -0.0259
  N  N627  1  0.559300  0.325200  0.652200  1.0  -0.1206
  N  N628  1  0.525170  0.301270  0.611740  1.0  -0.3579
  N  N629  1  0.297610  0.544410  0.249020  1.0  -0.3103
  N  N630  1  0.318830  0.573530  0.254860  1.0  -0.1823
  N  N631  1  0.297000  0.574650  0.218600  1.0  -0.0523
  N  N632  1  0.262320  0.547520  0.189640  1.0  -0.245
  N  N633  1  0.356300  0.219360  0.391240  1.0  -0.4008
  N  N634  1  0.156340  0.374230  0.160560  1.0  -0.3913
  N  N635  1  0.926150  0.340580  0.160620  1.0  -0.379
  N  N636  1  0.901950  0.569350  0.263900  1.0  -0.2652
  N  N637  1  0.903870  0.540470  0.269340  1.0  -0.3376
  N  N638  1  0.908260  0.527760  0.213320  1.0  -0.2677
  N  N639  1  0.904300  0.562600  0.230400  1.0  -0.2641
  N  N640  1  0.079970  0.264970  0.623940  1.0  -0.2281
  N  N641  1  0.089020  0.299620  0.659440  1.0  -0.0237
  N  N642  1  0.092900  0.327000  0.652200  1.0  -0.116
  N  N643  1  0.086570  0.310470  0.611740  1.0  -0.3516
  N  N644  1  0.951410  0.704610  0.249020  1.0  -0.3111
  N  N645  1  0.936030  0.681330  0.254860  1.0  -0.1804
  N  N646  1  0.921600  0.643950  0.218600  1.0  -0.0513
  N  N647  1  0.927320  0.642120  0.189640  1.0  -0.2426
  N  N648  1  0.034940  0.171880  0.391240  1.0  -0.399
  N  N649  1  0.004220  0.786330  0.160560  1.0  -0.3915
  N  N650  1  0.234470  0.820040  0.160620  1.0  -0.3762
  N  N651  1  0.361950  0.694550  0.263900  1.0  -0.268
  N  N652  1  0.365470  0.728870  0.269340  1.0  -0.336
  N  N653  1  0.305060  0.685560  0.213320  1.0  -0.2562
  N  N654  1  0.326100  0.667800  0.230400  1.0  -0.263
  N  N655  1  0.358970  0.079970  0.623940  1.0  -0.2315
  N  N656  1  0.359820  0.089020  0.659440  1.0  -0.0295
  N  N657  1  0.325200  0.092900  0.652200  1.0  -0.1126
  N  N658  1  0.301270  0.086570  0.611740  1.0  -0.3505
  N  N659  1  0.544410  0.951410  0.249020  1.0  -0.3128
  N  N660  1  0.573530  0.936030  0.254860  1.0  -0.1795
  N  N661  1  0.574650  0.921600  0.218600  1.0  -0.047
  N  N662  1  0.547520  0.927320  0.189640  1.0  -0.2401
  N  N663  1  0.219360  0.034940  0.391240  1.0  -0.4012
  N  N664  1  0.374230  0.004220  0.160560  1.0  -0.3918
  N  N665  1  0.340580  0.234470  0.160620  1.0  -0.3783
  N  N666  1  0.569350  0.361950  0.263900  1.0  -0.2674
  N  N667  1  0.540470  0.365470  0.269340  1.0  -0.334
  N  N668  1  0.527760  0.305060  0.213320  1.0  -0.2633
  N  N669  1  0.562600  0.326100  0.230400  1.0  -0.2608
  N  N670  1  0.264970  0.543970  0.623940  1.0  -0.2304
  N  N671  1  0.299620  0.570420  0.659440  1.0  -0.023
  N  N672  1  0.327000  0.559300  0.652200  1.0  -0.1068
  N  N673  1  0.310470  0.525170  0.611740  1.0  -0.3568
  N  N674  1  0.704610  0.297610  0.249020  1.0  -0.3168
  N  N675  1  0.681330  0.318830  0.254860  1.0  -0.1804
  N  N676  1  0.643950  0.297000  0.218600  1.0  -0.0507
  N  N677  1  0.642120  0.262320  0.189640  1.0  -0.245
  N  N678  1  0.171880  0.356300  0.391240  1.0  -0.3996
  N  N679  1  0.786330  0.156340  0.160560  1.0  -0.3896
  N  N680  1  0.820040  0.926150  0.160620  1.0  -0.3805
  N  N681  1  0.694550  0.901950  0.263900  1.0  -0.2672
  N  N682  1  0.728870  0.903870  0.269340  1.0  -0.3334
  N  N683  1  0.685560  0.908260  0.213320  1.0  -0.2618
  N  N684  1  0.667800  0.904300  0.230400  1.0  -0.2633
  N  N685  1  0.456030  0.641030  0.376060  1.0  -0.2319
  N  N686  1  0.429580  0.640180  0.340560  1.0  -0.0246
  N  N687  1  0.440700  0.674800  0.347800  1.0  -0.1245
  N  N688  1  0.474830  0.698730  0.388260  1.0  -0.3579
  N  N689  1  0.702390  0.455590  0.750980  1.0  -0.3115
  N  N690  1  0.681170  0.426470  0.745140  1.0  -0.1821
  N  N691  1  0.703000  0.425350  0.781400  1.0  -0.0499
  N  N692  1  0.737680  0.452480  0.810360  1.0  -0.2426
  N  N693  1  0.643700  0.780640  0.608760  1.0  -0.4011
  N  N694  1  0.843660  0.625770  0.839440  1.0  -0.3932
  N  N695  1  0.073850  0.659420  0.839380  1.0  -0.3785
  N  N696  1  0.098050  0.430650  0.736100  1.0  -0.2665
  N  N697  1  0.096130  0.459530  0.730660  1.0  -0.3405
  N  N698  1  0.091740  0.472240  0.786680  1.0  -0.2612
  N  N699  1  0.095700  0.437400  0.769600  1.0  -0.262
  N  N700  1  0.920030  0.735030  0.376060  1.0  -0.2303
  N  N701  1  0.910980  0.700380  0.340560  1.0  -0.0239
  N  N702  1  0.907100  0.673000  0.347800  1.0  -0.1176
  N  N703  1  0.913430  0.689530  0.388260  1.0  -0.3486
  N  N704  1  0.048590  0.295390  0.750980  1.0  -0.3143
  N  N705  1  0.063970  0.318670  0.745140  1.0  -0.1784
  N  N706  1  0.078400  0.356050  0.781400  1.0  -0.0496
  N  N707  1  0.072680  0.357880  0.810360  1.0  -0.2423
  N  N708  1  0.965060  0.828120  0.608760  1.0  -0.3986
  N  N709  1  0.995780  0.213670  0.839440  1.0  -0.391
  N  N710  1  0.765530  0.179960  0.839380  1.0  -0.3758
  N  N711  1  0.638050  0.305450  0.736100  1.0  -0.2677
  N  N712  1  0.634530  0.271130  0.730660  1.0  -0.3358
  N  N713  1  0.694940  0.314440  0.786680  1.0  -0.2605
  N  N714  1  0.673900  0.332200  0.769600  1.0  -0.2618
  N  N715  1  0.641030  0.920030  0.376060  1.0  -0.2319
  N  N716  1  0.640180  0.910980  0.340560  1.0  -0.027
  N  N717  1  0.674800  0.907100  0.347800  1.0  -0.1142
  N  N718  1  0.698730  0.913430  0.388260  1.0  -0.3513
  N  N719  1  0.455590  0.048590  0.750980  1.0  -0.3143
  N  N720  1  0.426470  0.063970  0.745140  1.0  -0.1791
  N  N721  1  0.425350  0.078400  0.781400  1.0  -0.0488
  N  N722  1  0.452480  0.072680  0.810360  1.0  -0.2397
  N  N723  1  0.780640  0.965060  0.608760  1.0  -0.3998
  N  N724  1  0.625770  0.995780  0.839440  1.0  -0.3909
  N  N725  1  0.659420  0.765530  0.839380  1.0  -0.3777
  N  N726  1  0.430650  0.638050  0.736100  1.0  -0.2683
  N  N727  1  0.459530  0.634530  0.730660  1.0  -0.3329
  N  N728  1  0.472240  0.694940  0.786680  1.0  -0.262
  N  N729  1  0.437400  0.673900  0.769600  1.0  -0.2645
  N  N730  1  0.735030  0.456030  0.376060  1.0  -0.2304
  N  N731  1  0.700380  0.429580  0.340560  1.0  -0.0215
  N  N732  1  0.673000  0.440700  0.347800  1.0  -0.1057
  N  N733  1  0.689530  0.474830  0.388260  1.0  -0.3544
  N  N734  1  0.295390  0.702390  0.750980  1.0  -0.3164
  N  N735  1  0.318670  0.681170  0.745140  1.0  -0.1804
  N  N736  1  0.356050  0.703000  0.781400  1.0  -0.0526
  N  N737  1  0.357880  0.737680  0.810360  1.0  -0.2468
  N  N738  1  0.828120  0.643700  0.608760  1.0  -0.4039
  N  N739  1  0.213670  0.843660  0.839440  1.0  -0.3899
  N  N740  1  0.179960  0.073850  0.839380  1.0  -0.3788
  N  N741  1  0.305450  0.098050  0.736100  1.0  -0.2706
  N  N742  1  0.271130  0.096130  0.730660  1.0  -0.335
  N  N743  1  0.314440  0.091740  0.786680  1.0  -0.2614
  N  N744  1  0.332200  0.095700  0.769600  1.0  -0.2627
  O  O745  1  0.206780  0.187470  0.225280  1.0  -0.5566
  O  O746  1  0.255400  0.246740  0.283240  1.0  -0.5616
  O  O747  1  0.226330  0.072580  0.225680  1.0  -0.5684
  O  O748  1  0.285080  0.076550  0.279780  1.0  -0.5543
  O  O749  1  0.364450  0.280510  0.406100  1.0  -0.4647
  O  O750  1  0.199720  0.290290  0.215340  1.0  -0.5566
  O  O751  1  0.148480  0.232100  0.160480  1.0  -0.5744
  O  O752  1  0.023610  0.222400  0.042860  1.0  -0.5632
  O  O753  1  0.017930  0.277480  0.045220  1.0  -0.5609
  O  O754  1  0.111750  0.386550  0.112900  1.0  -0.4733
  O  O755  1  0.965790  0.253560  0.216680  1.0  -0.565
  O  O756  1  0.966100  0.202110  0.159500  1.0  -0.5804
  O  O757  1  0.961050  0.211940  0.046520  1.0  -0.5655
  O  O758  1  0.951320  0.265170  0.045740  1.0  -0.5603
  O  O759  1  0.923660  0.353220  0.218400  1.0  -0.4646
  O  O760  1  0.918520  0.640020  0.279840  1.0  -0.8064
  O  O761  1  0.018500  0.037810  0.225280  1.0  -0.5546
  O  O762  1  0.027840  0.036500  0.283240  1.0  -0.5625
  O  O763  1  0.999350  0.153100  0.225680  1.0  -0.5693
  O  O764  1  0.994700  0.203230  0.279780  1.0  -0.555
  O  O765  1  0.041650  0.125590  0.406100  1.0  -0.4636
  O  O766  1  0.015620  0.925050  0.215340  1.0  -0.5544
  O  O767  1  0.012000  0.928380  0.160480  1.0  -0.5737
  O  O768  1  0.019250  0.820460  0.042860  1.0  -0.5579
  O  O769  1  0.027290  0.767740  0.045220  1.0  -0.5603
  O  O770  1  0.001150  0.726350  0.112900  1.0  -0.4786
  O  O771  1  0.250890  0.963120  0.216680  1.0  -0.5651
  O  O772  1  0.193400  0.957390  0.159500  1.0  -0.5823
  O  O773  1  0.085470  0.834580  0.046520  1.0  -0.5658
  O  O774  1  0.094420  0.780570  0.045740  1.0  -0.5614
  O  O775  1  0.294740  0.865180  0.218400  1.0  -0.4647
  O  O776  1  0.361320  0.639820  0.279840  1.0  -0.8028
  O  O777  1  0.187470  0.018500  0.225280  1.0  -0.5554
  O  O778  1  0.246740  0.027840  0.283240  1.0  -0.5627
  O  O779  1  0.072580  0.999350  0.225680  1.0  -0.5678
  O  O780  1  0.076550  0.994700  0.279780  1.0  -0.5556
  O  O781  1  0.280510  0.041650  0.406100  1.0  -0.4636
  O  O782  1  0.290290  0.015620  0.215340  1.0  -0.5574
  O  O783  1  0.232100  0.012000  0.160480  1.0  -0.574
  O  O784  1  0.222400  0.019250  0.042860  1.0  -0.5551
  O  O785  1  0.277480  0.027290  0.045220  1.0  -0.5588
  O  O786  1  0.386550  0.001150  0.112900  1.0  -0.4719
  O  O787  1  0.253560  0.250890  0.216680  1.0  -0.5638
  O  O788  1  0.202110  0.193400  0.159500  1.0  -0.5819
  O  O789  1  0.211940  0.085470  0.046520  1.0  -0.5723
  O  O790  1  0.265170  0.094420  0.045740  1.0  -0.5614
  O  O791  1  0.353220  0.294740  0.218400  1.0  -0.4662
  O  O792  1  0.640020  0.361320  0.279840  1.0  -0.8032
  O  O793  1  0.037810  0.206780  0.225280  1.0  -0.5548
  O  O794  1  0.036500  0.255400  0.283240  1.0  -0.5628
  O  O795  1  0.153100  0.226330  0.225680  1.0  -0.5685
  O  O796  1  0.203230  0.285080  0.279780  1.0  -0.5537
  O  O797  1  0.125590  0.364450  0.406100  1.0  -0.4636
  O  O798  1  0.925050  0.199720  0.215340  1.0  -0.557
  O  O799  1  0.928380  0.148480  0.160480  1.0  -0.5743
  O  O800  1  0.820460  0.023610  0.042860  1.0  -0.5572
  O  O801  1  0.767740  0.017930  0.045220  1.0  -0.5575
  O  O802  1  0.726350  0.111750  0.112900  1.0  -0.4776
  O  O803  1  0.963120  0.965790  0.216680  1.0  -0.563
  O  O804  1  0.957390  0.966100  0.159500  1.0  -0.5827
  O  O805  1  0.834580  0.961050  0.046520  1.0  -0.5675
  O  O806  1  0.780570  0.951320  0.045740  1.0  -0.5638
  O  O807  1  0.865180  0.923660  0.218400  1.0  -0.4606
  O  O808  1  0.639820  0.918520  0.279840  1.0  -0.7985
  O  O809  1  0.793220  0.812530  0.774720  1.0  -0.5555
  O  O810  1  0.744600  0.753260  0.716760  1.0  -0.5627
  O  O811  1  0.773670  0.927420  0.774320  1.0  -0.5686
  O  O812  1  0.714920  0.923450  0.720220  1.0  -0.555
  O  O813  1  0.635550  0.719490  0.593900  1.0  -0.4648
  O  O814  1  0.800280  0.709710  0.784660  1.0  -0.5581
  O  O815  1  0.851520  0.767900  0.839520  1.0  -0.5735
  O  O816  1  0.976390  0.777600  0.957140  1.0  -0.5631
  O  O817  1  0.982070  0.722520  0.954780  1.0  -0.5603
  O  O818  1  0.888250  0.613450  0.887100  1.0  -0.4706
  O  O819  1  0.034210  0.746440  0.783320  1.0  -0.5653
  O  O820  1  0.033900  0.797890  0.840500  1.0  -0.579
  O  O821  1  0.038950  0.788060  0.953480  1.0  -0.5656
  O  O822  1  0.048680  0.734830  0.954260  1.0  -0.5604
  O  O823  1  0.076340  0.646780  0.781600  1.0  -0.4612
  O  O824  1  0.081480  0.359980  0.720160  1.0  -0.7909
  O  O825  1  0.981500  0.962190  0.774720  1.0  -0.5537
  O  O826  1  0.972160  0.963500  0.716760  1.0  -0.5638
  O  O827  1  0.000650  0.846900  0.774320  1.0  -0.5704
  O  O828  1  0.005300  0.796770  0.720220  1.0  -0.5547
  O  O829  1  0.958350  0.874410  0.593900  1.0  -0.4631
  O  O830  1  0.984380  0.074950  0.784660  1.0  -0.5555
  O  O831  1  0.988000  0.071620  0.839520  1.0  -0.5737
  O  O832  1  0.980750  0.179540  0.957140  1.0  -0.5568
  O  O833  1  0.972710  0.232260  0.954780  1.0  -0.5619
  O  O834  1  0.998850  0.273650  0.887100  1.0  -0.4779
  O  O835  1  0.749110  0.036880  0.783320  1.0  -0.5644
  O  O836  1  0.806600  0.042610  0.840500  1.0  -0.5819
  O  O837  1  0.914530  0.165420  0.953480  1.0  -0.566
  O  O838  1  0.905580  0.219430  0.954260  1.0  -0.561
  O  O839  1  0.705260  0.134820  0.781600  1.0  -0.4629
  O  O840  1  0.638680  0.360180  0.720160  1.0  -0.8035
  O  O841  1  0.812530  0.981500  0.774720  1.0  -0.5549
  O  O842  1  0.753260  0.972160  0.716760  1.0  -0.562
  O  O843  1  0.927420  0.000650  0.774320  1.0  -0.5677
  O  O844  1  0.923450  0.005300  0.720220  1.0  -0.5552
  O  O845  1  0.719490  0.958350  0.593900  1.0  -0.4639
  O  O846  1  0.709710  0.984380  0.784660  1.0  -0.5575
  O  O847  1  0.767900  0.988000  0.839520  1.0  -0.5728
  O  O848  1  0.777600  0.980750  0.957140  1.0  -0.5575
  O  O849  1  0.722520  0.972710  0.954780  1.0  -0.5601
  O  O850  1  0.613450  0.998850  0.887100  1.0  -0.4773
  O  O851  1  0.746440  0.749110  0.783320  1.0  -0.5645
  O  O852  1  0.797890  0.806600  0.840500  1.0  -0.5812
  O  O853  1  0.788060  0.914530  0.953480  1.0  -0.5714
  O  O854  1  0.734830  0.905580  0.954260  1.0  -0.5605
  O  O855  1  0.646780  0.705260  0.781600  1.0  -0.4664
  O  O856  1  0.359980  0.638680  0.720160  1.0  -0.803
  O  O857  1  0.962190  0.793220  0.774720  1.0  -0.555
  O  O858  1  0.963500  0.744600  0.716760  1.0  -0.5643
  O  O859  1  0.846900  0.773670  0.774320  1.0  -0.5673
  O  O860  1  0.796770  0.714920  0.720220  1.0  -0.5555
  O  O861  1  0.874410  0.635550  0.593900  1.0  -0.4632
  O  O862  1  0.074950  0.800280  0.784660  1.0  -0.558
  O  O863  1  0.071620  0.851520  0.839520  1.0  -0.5735
  O  O864  1  0.179540  0.976390  0.957140  1.0  -0.5568
  O  O865  1  0.232260  0.982070  0.954780  1.0  -0.558
  O  O866  1  0.273650  0.888250  0.887100  1.0  -0.4779
  O  O867  1  0.036880  0.034210  0.783320  1.0  -0.5644
  O  O868  1  0.042610  0.033900  0.840500  1.0  -0.5813
  O  O869  1  0.165420  0.038950  0.953480  1.0  -0.5686
  O  O870  1  0.219430  0.048680  0.954260  1.0  -0.5632
  O  O871  1  0.134820  0.076340  0.781600  1.0  -0.4603
  O  O872  1  0.360180  0.081480  0.720160  1.0  -0.7953
