# generated using pymatgen
data_Cu3H45C84NO12
_symmetry_space_group_name_H-M   'P 1'
_cell_length_a   48.51040000
_cell_length_b   48.51040000
_cell_length_c   48.51040000
_cell_angle_alpha   60.00000000
_cell_angle_beta   60.00000000
_cell_angle_gamma   60.00000000
_symmetry_Int_Tables_number   1
_chemical_formula_structural   Cu3H45C84NO12
_chemical_formula_sum   'Cu24 H360 C672 N8 O96'
_cell_volume   80721.56425006
_cell_formula_units_Z   8
loop_
 _symmetry_equiv_pos_site_id
 _symmetry_equiv_pos_as_xyz
  1  'x, y, z'
loop_
 _atom_site_type_symbol
 _atom_site_label
 _atom_site_symmetry_multiplicity
 _atom_site_fract_x
 _atom_site_fract_y
 _atom_site_fract_z
 _atom_site_occupancy
 _atom_site_charge
  Cu  Cu1  1  0.362240  0.000010  0.001060  1.0  0.9464
  Cu  Cu2  1  0.999770  0.361900  0.637330  1.0  0.9392
  Cu  Cu3  1  0.999470  0.636270  0.363570  1.0  0.8226
  Cu  Cu4  1  0.637950  0.999750  0.000140  1.0  0.9552
  Cu  Cu5  1  0.000260  0.363720  0.999840  1.0  0.8194
  Cu  Cu6  1  0.635810  0.001320  0.364060  1.0  0.8403
  Cu  Cu7  1  0.364150  0.000060  0.636180  1.0  0.8282
  Cu  Cu8  1  0.999820  0.637880  0.999990  1.0  0.957
  Cu  Cu9  1  0.999940  0.999730  0.363650  1.0  0.9839
  Cu  Cu10  1  0.363510  0.636830  0.000320  1.0  0.7849
  Cu  Cu11  1  0.634310  0.365870  0.999010  1.0  0.8781
  Cu  Cu12  1  0.000140  0.998900  0.637550  1.0  0.9407
  Cu  Cu13  1  0.317910  0.000140  0.001540  1.0  0.9297
  Cu  Cu14  1  0.999610  0.318000  0.681120  1.0  0.9284
  Cu  Cu15  1  0.999510  0.680240  0.319390  1.0  0.9096
  Cu  Cu16  1  0.681490  0.999610  0.000210  1.0  0.9292
  Cu  Cu17  1  0.000400  0.319520  0.999840  1.0  0.9115
  Cu  Cu18  1  0.680280  0.001520  0.319820  1.0  0.9299
  Cu  Cu19  1  0.320120  0.999970  0.680210  1.0  0.9249
  Cu  Cu20  1  0.999580  0.682110  0.999940  1.0  0.9205
  Cu  Cu21  1  0.000020  0.999700  0.319740  1.0  0.912
  Cu  Cu22  1  0.319340  0.681110  0.000420  1.0  0.9417
  Cu  Cu23  1  0.678930  0.321090  0.999020  1.0  0.9537
  Cu  Cu24  1  0.000160  0.998520  0.681660  1.0  0.9327
  H  H25  1  0.426990  0.014940  0.897260  1.0  0.1145
  H  H26  1  0.449020  0.029530  0.835990  1.0  0.1138
  H  H27  1  0.353840  0.040880  0.837930  1.0  0.111
  H  H28  1  0.332690  0.024610  0.898950  1.0  0.1161
  H  H29  1  0.444180  0.074690  0.785990  1.0  0.1141
  H  H30  1  0.611460  0.058000  0.655710  1.0  0.1173
  H  H31  1  0.554970  0.053940  0.683000  1.0  0.1211
  H  H32  1  0.512290  0.156480  0.681820  1.0  0.135
  H  H33  1  0.015630  0.427600  0.659970  1.0  0.1145
  H  H34  1  0.029660  0.449970  0.684690  1.0  0.1151
  H  H35  1  0.042150  0.354490  0.766210  1.0  0.1109
  H  H36  1  0.025900  0.333270  0.742720  1.0  0.1198
  H  H37  1  0.070840  0.449400  0.695530  1.0  0.1135
  H  H38  1  0.069760  0.613450  0.688980  1.0  0.1169
  H  H39  1  0.060800  0.558630  0.721910  1.0  0.1245
  H  H40  1  0.140560  0.519380  0.642270  1.0  0.1247
  H  H41  1  0.895360  0.660590  0.427510  1.0  0.1133
  H  H42  1  0.834290  0.685650  0.449870  1.0  0.1137
  H  H43  1  0.836100  0.767270  0.354420  1.0  0.1122
  H  H44  1  0.897000  0.743420  0.333150  1.0  0.1139
  H  H45  1  0.783210  0.696740  0.447960  1.0  0.1158
  H  H46  1  0.606460  0.670110  0.573180  1.0  0.114
  H  H47  1  0.661170  0.896640  0.015650  1.0  0.1137
  H  H48  1  0.685290  0.835560  0.029510  1.0  0.112
  H  H49  1  0.767240  0.835610  0.042590  1.0  0.1119
  H  H50  1  0.744360  0.896560  0.026500  1.0  0.113
  H  H51  1  0.695440  0.784370  0.071540  1.0  0.1156
  H  H52  1  0.666330  0.609450  0.150190  1.0  0.1068
  H  H53  1  0.896290  0.427070  0.014980  1.0  0.1137
  H  H54  1  0.835010  0.448980  0.029750  1.0  0.116
  H  H55  1  0.837020  0.353760  0.041160  1.0  0.1126
  H  H56  1  0.898070  0.332700  0.024660  1.0  0.1146
  H  H57  1  0.785160  0.443950  0.074990  1.0  0.1165
  H  H58  1  0.655560  0.611530  0.058050  1.0  0.1136
  H  H59  1  0.682840  0.555060  0.053940  1.0  0.1222
  H  H60  1  0.681580  0.512290  0.156520  1.0  0.1315
  H  H61  1  0.659440  0.017470  0.429230  1.0  0.114
  H  H62  1  0.684220  0.032530  0.450910  1.0  0.1164
  H  H63  1  0.766300  0.042740  0.355830  1.0  0.1162
  H  H64  1  0.742730  0.026100  0.335160  1.0  0.1153
  H  H65  1  0.696110  0.076930  0.446280  1.0  0.1128
  H  H66  1  0.664500  0.153080  0.575480  1.0  0.1141
  H  H67  1  0.428040  0.895710  0.660170  1.0  0.1121
  H  H68  1  0.450070  0.834540  0.684980  1.0  0.114
  H  H69  1  0.354580  0.836630  0.766560  1.0  0.114
  H  H70  1  0.333670  0.897560  0.743020  1.0  0.1165
  H  H71  1  0.448060  0.783280  0.696280  1.0  0.1162
  H  H72  1  0.573280  0.606620  0.669820  1.0  0.1144
  H  H73  1  0.014840  0.660840  0.896550  1.0  0.1137
  H  H74  1  0.029860  0.684940  0.835230  1.0  0.1114
  H  H75  1  0.041480  0.767070  0.836430  1.0  0.1163
  H  H76  1  0.024780  0.744080  0.897460  1.0  0.1138
  H  H77  1  0.076040  0.693960  0.785680  1.0  0.117
  H  H78  1  0.075000  0.695350  0.628150  1.0  0.1207
  H  H79  1  0.070430  0.721800  0.661320  1.0  0.1186
  H  H80  1  0.148660  0.635130  0.697840  1.0  0.1411
  H  H81  1  0.016650  0.894410  0.429330  1.0  0.1093
  H  H82  1  0.031470  0.833100  0.450210  1.0  0.116
  H  H83  1  0.041490  0.837330  0.354560  1.0  0.1116
  H  H84  1  0.025030  0.898230  0.334600  1.0  0.1133
  H  H85  1  0.075740  0.782890  0.444970  1.0  0.1121
  H  H86  1  0.162990  0.621140  0.568530  1.0  0.1028
  H  H87  1  0.432240  0.657280  0.017850  1.0  0.1143
  H  H88  1  0.452180  0.683800  0.032790  1.0  0.1178
  H  H89  1  0.356250  0.764800  0.041510  1.0  0.1155
  H  H90  1  0.337220  0.739450  0.025090  1.0  0.1153
  H  H91  1  0.446250  0.696100  0.076870  1.0  0.1123
  H  H92  1  0.575190  0.664610  0.153050  1.0  0.1124
  H  H93  1  0.661930  0.425260  0.896720  1.0  0.1141
  H  H94  1  0.685400  0.448640  0.835630  1.0  0.1162
  H  H95  1  0.767960  0.354090  0.834940  1.0  0.1159
  H  H96  1  0.745610  0.331700  0.896010  1.0  0.1124
  H  H97  1  0.695950  0.447680  0.783860  1.0  0.1135
  H  H98  1  0.669830  0.573510  0.606390  1.0  0.112
  H  H99  1  0.895950  0.015500  0.660500  1.0  0.1091
  H  H100  1  0.834850  0.029770  0.685270  1.0  0.113
  H  H101  1  0.836700  0.042100  0.766670  1.0  0.1114
  H  H102  1  0.897660  0.025520  0.743220  1.0  0.1129
  H  H103  1  0.784240  0.071590  0.695690  1.0  0.1156
  H  H104  1  0.609500  0.150020  0.666667  1.0  0.1079
  H  H105  1  0.572280  0.984880  0.339670  1.0  0.1132
  H  H106  1  0.550710  0.969920  0.314910  1.0  0.1161
  H  H107  1  0.645970  0.959060  0.233090  1.0  0.1118
  H  H108  1  0.666667  0.975660  0.256820  1.0  0.1157
  H  H109  1  0.555930  0.924830  0.304880  1.0  0.1145
  H  H110  1  0.388200  0.941970  0.325550  1.0  0.1157
  H  H111  1  0.444640  0.946330  0.292370  1.0  0.1223
  H  H112  1  0.487750  0.843470  0.350180  1.0  0.1322
  H  H113  1  0.984850  0.572680  0.103480  1.0  0.1157
  H  H114  1  0.970270  0.550460  0.164750  1.0  0.1158
  H  H115  1  0.958620  0.645570  0.163240  1.0  0.1172
  H  H116  1  0.974880  0.666910  0.102260  1.0  0.115
  H  H117  1  0.924800  0.555550  0.214720  1.0  0.1136
  H  H118  1  0.941900  0.388350  0.344410  1.0  0.1146
  H  H119  1  0.945800  0.444900  0.317220  1.0  0.1239
  H  H120  1  0.843200  0.487390  0.318610  1.0  0.1338
  H  H121  1  0.103880  0.339290  0.984460  1.0  0.1143
  H  H122  1  0.165020  0.315010  0.970160  1.0  0.1147
  H  H123  1  0.164100  0.233470  0.957190  1.0  0.1109
  H  H124  1  0.103130  0.256490  0.973730  1.0  0.1141
  H  H125  1  0.216500  0.304350  0.928750  1.0  0.1175
  H  H126  1  0.372370  0.311120  0.930210  1.0  0.1189
  H  H127  1  0.341600  0.278170  0.939080  1.0  0.1267
  H  H128  1  0.302520  0.357800  0.859290  1.0  0.1224
  H  H129  1  0.339720  0.104520  0.572240  1.0  0.1142
  H  H130  1  0.314820  0.165840  0.550540  1.0  0.1145
  H  H131  1  0.232820  0.163150  0.645670  1.0  0.1116
  H  H132  1  0.256600  0.102190  0.666470  1.0  0.1154
  H  H133  1  0.303900  0.216560  0.555050  1.0  0.1128
  H  H134  1  0.353080  0.378470  0.431570  1.0  0.1064
  H  H135  1  0.103400  0.572340  0.339720  1.0  0.1147
  H  H136  1  0.164560  0.549980  0.315390  1.0  0.1135
  H  H137  1  0.163300  0.645390  0.233830  1.0  0.1145
  H  H138  1  0.102350  0.666590  0.256810  1.0  0.1174
  H  H139  1  0.216300  0.550540  0.304380  1.0  0.1147
  H  H140  1  0.372470  0.386480  0.311000  1.0  0.1166
  H  H141  1  0.341570  0.441240  0.278080  1.0  0.1219
  H  H142  1  0.302180  0.480500  0.357780  1.0  0.1248
  H  H143  1  0.340200  0.982520  0.105950  1.0  0.1183
  H  H144  1  0.315820  0.967110  0.167500  1.0  0.1151
  H  H145  1  0.233530  0.956900  0.165130  1.0  0.1159
  H  H146  1  0.256660  0.973920  0.104210  1.0  0.1146
  H  H147  1  0.303870  0.923110  0.219320  1.0  0.1146
  H  H148  1  0.334530  0.847590  0.393590  1.0  0.1149
  H  H149  1  0.573600  0.102800  0.985170  1.0  0.115
  H  H150  1  0.551120  0.164080  0.970130  1.0  0.1149
  H  H151  1  0.645760  0.163510  0.958560  1.0  0.1124
  H  H152  1  0.667390  0.102410  0.975320  1.0  0.1133
  H  H153  1  0.556190  0.213740  0.924390  1.0  0.1155
  H  H154  1  0.398740  0.371850  0.924940  1.0  0.1223
  H  H155  1  0.453670  0.338420  0.929800  1.0  0.1167
  H  H156  1  0.481820  0.301780  0.851630  1.0  0.1378
  H  H157  1  0.982240  0.340170  0.571470  1.0  0.1161
  H  H158  1  0.967260  0.315340  0.549820  1.0  0.1156
  H  H159  1  0.957310  0.233160  0.644800  1.0  0.1166
  H  H160  1  0.973860  0.256810  0.665510  1.0  0.1146
  H  H161  1  0.923600  0.303270  0.553910  1.0  0.1157
  H  H162  1  0.846980  0.335150  0.424840  1.0  0.1143
  H  H163  1  0.984000  0.104550  0.340480  1.0  0.1098
  H  H164  1  0.970460  0.165510  0.314730  1.0  0.1134
  H  H165  1  0.958280  0.162520  0.233860  1.0  0.1116
  H  H166  1  0.974120  0.101610  0.258350  1.0  0.1146
  H  H167  1  0.928590  0.215780  0.304270  1.0  0.1163
  H  H168  1  0.849950  0.390300  0.333520  1.0  0.1097
  H  H169  1  0.575070  0.337800  0.101490  1.0  0.1129
  H  H170  1  0.552060  0.314820  0.162740  1.0  0.1166
  H  H171  1  0.646210  0.231880  0.163440  1.0  0.1148
  H  H172  1  0.668490  0.253870  0.102220  1.0  0.1145
  H  H173  1  0.556230  0.305990  0.213110  1.0  0.1167
  H  H174  1  0.399160  0.304050  0.373110  1.0  0.138
  H  H175  1  0.454050  0.277600  0.339580  1.0  0.1151
  H  H176  1  0.481540  0.365190  0.300820  1.0  0.1408
  H  H177  1  0.342360  0.568670  0.983110  1.0  0.1134
  H  H178  1  0.315590  0.548670  0.968600  1.0  0.1146
  H  H179  1  0.234920  0.644800  0.959260  1.0  0.1163
  H  H180  1  0.260570  0.663990  0.975270  1.0  0.1158
  H  H181  1  0.304120  0.554830  0.924170  1.0  0.1136
  H  H182  1  0.352900  0.431520  0.836910  1.0  0.1058
  H  H183  1  0.104020  0.983970  0.572260  1.0  0.1115
  H  H184  1  0.165000  0.970520  0.549830  1.0  0.1123
  H  H185  1  0.163320  0.957940  0.645480  1.0  0.1126
  H  H186  1  0.102440  0.973650  0.666760  1.0  0.113
  H  H187  1  0.215730  0.928740  0.551350  1.0  0.115
  H  H188  1  0.390550  0.849980  0.426210  1.0  0.1071
  H  H189  1  0.571140  0.983330  0.105440  1.0  0.1101
  H  H190  1  0.549890  0.968900  0.166740  1.0  0.1155
  H  H191  1  0.645400  0.958700  0.162970  1.0  0.1121
  H  H192  1  0.665750  0.974760  0.102080  1.0  0.1164
  H  H193  1  0.554670  0.924880  0.217160  1.0  0.1108
  H  H194  1  0.431580  0.836870  0.378560  1.0  0.1055
  H  H195  1  0.983560  0.571550  0.339730  1.0  0.1147
  H  H196  1  0.968550  0.549940  0.314950  1.0  0.1171
  H  H197  1  0.957930  0.645160  0.233060  1.0  0.1158
  H  H198  1  0.974560  0.665850  0.256680  1.0  0.1158
  H  H199  1  0.923960  0.554810  0.303880  1.0  0.1138
  H  H200  1  0.836840  0.431140  0.353020  1.0  0.1048
  H  H201  1  0.103640  0.338670  0.572420  1.0  0.112
  H  H202  1  0.164980  0.314280  0.550610  1.0  0.1165
  H  H203  1  0.162960  0.232490  0.645870  1.0  0.1124
  H  H204  1  0.101960  0.255730  0.666760  1.0  0.1136
  H  H205  1  0.215020  0.304420  0.555640  1.0  0.1155
  H  H206  1  0.344450  0.325510  0.388070  1.0  0.1176
  H  H207  1  0.316950  0.292190  0.444490  1.0  0.121
  H  H208  1  0.318870  0.349880  0.487730  1.0  0.13
  H  H209  1  0.339440  0.104030  0.984690  1.0  0.1135
  H  H210  1  0.315020  0.165180  0.970030  1.0  0.1135
  H  H211  1  0.233630  0.163660  0.957380  1.0  0.111
  H  H212  1  0.256720  0.102680  0.974310  1.0  0.1112
  H  H213  1  0.304580  0.215990  0.928100  1.0  0.1146
  H  H214  1  0.333650  0.390560  0.849800  1.0  0.1072
  H  H215  1  0.103730  0.572930  0.984690  1.0  0.113
  H  H216  1  0.164970  0.550850  0.970340  1.0  0.1147
  H  H217  1  0.163030  0.646040  0.958970  1.0  0.1131
  H  H218  1  0.102050  0.667250  0.974980  1.0  0.1172
  H  H219  1  0.214790  0.555860  0.925240  1.0  0.1178
  H  H220  1  0.344420  0.388450  0.941940  1.0  0.1173
  H  H221  1  0.317180  0.444930  0.946030  1.0  0.1196
  H  H222  1  0.318450  0.487700  0.843440  1.0  0.1303
  H  H223  1  0.339970  0.984240  0.571840  1.0  0.1134
  H  H224  1  0.315100  0.970140  0.549720  1.0  0.1142
  H  H225  1  0.233800  0.957680  0.645370  1.0  0.1123
  H  H226  1  0.257400  0.974030  0.666370  1.0  0.1126
  H  H227  1  0.304210  0.928870  0.550620  1.0  0.1151
  H  H228  1  0.311030  0.930100  0.386510  1.0  0.1158
  H  H229  1  0.278030  0.939110  0.441300  1.0  0.1263
  H  H230  1  0.357720  0.859570  0.480590  1.0  0.1208
  H  H231  1  0.571880  0.105900  0.340030  1.0  0.1147
  H  H232  1  0.549930  0.167340  0.315370  1.0  0.1163
  H  H233  1  0.644840  0.164950  0.233060  1.0  0.115
  H  H234  1  0.665810  0.104030  0.256570  1.0  0.1158
  H  H235  1  0.553720  0.219290  0.303250  1.0  0.1146
  H  H236  1  0.424600  0.393380  0.334440  1.0  0.1161
  H  H237  1  0.984550  0.339720  0.104130  1.0  0.1143
  H  H238  1  0.970200  0.314910  0.165240  1.0  0.1128
  H  H239  1  0.957700  0.233720  0.163180  1.0  0.1117
  H  H240  1  0.974320  0.257250  0.102220  1.0  0.1133
  H  H241  1  0.928830  0.304120  0.216330  1.0  0.1149
  H  H242  1  0.930290  0.310850  0.372340  1.0  0.1165
  H  H243  1  0.939290  0.277950  0.341440  1.0  0.1263
  H  H244  1  0.859540  0.357590  0.302300  1.0  0.124
  H  H245  1  0.984950  0.102610  0.572810  1.0  0.1128
  H  H246  1  0.970170  0.163840  0.550690  1.0  0.1144
  H  H247  1  0.959020  0.162330  0.645580  1.0  0.1133
  H  H248  1  0.975430  0.101240  0.666910  1.0  0.1133
  H  H249  1  0.924490  0.213410  0.555990  1.0  0.1147
  H  H250  1  0.924940  0.371700  0.398730  1.0  0.1276
  H  H251  1  0.929780  0.338360  0.453680  1.0  0.1168
  H  H252  1  0.851640  0.301650  0.481890  1.0  0.1388
  H  H253  1  0.568940  0.341900  0.982290  1.0  0.1165
  H  H254  1  0.548410  0.316040  0.967280  1.0  0.116
  H  H255  1  0.644080  0.234670  0.957990  1.0  0.1133
  H  H256  1  0.663690  0.259400  0.974520  1.0  0.1151
  H  H257  1  0.553580  0.303880  0.923390  1.0  0.1141
  H  H258  1  0.424790  0.335350  0.846950  1.0  0.1106
  H  H259  1  0.337150  0.576100  0.102370  1.0  0.1128
  H  H260  1  0.314060  0.552150  0.163440  1.0  0.1133
  H  H261  1  0.231450  0.646550  0.165120  1.0  0.1163
  H  H262  1  0.253310  0.669410  0.104110  1.0  0.1141
  H  H263  1  0.303920  0.551530  0.215410  1.0  0.111
  H  H264  1  0.333430  0.426120  0.390540  1.0  0.1086
  H  H265  1  0.102720  0.985230  0.338470  1.0  0.1186
  H  H266  1  0.164000  0.970250  0.314890  1.0  0.1146
  H  H267  1  0.163800  0.958380  0.232340  1.0  0.113
  H  H268  1  0.102730  0.975050  0.254900  1.0  0.1121
  H  H269  1  0.213820  0.924150  0.306100  1.0  0.1149
  H  H270  1  0.373090  0.923730  0.304200  1.0  0.1369
  H  H271  1  0.339690  0.928590  0.277750  1.0  0.1175
  H  H272  1  0.301060  0.852210  0.365400  1.0  0.1358
  H  H273  1  0.428350  0.016440  0.660490  1.0  0.1193
  H  H274  1  0.449680  0.031350  0.685600  1.0  0.1169
  H  H275  1  0.354300  0.041660  0.767330  1.0  0.1093
  H  H276  1  0.333900  0.025090  0.743350  1.0  0.1164
  H  H277  1  0.444880  0.075580  0.696840  1.0  0.1121
  H  H278  1  0.568480  0.162990  0.647340  1.0  0.1067
  H  H279  1  0.016280  0.427990  0.895510  1.0  0.1205
  H  H280  1  0.029740  0.450160  0.834550  1.0  0.1149
  H  H281  1  0.042130  0.354440  0.836620  1.0  0.1122
  H  H282  1  0.026370  0.333333  0.897550  1.0  0.1154
  H  H283  1  0.071370  0.448580  0.783860  1.0  0.1157
  H  H284  1  0.150100  0.573770  0.609530  1.0  0.106
  H  H285  1  0.896080  0.660460  0.015610  1.0  0.113
  H  H286  1  0.834880  0.684750  0.029940  1.0  0.1125
  H  H287  1  0.835800  0.766270  0.042920  1.0  0.1146
  H  H288  1  0.896720  0.743340  0.026330  1.0  0.1148
  H  H289  1  0.783220  0.695620  0.071440  1.0  0.1156
  H  H290  1  0.627560  0.688840  0.069800  1.0  0.1172
  H  H291  1  0.658230  0.721880  0.060960  1.0  0.1275
  H  H292  1  0.697350  0.642300  0.140740  1.0  0.1251
  H  H293  1  0.660410  0.897300  0.427190  1.0  0.1136
  H  H294  1  0.684790  0.836140  0.449420  1.0  0.1125
  H  H295  1  0.766540  0.837510  0.354120  1.0  0.1121
  H  H296  1  0.743360  0.898550  0.332970  1.0  0.1153
  H  H297  1  0.695200  0.785190  0.447600  1.0  0.1138
  H  H298  1  0.691850  0.623030  0.606970  1.0  0.1165
  H  H299  1  0.723610  0.654690  0.552300  1.0  0.1248
  H  H300  1  0.638280  0.702710  0.518510  1.0  0.1326
  H  H301  1  0.896410  0.427570  0.660290  1.0  0.1202
  H  H302  1  0.835270  0.450270  0.684820  1.0  0.1155
  H  H303  1  0.836210  0.354950  0.766490  1.0  0.1159
  H  H304  1  0.897080  0.333333  0.743270  1.0  0.1126
  H  H305  1  0.784090  0.448260  0.695390  1.0  0.1159
  H  H306  1  0.622810  0.607310  0.691770  1.0  0.1166
  H  H307  1  0.654270  0.552560  0.723600  1.0  0.1171
  H  H308  1  0.702270  0.518760  0.638290  1.0  0.13
  H  H309  1  0.659700  0.015750  0.895670  1.0  0.1136
  H  H310  1  0.684810  0.029930  0.834550  1.0  0.1147
  H  H311  1  0.765900  0.042300  0.836950  1.0  0.1124
  H  H312  1  0.742100  0.025820  0.897860  1.0  0.1154
  H  H313  1  0.695730  0.071110  0.783490  1.0  0.115
  H  H314  1  0.688900  0.069710  0.627730  1.0  0.117
  H  H315  1  0.721970  0.060830  0.658390  1.0  0.1291
  H  H316  1  0.642400  0.140540  0.697620  1.0  0.1155
  H  H317  1  0.427430  0.896520  0.015460  1.0  0.1149
  H  H318  1  0.449710  0.835350  0.029510  1.0  0.1156
  H  H319  1  0.354630  0.837010  0.040870  1.0  0.1105
  H  H320  1  0.333220  0.897990  0.025120  1.0  0.1137
  H  H321  1  0.444010  0.786240  0.075370  1.0  0.117
  H  H322  1  0.601220  0.628120  0.075070  1.0  0.1216
  H  H323  1  0.546280  0.661590  0.070190  1.0  0.1141
  H  H324  1  0.518160  0.698210  0.148370  1.0  0.1376
  H  H325  1  0.014990  0.660810  0.427760  1.0  0.113
  H  H326  1  0.029670  0.685710  0.449440  1.0  0.1162
  H  H327  1  0.040870  0.767360  0.354050  1.0  0.1134
  H  H328  1  0.024500  0.743530  0.333250  1.0  0.113
  H  H329  1  0.074990  0.695370  0.444140  1.0  0.1182
  H  H330  1  0.057960  0.674700  0.611530  1.0  0.1124
  H  H331  1  0.053970  0.708130  0.555020  1.0  0.123
  H  H332  1  0.156530  0.649490  0.512320  1.0  0.1296
  H  H333  1  0.017240  0.894140  0.659900  1.0  0.1133
  H  H334  1  0.032650  0.832620  0.684290  1.0  0.1158
  H  H335  1  0.042840  0.835010  0.766590  1.0  0.1172
  H  H336  1  0.025860  0.895950  0.743380  1.0  0.1134
  H  H337  1  0.077020  0.781020  0.695920  1.0  0.1161
  H  H338  1  0.153060  0.606890  0.664530  1.0  0.1141
  H  H339  1  0.424010  0.662930  0.898350  1.0  0.1116
  H  H340  1  0.447710  0.685700  0.837170  1.0  0.1122
  H  H341  1  0.353420  0.768380  0.835510  1.0  0.1171
  H  H342  1  0.330740  0.746860  0.896570  1.0  0.1144
  H  H343  1  0.447440  0.695680  0.785290  1.0  0.1152
  H  H344  1  0.606900  0.692100  0.622850  1.0  0.1179
  H  H345  1  0.552260  0.723700  0.654710  1.0  0.1234
  H  H346  1  0.518640  0.638270  0.702610  1.0  0.128
  H  H347  1  0.658470  0.430140  0.016760  1.0  0.1149
  H  H348  1  0.684600  0.450670  0.031370  1.0  0.1133
  H  H349  1  0.765760  0.354860  0.040920  1.0  0.1153
  H  H350  1  0.740740  0.335210  0.024670  1.0  0.1145
  H  H351  1  0.695910  0.445130  0.075700  1.0  0.113
  H  H352  1  0.647120  0.568460  0.163070  1.0  0.1073
  H  H353  1  0.897240  0.014640  0.426510  1.0  0.1129
  H  H354  1  0.835970  0.029800  0.449100  1.0  0.1138
  H  H355  1  0.836220  0.041650  0.354510  1.0  0.111
  H  H356  1  0.897330  0.024820  0.332700  1.0  0.1127
  H  H357  1  0.786200  0.075870  0.443990  1.0  0.115
  H  H358  1  0.628170  0.075020  0.601390  1.0  0.125
  H  H359  1  0.661490  0.070370  0.546350  1.0  0.1165
  H  H360  1  0.697970  0.148600  0.518370  1.0  0.1377
  H  H361  1  0.392420  0.018640  0.794760  1.0  0.1209
  H  H362  1  0.020280  0.391150  0.793910  1.0  0.1184
  H  H363  1  0.793890  0.794980  0.391480  1.0  0.1218
  H  H364  1  0.794180  0.793730  0.019960  1.0  0.1213
  H  H365  1  0.793740  0.392330  0.018900  1.0  0.1207
  H  H366  1  0.793420  0.018910  0.394190  1.0  0.1232
  H  H367  1  0.391720  0.794720  0.794150  1.0  0.1227
  H  H368  1  0.018970  0.793300  0.793440  1.0  0.1205
  H  H369  1  0.018840  0.794400  0.392440  1.0  0.1201
  H  H370  1  0.393440  0.793230  0.019170  1.0  0.1207
  H  H371  1  0.794510  0.392510  0.793750  1.0  0.1204
  H  H372  1  0.793910  0.020440  0.794340  1.0  0.1219
  H  H373  1  0.607580  0.981240  0.205960  1.0  0.1206
  H  H374  1  0.981540  0.606550  0.205960  1.0  0.121
  H  H375  1  0.206090  0.206000  0.979720  1.0  0.1208
  H  H376  1  0.205770  0.205600  0.607270  1.0  0.1219
  H  H377  1  0.205070  0.608540  0.206420  1.0  0.1233
  H  H378  1  0.206570  0.981020  0.206560  1.0  0.1216
  H  H379  1  0.606530  0.206710  0.980810  1.0  0.1198
  H  H380  1  0.980960  0.205820  0.606590  1.0  0.1195
  H  H381  1  0.979570  0.205780  0.205770  1.0  0.1193
  H  H382  1  0.606380  0.206340  0.206020  1.0  0.1211
  H  H383  1  0.206390  0.607600  0.981160  1.0  0.1217
  H  H384  1  0.205960  0.979720  0.608730  1.0  0.121
  C  C385  1  0.364300  0.010890  0.939620  1.0  0.672
  C  C386  1  0.378190  0.018600  0.902820  1.0  -0.0836
  C  C387  1  0.411020  0.020230  0.884510  1.0  -0.0774
  C  C388  1  0.423470  0.028910  0.849420  1.0  -0.1467
  C  C389  1  0.403170  0.036450  0.832060  1.0  0.0319
  C  C390  1  0.370380  0.034650  0.850530  1.0  -0.1401
  C  C391  1  0.358150  0.025570  0.885530  1.0  -0.0836
  C  C392  1  0.415630  0.046520  0.794810  1.0  0.0265
  C  C393  1  0.436200  0.066850  0.774570  1.0  -0.108
  C  C394  1  0.529780  0.105050  0.683810  1.0  -0.008
  C  C395  1  0.589920  0.080290  0.659360  1.0  -0.09
  C  C396  1  0.557860  0.077630  0.675880  1.0  -0.1229
  C  C397  1  0.533730  0.135560  0.674500  1.0  -0.1299
  C  C398  1  0.011280  0.364990  0.684590  1.0  0.6672
  C  C399  1  0.019480  0.378790  0.699500  1.0  -0.08
  C  C400  1  0.021040  0.411630  0.683360  1.0  -0.0759
  C  C401  1  0.029470  0.424280  0.697360  1.0  -0.1316
  C  C402  1  0.036990  0.404130  0.727550  1.0  0.0362
  C  C403  1  0.035760  0.371100  0.743370  1.0  -0.1455
  C  C404  1  0.026740  0.358750  0.729720  1.0  -0.0769
  C  C405  1  0.045810  0.417280  0.742880  1.0  0.0505
  C  C406  1  0.063550  0.440350  0.722790  1.0  -0.0792
  C  C407  1  0.100130  0.535360  0.684270  1.0  -0.0017
  C  C408  1  0.085660  0.592940  0.678780  1.0  -0.1404
  C  C409  1  0.080510  0.561830  0.697480  1.0  -0.121
  C  C410  1  0.125300  0.539800  0.652630  1.0  -0.1237
  C  C411  1  0.937720  0.685220  0.364910  1.0  0.669
  C  C412  1  0.900920  0.700230  0.378720  1.0  -0.0853
  C  C413  1  0.882630  0.684130  0.411560  1.0  -0.0795
  C  C414  1  0.847610  0.698310  0.424220  1.0  -0.1334
  C  C415  1  0.830210  0.728640  0.404050  1.0  0.031
  C  C416  1  0.848670  0.744380  0.371030  1.0  -0.1403
  C  C417  1  0.883620  0.730540  0.358660  1.0  -0.0825
  C  C418  1  0.793030  0.744060  0.417000  1.0  0.0411
  C  C419  1  0.772320  0.724000  0.439280  1.0  -0.1027
  C  C420  1  0.632200  0.666230  0.568550  1.0  -0.1384
  C  C421  1  0.686580  0.937990  0.011800  1.0  0.6717
  C  C422  1  0.701110  0.901250  0.019860  1.0  -0.0936
  C  C423  1  0.684550  0.883520  0.021170  1.0  -0.0787
  C  C424  1  0.698190  0.848490  0.029450  1.0  -0.1262
  C  C425  1  0.728260  0.830590  0.037150  1.0  0.0376
  C  C426  1  0.744460  0.848540  0.036100  1.0  -0.1329
  C  C427  1  0.731210  0.883490  0.027200  1.0  -0.081
  C  C428  1  0.743110  0.793460  0.045960  1.0  0.0372
  C  C429  1  0.722680  0.773150  0.064030  1.0  -0.0982
  C  C430  1  0.664380  0.633820  0.130610  1.0  -0.1278
  C  C431  1  0.938680  0.364430  0.010700  1.0  0.6679
  C  C432  1  0.901890  0.378260  0.018570  1.0  -0.0861
  C  C433  1  0.883560  0.411040  0.020300  1.0  -0.0829
  C  C434  1  0.848460  0.423440  0.029100  1.0  -0.1452
  C  C435  1  0.831110  0.403090  0.036690  1.0  0.0469
  C  C436  1  0.849610  0.370330  0.034860  1.0  -0.1566
  C  C437  1  0.884610  0.358160  0.025640  1.0  -0.0889
  C  C438  1  0.793880  0.415500  0.046790  1.0  0.0362
  C  C439  1  0.773710  0.436030  0.067130  1.0  -0.1145
  C  C440  1  0.683520  0.529810  0.105090  1.0  -0.0027
  C  C441  1  0.659190  0.589970  0.080340  1.0  -0.0846
  C  C442  1  0.675700  0.557920  0.077650  1.0  -0.1188
  C  C443  1  0.674260  0.533740  0.135600  1.0  -0.1287
  C  C444  1  0.684250  0.012500  0.366650  1.0  0.6676
  C  C445  1  0.699230  0.020510  0.380520  1.0  -0.0833
  C  C446  1  0.682960  0.022670  0.413170  1.0  -0.0783
  C  C447  1  0.696960  0.031570  0.425460  1.0  -0.1405
  C  C448  1  0.727310  0.038700  0.405160  1.0  0.0193
  C  C449  1  0.743310  0.036700  0.372450  1.0  -0.1407
  C  C450  1  0.729640  0.027410  0.360440  1.0  -0.0839
  C  C451  1  0.742960  0.047930  0.417520  1.0  0.0324
  C  C452  1  0.723440  0.068470  0.437900  1.0  -0.0889
  C  C453  1  0.663250  0.135440  0.569020  1.0  -0.1446
  C  C454  1  0.365700  0.938210  0.685040  1.0  0.6721
  C  C455  1  0.379320  0.901370  0.699870  1.0  -0.0834
  C  C456  1  0.412030  0.883000  0.683640  1.0  -0.0791
  C  C457  1  0.424480  0.847930  0.697660  1.0  -0.1288
  C  C458  1  0.404220  0.830610  0.727920  1.0  0.0351
  C  C459  1  0.371260  0.849140  0.743710  1.0  -0.1466
  C  C460  1  0.359120  0.884120  0.730060  1.0  -0.0865
  C  C461  1  0.417130  0.793450  0.743420  1.0  0.0353
  C  C462  1  0.439360  0.772540  0.723560  1.0  -0.1095
  C  C463  1  0.568600  0.632370  0.665970  1.0  -0.1413
  C  C464  1  0.010600  0.685930  0.938350  1.0  0.6655
  C  C465  1  0.018560  0.700690  0.901640  1.0  -0.0906
  C  C466  1  0.020270  0.684230  0.883600  1.0  -0.0824
  C  C467  1  0.029200  0.697810  0.848550  1.0  -0.1418
  C  C468  1  0.036950  0.727810  0.831030  1.0  0.0444
  C  C469  1  0.035110  0.744210  0.849230  1.0  -0.1427
  C  C470  1  0.025750  0.730930  0.884190  1.0  -0.0877
  C  C471  1  0.047240  0.742110  0.793870  1.0  0.0362
  C  C472  1  0.068020  0.721170  0.773970  1.0  -0.0979
  C  C473  1  0.109600  0.680670  0.681260  1.0  0.0308
  C  C474  1  0.091950  0.681510  0.642320  1.0  -0.0968
  C  C475  1  0.089270  0.697090  0.661360  1.0  -0.1183
  C  C476  1  0.133000  0.648250  0.682130  1.0  -0.0909
  C  C477  1  0.011570  0.937850  0.367300  1.0  0.6727
  C  C478  1  0.019680  0.901000  0.380520  1.0  -0.0945
  C  C479  1  0.021770  0.882080  0.413040  1.0  -0.0778
  C  C480  1  0.030560  0.847020  0.424810  1.0  -0.1366
  C  C481  1  0.037620  0.830310  0.404080  1.0  0.0312
  C  C482  1  0.035550  0.849410  0.371450  1.0  -0.1434
  C  C483  1  0.026360  0.884360  0.359910  1.0  -0.0824
  C  C484  1  0.047260  0.793130  0.416030  1.0  0.0296
  C  C485  1  0.067580  0.772120  0.436610  1.0  -0.1103
  C  C486  1  0.139020  0.639770  0.565780  1.0  -0.1256
  C  C487  1  0.370730  0.680050  0.011860  1.0  0.6729
  C  C488  1  0.383470  0.696010  0.020220  1.0  -0.098
  C  C489  1  0.415720  0.680830  0.022740  1.0  -0.0838
  C  C490  1  0.426910  0.695920  0.031590  1.0  -0.1385
  C  C491  1  0.405860  0.726480  0.038300  1.0  0.0412
  C  C492  1  0.373440  0.741630  0.035850  1.0  -0.1469
  C  C493  1  0.362450  0.726810  0.026650  1.0  -0.0883
  C  C494  1  0.417330  0.742730  0.047850  1.0  0.0471
  C  C495  1  0.437720  0.723410  0.068370  1.0  -0.0928
  C  C496  1  0.568770  0.663370  0.135380  1.0  -0.1387
  C  C497  1  0.687920  0.362370  0.937890  1.0  0.6794
  C  C498  1  0.702310  0.376730  0.901100  1.0  -0.1007
  C  C499  1  0.685390  0.409660  0.883490  1.0  -0.0773
  C  C500  1  0.698600  0.422950  0.848430  1.0  -0.1294
  C  C501  1  0.728740  0.403360  0.830360  1.0  0.0261
  C  C502  1  0.745180  0.370240  0.848100  1.0  -0.1481
  C  C503  1  0.732310  0.357220  0.883100  1.0  -0.087
  C  C504  1  0.743550  0.417110  0.793240  1.0  0.0319
  C  C505  1  0.723210  0.439300  0.772760  1.0  -0.1056
  C  C506  1  0.665900  0.568850  0.632160  1.0  -0.1387
  C  C507  1  0.938360  0.010430  0.685450  1.0  0.6654
  C  C508  1  0.901500  0.019040  0.700190  1.0  -0.0878
  C  C509  1  0.883210  0.020890  0.683910  1.0  -0.0794
  C  C510  1  0.848180  0.029470  0.697890  1.0  -0.1447
  C  C511  1  0.830770  0.037040  0.728030  1.0  0.0236
  C  C512  1  0.849210  0.035700  0.743890  1.0  -0.1446
  C  C513  1  0.884170  0.026480  0.730300  1.0  -0.0834
  C  C514  1  0.793560  0.046120  0.743220  1.0  0.059
  C  C515  1  0.773130  0.064080  0.722920  1.0  -0.1068
  C  C516  1  0.633880  0.130450  0.664650  1.0  -0.1348
  C  C517  1  0.634410  0.990190  0.315060  1.0  0.6668
  C  C518  1  0.621010  0.981760  0.299980  1.0  -0.0844
  C  C519  1  0.588380  0.979690  0.316160  1.0  -0.0792
  C  C520  1  0.576190  0.970730  0.302190  1.0  -0.1448
  C  C521  1  0.596600  0.963300  0.271990  1.0  0.039
  C  C522  1  0.629310  0.965260  0.256000  1.0  -0.1471
  C  C523  1  0.641290  0.974610  0.269690  1.0  -0.0816
  C  C524  1  0.584330  0.953260  0.257070  1.0  0.0349
  C  C525  1  0.563810  0.932900  0.277620  1.0  -0.1111
  C  C526  1  0.409830  0.919760  0.329900  1.0  -0.0888
  C  C527  1  0.441850  0.922550  0.311680  1.0  -0.1466
  C  C528  1  0.466210  0.864450  0.343610  1.0  -0.1216
  C  C529  1  0.988840  0.635390  0.061550  1.0  0.6705
  C  C530  1  0.981080  0.621400  0.098240  1.0  -0.0888
  C  C531  1  0.979500  0.588580  0.116360  1.0  -0.0851
  C  C532  1  0.970840  0.576020  0.151390  1.0  -0.1459
  C  C533  1  0.963250  0.596270  0.168820  1.0  0.0476
  C  C534  1  0.964910  0.629100  0.150520  1.0  -0.1406
  C  C535  1  0.974000  0.641430  0.115590  1.0  -0.0954
  C  C536  1  0.953280  0.583710  0.205970  1.0  0.0237
  C  C537  1  0.932730  0.563400  0.226170  1.0  -0.1051
  C  C538  1  0.894630  0.469970  0.316590  1.0  0.0216
  C  C539  1  0.919560  0.409860  0.340820  1.0  -0.0837
  C  C540  1  0.922130  0.441950  0.324370  1.0  -0.1431
  C  C541  1  0.864170  0.465970  0.325880  1.0  -0.1379
  C  C542  1  0.061990  0.314180  0.988780  1.0  0.6663
  C  C543  1  0.098830  0.299510  0.980550  1.0  -0.0906
  C  C544  1  0.116860  0.315910  0.978970  1.0  -0.0859
  C  C545  1  0.151910  0.302220  0.970360  1.0  -0.1274
  C  C546  1  0.169580  0.272150  0.962690  1.0  0.0386
  C  C547  1  0.151350  0.256180  0.963780  1.0  -0.1447
  C  C548  1  0.116380  0.269490  0.972990  1.0  -0.0857
  C  C549  1  0.206790  0.256980  0.953870  1.0  0.0387
  C  C550  1  0.227450  0.277100  0.936010  1.0  -0.0823
  C  C551  1  0.320140  0.315780  0.899660  1.0  0.0025
  C  C552  1  0.357620  0.321310  0.914260  1.0  -0.1486
  C  C553  1  0.340110  0.302600  0.919360  1.0  -0.1185
  C  C554  1  0.318050  0.347450  0.874540  1.0  -0.1154
  C  C555  1  0.315110  0.061810  0.634640  1.0  0.6743
  C  C556  1  0.299990  0.098650  0.620960  1.0  -0.0858
  C  C557  1  0.316190  0.117140  0.588280  1.0  -0.0794
  C  C558  1  0.302130  0.152230  0.576000  1.0  -0.1367
  C  C559  1  0.271820  0.169390  0.596350  1.0  0.0294
  C  C560  1  0.255820  0.150720  0.629070  1.0  -0.1425
  C  C561  1  0.269570  0.115760  0.641120  1.0  -0.0832
  C  C562  1  0.256570  0.206600  0.583940  1.0  0.0275
  C  C563  1  0.276610  0.227470  0.563310  1.0  -0.0882
  C  C564  1  0.316590  0.318380  0.469940  1.0  0.0083
  C  C565  1  0.344920  0.359940  0.434210  1.0  -0.1307
  C  C566  1  0.061320  0.634780  0.314670  1.0  0.673
  C  C567  1  0.098190  0.621050  0.299970  1.0  -0.0883
  C  C568  1  0.116320  0.588280  0.316370  1.0  -0.0788
  C  C569  1  0.151400  0.575640  0.302640  1.0  -0.1316
  C  C570  1  0.168980  0.595770  0.272540  1.0  0.0245
  C  C571  1  0.150670  0.628800  0.256580  1.0  -0.1485
  C  C572  1  0.115670  0.641130  0.269900  1.0  -0.0885
  C  C573  1  0.206180  0.582550  0.257210  1.0  0.0361
  C  C574  1  0.227070  0.559570  0.277090  1.0  -0.0738
  C  C575  1  0.319910  0.464550  0.315700  1.0  0.0021
  C  C576  1  0.357620  0.406980  0.321210  1.0  -0.147
  C  C577  1  0.340020  0.438060  0.302520  1.0  -0.1128
  C  C578  1  0.317770  0.460100  0.347400  1.0  -0.1247
  C  C579  1  0.314640  0.988350  0.063370  1.0  0.6626
  C  C580  1  0.300130  0.979680  0.100330  1.0  -0.0843
  C  C581  1  0.316710  0.977280  0.118730  1.0  -0.0672
  C  C582  1  0.302960  0.968130  0.153930  1.0  -0.1356
  C  C583  1  0.272630  0.961000  0.171210  1.0  0.0166
  C  C584  1  0.256490  0.963000  0.152620  1.0  -0.136
  C  C585  1  0.269890  0.972550  0.117640  1.0  -0.08
  C  C586  1  0.257030  0.951930  0.208420  1.0  0.0307
  C  C587  1  0.276570  0.931520  0.229810  1.0  -0.092
  C  C588  1  0.336220  0.864860  0.368060  1.0  -0.1444
  C  C589  1  0.636210  0.061170  0.989790  1.0  0.6761
  C  C590  1  0.622100  0.097930  0.981800  1.0  -0.0858
  C  C591  1  0.589320  0.115840  0.979920  1.0  -0.0794
  C  C592  1  0.576620  0.150910  0.970890  1.0  -0.1331
  C  C593  1  0.596630  0.168640  0.963220  1.0  0.0426
  C  C594  1  0.629430  0.150580  0.965000  1.0  -0.1388
  C  C595  1  0.641910  0.115600  0.974440  1.0  -0.0785
  C  C596  1  0.583870  0.205870  0.952930  1.0  0.0389
  C  C597  1  0.563590  0.225580  0.932360  1.0  -0.1065
  C  C598  1  0.471660  0.318340  0.890730  1.0  0.0259
  C  C599  1  0.416010  0.357600  0.908080  1.0  -0.1028
  C  C600  1  0.447880  0.338390  0.910930  1.0  -0.1188
  C  C601  1  0.463580  0.317550  0.867230  1.0  -0.1009
  C  C602  1  0.988010  0.315060  0.633730  1.0  0.67
  C  C603  1  0.979510  0.300300  0.620000  1.0  -0.0709
  C  C604  1  0.977160  0.316610  0.587450  1.0  -0.0883
  C  C605  1  0.968260  0.302560  0.575210  1.0  -0.1329
  C  C606  1  0.961330  0.272090  0.595460  1.0  0.0421
  C  C607  1  0.963290  0.256170  0.628170  1.0  -0.1462
  C  C608  1  0.972550  0.269890  0.640160  1.0  -0.0825
  C  C609  1  0.952220  0.256380  0.583020  1.0  0.0318
  C  C610  1  0.931940  0.275960  0.562380  1.0  -0.0971
  C  C611  1  0.864670  0.336390  0.431230  1.0  -0.1395
  C  C612  1  0.988410  0.061570  0.316870  1.0  0.6733
  C  C613  1  0.980270  0.098400  0.301430  1.0  -0.0988
  C  C614  1  0.978750  0.117040  0.317030  1.0  -0.0788
  C  C615  1  0.970610  0.151990  0.302420  1.0  -0.1363
  C  C616  1  0.963160  0.169060  0.272230  1.0  0.0372
  C  C617  1  0.964490  0.150260  0.256760  1.0  -0.1289
  C  C618  1  0.973260  0.115300  0.271010  1.0  -0.073
  C  C619  1  0.954030  0.206280  0.256810  1.0  0.0573
  C  C620  1  0.936060  0.226820  0.277020  1.0  -0.1066
  C  C621  1  0.869540  0.365940  0.335460  1.0  -0.1356
  C  C622  1  0.637900  0.311830  0.060200  1.0  0.6764
  C  C623  1  0.623570  0.297340  0.097100  1.0  -0.0965
  C  C624  1  0.590690  0.314390  0.114750  1.0  -0.0802
  C  C625  1  0.577600  0.301500  0.149850  1.0  -0.1386
  C  C626  1  0.597290  0.271560  0.167940  1.0  0.0357
  C  C627  1  0.630150  0.254680  0.150190  1.0  -0.1357
  C  C628  1  0.643040  0.267300  0.115140  1.0  -0.0852
  C  C629  1  0.584020  0.257640  0.205200  1.0  0.036
  C  C630  1  0.563570  0.278780  0.224950  1.0  -0.0871
  C  C631  1  0.471690  0.319280  0.318300  1.0  0.0304
  C  C632  1  0.416280  0.318120  0.358270  1.0  -0.1015
  C  C633  1  0.448130  0.302550  0.339040  1.0  -0.1242
  C  C634  1  0.463450  0.351890  0.317020  1.0  -0.0929
  C  C635  1  0.319910  0.630120  0.988820  1.0  0.6845
  C  C636  1  0.303800  0.617570  0.980460  1.0  -0.0997
  C  C637  1  0.318820  0.585240  0.978190  1.0  -0.0936
  C  C638  1  0.303590  0.574010  0.969600  1.0  -0.1422
  C  C639  1  0.273120  0.595150  0.962710  1.0  0.0777
  C  C640  1  0.258060  0.627630  0.964990  1.0  -0.143
  C  C641  1  0.273040  0.638670  0.973940  1.0  -0.0894
  C  C642  1  0.257130  0.583700  0.952880  1.0  0.0505
  C  C643  1  0.276820  0.563210  0.932460  1.0  -0.0962
  C  C644  1  0.344810  0.434250  0.860890  1.0  -0.1327
  C  C645  1  0.061860  0.987730  0.635010  1.0  0.6682
  C  C646  1  0.098580  0.980040  0.621120  1.0  -0.0928
  C  C647  1  0.116780  0.978740  0.588190  1.0  -0.0772
  C  C648  1  0.151770  0.970610  0.575560  1.0  -0.1339
  C  C649  1  0.169200  0.963140  0.595800  1.0  0.0351
  C  C650  1  0.150780  0.964250  0.628850  1.0  -0.1372
  C  C651  1  0.115830  0.972990  0.641190  1.0  -0.0825
  C  C652  1  0.206400  0.954180  0.582790  1.0  0.0557
  C  C653  1  0.226840  0.936200  0.560030  1.0  -0.1089
  C  C654  1  0.366150  0.869530  0.429060  1.0  -0.1362
  C  C655  1  0.633380  0.988310  0.062210  1.0  0.6693
  C  C656  1  0.619950  0.980280  0.099030  1.0  -0.0857
  C  C657  1  0.587330  0.978290  0.117840  1.0  -0.0777
  C  C658  1  0.575320  0.969730  0.152930  1.0  -0.1328
  C  C659  1  0.595880  0.962700  0.169800  1.0  0.0368
  C  C660  1  0.628580  0.964640  0.150790  1.0  -0.1385
  C  C661  1  0.640360  0.973590  0.115830  1.0  -0.0831
  C  C662  1  0.583810  0.953090  0.207060  1.0  0.034
  C  C663  1  0.563130  0.932870  0.228000  1.0  -0.1236
  C  C664  1  0.470020  0.895080  0.318670  1.0  0.0033
  C  C665  1  0.434250  0.860910  0.360080  1.0  -0.13
  C  C666  1  0.988490  0.633950  0.315040  1.0  0.667
  C  C667  1  0.980380  0.620270  0.300000  1.0  -0.0893
  C  C668  1  0.978320  0.587610  0.316250  1.0  -0.0813
  C  C669  1  0.969400  0.575400  0.302280  1.0  -0.1432
  C  C670  1  0.962170  0.595790  0.271990  1.0  0.0395
  C  C671  1  0.964050  0.628520  0.256020  1.0  -0.1448
  C  C672  1  0.973370  0.640490  0.269680  1.0  -0.0945
  C  C673  1  0.952720  0.583430  0.256660  1.0  0.0317
  C  C674  1  0.932240  0.563020  0.276580  1.0  -0.1046
  C  C675  1  0.860790  0.433940  0.344900  1.0  -0.1273
  C  C676  1  0.061360  0.313730  0.634910  1.0  0.6714
  C  C677  1  0.098150  0.298930  0.621150  1.0  -0.094
  C  C678  1  0.116420  0.315270  0.588440  1.0  -0.0805
  C  C679  1  0.151510  0.301520  0.576120  1.0  -0.1482
  C  C680  1  0.168820  0.271430  0.596520  1.0  0.0373
  C  C681  1  0.150360  0.255310  0.629270  1.0  -0.1369
  C  C682  1  0.115400  0.268740  0.641340  1.0  -0.084
  C  C683  1  0.206000  0.256650  0.584100  1.0  0.0303
  C  C684  1  0.226350  0.277160  0.563620  1.0  -0.1083
  C  C685  1  0.340700  0.329810  0.409720  1.0  -0.0816
  C  C686  1  0.324190  0.311500  0.441730  1.0  -0.1487
  C  C687  1  0.325990  0.343370  0.466170  1.0  -0.1216
  C  C688  1  0.314230  0.061840  0.989760  1.0  0.6714
  C  C689  1  0.299710  0.098690  0.981060  1.0  -0.0917
  C  C690  1  0.316070  0.116870  0.979190  1.0  -0.0819
  C  C691  1  0.302320  0.151920  0.970360  1.0  -0.1325
  C  C692  1  0.272240  0.169400  0.962670  1.0  0.0302
  C  C693  1  0.256340  0.151040  0.963960  1.0  -0.1374
  C  C694  1  0.269690  0.116060  0.973410  1.0  -0.0825
  C  C695  1  0.257090  0.206560  0.953710  1.0  0.0524
  C  C696  1  0.277320  0.227060  0.935670  1.0  -0.106
  C  C697  1  0.335570  0.366200  0.869390  1.0  -0.1313
  C  C698  1  0.061460  0.635640  0.988760  1.0  0.6653
  C  C699  1  0.098230  0.621730  0.980990  1.0  -0.0862
  C  C700  1  0.116510  0.588900  0.979430  1.0  -0.0836
  C  C701  1  0.151560  0.576410  0.970920  1.0  -0.1491
  C  C702  1  0.168910  0.596720  0.963460  1.0  0.0397
  C  C703  1  0.150430  0.629520  0.965170  1.0  -0.1515
  C  C704  1  0.115480  0.641790  0.974080  1.0  -0.09
  C  C705  1  0.206160  0.584300  0.953410  1.0  0.0337
  C  C706  1  0.226290  0.563790  0.933050  1.0  -0.1131
  C  C707  1  0.316480  0.470160  0.894880  1.0  -1e-04
  C  C708  1  0.340800  0.410010  0.919650  1.0  -0.0845
  C  C709  1  0.324310  0.442070  0.922320  1.0  -0.1185
  C  C710  1  0.325760  0.466240  0.864370  1.0  -0.1409
  C  C711  1  0.315450  0.988760  0.634310  1.0  0.6634
  C  C712  1  0.300450  0.980540  0.620650  1.0  -0.0888
  C  C713  1  0.316560  0.978880  0.587870  1.0  -0.0786
  C  C714  1  0.302490  0.970380  0.575380  1.0  -0.1239
  C  C715  1  0.272320  0.962870  0.595650  1.0  0.0373
  C  C716  1  0.256590  0.964090  0.628670  1.0  -0.1446
  C  C717  1  0.270280  0.973200  0.640880  1.0  -0.0798
  C  C718  1  0.256930  0.954040  0.582630  1.0  0.0502
  C  C719  1  0.276950  0.936240  0.559650  1.0  -0.0811
  C  C720  1  0.315660  0.899840  0.464610  1.0  0.0054
  C  C721  1  0.321230  0.914250  0.407020  1.0  -0.1449
  C  C722  1  0.302490  0.919420  0.438110  1.0  -0.1188
  C  C723  1  0.347370  0.874750  0.460180  1.0  -0.1147
  C  C724  1  0.634460  0.063290  0.315010  1.0  0.6714
  C  C725  1  0.620480  0.100200  0.300120  1.0  -0.0837
  C  C726  1  0.587820  0.118640  0.316470  1.0  -0.0793
  C  C727  1  0.575370  0.153810  0.302530  1.0  -0.1308
  C  C728  1  0.595500  0.171100  0.272100  1.0  0.0228
  C  C729  1  0.628280  0.152480  0.256080  1.0  -0.1456
  C  C730  1  0.640460  0.117500  0.269700  1.0  -0.0771
  C  C731  1  0.582890  0.208300  0.256450  1.0  0.032
  C  C732  1  0.562220  0.229720  0.275940  1.0  -0.0923
  C  C733  1  0.431110  0.367870  0.336080  1.0  -0.1371
  C  C734  1  0.989030  0.315350  0.061640  1.0  0.6729
  C  C735  1  0.980800  0.300290  0.098480  1.0  -0.0891
  C  C736  1  0.979120  0.316350  0.116860  1.0  -0.0848
  C  C737  1  0.970500  0.302310  0.151900  1.0  -0.1264
  C  C738  1  0.962890  0.272180  0.169270  1.0  0.0304
  C  C739  1  0.964180  0.256460  0.150700  1.0  -0.1442
  C  C740  1  0.973420  0.270140  0.115710  1.0  -0.0844
  C  C741  1  0.953950  0.256790  0.206510  1.0  0.0513
  C  C742  1  0.936150  0.276870  0.227220  1.0  -0.0927
  C  C743  1  0.899900  0.315560  0.319930  1.0  0.0027
  C  C744  1  0.914370  0.321050  0.357550  1.0  -0.1372
  C  C745  1  0.919550  0.302370  0.339960  1.0  -0.1163
  C  C746  1  0.874760  0.347210  0.317860  1.0  -0.1164
  C  C747  1  0.989370  0.060400  0.635270  1.0  0.669
  C  C748  1  0.981470  0.097250  0.621410  1.0  -0.087
  C  C749  1  0.979710  0.115460  0.588650  1.0  -0.0796
  C  C750  1  0.970910  0.150510  0.576170  1.0  -0.1547
  C  C751  1  0.963340  0.167980  0.596400  1.0  0.0454
  C  C752  1  0.965260  0.149620  0.629130  1.0  -0.1433
  C  C753  1  0.974470  0.114610  0.641440  1.0  -0.0824
  C  C754  1  0.953080  0.205230  0.583780  1.0  0.0318
  C  C755  1  0.932500  0.225130  0.563490  1.0  -0.103
  C  C756  1  0.890760  0.318200  0.471700  1.0  0.0283
  C  C757  1  0.908090  0.357430  0.416000  1.0  -0.1019
  C  C758  1  0.910930  0.338280  0.447890  1.0  -0.1192
  C  C759  1  0.867250  0.317400  0.463630  1.0  -0.0779
  C  C760  1  0.630680  0.318240  0.988250  1.0  0.6746
  C  C761  1  0.617650  0.302670  0.979870  1.0  -0.0858
  C  C762  1  0.585280  0.318330  0.977350  1.0  -0.1008
  C  C763  1  0.573730  0.303680  0.968410  1.0  -0.1345
  C  C764  1  0.594520  0.273200  0.961550  1.0  0.0487
  C  C765  1  0.627070  0.257760  0.963810  1.0  -0.1398
  C  C766  1  0.638410  0.272130  0.973100  1.0  -0.0858
  C  C767  1  0.582700  0.257180  0.952140  1.0  0.039
  C  C768  1  0.562180  0.276570  0.931740  1.0  -0.0935
  C  C769  1  0.431200  0.336600  0.864630  1.0  -0.138
  C  C770  1  0.310470  0.639600  0.061620  1.0  0.6933
  C  C771  1  0.296560  0.624670  0.098450  1.0  -0.1095
  C  C772  1  0.313740  0.591590  0.115760  1.0  -0.0919
  C  C773  1  0.300790  0.577940  0.150860  1.0  -0.1265
  C  C774  1  0.270740  0.597310  0.169290  1.0  0.0346
  C  C775  1  0.254150  0.630520  0.151810  1.0  -0.1447
  C  C776  1  0.266720  0.643850  0.116810  1.0  -0.092
  C  C777  1  0.256160  0.583220  0.206490  1.0  0.0356
  C  C778  1  0.276690  0.560160  0.226710  1.0  -0.0798
  C  C779  1  0.335390  0.428990  0.366150  1.0  -0.1293
  C  C780  1  0.061330  0.989160  0.312900  1.0  0.6576
  C  C781  1  0.098070  0.981400  0.298280  1.0  -0.1016
  C  C782  1  0.115820  0.979790  0.315050  1.0  -0.0666
  C  C783  1  0.150890  0.970860  0.301810  1.0  -0.1396
  C  C784  1  0.168710  0.963020  0.271850  1.0  0.0482
  C  C785  1  0.150790  0.964800  0.255180  1.0  -0.1381
  C  C786  1  0.115820  0.974150  0.268140  1.0  -0.0826
  C  C787  1  0.205890  0.952810  0.257810  1.0  0.0311
  C  C788  1  0.225640  0.932160  0.278900  1.0  -0.0991
  C  C789  1  0.318600  0.890410  0.319430  1.0  0.0301
  C  C790  1  0.358350  0.907290  0.318260  1.0  -0.1046
  C  C791  1  0.339200  0.910110  0.302700  1.0  -0.1236
  C  C792  1  0.317250  0.867420  0.352080  1.0  -0.0935
  C  C793  1  0.366080  0.011190  0.684910  1.0  0.6637
  C  C794  1  0.379580  0.019400  0.700090  1.0  -0.0795
  C  C795  1  0.412190  0.021560  0.684020  1.0  -0.075
  C  C796  1  0.424250  0.030430  0.698210  1.0  -0.133
  C  C797  1  0.403740  0.037590  0.728550  1.0  0.0378
  C  C798  1  0.371060  0.035590  0.744360  1.0  -0.1407
  C  C799  1  0.359240  0.026320  0.730470  1.0  -0.083
  C  C800  1  0.415960  0.047090  0.744040  1.0  0.0356
  C  C801  1  0.436570  0.067370  0.724140  1.0  -0.0836
  C  C802  1  0.565730  0.139030  0.655430  1.0  -0.1317
  C  C803  1  0.011950  0.365600  0.938010  1.0  0.6686
  C  C804  1  0.020070  0.379120  0.901210  1.0  -0.0837
  C  C805  1  0.021530  0.411940  0.882840  1.0  -0.0934
  C  C806  1  0.029650  0.424450  0.847860  1.0  -0.1334
  C  C807  1  0.037030  0.404140  0.830540  1.0  0.0324
  C  C808  1  0.035890  0.371110  0.849090  1.0  -0.1453
  C  C809  1  0.027150  0.358880  0.884050  1.0  -0.086
  C  C810  1  0.045900  0.417100  0.793350  1.0  0.0594
  C  C811  1  0.063820  0.439900  0.772820  1.0  -0.1097
  C  C812  1  0.130490  0.570920  0.633880  1.0  -0.1302
  C  C813  1  0.937920  0.685620  0.011320  1.0  0.6713
  C  C814  1  0.901090  0.700200  0.019570  1.0  -0.0902
  C  C815  1  0.883090  0.683800  0.021130  1.0  -0.0784
  C  C816  1  0.848010  0.697510  0.029740  1.0  -0.1336
  C  C817  1  0.830340  0.727600  0.037400  1.0  0.0213
  C  C818  1  0.848540  0.743550  0.036330  1.0  -0.1428
  C  C819  1  0.883520  0.730250  0.027100  1.0  -0.0818
  C  C820  1  0.793170  0.742890  0.046040  1.0  0.0389
  C  C821  1  0.772370  0.722900  0.064000  1.0  -0.0791
  C  C822  1  0.679690  0.684320  0.100390  1.0  0.0027
  C  C823  1  0.642310  0.678690  0.085750  1.0  -0.142
  C  C824  1  0.659750  0.697440  0.080670  1.0  -0.119
  C  C825  1  0.681840  0.652630  0.125490  1.0  -0.1131
  C  C826  1  0.685540  0.939570  0.364840  1.0  0.6588
  C  C827  1  0.700270  0.902670  0.378440  1.0  -0.0818
  C  C828  1  0.683840  0.884480  0.411190  1.0  -0.0761
  C  C829  1  0.697590  0.849400  0.423790  1.0  -0.1336
  C  C830  1  0.727730  0.831850  0.403650  1.0  0.0289
  C  C831  1  0.743750  0.850190  0.370680  1.0  -0.1414
  C  C832  1  0.730350  0.885210  0.358380  1.0  -0.0803
  C  C833  1  0.742800  0.794600  0.416730  1.0  0.0461
  C  C834  1  0.722470  0.774080  0.439070  1.0  -0.0816
  C  C835  1  0.683200  0.680460  0.531650  1.0  0.1094
  C  C836  1  0.680220  0.639510  0.587560  1.0  -0.149
  C  C837  1  0.698260  0.657660  0.556520  1.0  -0.0814
  C  C838  1  0.650250  0.684660  0.537520  1.0  -0.0738
  C  C839  1  0.938140  0.364760  0.685380  1.0  0.6728
  C  C840  1  0.901410  0.378880  0.700100  1.0  -0.0928
  C  C841  1  0.883440  0.411760  0.683730  1.0  -0.074
  C  C842  1  0.848420  0.424600  0.697570  1.0  -0.1457
  C  C843  1  0.830830  0.404510  0.727720  1.0  0.0341
  C  C844  1  0.848980  0.371450  0.743700  1.0  -0.1408
  C  C845  1  0.883890  0.358910  0.730240  1.0  -0.0819
  C  C846  1  0.793720  0.417630  0.742840  1.0  0.0346
  C  C847  1  0.773100  0.439680  0.722670  1.0  -0.1039
  C  C848  1  0.679900  0.531870  0.683250  1.0  0.0906
  C  C849  1  0.639210  0.587870  0.680160  1.0  -0.1521
  C  C850  1  0.657240  0.556790  0.698250  1.0  -0.0833
  C  C851  1  0.684230  0.537770  0.650250  1.0  -0.0817
  C  C852  1  0.683960  0.011090  0.938450  1.0  0.6721
  C  C853  1  0.699040  0.019430  0.901520  1.0  -0.0818
  C  C854  1  0.683090  0.021130  0.883040  1.0  -0.0744
  C  C855  1  0.697320  0.029640  0.847980  1.0  -0.1259
  C  C856  1  0.727510  0.037160  0.830700  1.0  0.0333
  C  C857  1  0.743130  0.035880  0.849330  1.0  -0.1449
  C  C858  1  0.729280  0.026730  0.884310  1.0  -0.0803
  C  C859  1  0.742980  0.046070  0.793470  1.0  0.0541
  C  C860  1  0.722990  0.063830  0.772680  1.0  -0.0888
  C  C861  1  0.684390  0.100190  0.679940  1.0  0.0026
  C  C862  1  0.678740  0.085630  0.642510  1.0  -0.1449
  C  C863  1  0.697520  0.080530  0.659950  1.0  -0.1188
  C  C864  1  0.652710  0.125300  0.682100  1.0  -0.1167
  C  C865  1  0.364570  0.938540  0.011910  1.0  0.6639
  C  C866  1  0.378680  0.901890  0.019210  1.0  -0.0903
  C  C867  1  0.411540  0.883720  0.020600  1.0  -0.083
  C  C868  1  0.424150  0.848720  0.028950  1.0  -0.1544
  C  C869  1  0.403880  0.831310  0.036440  1.0  0.0195
  C  C870  1  0.371100  0.849680  0.034700  1.0  -0.1368
  C  C871  1  0.358710  0.884620  0.025940  1.0  -0.0775
  C  C872  1  0.416320  0.794090  0.046860  1.0  0.0409
  C  C873  1  0.436540  0.774380  0.067490  1.0  -0.0998
  C  C874  1  0.528310  0.681660  0.109260  1.0  0.0281
  C  C875  1  0.583950  0.642380  0.091930  1.0  -0.1
  C  C876  1  0.552090  0.661610  0.089060  1.0  -0.1165
  C  C877  1  0.536400  0.682430  0.132770  1.0  -0.1111
  C  C878  1  0.010390  0.685160  0.365370  1.0  0.6661
  C  C879  1  0.018400  0.700370  0.378940  1.0  -0.0884
  C  C880  1  0.020210  0.684280  0.411680  1.0  -0.0818
  C  C881  1  0.028960  0.698340  0.423930  1.0  -0.1409
  C  C882  1  0.036530  0.728460  0.403440  1.0  0.0445
  C  C883  1  0.034630  0.744460  0.370720  1.0  -0.151
  C  C884  1  0.025460  0.730680  0.358690  1.0  -0.086
  C  C885  1  0.046720  0.743230  0.415700  1.0  0.033
  C  C886  1  0.067120  0.722600  0.436180  1.0  -0.1102
  C  C887  1  0.105100  0.681450  0.529820  1.0  0.0128
  C  C888  1  0.080270  0.670330  0.589980  1.0  -0.0811
  C  C889  1  0.077650  0.688630  0.557910  1.0  -0.1472
  C  C890  1  0.135590  0.656260  0.533770  1.0  -0.124
  C  C891  1  0.011630  0.936740  0.685240  1.0  0.6642
  C  C892  1  0.020130  0.899800  0.699890  1.0  -0.0844
  C  C893  1  0.022510  0.881370  0.683360  1.0  -0.0776
  C  C894  1  0.031650  0.846190  0.697120  1.0  -0.1295
  C  C895  1  0.038830  0.828910  0.727450  1.0  0.0284
  C  C896  1  0.036760  0.847530  0.743590  1.0  -0.1396
  C  C897  1  0.027230  0.882520  0.730160  1.0  -0.0797
  C  C898  1  0.048090  0.791680  0.742900  1.0  0.0318
  C  C899  1  0.068620  0.770420  0.723230  1.0  -0.095
  C  C900  1  0.135430  0.632240  0.663250  1.0  -0.1423
  C  C901  1  0.360720  0.689910  0.939100  1.0  0.6951
  C  C902  1  0.375530  0.703650  0.902200  1.0  -0.1118
  C  C903  1  0.408550  0.686330  0.884870  1.0  -0.0887
  C  C904  1  0.422040  0.699080  0.849770  1.0  -0.1263
  C  C905  1  0.402610  0.729060  0.831380  1.0  0.0199
  C  C906  1  0.369460  0.745760  0.848870  1.0  -0.1461
  C  C907  1  0.356270  0.733390  0.883860  1.0  -0.087
  C  C908  1  0.416530  0.743540  0.794180  1.0  0.0316
  C  C909  1  0.438970  0.722930  0.773960  1.0  -0.0877
  C  C910  1  0.531680  0.683250  0.680420  1.0  0.0995
  C  C911  1  0.587510  0.680440  0.639310  1.0  -0.1535
  C  C912  1  0.556490  0.698380  0.657590  1.0  -0.0789
  C  C913  1  0.537590  0.650310  0.684530  1.0  -0.0693
  C  C914  1  0.681610  0.368340  0.011340  1.0  0.6727
  C  C915  1  0.697410  0.381240  0.019580  1.0  -0.0982
  C  C916  1  0.681980  0.413720  0.021770  1.0  -0.095
  C  C917  1  0.696830  0.425290  0.030420  1.0  -0.1385
  C  C918  1  0.727240  0.404410  0.037400  1.0  0.0434
  C  C919  1  0.742660  0.371860  0.035130  1.0  -0.1489
  C  C920  1  0.728090  0.360500  0.026070  1.0  -0.0836
  C  C921  1  0.743010  0.416120  0.047180  1.0  0.0349
  C  C922  1  0.723210  0.436680  0.067530  1.0  -0.0885
  C  C923  1  0.655200  0.565720  0.139090  1.0  -0.1291
  C  C924  1  0.938580  0.010380  0.363670  1.0  0.6653
  C  C925  1  0.901910  0.018330  0.377940  1.0  -0.0931
  C  C926  1  0.884120  0.020080  0.410790  1.0  -0.0781
  C  C927  1  0.849060  0.029130  0.423570  1.0  -0.1434
  C  C928  1  0.831280  0.036950  0.403580  1.0  0.0458
  C  C929  1  0.849220  0.035170  0.370770  1.0  -0.1398
  C  C930  1  0.884200  0.025710  0.358190  1.0  -0.0847
  C  C931  1  0.794110  0.047170  0.416490  1.0  0.035
  C  C932  1  0.774380  0.067880  0.436620  1.0  -0.0971
  C  C933  1  0.681490  0.109490  0.528440  1.0  0.035
  C  C934  1  0.642350  0.091960  0.584130  1.0  -0.1048
  C  C935  1  0.661500  0.089220  0.552200  1.0  -0.1191
  C  C936  1  0.682240  0.132950  0.536590  1.0  -0.1055
  C  C937  1  0.406570  0.035970  0.779290  1.0  -0.126
  C  C938  1  0.447100  0.076650  0.739430  1.0  0.0326
  C  C939  1  0.473200  0.091470  0.719360  1.0  0.0172
  C  C940  1  0.497740  0.100050  0.702870  1.0  0.0342
  C  C941  1  0.594010  0.111470  0.647290  1.0  0.1697
  C  C942  1  0.036120  0.406840  0.778150  1.0  -0.1411
  C  C943  1  0.071620  0.452210  0.737880  1.0  0.0502
  C  C944  1  0.084350  0.479840  0.718110  1.0  -0.0797
  C  C945  1  0.092660  0.504540  0.702390  1.0  -0.1026
  C  C946  1  0.110520  0.597870  0.646670  1.0  0.1447
  C  C947  1  0.778020  0.779310  0.406830  1.0  -0.1322
  C  C948  1  0.737310  0.739050  0.450800  1.0  0.0463
  C  C949  1  0.717030  0.718620  0.477390  1.0  -0.1033
  C  C950  1  0.701010  0.701240  0.501370  1.0  -0.1163
  C  C951  1  0.646910  0.643790  0.593970  1.0  0.1527
  C  C952  1  0.778260  0.778110  0.036030  1.0  -0.1364
  C  C953  1  0.737380  0.738150  0.072020  1.0  0.0558
  C  C954  1  0.716760  0.718430  0.084810  1.0  -0.0991
  C  C955  1  0.699600  0.702600  0.093080  1.0  -0.0905
  C  C956  1  0.644620  0.646590  0.110630  1.0  0.1467
  C  C957  1  0.778290  0.406490  0.036210  1.0  -0.1354
  C  C958  1  0.738590  0.447020  0.076900  1.0  0.0334
  C  C959  1  0.718650  0.473170  0.091670  1.0  0.0186
  C  C960  1  0.702350  0.497740  0.100180  1.0  0.0357
  C  C961  1  0.647060  0.594020  0.111540  1.0  0.1653
  C  C962  1  0.778190  0.036480  0.408080  1.0  -0.1291
  C  C963  1  0.739230  0.077900  0.447800  1.0  0.073
  C  C964  1  0.719540  0.093640  0.473200  1.0  0.0062
  C  C965  1  0.702610  0.103230  0.497110  1.0  -0.0225
  C  C966  1  0.643350  0.114650  0.593340  1.0  0.1333
  C  C967  1  0.406950  0.778680  0.778650  1.0  -0.1329
  C  C968  1  0.450830  0.737540  0.738860  1.0  0.0507
  C  C969  1  0.477430  0.717090  0.718590  1.0  -0.1065
  C  C970  1  0.501400  0.701020  0.701250  1.0  -0.1151
  C  C971  1  0.593960  0.647160  0.643480  1.0  0.1542
  C  C972  1  0.036570  0.777170  0.778120  1.0  -0.1285
  C  C973  1  0.078080  0.735280  0.738850  1.0  0.0886
  C  C974  1  0.093850  0.713890  0.719090  1.0  0.0097
  C  C975  1  0.103420  0.697280  0.702220  1.0  -0.0237
  C  C976  1  0.114620  0.648580  0.643390  1.0  0.1339
  C  C977  1  0.036180  0.778400  0.406590  1.0  -0.1367
  C  C978  1  0.076910  0.737050  0.447060  1.0  0.0477
  C  C979  1  0.091670  0.716190  0.473200  1.0  0.0182
  C  C980  1  0.100180  0.699520  0.497760  1.0  0.0366
  C  C981  1  0.111440  0.647120  0.594080  1.0  0.1673
  C  C982  1  0.407550  0.778070  0.036540  1.0  -0.1369
  C  C983  1  0.447640  0.739270  0.077670  1.0  0.075
  C  C984  1  0.473090  0.719680  0.093360  1.0  0.0073
  C  C985  1  0.496990  0.702770  0.102960  1.0  -0.0248
  C  C986  1  0.593100  0.643390  0.114670  1.0  0.1285
  C  C987  1  0.778700  0.407620  0.778030  1.0  -0.1284
  C  C988  1  0.738080  0.451060  0.737700  1.0  0.05
  C  C989  1  0.717590  0.477540  0.717460  1.0  -0.1026
  C  C990  1  0.700400  0.501510  0.701260  1.0  -0.1141
  C  C991  1  0.643480  0.594280  0.646870  1.0  0.1549
  C  C992  1  0.778240  0.036330  0.778460  1.0  -0.1388
  C  C993  1  0.738180  0.071900  0.737680  1.0  0.0539
  C  C994  1  0.718450  0.084580  0.717080  1.0  -0.0826
  C  C995  1  0.702640  0.092820  0.699910  1.0  -0.0961
  C  C996  1  0.646630  0.110490  0.644880  1.0  0.1469
  C  C997  1  0.593390  0.963950  0.221890  1.0  -0.1292
  C  C998  1  0.552770  0.923370  0.263080  1.0  0.0469
  C  C999  1  0.526620  0.908610  0.283890  1.0  0.0157
  C  C1000  1  0.502050  0.900080  0.300580  1.0  0.0336
  C  C1001  1  0.405900  0.888490  0.352910  1.0  0.1689
  C  C1002  1  0.964020  0.592590  0.221450  1.0  -0.1266
  C  C1003  1  0.922870  0.552600  0.261290  1.0  0.0465
  C  C1004  1  0.908000  0.526580  0.281310  1.0  0.018
  C  C1005  1  0.899470  0.502040  0.297680  1.0  0.0379
  C  C1006  1  0.888410  0.405700  0.352960  1.0  0.1668
  C  C1007  1  0.221880  0.221750  0.963680  1.0  -0.1358
  C  C1008  1  0.262470  0.262000  0.927870  1.0  0.0598
  C  C1009  1  0.282990  0.281800  0.915180  1.0  -0.0913
  C  C1010  1  0.300150  0.297580  0.906970  1.0  -0.1021
  C  C1011  1  0.355340  0.353400  0.889370  1.0  0.1458
  C  C1012  1  0.221360  0.221500  0.593180  1.0  -0.1275
  C  C1013  1  0.261450  0.262580  0.552750  1.0  0.0477
  C  C1014  1  0.281530  0.283370  0.526570  1.0  0.0156
  C  C1015  1  0.297840  0.300120  0.501990  1.0  0.0353
  C  C1016  1  0.352890  0.352810  0.405820  1.0  0.1635
  C  C1017  1  0.221020  0.593010  0.222000  1.0  -0.1364
  C  C1018  1  0.262070  0.547700  0.261750  1.0  0.027
  C  C1019  1  0.282730  0.520070  0.281500  1.0  -0.0837
  C  C1020  1  0.299880  0.495390  0.297400  1.0  -0.0898
  C  C1021  1  0.355300  0.402070  0.353310  1.0  0.1454
  C  C1022  1  0.221800  0.963460  0.222780  1.0  -0.126
  C  C1023  1  0.260790  0.922160  0.264930  1.0  0.0821
  C  C1024  1  0.280480  0.906450  0.286370  1.0  0.0048
  C  C1025  1  0.297450  0.896830  0.302910  1.0  -0.0256
  C  C1026  1  0.356650  0.885150  0.351480  1.0  0.1316
  C  C1027  1  0.592460  0.221880  0.963400  1.0  -0.1285
  C  C1028  1  0.552320  0.260720  0.922360  1.0  0.0823
  C  C1029  1  0.526870  0.280330  0.906670  1.0  0.0042
  C  C1030  1  0.502970  0.297240  0.897050  1.0  -0.023
  C  C1031  1  0.406870  0.356570  0.885340  1.0  0.1314
  C  C1032  1  0.963560  0.221100  0.592530  1.0  -0.1504
  C  C1033  1  0.922570  0.260270  0.552310  1.0  0.0772
  C  C1034  1  0.906840  0.280040  0.526860  1.0  0.0052
  C  C1035  1  0.897170  0.297040  0.502990  1.0  -0.0251
  C  C1036  1  0.885410  0.356320  0.406860  1.0  0.1332
  C  C1037  1  0.963710  0.221510  0.221580  1.0  -0.1364
  C  C1038  1  0.928150  0.261770  0.262200  1.0  0.0555
  C  C1039  1  0.915490  0.281560  0.282740  1.0  -0.0797
  C  C1040  1  0.907260  0.297350  0.299910  1.0  -0.1003
  C  C1041  1  0.889460  0.353120  0.355290  1.0  0.1474
  C  C1042  1  0.592400  0.222620  0.221200  1.0  -0.1246
  C  C1043  1  0.552180  0.264850  0.260140  1.0  0.0739
  C  C1044  1  0.526710  0.286320  0.279870  1.0  0.0052
  C  C1045  1  0.502870  0.302800  0.296970  1.0  -0.031
  C  C1046  1  0.406910  0.351350  0.356560  1.0  0.133
  C  C1047  1  0.221810  0.593370  0.963890  1.0  -0.1321
  C  C1048  1  0.261400  0.552870  0.923160  1.0  0.0467
  C  C1049  1  0.281310  0.526780  0.908340  1.0  0.0167
  C  C1050  1  0.297620  0.502230  0.899810  1.0  0.0352
  C  C1051  1  0.352930  0.405950  0.888450  1.0  0.1677
  C  C1052  1  0.221670  0.963850  0.593060  1.0  -0.1428
  C  C1053  1  0.261800  0.928270  0.547780  1.0  0.0552
  C  C1054  1  0.281580  0.915540  0.520160  1.0  -0.0864
  C  C1055  1  0.297410  0.907250  0.495450  1.0  -0.0908
  C  C1056  1  0.353350  0.889400  0.402130  1.0  0.1448
  N  N1057  1  0.626970  0.114780  0.627700  1.0  -0.1992
  N  N1058  1  0.114750  0.630450  0.627030  1.0  -0.1985
  N  N1059  1  0.627180  0.627480  0.627150  1.0  -0.1894
  N  N1060  1  0.627430  0.626960  0.114890  1.0  -0.1995
  N  N1061  1  0.373000  0.885070  0.369590  1.0  -0.2009
  N  N1062  1  0.885180  0.372730  0.372530  1.0  -0.1989
  N  N1063  1  0.372540  0.373010  0.885110  1.0  -0.1988
  N  N1064  1  0.372550  0.369510  0.372930  1.0  -0.2029
  O  O1065  1  0.334890  0.008190  0.955910  1.0  -0.5873
  O  O1066  1  0.381180  0.007640  0.955160  1.0  -0.5841
  O  O1067  1  0.007920  0.335870  0.700780  1.0  -0.5876
  O  O1068  1  0.008120  0.381660  0.655370  1.0  -0.5818
  O  O1069  1  0.954070  0.701190  0.335710  1.0  -0.5757
  O  O1070  1  0.953240  0.656010  0.381820  1.0  -0.6161
  O  O1071  1  0.703150  0.954250  0.007980  1.0  -0.5646
  O  O1072  1  0.656990  0.953530  0.009390  1.0  -0.6001
  O  O1073  1  0.955090  0.335200  0.007590  1.0  -0.5623
  O  O1074  1  0.954130  0.381340  0.007660  1.0  -0.6058
  O  O1075  1  0.700390  0.009370  0.337410  1.0  -0.5891
  O  O1076  1  0.654950  0.009340  0.383330  1.0  -0.5895
  O  O1077  1  0.336600  0.954550  0.701120  1.0  -0.5711
  O  O1078  1  0.382540  0.953840  0.655870  1.0  -0.6179
  O  O1079  1  0.007370  0.702210  0.954440  1.0  -0.5916
  O  O1080  1  0.007660  0.656640  0.954090  1.0  -0.5991
  O  O1081  1  0.008280  0.954130  0.338200  1.0  -0.6104
  O  O1082  1  0.008440  0.953500  0.384120  1.0  -0.5828
  O  O1083  1  0.341800  0.696370  0.008360  1.0  -0.6055
  O  O1084  1  0.387320  0.650590  0.008690  1.0  -0.5729
  O  O1085  1  0.703800  0.333060  0.954360  1.0  -0.5592
  O  O1086  1  0.658750  0.379470  0.953220  1.0  -0.6247
  O  O1087  1  0.954640  0.006580  0.701930  1.0  -0.5838
  O  O1088  1  0.954060  0.007450  0.656160  1.0  -0.5859
  O  O1089  1  0.663510  0.993600  0.299030  1.0  -0.5884
  O  O1090  1  0.617400  0.993310  0.344340  1.0  -0.5946
  O  O1091  1  0.991770  0.664660  0.045420  1.0  -0.5802
  O  O1092  1  0.991990  0.618720  0.045870  1.0  -0.5896
  O  O1093  1  0.045740  0.298030  0.992010  1.0  -0.5588
  O  O1094  1  0.046380  0.343410  0.991940  1.0  -0.6126
  O  O1095  1  0.299140  0.045400  0.663750  1.0  -0.5748
  O  O1096  1  0.344370  0.046270  0.617860  1.0  -0.6096
  O  O1097  1  0.045030  0.663850  0.298470  1.0  -0.5717
  O  O1098  1  0.045630  0.618030  0.343880  1.0  -0.6234
  O  O1099  1  0.298060  0.992090  0.047230  1.0  -0.588
  O  O1100  1  0.343910  0.991460  0.047400  1.0  -0.5929
  O  O1101  1  0.665800  0.044980  0.992230  1.0  -0.5661
  O  O1102  1  0.619090  0.045470  0.993680  1.0  -0.6051
  O  O1103  1  0.991290  0.298720  0.662870  1.0  -0.5865
  O  O1104  1  0.991440  0.344220  0.617180  1.0  -0.6002
  O  O1105  1  0.991780  0.045280  0.300730  1.0  -0.5974
  O  O1106  1  0.991580  0.045910  0.346210  1.0  -0.585
  O  O1107  1  0.667130  0.296020  0.043600  1.0  -0.5588
  O  O1108  1  0.620850  0.341100  0.044920  1.0  -0.6174
  O  O1109  1  0.303780  0.659070  0.992300  1.0  -0.6068
  O  O1110  1  0.349380  0.613370  0.991920  1.0  -0.5703
  O  O1111  1  0.045690  0.990420  0.664450  1.0  -0.5879
  O  O1112  1  0.046170  0.991170  0.618190  1.0  -0.5805
  O  O1113  1  0.662590  0.991510  0.045990  1.0  -0.6044
  O  O1114  1  0.616680  0.991520  0.046440  1.0  -0.5772
  O  O1115  1  0.991740  0.663090  0.298920  1.0  -0.5844
  O  O1116  1  0.991590  0.617250  0.344290  1.0  -0.6032
  O  O1117  1  0.045080  0.297440  0.663950  1.0  -0.5845
  O  O1118  1  0.045750  0.343040  0.618280  1.0  -0.5898
  O  O1119  1  0.297720  0.045640  0.993630  1.0  -0.5884
  O  O1120  1  0.343560  0.046110  0.992780  1.0  -0.5871
  O  O1121  1  0.045190  0.664880  0.991830  1.0  -0.5794
  O  O1122  1  0.045850  0.618900  0.991860  1.0  -0.586
  O  O1123  1  0.299340  0.992010  0.663470  1.0  -0.5745
  O  O1124  1  0.344690  0.992000  0.617450  1.0  -0.6127
  O  O1125  1  0.663720  0.047090  0.298930  1.0  -0.5733
  O  O1126  1  0.617720  0.047570  0.344240  1.0  -0.6122
  O  O1127  1  0.992250  0.299270  0.045350  1.0  -0.5873
  O  O1128  1  0.992260  0.344550  0.045990  1.0  -0.5996
  O  O1129  1  0.992220  0.044190  0.664600  1.0  -0.5789
  O  O1130  1  0.992610  0.044730  0.618540  1.0  -0.5982
  O  O1131  1  0.660010  0.302430  0.990970  1.0  -0.5895
  O  O1132  1  0.613640  0.347340  0.991970  1.0  -0.5847
  O  O1133  1  0.294440  0.669030  0.045290  1.0  -0.5686
  O  O1134  1  0.339530  0.622790  0.046040  1.0  -0.6168
  O  O1135  1  0.045060  0.992120  0.296890  1.0  -0.5718
  O  O1136  1  0.045900  0.992140  0.342120  1.0  -0.6226
  O  O1137  1  0.336920  0.007900  0.700960  1.0  -0.5809
  O  O1138  1  0.382930  0.008120  0.655600  1.0  -0.6135
  O  O1139  1  0.008550  0.336530  0.954360  1.0  -0.5841
  O  O1140  1  0.008790  0.382420  0.953570  1.0  -0.5908
  O  O1141  1  0.953940  0.702030  0.008050  1.0  -0.5856
  O  O1142  1  0.953800  0.656420  0.008110  1.0  -0.5956
  O  O1143  1  0.701610  0.956100  0.335820  1.0  -0.5705
  O  O1144  1  0.656330  0.955020  0.381820  1.0  -0.616
  O  O1145  1  0.954140  0.335390  0.701490  1.0  -0.5847
  O  O1146  1  0.953950  0.381380  0.656230  1.0  -0.5896
  O  O1147  1  0.700300  0.007690  0.954610  1.0  -0.6056
  O  O1148  1  0.654700  0.007950  0.954270  1.0  -0.588
  O  O1149  1  0.335120  0.954660  0.009460  1.0  -0.5855
  O  O1150  1  0.381400  0.954140  0.008710  1.0  -0.5828
  O  O1151  1  0.007220  0.701090  0.336200  1.0  -0.5729
  O  O1152  1  0.007370  0.655870  0.382210  1.0  -0.6141
  O  O1153  1  0.008060  0.952940  0.701670  1.0  -0.5891
  O  O1154  1  0.008530  0.952590  0.655990  1.0  -0.592
  O  O1155  1  0.331400  0.706020  0.955480  1.0  -0.5734
  O  O1156  1  0.377490  0.660860  0.954660  1.0  -0.6194
  O  O1157  1  0.697870  0.339660  0.007160  1.0  -0.59
  O  O1158  1  0.651990  0.385020  0.008840  1.0  -0.5851
  O  O1159  1  0.954870  0.007320  0.334390  1.0  -0.5712
  O  O1160  1  0.954160  0.007310  0.380410  1.0  -0.6221
