# generated using pymatgen
data_CuH6C6(NO2)2
_symmetry_space_group_name_H-M   'P 1'
_cell_length_a   26.33360000
_cell_length_b   26.33360000
_cell_length_c   26.33360000
_cell_angle_alpha   90.00000000
_cell_angle_beta   90.00000000
_cell_angle_gamma   90.00000000
_symmetry_Int_Tables_number   1
_chemical_formula_structural   CuH6C6(NO2)2
_chemical_formula_sum   'Cu48 H288 C288 N96 O192'
_cell_volume   18261.25846488
_cell_formula_units_Z   48
loop_
 _symmetry_equiv_pos_site_id
 _symmetry_equiv_pos_as_xyz
  1  'x, y, z'
loop_
 _atom_site_type_symbol
 _atom_site_label
 _atom_site_symmetry_multiplicity
 _atom_site_fract_x
 _atom_site_fract_y
 _atom_site_fract_z
 _atom_site_occupancy
 _atom_site_charge
  Cu  Cu1  1  0.285300  0.000000  0.285300  1.0  0.784
  Cu  Cu2  1  0.285300  0.500000  0.785300  1.0  0.784
  Cu  Cu3  1  0.785300  0.000000  0.785300  1.0  0.784
  Cu  Cu4  1  0.785300  0.500000  0.285300  1.0  0.784
  Cu  Cu5  1  0.714700  0.000000  0.285300  1.0  0.7844
  Cu  Cu6  1  0.714700  0.500000  0.785300  1.0  0.7844
  Cu  Cu7  1  0.214700  0.000000  0.785300  1.0  0.7844
  Cu  Cu8  1  0.214700  0.500000  0.285300  1.0  0.7844
  Cu  Cu9  1  0.714700  0.000000  0.714700  1.0  0.7885
  Cu  Cu10  1  0.714700  0.500000  0.214700  1.0  0.7885
  Cu  Cu11  1  0.214700  0.000000  0.214700  1.0  0.7885
  Cu  Cu12  1  0.214700  0.500000  0.714700  1.0  0.7885
  Cu  Cu13  1  0.285300  0.000000  0.714700  1.0  0.7859
  Cu  Cu14  1  0.285300  0.500000  0.214700  1.0  0.7859
  Cu  Cu15  1  0.785300  0.000000  0.214700  1.0  0.7859
  Cu  Cu16  1  0.785300  0.500000  0.714700  1.0  0.7859
  Cu  Cu17  1  0.285300  0.285300  0.000000  1.0  0.7877
  Cu  Cu18  1  0.285300  0.785300  0.500000  1.0  0.7877
  Cu  Cu19  1  0.785300  0.285300  0.500000  1.0  0.7877
  Cu  Cu20  1  0.785300  0.785300  0.000000  1.0  0.7877
  Cu  Cu21  1  0.285300  0.714700  0.000000  1.0  0.7878
  Cu  Cu22  1  0.285300  0.214700  0.500000  1.0  0.7878
  Cu  Cu23  1  0.785300  0.714700  0.500000  1.0  0.7878
  Cu  Cu24  1  0.785300  0.214700  0.000000  1.0  0.7878
  Cu  Cu25  1  0.714700  0.714700  0.000000  1.0  0.7892
  Cu  Cu26  1  0.714700  0.214700  0.500000  1.0  0.7892
  Cu  Cu27  1  0.214700  0.714700  0.500000  1.0  0.7892
  Cu  Cu28  1  0.214700  0.214700  0.000000  1.0  0.7892
  Cu  Cu29  1  0.714700  0.285300  0.000000  1.0  0.7887
  Cu  Cu30  1  0.714700  0.785300  0.500000  1.0  0.7887
  Cu  Cu31  1  0.214700  0.285300  0.500000  1.0  0.7887
  Cu  Cu32  1  0.214700  0.785300  0.000000  1.0  0.7887
  Cu  Cu33  1  0.000000  0.285300  0.285300  1.0  0.7844
  Cu  Cu34  1  0.000000  0.785300  0.785300  1.0  0.7844
  Cu  Cu35  1  0.500000  0.285300  0.785300  1.0  0.7844
  Cu  Cu36  1  0.500000  0.785300  0.285300  1.0  0.7844
  Cu  Cu37  1  0.000000  0.285300  0.714700  1.0  0.7869
  Cu  Cu38  1  0.000000  0.785300  0.214700  1.0  0.7869
  Cu  Cu39  1  0.500000  0.285300  0.214700  1.0  0.7869
  Cu  Cu40  1  0.500000  0.785300  0.714700  1.0  0.7869
  Cu  Cu41  1  0.000000  0.714700  0.714700  1.0  0.7878
  Cu  Cu42  1  0.000000  0.214700  0.214700  1.0  0.7878
  Cu  Cu43  1  0.500000  0.714700  0.214700  1.0  0.7878
  Cu  Cu44  1  0.500000  0.214700  0.714700  1.0  0.7878
  Cu  Cu45  1  0.000000  0.714700  0.285300  1.0  0.7846
  Cu  Cu46  1  0.000000  0.214700  0.785300  1.0  0.7846
  Cu  Cu47  1  0.500000  0.714700  0.785300  1.0  0.7846
  Cu  Cu48  1  0.500000  0.214700  0.285300  1.0  0.7846
  H  H49  1  0.243400  0.876100  0.083900  1.0  0.1852
  H  H50  1  0.243400  0.376100  0.583900  1.0  0.1852
  H  H51  1  0.743400  0.876100  0.583900  1.0  0.1852
  H  H52  1  0.743400  0.376100  0.083900  1.0  0.1852
  H  H53  1  0.756600  0.123900  0.083900  1.0  0.1893
  H  H54  1  0.756600  0.623900  0.583900  1.0  0.1893
  H  H55  1  0.256600  0.123900  0.583900  1.0  0.1893
  H  H56  1  0.256600  0.623900  0.083900  1.0  0.1893
  H  H57  1  0.756600  0.876100  0.916100  1.0  0.1859
  H  H58  1  0.756600  0.376100  0.416100  1.0  0.1859
  H  H59  1  0.256600  0.876100  0.416100  1.0  0.1859
  H  H60  1  0.256600  0.376100  0.916100  1.0  0.1859
  H  H61  1  0.243400  0.123900  0.916100  1.0  0.1896
  H  H62  1  0.243400  0.623900  0.416100  1.0  0.1896
  H  H63  1  0.743400  0.123900  0.416100  1.0  0.1896
  H  H64  1  0.743400  0.623900  0.916100  1.0  0.1896
  H  H65  1  0.083900  0.243400  0.876100  1.0  0.1834
  H  H66  1  0.083900  0.743400  0.376100  1.0  0.1834
  H  H67  1  0.583900  0.243400  0.376100  1.0  0.1834
  H  H68  1  0.583900  0.743400  0.876100  1.0  0.1834
  H  H69  1  0.083900  0.756600  0.123900  1.0  0.1863
  H  H70  1  0.083900  0.256600  0.623900  1.0  0.1863
  H  H71  1  0.583900  0.756600  0.623900  1.0  0.1863
  H  H72  1  0.583900  0.256600  0.123900  1.0  0.1863
  H  H73  1  0.916100  0.756600  0.876100  1.0  0.1819
  H  H74  1  0.916100  0.256600  0.376100  1.0  0.1819
  H  H75  1  0.416100  0.756600  0.376100  1.0  0.1819
  H  H76  1  0.416100  0.256600  0.876100  1.0  0.1819
  H  H77  1  0.916100  0.243400  0.123900  1.0  0.1842
  H  H78  1  0.916100  0.743400  0.623900  1.0  0.1842
  H  H79  1  0.416100  0.243400  0.623900  1.0  0.1842
  H  H80  1  0.416100  0.743400  0.123900  1.0  0.1842
  H  H81  1  0.876100  0.083900  0.243400  1.0  0.1883
  H  H82  1  0.876100  0.583900  0.743400  1.0  0.1883
  H  H83  1  0.376100  0.083900  0.743400  1.0  0.1883
  H  H84  1  0.376100  0.583900  0.243400  1.0  0.1883
  H  H85  1  0.123900  0.083900  0.756600  1.0  0.185
  H  H86  1  0.123900  0.583900  0.256600  1.0  0.185
  H  H87  1  0.623900  0.083900  0.256600  1.0  0.185
  H  H88  1  0.623900  0.583900  0.756600  1.0  0.185
  H  H89  1  0.876100  0.916100  0.756600  1.0  0.19
  H  H90  1  0.876100  0.416100  0.256600  1.0  0.19
  H  H91  1  0.376100  0.916100  0.256600  1.0  0.19
  H  H92  1  0.376100  0.416100  0.756600  1.0  0.19
  H  H93  1  0.123900  0.916100  0.243400  1.0  0.1911
  H  H94  1  0.123900  0.416100  0.743400  1.0  0.1911
  H  H95  1  0.623900  0.916100  0.743400  1.0  0.1911
  H  H96  1  0.623900  0.416100  0.243400  1.0  0.1911
  H  H97  1  0.876100  0.243400  0.916100  1.0  0.1884
  H  H98  1  0.876100  0.743400  0.416100  1.0  0.1884
  H  H99  1  0.376100  0.243400  0.416100  1.0  0.1884
  H  H100  1  0.376100  0.743400  0.916100  1.0  0.1884
  H  H101  1  0.123900  0.756600  0.916100  1.0  0.1919
  H  H102  1  0.123900  0.256600  0.416100  1.0  0.1919
  H  H103  1  0.623900  0.756600  0.416100  1.0  0.1919
  H  H104  1  0.623900  0.256600  0.916100  1.0  0.1919
  H  H105  1  0.876100  0.756600  0.083900  1.0  0.192
  H  H106  1  0.876100  0.256600  0.583900  1.0  0.192
  H  H107  1  0.376100  0.756600  0.583900  1.0  0.192
  H  H108  1  0.376100  0.256600  0.083900  1.0  0.192
  H  H109  1  0.123900  0.243400  0.083900  1.0  0.1899
  H  H110  1  0.123900  0.743400  0.583900  1.0  0.1899
  H  H111  1  0.623900  0.243400  0.583900  1.0  0.1899
  H  H112  1  0.623900  0.743400  0.083900  1.0  0.1899
  H  H113  1  0.243400  0.083900  0.123900  1.0  0.1821
  H  H114  1  0.243400  0.583900  0.623900  1.0  0.1821
  H  H115  1  0.743400  0.083900  0.623900  1.0  0.1821
  H  H116  1  0.743400  0.583900  0.123900  1.0  0.1821
  H  H117  1  0.756600  0.083900  0.876100  1.0  0.1826
  H  H118  1  0.756600  0.583900  0.376100  1.0  0.1826
  H  H119  1  0.256600  0.083900  0.376100  1.0  0.1826
  H  H120  1  0.256600  0.583900  0.876100  1.0  0.1826
  H  H121  1  0.756600  0.916100  0.123900  1.0  0.1885
  H  H122  1  0.756600  0.416100  0.623900  1.0  0.1885
  H  H123  1  0.256600  0.916100  0.623900  1.0  0.1885
  H  H124  1  0.256600  0.416100  0.123900  1.0  0.1885
  H  H125  1  0.243400  0.916100  0.876100  1.0  0.186
  H  H126  1  0.243400  0.416100  0.376100  1.0  0.186
  H  H127  1  0.743400  0.916100  0.376100  1.0  0.186
  H  H128  1  0.743400  0.416100  0.876100  1.0  0.186
  H  H129  1  0.083900  0.876100  0.756600  1.0  0.1855
  H  H130  1  0.083900  0.376100  0.256600  1.0  0.1855
  H  H131  1  0.583900  0.876100  0.256600  1.0  0.1855
  H  H132  1  0.583900  0.376100  0.756600  1.0  0.1855
  H  H133  1  0.083900  0.123900  0.243400  1.0  0.1863
  H  H134  1  0.083900  0.623900  0.743400  1.0  0.1863
  H  H135  1  0.583900  0.123900  0.743400  1.0  0.1863
  H  H136  1  0.583900  0.623900  0.243400  1.0  0.1863
  H  H137  1  0.916100  0.876100  0.243400  1.0  0.1849
  H  H138  1  0.916100  0.376100  0.743400  1.0  0.1849
  H  H139  1  0.416100  0.876100  0.743400  1.0  0.1849
  H  H140  1  0.416100  0.376100  0.243400  1.0  0.1849
  H  H141  1  0.916100  0.123900  0.756600  1.0  0.1857
  H  H142  1  0.916100  0.623900  0.256600  1.0  0.1857
  H  H143  1  0.416100  0.123900  0.256600  1.0  0.1857
  H  H144  1  0.416100  0.623900  0.756600  1.0  0.1857
  H  H145  1  0.756600  0.123900  0.916100  1.0  0.1888
  H  H146  1  0.756600  0.623900  0.416100  1.0  0.1888
  H  H147  1  0.256600  0.123900  0.416100  1.0  0.1888
  H  H148  1  0.256600  0.623900  0.916100  1.0  0.1888
  H  H149  1  0.243400  0.876100  0.916100  1.0  0.1872
  H  H150  1  0.243400  0.376100  0.416100  1.0  0.1872
  H  H151  1  0.743400  0.876100  0.416100  1.0  0.1872
  H  H152  1  0.743400  0.376100  0.916100  1.0  0.1872
  H  H153  1  0.243400  0.123900  0.083900  1.0  0.1878
  H  H154  1  0.243400  0.623900  0.583900  1.0  0.1878
  H  H155  1  0.743400  0.123900  0.583900  1.0  0.1878
  H  H156  1  0.743400  0.623900  0.083900  1.0  0.1878
  H  H157  1  0.756600  0.876100  0.083900  1.0  0.1874
  H  H158  1  0.756600  0.376100  0.583900  1.0  0.1874
  H  H159  1  0.256600  0.876100  0.583900  1.0  0.1874
  H  H160  1  0.256600  0.376100  0.083900  1.0  0.1874
  H  H161  1  0.916100  0.756600  0.123900  1.0  0.1859
  H  H162  1  0.916100  0.256600  0.623900  1.0  0.1859
  H  H163  1  0.416100  0.756600  0.623900  1.0  0.1859
  H  H164  1  0.416100  0.256600  0.123900  1.0  0.1859
  H  H165  1  0.916100  0.243400  0.876100  1.0  0.1819
  H  H166  1  0.916100  0.743400  0.376100  1.0  0.1819
  H  H167  1  0.416100  0.243400  0.376100  1.0  0.1819
  H  H168  1  0.416100  0.743400  0.876100  1.0  0.1819
  H  H169  1  0.083900  0.243400  0.123900  1.0  0.1841
  H  H170  1  0.083900  0.743400  0.623900  1.0  0.1841
  H  H171  1  0.583900  0.243400  0.623900  1.0  0.1841
  H  H172  1  0.583900  0.743400  0.123900  1.0  0.1841
  H  H173  1  0.083900  0.756600  0.876100  1.0  0.1847
  H  H174  1  0.083900  0.256600  0.376100  1.0  0.1847
  H  H175  1  0.583900  0.756600  0.376100  1.0  0.1847
  H  H176  1  0.583900  0.256600  0.876100  1.0  0.1847
  H  H177  1  0.123900  0.916100  0.756600  1.0  0.1898
  H  H178  1  0.123900  0.416100  0.256600  1.0  0.1898
  H  H179  1  0.623900  0.916100  0.256600  1.0  0.1898
  H  H180  1  0.623900  0.416100  0.756600  1.0  0.1898
  H  H181  1  0.876100  0.916100  0.243400  1.0  0.1919
  H  H182  1  0.876100  0.416100  0.743400  1.0  0.1919
  H  H183  1  0.376100  0.916100  0.743400  1.0  0.1919
  H  H184  1  0.376100  0.416100  0.243400  1.0  0.1919
  H  H185  1  0.123900  0.083900  0.243400  1.0  0.1856
  H  H186  1  0.123900  0.583900  0.743400  1.0  0.1856
  H  H187  1  0.623900  0.083900  0.743400  1.0  0.1856
  H  H188  1  0.623900  0.583900  0.243400  1.0  0.1856
  H  H189  1  0.876100  0.083900  0.756600  1.0  0.1866
  H  H190  1  0.876100  0.583900  0.256600  1.0  0.1866
  H  H191  1  0.376100  0.083900  0.256600  1.0  0.1866
  H  H192  1  0.376100  0.583900  0.756600  1.0  0.1866
  H  H193  1  0.123900  0.756600  0.083900  1.0  0.1909
  H  H194  1  0.123900  0.256600  0.583900  1.0  0.1909
  H  H195  1  0.623900  0.756600  0.583900  1.0  0.1909
  H  H196  1  0.623900  0.256600  0.083900  1.0  0.1909
  H  H197  1  0.876100  0.243400  0.083900  1.0  0.1899
  H  H198  1  0.876100  0.743400  0.583900  1.0  0.1899
  H  H199  1  0.376100  0.243400  0.583900  1.0  0.1899
  H  H200  1  0.376100  0.743400  0.083900  1.0  0.1899
  H  H201  1  0.123900  0.243400  0.916100  1.0  0.1898
  H  H202  1  0.123900  0.743400  0.416100  1.0  0.1898
  H  H203  1  0.623900  0.243400  0.416100  1.0  0.1898
  H  H204  1  0.623900  0.743400  0.916100  1.0  0.1898
  H  H205  1  0.876100  0.756600  0.916100  1.0  0.1915
  H  H206  1  0.876100  0.256600  0.416100  1.0  0.1915
  H  H207  1  0.376100  0.756600  0.416100  1.0  0.1915
  H  H208  1  0.376100  0.256600  0.916100  1.0  0.1915
  H  H209  1  0.756600  0.916100  0.876100  1.0  0.1854
  H  H210  1  0.756600  0.416100  0.376100  1.0  0.1854
  H  H211  1  0.256600  0.916100  0.376100  1.0  0.1854
  H  H212  1  0.256600  0.416100  0.876100  1.0  0.1854
  H  H213  1  0.243400  0.916100  0.123900  1.0  0.187
  H  H214  1  0.243400  0.416100  0.623900  1.0  0.187
  H  H215  1  0.743400  0.916100  0.623900  1.0  0.187
  H  H216  1  0.743400  0.416100  0.123900  1.0  0.187
  H  H217  1  0.243400  0.083900  0.876100  1.0  0.1821
  H  H218  1  0.243400  0.583900  0.376100  1.0  0.1821
  H  H219  1  0.743400  0.083900  0.376100  1.0  0.1821
  H  H220  1  0.743400  0.583900  0.876100  1.0  0.1821
  H  H221  1  0.756600  0.083900  0.123900  1.0  0.1849
  H  H222  1  0.756600  0.583900  0.623900  1.0  0.1849
  H  H223  1  0.256600  0.083900  0.623900  1.0  0.1849
  H  H224  1  0.256600  0.583900  0.123900  1.0  0.1849
  H  H225  1  0.916100  0.123900  0.243400  1.0  0.1872
  H  H226  1  0.916100  0.623900  0.743400  1.0  0.1872
  H  H227  1  0.416100  0.123900  0.743400  1.0  0.1872
  H  H228  1  0.416100  0.623900  0.243400  1.0  0.1872
  H  H229  1  0.916100  0.876100  0.756600  1.0  0.1826
  H  H230  1  0.916100  0.376100  0.256600  1.0  0.1826
  H  H231  1  0.416100  0.876100  0.256600  1.0  0.1826
  H  H232  1  0.416100  0.376100  0.756600  1.0  0.1826
  H  H233  1  0.083900  0.123900  0.756600  1.0  0.1869
  H  H234  1  0.083900  0.623900  0.256600  1.0  0.1869
  H  H235  1  0.583900  0.123900  0.256600  1.0  0.1869
  H  H236  1  0.583900  0.623900  0.756600  1.0  0.1869
  H  H237  1  0.083900  0.876100  0.243400  1.0  0.1845
  H  H238  1  0.083900  0.376100  0.743400  1.0  0.1845
  H  H239  1  0.583900  0.876100  0.743400  1.0  0.1845
  H  H240  1  0.583900  0.376100  0.243400  1.0  0.1845
  H  H241  1  0.273100  0.881500  0.118500  1.0  0.2325
  H  H242  1  0.273100  0.381500  0.618500  1.0  0.2325
  H  H243  1  0.773100  0.881500  0.618500  1.0  0.2325
  H  H244  1  0.773100  0.381500  0.118500  1.0  0.2325
  H  H245  1  0.726900  0.118500  0.118500  1.0  0.2317
  H  H246  1  0.726900  0.618500  0.618500  1.0  0.2317
  H  H247  1  0.226900  0.118500  0.618500  1.0  0.2317
  H  H248  1  0.226900  0.618500  0.118500  1.0  0.2317
  H  H249  1  0.726900  0.881500  0.881500  1.0  0.2333
  H  H250  1  0.726900  0.381500  0.381500  1.0  0.2333
  H  H251  1  0.226900  0.881500  0.381500  1.0  0.2333
  H  H252  1  0.226900  0.381500  0.881500  1.0  0.2333
  H  H253  1  0.273100  0.118500  0.881500  1.0  0.2344
  H  H254  1  0.273100  0.618500  0.381500  1.0  0.2344
  H  H255  1  0.773100  0.118500  0.381500  1.0  0.2344
  H  H256  1  0.773100  0.618500  0.881500  1.0  0.2344
  H  H257  1  0.118500  0.273100  0.881500  1.0  0.2333
  H  H258  1  0.118500  0.773100  0.381500  1.0  0.2333
  H  H259  1  0.618500  0.273100  0.381500  1.0  0.2333
  H  H260  1  0.618500  0.773100  0.881500  1.0  0.2333
  H  H261  1  0.118500  0.726900  0.118500  1.0  0.2319
  H  H262  1  0.118500  0.226900  0.618500  1.0  0.2319
  H  H263  1  0.618500  0.726900  0.618500  1.0  0.2319
  H  H264  1  0.618500  0.226900  0.118500  1.0  0.2319
  H  H265  1  0.881500  0.726900  0.881500  1.0  0.2332
  H  H266  1  0.881500  0.226900  0.381500  1.0  0.2332
  H  H267  1  0.381500  0.726900  0.381500  1.0  0.2332
  H  H268  1  0.381500  0.226900  0.881500  1.0  0.2332
  H  H269  1  0.881500  0.273100  0.118500  1.0  0.2318
  H  H270  1  0.881500  0.773100  0.618500  1.0  0.2318
  H  H271  1  0.381500  0.273100  0.618500  1.0  0.2318
  H  H272  1  0.381500  0.773100  0.118500  1.0  0.2318
  H  H273  1  0.881500  0.118500  0.273100  1.0  0.2302
  H  H274  1  0.881500  0.618500  0.773100  1.0  0.2302
  H  H275  1  0.381500  0.118500  0.773100  1.0  0.2302
  H  H276  1  0.381500  0.618500  0.273100  1.0  0.2302
  H  H277  1  0.118500  0.118500  0.726900  1.0  0.2337
  H  H278  1  0.118500  0.618500  0.226900  1.0  0.2337
  H  H279  1  0.618500  0.118500  0.226900  1.0  0.2337
  H  H280  1  0.618500  0.618500  0.726900  1.0  0.2337
  H  H281  1  0.881500  0.881500  0.726900  1.0  0.2335
  H  H282  1  0.881500  0.381500  0.226900  1.0  0.2335
  H  H283  1  0.381500  0.881500  0.226900  1.0  0.2335
  H  H284  1  0.381500  0.381500  0.726900  1.0  0.2335
  H  H285  1  0.118500  0.881500  0.273100  1.0  0.2305
  H  H286  1  0.118500  0.381500  0.773100  1.0  0.2305
  H  H287  1  0.618500  0.881500  0.773100  1.0  0.2305
  H  H288  1  0.618500  0.381500  0.273100  1.0  0.2305
  H  H289  1  0.881500  0.273100  0.881500  1.0  0.2322
  H  H290  1  0.881500  0.773100  0.381500  1.0  0.2322
  H  H291  1  0.381500  0.273100  0.381500  1.0  0.2322
  H  H292  1  0.381500  0.773100  0.881500  1.0  0.2322
  H  H293  1  0.118500  0.726900  0.881500  1.0  0.234
  H  H294  1  0.118500  0.226900  0.381500  1.0  0.234
  H  H295  1  0.618500  0.726900  0.381500  1.0  0.234
  H  H296  1  0.618500  0.226900  0.881500  1.0  0.234
  H  H297  1  0.881500  0.726900  0.118500  1.0  0.2321
  H  H298  1  0.881500  0.226900  0.618500  1.0  0.2321
  H  H299  1  0.381500  0.726900  0.618500  1.0  0.2321
  H  H300  1  0.381500  0.226900  0.118500  1.0  0.2321
  H  H301  1  0.118500  0.273100  0.118500  1.0  0.2322
  H  H302  1  0.118500  0.773100  0.618500  1.0  0.2322
  H  H303  1  0.618500  0.273100  0.618500  1.0  0.2322
  H  H304  1  0.618500  0.773100  0.118500  1.0  0.2322
  H  H305  1  0.273100  0.118500  0.118500  1.0  0.2327
  H  H306  1  0.273100  0.618500  0.618500  1.0  0.2327
  H  H307  1  0.773100  0.118500  0.618500  1.0  0.2327
  H  H308  1  0.773100  0.618500  0.118500  1.0  0.2327
  H  H309  1  0.726900  0.118500  0.881500  1.0  0.2329
  H  H310  1  0.726900  0.618500  0.381500  1.0  0.2329
  H  H311  1  0.226900  0.118500  0.381500  1.0  0.2329
  H  H312  1  0.226900  0.618500  0.881500  1.0  0.2329
  H  H313  1  0.726900  0.881500  0.118500  1.0  0.2316
  H  H314  1  0.726900  0.381500  0.618500  1.0  0.2316
  H  H315  1  0.226900  0.881500  0.618500  1.0  0.2316
  H  H316  1  0.226900  0.381500  0.118500  1.0  0.2316
  H  H317  1  0.273100  0.881500  0.881500  1.0  0.2351
  H  H318  1  0.273100  0.381500  0.381500  1.0  0.2351
  H  H319  1  0.773100  0.881500  0.381500  1.0  0.2351
  H  H320  1  0.773100  0.381500  0.881500  1.0  0.2351
  H  H321  1  0.118500  0.881500  0.726900  1.0  0.2349
  H  H322  1  0.118500  0.381500  0.226900  1.0  0.2349
  H  H323  1  0.618500  0.881500  0.226900  1.0  0.2349
  H  H324  1  0.618500  0.381500  0.726900  1.0  0.2349
  H  H325  1  0.118500  0.118500  0.273100  1.0  0.2304
  H  H326  1  0.118500  0.618500  0.773100  1.0  0.2304
  H  H327  1  0.618500  0.118500  0.773100  1.0  0.2304
  H  H328  1  0.618500  0.618500  0.273100  1.0  0.2304
  H  H329  1  0.881500  0.881500  0.273100  1.0  0.2304
  H  H330  1  0.881500  0.381500  0.773100  1.0  0.2304
  H  H331  1  0.381500  0.881500  0.773100  1.0  0.2304
  H  H332  1  0.381500  0.381500  0.273100  1.0  0.2304
  H  H333  1  0.881500  0.118500  0.726900  1.0  0.2324
  H  H334  1  0.881500  0.618500  0.226900  1.0  0.2324
  H  H335  1  0.381500  0.118500  0.226900  1.0  0.2324
  H  H336  1  0.381500  0.618500  0.726900  1.0  0.2324
  C  C337  1  0.296800  0.930800  0.203200  1.0  0.6596
  C  C338  1  0.322600  0.887800  0.177400  1.0  -0.0747
  C  C339  1  0.296800  0.430800  0.703200  1.0  0.6596
  C  C340  1  0.322600  0.387800  0.677400  1.0  -0.0747
  C  C341  1  0.703200  0.069200  0.203200  1.0  0.659
  C  C342  1  0.677400  0.112200  0.177400  1.0  -0.0759
  C  C343  1  0.703200  0.569200  0.703200  1.0  0.659
  C  C344  1  0.677400  0.612200  0.677400  1.0  -0.0759
  C  C345  1  0.203200  0.569200  0.203200  1.0  0.659
  C  C346  1  0.177400  0.612200  0.177400  1.0  -0.0759
  C  C347  1  0.703200  0.930800  0.796800  1.0  0.6602
  C  C348  1  0.677400  0.887800  0.822600  1.0  -0.0754
  C  C349  1  0.703200  0.430800  0.296800  1.0  0.6602
  C  C350  1  0.677400  0.387800  0.322600  1.0  -0.0754
  C  C351  1  0.203200  0.930800  0.296800  1.0  0.6602
  C  C352  1  0.177400  0.887800  0.322600  1.0  -0.0754
  C  C353  1  0.296800  0.069200  0.796800  1.0  0.6593
  C  C354  1  0.322600  0.112200  0.822600  1.0  -0.0753
  C  C355  1  0.296800  0.569200  0.296800  1.0  0.6593
  C  C356  1  0.322600  0.612200  0.322600  1.0  -0.0753
  C  C357  1  0.203200  0.296800  0.930800  1.0  0.6638
  C  C358  1  0.177400  0.322600  0.887800  1.0  -0.076
  C  C359  1  0.203200  0.796800  0.430800  1.0  0.6638
  C  C360  1  0.177400  0.822600  0.387800  1.0  -0.076
  C  C361  1  0.203200  0.703200  0.069200  1.0  0.6658
  C  C362  1  0.177400  0.677400  0.112200  1.0  -0.0756
  C  C363  1  0.203200  0.203200  0.569200  1.0  0.6658
  C  C364  1  0.177400  0.177400  0.612200  1.0  -0.0756
  C  C365  1  0.796800  0.703200  0.930800  1.0  0.6641
  C  C366  1  0.822600  0.677400  0.887800  1.0  -0.0751
  C  C367  1  0.796800  0.203200  0.430800  1.0  0.6641
  C  C368  1  0.822600  0.177400  0.387800  1.0  -0.0751
  C  C369  1  0.296800  0.203200  0.930800  1.0  0.6641
  C  C370  1  0.322600  0.177400  0.887800  1.0  -0.0751
  C  C371  1  0.796800  0.296800  0.069200  1.0  0.6659
  C  C372  1  0.822600  0.322600  0.112200  1.0  -0.0748
  C  C373  1  0.796800  0.796800  0.569200  1.0  0.6659
  C  C374  1  0.822600  0.822600  0.612200  1.0  -0.0748
  C  C375  1  0.296800  0.296800  0.569200  1.0  0.6659
  C  C376  1  0.322600  0.322600  0.612200  1.0  -0.0748
  C  C377  1  0.930800  0.203200  0.296800  1.0  0.6582
  C  C378  1  0.887800  0.177400  0.322600  1.0  -0.0763
  C  C379  1  0.430800  0.203200  0.796800  1.0  0.6582
  C  C380  1  0.387800  0.177400  0.822600  1.0  -0.0763
  C  C381  1  0.069200  0.203200  0.703200  1.0  0.6579
  C  C382  1  0.112200  0.177400  0.677400  1.0  -0.0774
  C  C383  1  0.569200  0.203200  0.203200  1.0  0.6579
  C  C384  1  0.612200  0.177400  0.177400  1.0  -0.0774
  C  C385  1  0.930800  0.796800  0.703200  1.0  0.6579
  C  C386  1  0.887800  0.822600  0.677400  1.0  -0.0762
  C  C387  1  0.930800  0.296800  0.203200  1.0  0.6579
  C  C388  1  0.887800  0.322600  0.177400  1.0  -0.0762
  C  C389  1  0.430800  0.796800  0.203200  1.0  0.6579
  C  C390  1  0.387800  0.822600  0.177400  1.0  -0.0762
  C  C391  1  0.069200  0.796800  0.296800  1.0  0.6578
  C  C392  1  0.112200  0.822600  0.322600  1.0  -0.0775
  C  C393  1  0.569200  0.796800  0.796800  1.0  0.6578
  C  C394  1  0.612200  0.822600  0.822600  1.0  -0.0775
  C  C395  1  0.569200  0.296800  0.296800  1.0  0.6578
  C  C396  1  0.612200  0.322600  0.322600  1.0  -0.0775
  C  C397  1  0.930800  0.296800  0.796800  1.0  0.658
  C  C398  1  0.887800  0.322600  0.822600  1.0  -0.0762
  C  C399  1  0.430800  0.296800  0.296800  1.0  0.658
  C  C400  1  0.387800  0.322600  0.322600  1.0  -0.0762
  C  C401  1  0.069200  0.703200  0.796800  1.0  0.658
  C  C402  1  0.112200  0.677400  0.822600  1.0  -0.0774
  C  C403  1  0.069200  0.203200  0.296800  1.0  0.658
  C  C404  1  0.112200  0.177400  0.322600  1.0  -0.0774
  C  C405  1  0.569200  0.703200  0.296800  1.0  0.658
  C  C406  1  0.612200  0.677400  0.322600  1.0  -0.0774
  C  C407  1  0.930800  0.703200  0.203200  1.0  0.6582
  C  C408  1  0.887800  0.677400  0.177400  1.0  -0.0764
  C  C409  1  0.430800  0.703200  0.703200  1.0  0.6582
  C  C410  1  0.387800  0.677400  0.677400  1.0  -0.0764
  C  C411  1  0.430800  0.203200  0.203200  1.0  0.6582
  C  C412  1  0.387800  0.177400  0.177400  1.0  -0.0764
  C  C413  1  0.069200  0.296800  0.203200  1.0  0.6578
  C  C414  1  0.112200  0.322600  0.177400  1.0  -0.0774
  C  C415  1  0.569200  0.296800  0.703200  1.0  0.6578
  C  C416  1  0.612200  0.322600  0.677400  1.0  -0.0774
  C  C417  1  0.296800  0.203200  0.069200  1.0  0.6659
  C  C418  1  0.322600  0.177400  0.112200  1.0  -0.0749
  C  C419  1  0.296800  0.703200  0.569200  1.0  0.6659
  C  C420  1  0.322600  0.677400  0.612200  1.0  -0.0749
  C  C421  1  0.703200  0.203200  0.930800  1.0  0.664
  C  C422  1  0.677400  0.177400  0.887800  1.0  -0.0758
  C  C423  1  0.703200  0.703200  0.430800  1.0  0.664
  C  C424  1  0.677400  0.677400  0.387800  1.0  -0.0758
  C  C425  1  0.203200  0.203200  0.430800  1.0  0.664
  C  C426  1  0.177400  0.177400  0.387800  1.0  -0.0758
  C  C427  1  0.703200  0.796800  0.069200  1.0  0.6659
  C  C428  1  0.677400  0.822600  0.112200  1.0  -0.0756
  C  C429  1  0.703200  0.296800  0.569200  1.0  0.6659
  C  C430  1  0.677400  0.322600  0.612200  1.0  -0.0756
  C  C431  1  0.203200  0.296800  0.069200  1.0  0.6659
  C  C432  1  0.177400  0.322600  0.112200  1.0  -0.0756
  C  C433  1  0.296800  0.796800  0.930800  1.0  0.6637
  C  C434  1  0.322600  0.822600  0.887800  1.0  -0.0753
  C  C435  1  0.296800  0.296800  0.430800  1.0  0.6637
  C  C436  1  0.322600  0.322600  0.387800  1.0  -0.0753
  C  C437  1  0.203200  0.930800  0.703200  1.0  0.6596
  C  C438  1  0.177400  0.887800  0.677400  1.0  -0.0754
  C  C439  1  0.203200  0.430800  0.203200  1.0  0.6596
  C  C440  1  0.177400  0.387800  0.177400  1.0  -0.0754
  C  C441  1  0.203200  0.069200  0.296800  1.0  0.6591
  C  C442  1  0.177400  0.112200  0.322600  1.0  -0.0761
  C  C443  1  0.203200  0.569200  0.796800  1.0  0.6591
  C  C444  1  0.177400  0.612200  0.822600  1.0  -0.0761
  C  C445  1  0.796800  0.930800  0.296800  1.0  0.6601
  C  C446  1  0.822600  0.887800  0.322600  1.0  -0.0747
  C  C447  1  0.796800  0.430800  0.796800  1.0  0.6601
  C  C448  1  0.822600  0.387800  0.822600  1.0  -0.0747
  C  C449  1  0.296800  0.430800  0.296800  1.0  0.6601
  C  C450  1  0.322600  0.387800  0.322600  1.0  -0.0747
  C  C451  1  0.796800  0.069200  0.703200  1.0  0.6593
  C  C452  1  0.822600  0.112200  0.677400  1.0  -0.0752
  C  C453  1  0.796800  0.569200  0.203200  1.0  0.6593
  C  C454  1  0.822600  0.612200  0.177400  1.0  -0.0752
  C  C455  1  0.296800  0.069200  0.203200  1.0  0.6593
  C  C456  1  0.322600  0.112200  0.177400  1.0  -0.0752
  C  C457  1  0.703200  0.069200  0.796800  1.0  0.6591
  C  C458  1  0.677400  0.112200  0.822600  1.0  -0.0761
  C  C459  1  0.703200  0.569200  0.296800  1.0  0.6591
  C  C460  1  0.677400  0.612200  0.322600  1.0  -0.0761
  C  C461  1  0.296800  0.930800  0.796800  1.0  0.6601
  C  C462  1  0.322600  0.887800  0.822600  1.0  -0.0747
  C  C463  1  0.296800  0.569200  0.703200  1.0  0.6593
  C  C464  1  0.322600  0.612200  0.677400  1.0  -0.0752
  C  C465  1  0.703200  0.930800  0.203200  1.0  0.6596
  C  C466  1  0.677400  0.887800  0.177400  1.0  -0.0754
  C  C467  1  0.703200  0.430800  0.703200  1.0  0.6596
  C  C468  1  0.677400  0.387800  0.677400  1.0  -0.0754
  C  C469  1  0.796800  0.703200  0.069200  1.0  0.6659
  C  C470  1  0.822600  0.677400  0.112200  1.0  -0.0749
  C  C471  1  0.796800  0.203200  0.569200  1.0  0.6659
  C  C472  1  0.822600  0.177400  0.612200  1.0  -0.0749
  C  C473  1  0.796800  0.296800  0.930800  1.0  0.6637
  C  C474  1  0.822600  0.322600  0.887800  1.0  -0.0753
  C  C475  1  0.796800  0.796800  0.430800  1.0  0.6637
  C  C476  1  0.822600  0.822600  0.387800  1.0  -0.0753
  C  C477  1  0.203200  0.796800  0.569200  1.0  0.6659
  C  C478  1  0.177400  0.822600  0.612200  1.0  -0.0756
  C  C479  1  0.203200  0.703200  0.930800  1.0  0.664
  C  C480  1  0.177400  0.677400  0.887800  1.0  -0.0758
  C  C481  1  0.069200  0.796800  0.703200  1.0  0.6578
  C  C482  1  0.112200  0.822600  0.677400  1.0  -0.0774
  C  C483  1  0.569200  0.796800  0.203200  1.0  0.6578
  C  C484  1  0.612200  0.822600  0.177400  1.0  -0.0774
  C  C485  1  0.930800  0.796800  0.296800  1.0  0.658
  C  C486  1  0.887800  0.822600  0.322600  1.0  -0.0762
  C  C487  1  0.430800  0.796800  0.796800  1.0  0.658
  C  C488  1  0.387800  0.822600  0.822600  1.0  -0.0762
  C  C489  1  0.569200  0.203200  0.796800  1.0  0.658
  C  C490  1  0.612200  0.177400  0.822600  1.0  -0.0774
  C  C491  1  0.930800  0.203200  0.703200  1.0  0.6582
  C  C492  1  0.887800  0.177400  0.677400  1.0  -0.0764
  C  C493  1  0.069200  0.703200  0.203200  1.0  0.6579
  C  C494  1  0.112200  0.677400  0.177400  1.0  -0.0774
  C  C495  1  0.569200  0.703200  0.703200  1.0  0.6579
  C  C496  1  0.612200  0.677400  0.677400  1.0  -0.0774
  C  C497  1  0.430800  0.296800  0.703200  1.0  0.6579
  C  C498  1  0.387800  0.322600  0.677400  1.0  -0.0762
  C  C499  1  0.069200  0.296800  0.796800  1.0  0.6578
  C  C500  1  0.112200  0.322600  0.822600  1.0  -0.0775
  C  C501  1  0.930800  0.703200  0.796800  1.0  0.6582
  C  C502  1  0.887800  0.677400  0.822600  1.0  -0.0763
  C  C503  1  0.430800  0.703200  0.296800  1.0  0.6582
  C  C504  1  0.387800  0.677400  0.322600  1.0  -0.0763
  C  C505  1  0.703200  0.796800  0.930800  1.0  0.6638
  C  C506  1  0.677400  0.822600  0.887800  1.0  -0.076
  C  C507  1  0.703200  0.296800  0.430800  1.0  0.6638
  C  C508  1  0.677400  0.322600  0.387800  1.0  -0.076
  C  C509  1  0.296800  0.796800  0.069200  1.0  0.6659
  C  C510  1  0.322600  0.822600  0.112200  1.0  -0.0748
  C  C511  1  0.296800  0.703200  0.430800  1.0  0.6641
  C  C512  1  0.322600  0.677400  0.387800  1.0  -0.0751
  C  C513  1  0.703200  0.203200  0.069200  1.0  0.6658
  C  C514  1  0.677400  0.177400  0.112200  1.0  -0.0756
  C  C515  1  0.703200  0.703200  0.569200  1.0  0.6658
  C  C516  1  0.677400  0.677400  0.612200  1.0  -0.0756
  C  C517  1  0.796800  0.069200  0.296800  1.0  0.6593
  C  C518  1  0.822600  0.112200  0.322600  1.0  -0.0753
  C  C519  1  0.796800  0.569200  0.796800  1.0  0.6593
  C  C520  1  0.822600  0.612200  0.822600  1.0  -0.0753
  C  C521  1  0.796800  0.930800  0.703200  1.0  0.6596
  C  C522  1  0.822600  0.887800  0.677400  1.0  -0.0747
  C  C523  1  0.796800  0.430800  0.203200  1.0  0.6596
  C  C524  1  0.822600  0.387800  0.177400  1.0  -0.0747
  C  C525  1  0.203200  0.069200  0.703200  1.0  0.659
  C  C526  1  0.177400  0.112200  0.677400  1.0  -0.0759
  C  C527  1  0.203200  0.430800  0.796800  1.0  0.6602
  C  C528  1  0.177400  0.387800  0.822600  1.0  -0.0754
  C  C529  1  0.301300  0.866500  0.133500  1.0  -0.0946
  C  C530  1  0.301300  0.366500  0.633500  1.0  -0.0931
  C  C531  1  0.801300  0.866500  0.633500  1.0  -0.0931
  C  C532  1  0.801300  0.366500  0.133500  1.0  -0.0931
  C  C533  1  0.698700  0.133500  0.133500  1.0  -0.0914
  C  C534  1  0.698700  0.633500  0.633500  1.0  -0.0914
  C  C535  1  0.198700  0.133500  0.633500  1.0  -0.0914
  C  C536  1  0.198700  0.633500  0.133500  1.0  -0.0914
  C  C537  1  0.698700  0.866500  0.866500  1.0  -0.0908
  C  C538  1  0.698700  0.366500  0.366500  1.0  -0.0908
  C  C539  1  0.198700  0.866500  0.366500  1.0  -0.0921
  C  C540  1  0.198700  0.366500  0.866500  1.0  -0.0905
  C  C541  1  0.301300  0.133500  0.866500  1.0  -0.0925
  C  C542  1  0.301300  0.633500  0.366500  1.0  -0.0913
  C  C543  1  0.801300  0.133500  0.366500  1.0  -0.0913
  C  C544  1  0.801300  0.633500  0.866500  1.0  -0.0913
  C  C545  1  0.133500  0.301300  0.866500  1.0  -0.0957
  C  C546  1  0.133500  0.801300  0.366500  1.0  -0.0944
  C  C547  1  0.633500  0.301300  0.366500  1.0  -0.0944
  C  C548  1  0.633500  0.801300  0.866500  1.0  -0.0944
  C  C549  1  0.133500  0.698700  0.133500  1.0  -0.0954
  C  C550  1  0.133500  0.198700  0.633500  1.0  -0.0954
  C  C551  1  0.633500  0.698700  0.633500  1.0  -0.0954
  C  C552  1  0.633500  0.198700  0.133500  1.0  -0.0954
  C  C553  1  0.866500  0.698700  0.866500  1.0  -0.0938
  C  C554  1  0.866500  0.198700  0.366500  1.0  -0.095
  C  C555  1  0.366500  0.698700  0.366500  1.0  -0.0938
  C  C556  1  0.366500  0.198700  0.866500  1.0  -0.0935
  C  C557  1  0.866500  0.301300  0.133500  1.0  -0.0965
  C  C558  1  0.866500  0.801300  0.633500  1.0  -0.0949
  C  C559  1  0.366500  0.301300  0.633500  1.0  -0.0949
  C  C560  1  0.366500  0.801300  0.133500  1.0  -0.0949
  C  C561  1  0.866500  0.133500  0.301300  1.0  -0.0933
  C  C562  1  0.866500  0.633500  0.801300  1.0  -0.0919
  C  C563  1  0.366500  0.133500  0.801300  1.0  -0.0919
  C  C564  1  0.366500  0.633500  0.301300  1.0  -0.0918
  C  C565  1  0.133500  0.133500  0.698700  1.0  -0.0917
  C  C566  1  0.133500  0.633500  0.198700  1.0  -0.0914
  C  C567  1  0.633500  0.133500  0.198700  1.0  -0.0914
  C  C568  1  0.633500  0.633500  0.698700  1.0  -0.0917
  C  C569  1  0.866500  0.866500  0.698700  1.0  -0.0914
  C  C570  1  0.866500  0.366500  0.198700  1.0  -0.0926
  C  C571  1  0.366500  0.866500  0.198700  1.0  -0.0926
  C  C572  1  0.366500  0.366500  0.698700  1.0  -0.0914
  C  C573  1  0.133500  0.866500  0.301300  1.0  -0.0953
  C  C574  1  0.133500  0.366500  0.801300  1.0  -0.0939
  C  C575  1  0.633500  0.866500  0.801300  1.0  -0.0939
  C  C576  1  0.633500  0.366500  0.301300  1.0  -0.0939
  C  C577  1  0.866500  0.301300  0.866500  1.0  -0.0952
  C  C578  1  0.866500  0.801300  0.366500  1.0  -0.0939
  C  C579  1  0.366500  0.301300  0.366500  1.0  -0.0936
  C  C580  1  0.366500  0.801300  0.866500  1.0  -0.0939
  C  C581  1  0.133500  0.698700  0.866500  1.0  -0.0941
  C  C582  1  0.133500  0.198700  0.366500  1.0  -0.0954
  C  C583  1  0.633500  0.698700  0.366500  1.0  -0.0941
  C  C584  1  0.633500  0.198700  0.866500  1.0  -0.0938
  C  C585  1  0.866500  0.698700  0.133500  1.0  -0.0949
  C  C586  1  0.866500  0.198700  0.633500  1.0  -0.0949
  C  C587  1  0.366500  0.698700  0.633500  1.0  -0.0949
  C  C588  1  0.366500  0.198700  0.133500  1.0  -0.0949
  C  C589  1  0.133500  0.301300  0.133500  1.0  -0.0974
  C  C590  1  0.133500  0.801300  0.633500  1.0  -0.0958
  C  C591  1  0.633500  0.301300  0.633500  1.0  -0.0958
  C  C592  1  0.633500  0.801300  0.133500  1.0  -0.0958
  C  C593  1  0.301300  0.133500  0.133500  1.0  -0.0939
  C  C594  1  0.301300  0.633500  0.633500  1.0  -0.0924
  C  C595  1  0.801300  0.133500  0.633500  1.0  -0.0924
  C  C596  1  0.801300  0.633500  0.133500  1.0  -0.0924
  C  C597  1  0.698700  0.133500  0.866500  1.0  -0.0903
  C  C598  1  0.698700  0.633500  0.366500  1.0  -0.0903
  C  C599  1  0.198700  0.133500  0.366500  1.0  -0.09
  C  C600  1  0.198700  0.633500  0.866500  1.0  -0.09
  C  C601  1  0.698700  0.866500  0.133500  1.0  -0.0922
  C  C602  1  0.698700  0.366500  0.633500  1.0  -0.0922
  C  C603  1  0.198700  0.866500  0.633500  1.0  -0.0923
  C  C604  1  0.198700  0.366500  0.133500  1.0  -0.0923
  C  C605  1  0.301300  0.866500  0.866500  1.0  -0.0933
  C  C606  1  0.301300  0.366500  0.366500  1.0  -0.0917
  C  C607  1  0.801300  0.866500  0.366500  1.0  -0.092
  C  C608  1  0.801300  0.366500  0.866500  1.0  -0.092
  C  C609  1  0.133500  0.866500  0.698700  1.0  -0.0924
  C  C610  1  0.133500  0.366500  0.198700  1.0  -0.0936
  C  C611  1  0.633500  0.866500  0.198700  1.0  -0.0921
  C  C612  1  0.633500  0.366500  0.698700  1.0  -0.0924
  C  C613  1  0.133500  0.133500  0.301300  1.0  -0.0946
  C  C614  1  0.133500  0.633500  0.801300  1.0  -0.0932
  C  C615  1  0.633500  0.133500  0.801300  1.0  -0.0932
  C  C616  1  0.633500  0.633500  0.301300  1.0  -0.0932
  C  C617  1  0.866500  0.866500  0.301300  1.0  -0.0939
  C  C618  1  0.866500  0.366500  0.801300  1.0  -0.0925
  C  C619  1  0.366500  0.866500  0.801300  1.0  -0.0925
  C  C620  1  0.366500  0.366500  0.301300  1.0  -0.0925
  C  C621  1  0.866500  0.133500  0.698700  1.0  -0.0911
  C  C622  1  0.866500  0.633500  0.198700  1.0  -0.0908
  C  C623  1  0.366500  0.133500  0.198700  1.0  -0.0908
  C  C624  1  0.366500  0.633500  0.698700  1.0  -0.0911
  N  N625  1  0.257700  0.890900  0.109100  1.0  -0.3105
  N  N626  1  0.257700  0.390900  0.609100  1.0  -0.3105
  N  N627  1  0.757700  0.890900  0.609100  1.0  -0.3105
  N  N628  1  0.757700  0.390900  0.109100  1.0  -0.3105
  N  N629  1  0.742300  0.109100  0.109100  1.0  -0.3092
  N  N630  1  0.742300  0.609100  0.609100  1.0  -0.3092
  N  N631  1  0.242300  0.109100  0.609100  1.0  -0.3092
  N  N632  1  0.242300  0.609100  0.109100  1.0  -0.3092
  N  N633  1  0.742300  0.890900  0.890900  1.0  -0.3121
  N  N634  1  0.742300  0.390900  0.390900  1.0  -0.3121
  N  N635  1  0.242300  0.890900  0.390900  1.0  -0.3121
  N  N636  1  0.242300  0.390900  0.890900  1.0  -0.3121
  N  N637  1  0.257700  0.109100  0.890900  1.0  -0.3126
  N  N638  1  0.257700  0.609100  0.390900  1.0  -0.3126
  N  N639  1  0.757700  0.109100  0.390900  1.0  -0.3126
  N  N640  1  0.757700  0.609100  0.890900  1.0  -0.3126
  N  N641  1  0.109100  0.257700  0.890900  1.0  -0.3134
  N  N642  1  0.109100  0.757700  0.390900  1.0  -0.3134
  N  N643  1  0.609100  0.257700  0.390900  1.0  -0.3134
  N  N644  1  0.609100  0.757700  0.890900  1.0  -0.3134
  N  N645  1  0.109100  0.742300  0.109100  1.0  -0.3092
  N  N646  1  0.109100  0.242300  0.609100  1.0  -0.3092
  N  N647  1  0.609100  0.742300  0.609100  1.0  -0.3092
  N  N648  1  0.609100  0.242300  0.109100  1.0  -0.3092
  N  N649  1  0.890900  0.742300  0.890900  1.0  -0.3107
  N  N650  1  0.890900  0.242300  0.390900  1.0  -0.3107
  N  N651  1  0.390900  0.742300  0.390900  1.0  -0.3107
  N  N652  1  0.390900  0.242300  0.890900  1.0  -0.3107
  N  N653  1  0.890900  0.257700  0.109100  1.0  -0.3083
  N  N654  1  0.890900  0.757700  0.609100  1.0  -0.3083
  N  N655  1  0.390900  0.257700  0.609100  1.0  -0.3083
  N  N656  1  0.390900  0.757700  0.109100  1.0  -0.3083
  N  N657  1  0.890900  0.109100  0.257700  1.0  -0.3067
  N  N658  1  0.890900  0.609100  0.757700  1.0  -0.3067
  N  N659  1  0.390900  0.109100  0.757700  1.0  -0.3067
  N  N660  1  0.390900  0.609100  0.257700  1.0  -0.3067
  N  N661  1  0.109100  0.109100  0.742300  1.0  -0.3125
  N  N662  1  0.109100  0.609100  0.242300  1.0  -0.3125
  N  N663  1  0.609100  0.109100  0.242300  1.0  -0.3125
  N  N664  1  0.609100  0.609100  0.742300  1.0  -0.3125
  N  N665  1  0.890900  0.890900  0.742300  1.0  -0.3115
  N  N666  1  0.890900  0.390900  0.242300  1.0  -0.3115
  N  N667  1  0.390900  0.890900  0.242300  1.0  -0.3115
  N  N668  1  0.390900  0.390900  0.742300  1.0  -0.3115
  N  N669  1  0.109100  0.890900  0.257700  1.0  -0.3086
  N  N670  1  0.109100  0.390900  0.757700  1.0  -0.3086
  N  N671  1  0.609100  0.890900  0.757700  1.0  -0.3086
  N  N672  1  0.609100  0.390900  0.257700  1.0  -0.3086
  N  N673  1  0.890900  0.257700  0.890900  1.0  -0.3107
  N  N674  1  0.890900  0.757700  0.390900  1.0  -0.3107
  N  N675  1  0.390900  0.257700  0.390900  1.0  -0.3107
  N  N676  1  0.390900  0.757700  0.890900  1.0  -0.3107
  N  N677  1  0.109100  0.742300  0.890900  1.0  -0.3113
  N  N678  1  0.109100  0.242300  0.390900  1.0  -0.3113
  N  N679  1  0.609100  0.742300  0.390900  1.0  -0.3113
  N  N680  1  0.609100  0.242300  0.890900  1.0  -0.3113
  N  N681  1  0.890900  0.742300  0.109100  1.0  -0.308
  N  N682  1  0.890900  0.242300  0.609100  1.0  -0.308
  N  N683  1  0.390900  0.742300  0.609100  1.0  -0.308
  N  N684  1  0.390900  0.242300  0.109100  1.0  -0.308
  N  N685  1  0.109100  0.257700  0.109100  1.0  -0.3118
  N  N686  1  0.109100  0.757700  0.609100  1.0  -0.3118
  N  N687  1  0.609100  0.257700  0.609100  1.0  -0.3118
  N  N688  1  0.609100  0.757700  0.109100  1.0  -0.3118
  N  N689  1  0.257700  0.109100  0.109100  1.0  -0.3113
  N  N690  1  0.257700  0.609100  0.609100  1.0  -0.3113
  N  N691  1  0.757700  0.109100  0.609100  1.0  -0.3113
  N  N692  1  0.757700  0.609100  0.109100  1.0  -0.3113
  N  N693  1  0.742300  0.109100  0.890900  1.0  -0.3116
  N  N694  1  0.742300  0.609100  0.390900  1.0  -0.3116
  N  N695  1  0.242300  0.109100  0.390900  1.0  -0.3116
  N  N696  1  0.242300  0.609100  0.890900  1.0  -0.3116
  N  N697  1  0.742300  0.890900  0.109100  1.0  -0.3097
  N  N698  1  0.742300  0.390900  0.609100  1.0  -0.3097
  N  N699  1  0.242300  0.890900  0.609100  1.0  -0.3097
  N  N700  1  0.242300  0.390900  0.109100  1.0  -0.3097
  N  N701  1  0.257700  0.890900  0.890900  1.0  -0.3122
  N  N702  1  0.257700  0.390900  0.390900  1.0  -0.3122
  N  N703  1  0.757700  0.890900  0.390900  1.0  -0.3122
  N  N704  1  0.757700  0.390900  0.890900  1.0  -0.3122
  N  N705  1  0.109100  0.890900  0.742300  1.0  -0.3118
  N  N706  1  0.109100  0.390900  0.242300  1.0  -0.3118
  N  N707  1  0.609100  0.890900  0.242300  1.0  -0.3118
  N  N708  1  0.609100  0.390900  0.742300  1.0  -0.3118
  N  N709  1  0.109100  0.109100  0.257700  1.0  -0.3096
  N  N710  1  0.109100  0.609100  0.757700  1.0  -0.3096
  N  N711  1  0.609100  0.109100  0.757700  1.0  -0.3096
  N  N712  1  0.609100  0.609100  0.257700  1.0  -0.3096
  N  N713  1  0.890900  0.890900  0.257700  1.0  -0.3077
  N  N714  1  0.890900  0.390900  0.757700  1.0  -0.3077
  N  N715  1  0.390900  0.890900  0.757700  1.0  -0.3077
  N  N716  1  0.390900  0.390900  0.257700  1.0  -0.3077
  N  N717  1  0.890900  0.109100  0.742300  1.0  -0.3111
  N  N718  1  0.890900  0.609100  0.242300  1.0  -0.3111
  N  N719  1  0.390900  0.109100  0.242300  1.0  -0.3111
  N  N720  1  0.390900  0.609100  0.742300  1.0  -0.3111
  O  O721  1  0.316600  0.947700  0.243100  1.0  -0.5911
  O  O722  1  0.316600  0.447700  0.743100  1.0  -0.5911
  O  O723  1  0.816600  0.947700  0.743100  1.0  -0.5911
  O  O724  1  0.816600  0.447700  0.243100  1.0  -0.5911
  O  O725  1  0.683400  0.052300  0.243100  1.0  -0.5888
  O  O726  1  0.683400  0.552300  0.743100  1.0  -0.5888
  O  O727  1  0.183400  0.052300  0.743100  1.0  -0.5888
  O  O728  1  0.183400  0.552300  0.243100  1.0  -0.5888
  O  O729  1  0.683400  0.947700  0.756900  1.0  -0.594
  O  O730  1  0.683400  0.447700  0.256900  1.0  -0.594
  O  O731  1  0.183400  0.947700  0.256900  1.0  -0.594
  O  O732  1  0.183400  0.447700  0.756900  1.0  -0.594
  O  O733  1  0.316600  0.052300  0.756900  1.0  -0.5921
  O  O734  1  0.316600  0.552300  0.256900  1.0  -0.5921
  O  O735  1  0.816600  0.052300  0.256900  1.0  -0.5921
  O  O736  1  0.816600  0.552300  0.756900  1.0  -0.5921
  O  O737  1  0.243100  0.316600  0.947700  1.0  -0.5896
  O  O738  1  0.243100  0.816600  0.447700  1.0  -0.5896
  O  O739  1  0.743100  0.316600  0.447700  1.0  -0.5896
  O  O740  1  0.743100  0.816600  0.947700  1.0  -0.5896
  O  O741  1  0.243100  0.683400  0.052300  1.0  -0.5903
  O  O742  1  0.243100  0.183400  0.552300  1.0  -0.5903
  O  O743  1  0.743100  0.683400  0.552300  1.0  -0.5903
  O  O744  1  0.743100  0.183400  0.052300  1.0  -0.5903
  O  O745  1  0.756900  0.683400  0.947700  1.0  -0.59
  O  O746  1  0.756900  0.183400  0.447700  1.0  -0.59
  O  O747  1  0.256900  0.683400  0.447700  1.0  -0.59
  O  O748  1  0.256900  0.183400  0.947700  1.0  -0.59
  O  O749  1  0.756900  0.316600  0.052300  1.0  -0.5905
  O  O750  1  0.756900  0.816600  0.552300  1.0  -0.5905
  O  O751  1  0.256900  0.316600  0.552300  1.0  -0.5905
  O  O752  1  0.256900  0.816600  0.052300  1.0  -0.5905
  O  O753  1  0.947700  0.243100  0.316600  1.0  -0.5895
  O  O754  1  0.947700  0.743100  0.816600  1.0  -0.5895
  O  O755  1  0.447700  0.243100  0.816600  1.0  -0.5895
  O  O756  1  0.447700  0.743100  0.316600  1.0  -0.5895
  O  O757  1  0.052300  0.243100  0.683400  1.0  -0.5902
  O  O758  1  0.052300  0.743100  0.183400  1.0  -0.5902
  O  O759  1  0.552300  0.243100  0.183400  1.0  -0.5902
  O  O760  1  0.552300  0.743100  0.683400  1.0  -0.5902
  O  O761  1  0.947700  0.756900  0.683400  1.0  -0.5886
  O  O762  1  0.947700  0.256900  0.183400  1.0  -0.5886
  O  O763  1  0.447700  0.756900  0.183400  1.0  -0.5886
  O  O764  1  0.447700  0.256900  0.683400  1.0  -0.5886
  O  O765  1  0.052300  0.756900  0.316600  1.0  -0.59
  O  O766  1  0.052300  0.256900  0.816600  1.0  -0.59
  O  O767  1  0.552300  0.756900  0.816600  1.0  -0.59
  O  O768  1  0.552300  0.256900  0.316600  1.0  -0.59
  O  O769  1  0.947700  0.316600  0.756900  1.0  -0.5913
  O  O770  1  0.947700  0.816600  0.256900  1.0  -0.5913
  O  O771  1  0.447700  0.316600  0.256900  1.0  -0.5913
  O  O772  1  0.447700  0.816600  0.756900  1.0  -0.5913
  O  O773  1  0.052300  0.683400  0.756900  1.0  -0.5926
  O  O774  1  0.052300  0.183400  0.256900  1.0  -0.5926
  O  O775  1  0.552300  0.683400  0.256900  1.0  -0.5926
  O  O776  1  0.552300  0.183400  0.756900  1.0  -0.5926
  O  O777  1  0.947700  0.683400  0.243100  1.0  -0.5878
  O  O778  1  0.947700  0.183400  0.743100  1.0  -0.5878
  O  O779  1  0.447700  0.683400  0.743100  1.0  -0.5878
  O  O780  1  0.447700  0.183400  0.243100  1.0  -0.5878
  O  O781  1  0.052300  0.316600  0.243100  1.0  -0.5895
  O  O782  1  0.052300  0.816600  0.743100  1.0  -0.5895
  O  O783  1  0.552300  0.316600  0.743100  1.0  -0.5895
  O  O784  1  0.552300  0.816600  0.243100  1.0  -0.5895
  O  O785  1  0.316600  0.243100  0.052300  1.0  -0.5907
  O  O786  1  0.316600  0.743100  0.552300  1.0  -0.5907
  O  O787  1  0.816600  0.243100  0.552300  1.0  -0.5907
  O  O788  1  0.816600  0.743100  0.052300  1.0  -0.5907
  O  O789  1  0.683400  0.243100  0.947700  1.0  -0.5909
  O  O790  1  0.683400  0.743100  0.447700  1.0  -0.5909
  O  O791  1  0.183400  0.243100  0.447700  1.0  -0.5909
  O  O792  1  0.183400  0.743100  0.947700  1.0  -0.5909
  O  O793  1  0.683400  0.756900  0.052300  1.0  -0.5909
  O  O794  1  0.683400  0.256900  0.552300  1.0  -0.5909
  O  O795  1  0.183400  0.756900  0.552300  1.0  -0.5909
  O  O796  1  0.183400  0.256900  0.052300  1.0  -0.5909
  O  O797  1  0.316600  0.756900  0.947700  1.0  -0.5889
  O  O798  1  0.316600  0.256900  0.447700  1.0  -0.5889
  O  O799  1  0.816600  0.756900  0.447700  1.0  -0.5889
  O  O800  1  0.816600  0.256900  0.947700  1.0  -0.5889
  O  O801  1  0.243100  0.947700  0.683400  1.0  -0.5922
  O  O802  1  0.243100  0.447700  0.183400  1.0  -0.5922
  O  O803  1  0.743100  0.947700  0.183400  1.0  -0.5922
  O  O804  1  0.743100  0.447700  0.683400  1.0  -0.5922
  O  O805  1  0.243100  0.052300  0.316600  1.0  -0.5892
  O  O806  1  0.243100  0.552300  0.816600  1.0  -0.5892
  O  O807  1  0.743100  0.052300  0.816600  1.0  -0.5892
  O  O808  1  0.743100  0.552300  0.316600  1.0  -0.5892
  O  O809  1  0.756900  0.947700  0.316600  1.0  -0.5913
  O  O810  1  0.756900  0.447700  0.816600  1.0  -0.5913
  O  O811  1  0.256900  0.947700  0.816600  1.0  -0.5913
  O  O812  1  0.256900  0.447700  0.316600  1.0  -0.5913
  O  O813  1  0.756900  0.052300  0.683400  1.0  -0.591
  O  O814  1  0.756900  0.552300  0.183400  1.0  -0.591
  O  O815  1  0.256900  0.052300  0.183400  1.0  -0.591
  O  O816  1  0.256900  0.552300  0.683400  1.0  -0.591
  O  O817  1  0.683400  0.052300  0.756900  1.0  -0.5925
  O  O818  1  0.683400  0.552300  0.256900  1.0  -0.5925
  O  O819  1  0.183400  0.052300  0.256900  1.0  -0.5925
  O  O820  1  0.183400  0.552300  0.756900  1.0  -0.5925
  O  O821  1  0.316600  0.947700  0.756900  1.0  -0.5936
  O  O822  1  0.316600  0.447700  0.256900  1.0  -0.5936
  O  O823  1  0.816600  0.947700  0.256900  1.0  -0.5936
  O  O824  1  0.816600  0.447700  0.756900  1.0  -0.5936
  O  O825  1  0.316600  0.052300  0.243100  1.0  -0.5886
  O  O826  1  0.316600  0.552300  0.743100  1.0  -0.5886
  O  O827  1  0.816600  0.052300  0.743100  1.0  -0.5886
  O  O828  1  0.816600  0.552300  0.243100  1.0  -0.5886
  O  O829  1  0.683400  0.947700  0.243100  1.0  -0.5913
  O  O830  1  0.683400  0.447700  0.743100  1.0  -0.5913
  O  O831  1  0.183400  0.947700  0.743100  1.0  -0.5913
  O  O832  1  0.183400  0.447700  0.243100  1.0  -0.5913
  O  O833  1  0.756900  0.683400  0.052300  1.0  -0.5914
  O  O834  1  0.756900  0.183400  0.552300  1.0  -0.5914
  O  O835  1  0.256900  0.683400  0.552300  1.0  -0.5914
  O  O836  1  0.256900  0.183400  0.052300  1.0  -0.5914
  O  O837  1  0.756900  0.316600  0.947700  1.0  -0.5902
  O  O838  1  0.756900  0.816600  0.447700  1.0  -0.5902
  O  O839  1  0.256900  0.316600  0.447700  1.0  -0.5902
  O  O840  1  0.256900  0.816600  0.947700  1.0  -0.5902
  O  O841  1  0.243100  0.316600  0.052300  1.0  -0.5903
  O  O842  1  0.243100  0.816600  0.552300  1.0  -0.5903
  O  O843  1  0.743100  0.316600  0.552300  1.0  -0.5903
  O  O844  1  0.743100  0.816600  0.052300  1.0  -0.5903
  O  O845  1  0.243100  0.683400  0.947700  1.0  -0.589
  O  O846  1  0.243100  0.183400  0.447700  1.0  -0.589
  O  O847  1  0.743100  0.683400  0.447700  1.0  -0.589
  O  O848  1  0.743100  0.183400  0.947700  1.0  -0.589
  O  O849  1  0.052300  0.756900  0.683400  1.0  -0.5902
  O  O850  1  0.052300  0.256900  0.183400  1.0  -0.5902
  O  O851  1  0.552300  0.756900  0.183400  1.0  -0.5902
  O  O852  1  0.552300  0.256900  0.683400  1.0  -0.5902
  O  O853  1  0.947700  0.756900  0.316600  1.0  -0.588
  O  O854  1  0.947700  0.256900  0.816600  1.0  -0.588
  O  O855  1  0.447700  0.756900  0.816600  1.0  -0.588
  O  O856  1  0.447700  0.256900  0.316600  1.0  -0.588
  O  O857  1  0.052300  0.243100  0.316600  1.0  -0.5909
  O  O858  1  0.052300  0.743100  0.816600  1.0  -0.5909
  O  O859  1  0.552300  0.243100  0.816600  1.0  -0.5909
  O  O860  1  0.552300  0.743100  0.316600  1.0  -0.5909
  O  O861  1  0.947700  0.243100  0.683400  1.0  -0.5896
  O  O862  1  0.947700  0.743100  0.183400  1.0  -0.5896
  O  O863  1  0.447700  0.243100  0.183400  1.0  -0.5896
  O  O864  1  0.447700  0.743100  0.683400  1.0  -0.5896
  O  O865  1  0.052300  0.683400  0.243100  1.0  -0.5892
  O  O866  1  0.052300  0.183400  0.743100  1.0  -0.5892
  O  O867  1  0.552300  0.683400  0.743100  1.0  -0.5892
  O  O868  1  0.552300  0.183400  0.243100  1.0  -0.5892
  O  O869  1  0.947700  0.316600  0.243100  1.0  -0.5882
  O  O870  1  0.947700  0.816600  0.743100  1.0  -0.5882
  O  O871  1  0.447700  0.316600  0.743100  1.0  -0.5882
  O  O872  1  0.447700  0.816600  0.243100  1.0  -0.5882
  O  O873  1  0.052300  0.316600  0.756900  1.0  -0.5923
  O  O874  1  0.052300  0.816600  0.256900  1.0  -0.5923
  O  O875  1  0.552300  0.316600  0.256900  1.0  -0.5923
  O  O876  1  0.552300  0.816600  0.756900  1.0  -0.5923
  O  O877  1  0.947700  0.683400  0.756900  1.0  -0.591
  O  O878  1  0.947700  0.183400  0.256900  1.0  -0.591
  O  O879  1  0.447700  0.683400  0.256900  1.0  -0.591
  O  O880  1  0.447700  0.183400  0.756900  1.0  -0.591
  O  O881  1  0.683400  0.756900  0.947700  1.0  -0.5891
  O  O882  1  0.683400  0.256900  0.447700  1.0  -0.5891
  O  O883  1  0.183400  0.756900  0.447700  1.0  -0.5891
  O  O884  1  0.183400  0.256900  0.947700  1.0  -0.5891
  O  O885  1  0.316600  0.756900  0.052300  1.0  -0.5904
  O  O886  1  0.316600  0.256900  0.552300  1.0  -0.5904
  O  O887  1  0.816600  0.756900  0.552300  1.0  -0.5904
  O  O888  1  0.816600  0.256900  0.052300  1.0  -0.5904
  O  O889  1  0.316600  0.243100  0.947700  1.0  -0.5909
  O  O890  1  0.316600  0.743100  0.447700  1.0  -0.5909
  O  O891  1  0.816600  0.243100  0.447700  1.0  -0.5909
  O  O892  1  0.816600  0.743100  0.947700  1.0  -0.5909
  O  O893  1  0.683400  0.243100  0.052300  1.0  -0.5912
  O  O894  1  0.683400  0.743100  0.552300  1.0  -0.5912
  O  O895  1  0.183400  0.243100  0.552300  1.0  -0.5912
  O  O896  1  0.183400  0.743100  0.052300  1.0  -0.5912
  O  O897  1  0.756900  0.052300  0.316600  1.0  -0.5897
  O  O898  1  0.756900  0.552300  0.816600  1.0  -0.5897
  O  O899  1  0.256900  0.052300  0.816600  1.0  -0.5897
  O  O900  1  0.256900  0.552300  0.316600  1.0  -0.5897
  O  O901  1  0.756900  0.947700  0.683400  1.0  -0.5913
  O  O902  1  0.756900  0.447700  0.183400  1.0  -0.5913
  O  O903  1  0.256900  0.947700  0.183400  1.0  -0.5913
  O  O904  1  0.256900  0.447700  0.683400  1.0  -0.5913
  O  O905  1  0.243100  0.052300  0.683400  1.0  -0.5906
  O  O906  1  0.243100  0.552300  0.183400  1.0  -0.5906
  O  O907  1  0.743100  0.052300  0.183400  1.0  -0.5906
  O  O908  1  0.743100  0.552300  0.683400  1.0  -0.5906
  O  O909  1  0.243100  0.947700  0.316600  1.0  -0.5914
  O  O910  1  0.243100  0.447700  0.816600  1.0  -0.5914
  O  O911  1  0.743100  0.947700  0.816600  1.0  -0.5914
  O  O912  1  0.743100  0.447700  0.316600  1.0  -0.5914
