# generated using pymatgen
data_ZnH13C21(NO2)3
_symmetry_space_group_name_H-M   'P 1'
_cell_length_a   50.81980000
_cell_length_b   50.81980000
_cell_length_c   50.81980000
_cell_angle_alpha   60.00000000
_cell_angle_beta   60.00000000
_cell_angle_gamma   60.00000000
_symmetry_Int_Tables_number   1
_chemical_formula_structural   ZnH13C21(NO2)3
_chemical_formula_sum   'Zn48 H624 C1008 N144 O288'
_cell_volume   92807.66728783
_cell_formula_units_Z   48
loop_
 _symmetry_equiv_pos_site_id
 _symmetry_equiv_pos_as_xyz
  1  'x, y, z'
loop_
 _atom_site_type_symbol
 _atom_site_label
 _atom_site_symmetry_multiplicity
 _atom_site_fract_x
 _atom_site_fract_y
 _atom_site_fract_z
 _atom_site_occupancy
 _atom_site_charge
  Zn  Zn1  1  0.347190  0.548990  0.162530  1.0  0.9478
  Zn  Zn2  1  0.048990  0.847190  0.941290  1.0  0.9479
  Zn  Zn3  1  0.662530  0.941290  0.847190  1.0  0.9489
  Zn  Zn4  1  0.441290  0.162530  0.548990  1.0  0.9452
  Zn  Zn5  1  0.347190  0.162530  0.941290  1.0  0.9526
  Zn  Zn6  1  0.048990  0.941290  0.162530  1.0  0.9455
  Zn  Zn7  1  0.662530  0.847190  0.548990  1.0  0.9437
  Zn  Zn8  1  0.441290  0.548990  0.847190  1.0  0.9447
  Zn  Zn9  1  0.347190  0.941290  0.548990  1.0  0.9425
  Zn  Zn10  1  0.048990  0.162530  0.847190  1.0  0.9474
  Zn  Zn11  1  0.662530  0.548990  0.941290  1.0  0.9458
  Zn  Zn12  1  0.441290  0.847190  0.162530  1.0  0.9453
  Zn  Zn13  1  0.548990  0.347190  0.662530  1.0  0.948
  Zn  Zn14  1  0.847190  0.048990  0.441290  1.0  0.9469
  Zn  Zn15  1  0.941290  0.662530  0.347190  1.0  0.9494
  Zn  Zn16  1  0.162530  0.441290  0.048990  1.0  0.9417
  Zn  Zn17  1  0.162530  0.347190  0.441290  1.0  0.952
  Zn  Zn18  1  0.941290  0.048990  0.662530  1.0  0.9461
  Zn  Zn19  1  0.847190  0.662530  0.048990  1.0  0.9461
  Zn  Zn20  1  0.548990  0.441290  0.347190  1.0  0.9445
  Zn  Zn21  1  0.941290  0.347190  0.048990  1.0  0.9432
  Zn  Zn22  1  0.162530  0.048990  0.347190  1.0  0.9459
  Zn  Zn23  1  0.548990  0.662530  0.441290  1.0  0.9471
  Zn  Zn24  1  0.847190  0.441290  0.662530  1.0  0.9454
  Zn  Zn25  1  0.451010  0.652810  0.337470  1.0  0.949
  Zn  Zn26  1  0.152810  0.951010  0.558710  1.0  0.9479
  Zn  Zn27  1  0.058710  0.337470  0.652810  1.0  0.944
  Zn  Zn28  1  0.837470  0.558710  0.951010  1.0  0.9462
  Zn  Zn29  1  0.837470  0.652810  0.558710  1.0  0.9478
  Zn  Zn30  1  0.058710  0.951010  0.337470  1.0  0.9461
  Zn  Zn31  1  0.152810  0.337470  0.951010  1.0  0.9529
  Zn  Zn32  1  0.451010  0.558710  0.652810  1.0  0.9476
  Zn  Zn33  1  0.058710  0.652810  0.951010  1.0  0.9463
  Zn  Zn34  1  0.837470  0.951010  0.652810  1.0  0.9474
  Zn  Zn35  1  0.451010  0.337470  0.558710  1.0  0.9489
  Zn  Zn36  1  0.152810  0.558710  0.337470  1.0  0.9456
  Zn  Zn37  1  0.652810  0.451010  0.837470  1.0  0.9476
  Zn  Zn38  1  0.951010  0.152810  0.058710  1.0  0.9495
  Zn  Zn39  1  0.337470  0.058710  0.152810  1.0  0.9448
  Zn  Zn40  1  0.558710  0.837470  0.451010  1.0  0.9487
  Zn  Zn41  1  0.652810  0.837470  0.058710  1.0  0.9468
  Zn  Zn42  1  0.951010  0.058710  0.837470  1.0  0.9457
  Zn  Zn43  1  0.337470  0.152810  0.451010  1.0  0.9512
  Zn  Zn44  1  0.558710  0.451010  0.152810  1.0  0.9468
  Zn  Zn45  1  0.652810  0.058710  0.451010  1.0  0.9464
  Zn  Zn46  1  0.951010  0.837470  0.152810  1.0  0.9486
  Zn  Zn47  1  0.337470  0.451010  0.058710  1.0  0.9478
  Zn  Zn48  1  0.558710  0.152810  0.837470  1.0  0.9444
  H  H49  1  0.548100  0.545300  0.097900  1.0  0.1051
  H  H50  1  0.414700  0.548100  0.116300  1.0  0.1057
  H  H51  1  0.567400  0.539000  0.002800  1.0  0.0884
  H  H52  1  0.523400  0.433600  0.282200  1.0  0.1193
  H  H53  1  0.447900  0.502300  0.315100  1.0  0.1047
  H  H54  1  0.470900  0.522100  0.164900  1.0  0.116
  H  H55  1  0.519600  0.535200  0.043800  1.0  0.134
  H  H56  1  0.377900  0.527900  0.210100  1.0  0.116
  H  H57  1  0.426800  0.516000  0.277400  1.0  0.1177
  H  H58  1  0.501100  0.446300  0.244700  1.0  0.1187
  H  H59  1  0.594000  0.551600  0.055800  1.0  0.1173
  H  H60  1  0.502500  0.531700  0.120900  1.0  0.2823
  H  H61  1  0.466400  0.483200  0.216200  1.0  0.3019
  H  H62  1  0.045300  0.048100  0.808700  1.0  0.1065
  H  H63  1  0.048100  0.914700  0.920900  1.0  0.1021
  H  H64  1  0.039000  0.067400  0.890800  1.0  0.0903
  H  H65  1  0.933600  0.023400  0.760800  1.0  0.1203
  H  H66  1  0.002300  0.947900  0.734700  1.0  0.1043
  H  H67  1  0.022100  0.970900  0.842100  1.0  0.1163
  H  H68  1  0.035200  0.019600  0.901400  1.0  0.135
  H  H69  1  0.027900  0.877900  0.884100  1.0  0.1167
  H  H70  1  0.016000  0.926800  0.779800  1.0  0.118
  H  H71  1  0.946300  0.001100  0.807900  1.0  0.1182
  H  H72  1  0.051600  0.094000  0.798600  1.0  0.1147
  H  H73  1  0.031700  0.002500  0.844900  1.0  0.2841
  H  H74  1  0.983200  0.966400  0.834200  1.0  0.3028
  H  H75  1  0.597900  0.808700  0.048100  1.0  0.1032
  H  H76  1  0.616300  0.920900  0.914700  1.0  0.1016
  H  H77  1  0.502800  0.890800  0.067400  1.0  0.0908
  H  H78  1  0.782200  0.760800  0.023400  1.0  0.1198
  H  H79  1  0.815100  0.734700  0.947900  1.0  0.1038
  H  H80  1  0.664900  0.842100  0.970900  1.0  0.1173
  H  H81  1  0.543800  0.901400  0.019600  1.0  0.1332
  H  H82  1  0.710100  0.884100  0.877900  1.0  0.1169
  H  H83  1  0.777400  0.779800  0.926800  1.0  0.1174
  H  H84  1  0.744700  0.807900  0.001100  1.0  0.1166
  H  H85  1  0.555800  0.798600  0.094000  1.0  0.1138
  H  H86  1  0.620900  0.844900  0.002500  1.0  0.2829
  H  H87  1  0.716200  0.834200  0.966400  1.0  0.3017
  H  H88  1  0.308700  0.097900  0.545300  1.0  0.1058
  H  H89  1  0.420900  0.116300  0.548100  1.0  0.1016
  H  H90  1  0.390800  0.002800  0.539000  1.0  0.0895
  H  H91  1  0.260800  0.282200  0.433600  1.0  0.1207
  H  H92  1  0.234700  0.315100  0.502300  1.0  0.1048
  H  H93  1  0.342100  0.164900  0.522100  1.0  0.1167
  H  H94  1  0.401400  0.043800  0.535200  1.0  0.1353
  H  H95  1  0.384100  0.210100  0.527900  1.0  0.1173
  H  H96  1  0.279800  0.277400  0.516000  1.0  0.1191
  H  H97  1  0.307900  0.244700  0.446300  1.0  0.1189
  H  H98  1  0.298600  0.055800  0.551600  1.0  0.1154
  H  H99  1  0.344900  0.120900  0.531700  1.0  0.282
  H  H100  1  0.334200  0.216200  0.483200  1.0  0.3009
  H  H101  1  0.548100  0.097900  0.808700  1.0  0.105
  H  H102  1  0.414700  0.116300  0.920900  1.0  0.1006
  H  H103  1  0.567400  0.002800  0.890800  1.0  0.0903
  H  H104  1  0.523400  0.282200  0.760800  1.0  0.1205
  H  H105  1  0.447900  0.315100  0.734700  1.0  0.1036
  H  H106  1  0.470900  0.164900  0.842100  1.0  0.118
  H  H107  1  0.519600  0.043800  0.901400  1.0  0.1344
  H  H108  1  0.377900  0.210100  0.884100  1.0  0.117
  H  H109  1  0.426800  0.277400  0.779800  1.0  0.1169
  H  H110  1  0.501100  0.244700  0.807900  1.0  0.1171
  H  H111  1  0.594000  0.055800  0.798600  1.0  0.1148
  H  H112  1  0.502500  0.120900  0.844900  1.0  0.2843
  H  H113  1  0.466400  0.216200  0.834200  1.0  0.3015
  H  H114  1  0.045300  0.808700  0.097900  1.0  0.1029
  H  H115  1  0.048100  0.920900  0.116300  1.0  0.1015
  H  H116  1  0.039000  0.890800  0.002800  1.0  0.0907
  H  H117  1  0.933600  0.760800  0.282200  1.0  0.119
  H  H118  1  0.002300  0.734700  0.315100  1.0  0.1042
  H  H119  1  0.022100  0.842100  0.164900  1.0  0.116
  H  H120  1  0.035200  0.901400  0.043800  1.0  0.133
  H  H121  1  0.027900  0.884100  0.210100  1.0  0.1151
  H  H122  1  0.016000  0.779800  0.277400  1.0  0.1181
  H  H123  1  0.946300  0.807900  0.244700  1.0  0.1188
  H  H124  1  0.051600  0.798600  0.055800  1.0  0.1129
  H  H125  1  0.031700  0.844900  0.120900  1.0  0.2833
  H  H126  1  0.983200  0.834200  0.216200  1.0  0.3033
  H  H127  1  0.597900  0.048100  0.545300  1.0  0.1059
  H  H128  1  0.616300  0.914700  0.548100  1.0  0.1019
  H  H129  1  0.502800  0.067400  0.539000  1.0  0.0911
  H  H130  1  0.782200  0.023400  0.433600  1.0  0.1209
  H  H131  1  0.815100  0.947900  0.502300  1.0  0.1039
  H  H132  1  0.664900  0.970900  0.522100  1.0  0.1162
  H  H133  1  0.543800  0.019600  0.535200  1.0  0.1339
  H  H134  1  0.710100  0.877900  0.527900  1.0  0.1158
  H  H135  1  0.777400  0.926800  0.516000  1.0  0.1169
  H  H136  1  0.744700  0.001100  0.446300  1.0  0.1202
  H  H137  1  0.555800  0.094000  0.551600  1.0  0.1152
  H  H138  1  0.620900  0.002500  0.531700  1.0  0.2833
  H  H139  1  0.716200  0.966400  0.483200  1.0  0.2998
  H  H140  1  0.308700  0.545300  0.048100  1.0  0.1064
  H  H141  1  0.420900  0.548100  0.914700  1.0  0.1037
  H  H142  1  0.390800  0.539000  0.067400  1.0  0.0893
  H  H143  1  0.260800  0.433600  0.023400  1.0  0.1193
  H  H144  1  0.234700  0.502300  0.947900  1.0  0.1056
  H  H145  1  0.342100  0.522100  0.970900  1.0  0.1181
  H  H146  1  0.401400  0.535200  0.019600  1.0  0.1343
  H  H147  1  0.384100  0.527900  0.877900  1.0  0.1158
  H  H148  1  0.279800  0.516000  0.926800  1.0  0.1186
  H  H149  1  0.307900  0.446300  0.001100  1.0  0.119
  H  H150  1  0.298600  0.551600  0.094000  1.0  0.1163
  H  H151  1  0.344900  0.531700  0.002500  1.0  0.2806
  H  H152  1  0.334200  0.483200  0.966400  1.0  0.3015
  H  H153  1  0.548100  0.808700  0.545300  1.0  0.105
  H  H154  1  0.414700  0.920900  0.548100  1.0  0.1005
  H  H155  1  0.567400  0.890800  0.539000  1.0  0.0908
  H  H156  1  0.523400  0.760800  0.433600  1.0  0.1205
  H  H157  1  0.447900  0.734700  0.502300  1.0  0.1029
  H  H158  1  0.470900  0.842100  0.522100  1.0  0.1189
  H  H159  1  0.519600  0.901400  0.535200  1.0  0.135
  H  H160  1  0.377900  0.884100  0.527900  1.0  0.1153
  H  H161  1  0.426800  0.779800  0.516000  1.0  0.1156
  H  H162  1  0.501100  0.807900  0.446300  1.0  0.1206
  H  H163  1  0.594000  0.798600  0.551600  1.0  0.1139
  H  H164  1  0.502500  0.844900  0.531700  1.0  0.2844
  H  H165  1  0.466400  0.834200  0.483200  1.0  0.3041
  H  H166  1  0.045300  0.097900  0.048100  1.0  0.1054
  H  H167  1  0.048100  0.116300  0.914700  1.0  0.1004
  H  H168  1  0.039000  0.002800  0.067400  1.0  0.0905
  H  H169  1  0.933600  0.282200  0.023400  1.0  0.1185
  H  H170  1  0.002300  0.315100  0.947900  1.0  0.1053
  H  H171  1  0.022100  0.164900  0.970900  1.0  0.1168
  H  H172  1  0.035200  0.043800  0.019600  1.0  0.1356
  H  H173  1  0.027900  0.210100  0.877900  1.0  0.116
  H  H174  1  0.016000  0.277400  0.926800  1.0  0.1185
  H  H175  1  0.946300  0.244700  0.001100  1.0  0.1166
  H  H176  1  0.051600  0.055800  0.094000  1.0  0.1157
  H  H177  1  0.031700  0.120900  0.002500  1.0  0.2815
  H  H178  1  0.983200  0.216200  0.966400  1.0  0.3017
  H  H179  1  0.597900  0.545300  0.808700  1.0  0.1067
  H  H180  1  0.616300  0.548100  0.920900  1.0  0.1011
  H  H181  1  0.502800  0.539000  0.890800  1.0  0.0909
  H  H182  1  0.782200  0.433600  0.760800  1.0  0.1183
  H  H183  1  0.815100  0.502300  0.734700  1.0  0.1045
  H  H184  1  0.664900  0.522100  0.842100  1.0  0.1181
  H  H185  1  0.543800  0.535200  0.901400  1.0  0.1347
  H  H186  1  0.710100  0.527900  0.884100  1.0  0.1155
  H  H187  1  0.777400  0.516000  0.779800  1.0  0.1178
  H  H188  1  0.744700  0.446300  0.807900  1.0  0.1188
  H  H189  1  0.555800  0.551600  0.798600  1.0  0.1189
  H  H190  1  0.620900  0.531700  0.844900  1.0  0.2813
  H  H191  1  0.716200  0.483200  0.834200  1.0  0.3033
  H  H192  1  0.308700  0.048100  0.097900  1.0  0.1053
  H  H193  1  0.420900  0.914700  0.116300  1.0  0.1014
  H  H194  1  0.390800  0.067400  0.002800  1.0  0.0912
  H  H195  1  0.260800  0.023400  0.282200  1.0  0.1201
  H  H196  1  0.234700  0.947900  0.315100  1.0  0.105
  H  H197  1  0.342100  0.970900  0.164900  1.0  0.1174
  H  H198  1  0.401400  0.019600  0.043800  1.0  0.1341
  H  H199  1  0.384100  0.877900  0.210100  1.0  0.1146
  H  H200  1  0.279800  0.926800  0.277400  1.0  0.1159
  H  H201  1  0.307900  0.001100  0.244700  1.0  0.1176
  H  H202  1  0.298600  0.094000  0.055800  1.0  0.1144
  H  H203  1  0.344900  0.002500  0.120900  1.0  0.2846
  H  H204  1  0.334200  0.966400  0.216200  1.0  0.3016
  H  H205  1  0.545300  0.548100  0.597900  1.0  0.1054
  H  H206  1  0.548100  0.414700  0.616300  1.0  0.1031
  H  H207  1  0.539000  0.567400  0.502800  1.0  0.0912
  H  H208  1  0.433600  0.523400  0.782200  1.0  0.1205
  H  H209  1  0.502300  0.447900  0.815100  1.0  0.1054
  H  H210  1  0.522100  0.470900  0.664900  1.0  0.1164
  H  H211  1  0.535200  0.519600  0.543800  1.0  0.1348
  H  H212  1  0.527900  0.377900  0.710100  1.0  0.1164
  H  H213  1  0.516000  0.426800  0.777400  1.0  0.1174
  H  H214  1  0.446300  0.501100  0.744700  1.0  0.1179
  H  H215  1  0.551600  0.594000  0.555800  1.0  0.1145
  H  H216  1  0.531700  0.502500  0.620900  1.0  0.285
  H  H217  1  0.483200  0.466400  0.716200  1.0  0.302
  H  H218  1  0.048100  0.045300  0.308700  1.0  0.1061
  H  H219  1  0.914700  0.048100  0.420900  1.0  0.104
  H  H220  1  0.067400  0.039000  0.390800  1.0  0.0893
  H  H221  1  0.023400  0.933600  0.260800  1.0  0.1193
  H  H222  1  0.947900  0.002300  0.234700  1.0  0.1042
  H  H223  1  0.970900  0.022100  0.342100  1.0  0.1158
  H  H224  1  0.019600  0.035200  0.401400  1.0  0.1341
  H  H225  1  0.877900  0.027900  0.384100  1.0  0.1154
  H  H226  1  0.926800  0.016000  0.279800  1.0  0.118
  H  H227  1  0.001100  0.946300  0.307900  1.0  0.1188
  H  H228  1  0.094000  0.051600  0.298600  1.0  0.1185
  H  H229  1  0.002500  0.031700  0.344900  1.0  0.2815
  H  H230  1  0.966400  0.983200  0.334200  1.0  0.3029
  H  H231  1  0.808700  0.597900  0.548100  1.0  0.1049
  H  H232  1  0.920900  0.616300  0.414700  1.0  0.1013
  H  H233  1  0.890800  0.502800  0.567400  1.0  0.09
  H  H234  1  0.760800  0.782200  0.523400  1.0  0.1197
  H  H235  1  0.734700  0.815100  0.447900  1.0  0.105
  H  H236  1  0.842100  0.664900  0.470900  1.0  0.1162
  H  H237  1  0.901400  0.543800  0.519600  1.0  0.1349
  H  H238  1  0.884100  0.710100  0.377900  1.0  0.1172
  H  H239  1  0.779800  0.777400  0.426800  1.0  0.1171
  H  H240  1  0.807900  0.744700  0.501100  1.0  0.1176
  H  H241  1  0.798600  0.555800  0.594000  1.0  0.1156
  H  H242  1  0.844900  0.620900  0.502500  1.0  0.2829
  H  H243  1  0.834200  0.716200  0.466400  1.0  0.3027
  H  H244  1  0.097900  0.308700  0.045300  1.0  0.1037
  H  H245  1  0.116300  0.420900  0.048100  1.0  0.1021
  H  H246  1  0.002800  0.390800  0.039000  1.0  0.0903
  H  H247  1  0.282200  0.260800  0.933600  1.0  0.1204
  H  H248  1  0.315100  0.234700  0.002300  1.0  0.1038
  H  H249  1  0.164900  0.342100  0.022100  1.0  0.118
  H  H250  1  0.043800  0.401400  0.035200  1.0  0.1335
  H  H251  1  0.210100  0.384100  0.027900  1.0  0.1162
  H  H252  1  0.277400  0.279800  0.016000  1.0  0.1174
  H  H253  1  0.244700  0.307900  0.946300  1.0  0.1187
  H  H254  1  0.055800  0.298600  0.051600  1.0  0.1142
  H  H255  1  0.120900  0.344900  0.031700  1.0  0.2828
  H  H256  1  0.216200  0.334200  0.983200  1.0  0.3006
  H  H257  1  0.097900  0.548100  0.308700  1.0  0.1058
  H  H258  1  0.116300  0.414700  0.420900  1.0  0.1014
  H  H259  1  0.002800  0.567400  0.390800  1.0  0.0907
  H  H260  1  0.282200  0.523400  0.260800  1.0  0.1204
  H  H261  1  0.315100  0.447900  0.234700  1.0  0.1033
  H  H262  1  0.164900  0.470900  0.342100  1.0  0.1165
  H  H263  1  0.043800  0.519600  0.401400  1.0  0.1341
  H  H264  1  0.210100  0.377900  0.384100  1.0  0.1163
  H  H265  1  0.277400  0.426800  0.279800  1.0  0.1165
  H  H266  1  0.244700  0.501100  0.307900  1.0  0.1169
  H  H267  1  0.055800  0.594000  0.298600  1.0  0.1149
  H  H268  1  0.120900  0.502500  0.344900  1.0  0.2839
  H  H269  1  0.216200  0.466400  0.334200  1.0  0.2999
  H  H270  1  0.808700  0.045300  0.597900  1.0  0.1055
  H  H271  1  0.920900  0.048100  0.616300  1.0  0.1043
  H  H272  1  0.890800  0.039000  0.502800  1.0  0.0894
  H  H273  1  0.760800  0.933600  0.782200  1.0  0.1189
  H  H274  1  0.734700  0.002300  0.815100  1.0  0.1051
  H  H275  1  0.842100  0.022100  0.664900  1.0  0.1172
  H  H276  1  0.901400  0.035200  0.543800  1.0  0.134
  H  H277  1  0.884100  0.027900  0.710100  1.0  0.1156
  H  H278  1  0.779800  0.016000  0.777400  1.0  0.1188
  H  H279  1  0.807900  0.946300  0.744700  1.0  0.119
  H  H280  1  0.798600  0.051600  0.555800  1.0  0.1166
  H  H281  1  0.844900  0.031700  0.620900  1.0  0.28
  H  H282  1  0.834200  0.983200  0.716200  1.0  0.301
  H  H283  1  0.048100  0.597900  0.045300  1.0  0.105
  H  H284  1  0.914700  0.616300  0.048100  1.0  0.1011
  H  H285  1  0.067400  0.502800  0.039000  1.0  0.0904
  H  H286  1  0.023400  0.782200  0.933600  1.0  0.1214
  H  H287  1  0.947900  0.815100  0.002300  1.0  0.1037
  H  H288  1  0.970900  0.664900  0.022100  1.0  0.1188
  H  H289  1  0.019600  0.543800  0.035200  1.0  0.1343
  H  H290  1  0.877900  0.710100  0.027900  1.0  0.1165
  H  H291  1  0.926800  0.777400  0.016000  1.0  0.1172
  H  H292  1  0.001100  0.744700  0.946300  1.0  0.1201
  H  H293  1  0.094000  0.555800  0.051600  1.0  0.1152
  H  H294  1  0.002500  0.620900  0.031700  1.0  0.2829
  H  H295  1  0.966400  0.716200  0.983200  1.0  0.3013
  H  H296  1  0.545300  0.308700  0.548100  1.0  0.1035
  H  H297  1  0.548100  0.420900  0.414700  1.0  0.1014
  H  H298  1  0.539000  0.390800  0.567400  1.0  0.0903
  H  H299  1  0.433600  0.260800  0.523400  1.0  0.1192
  H  H300  1  0.502300  0.234700  0.447900  1.0  0.1048
  H  H301  1  0.522100  0.342100  0.470900  1.0  0.1164
  H  H302  1  0.535200  0.401400  0.519600  1.0  0.1335
  H  H303  1  0.527900  0.384100  0.377900  1.0  0.1162
  H  H304  1  0.516000  0.279800  0.426800  1.0  0.1179
  H  H305  1  0.446300  0.307900  0.501100  1.0  0.1187
  H  H306  1  0.551600  0.298600  0.594000  1.0  0.1124
  H  H307  1  0.531700  0.344900  0.502500  1.0  0.2832
  H  H308  1  0.483200  0.334200  0.466400  1.0  0.3032
  H  H309  1  0.808700  0.548100  0.045300  1.0  0.1055
  H  H310  1  0.920900  0.414700  0.048100  1.0  0.1021
  H  H311  1  0.890800  0.567400  0.039000  1.0  0.0913
  H  H312  1  0.760800  0.523400  0.933600  1.0  0.1203
  H  H313  1  0.734700  0.447900  0.002300  1.0  0.1046
  H  H314  1  0.842100  0.470900  0.022100  1.0  0.1172
  H  H315  1  0.901400  0.519600  0.035200  1.0  0.1344
  H  H316  1  0.884100  0.377900  0.027900  1.0  0.1153
  H  H317  1  0.779800  0.426800  0.016000  1.0  0.1166
  H  H318  1  0.807900  0.501100  0.946300  1.0  0.1201
  H  H319  1  0.798600  0.594000  0.051600  1.0  0.1144
  H  H320  1  0.844900  0.502500  0.031700  1.0  0.2836
  H  H321  1  0.834200  0.466400  0.983200  1.0  0.3031
  H  H322  1  0.097900  0.045300  0.548100  1.0  0.1066
  H  H323  1  0.116300  0.048100  0.414700  1.0  0.1026
  H  H324  1  0.002800  0.039000  0.567400  1.0  0.0906
  H  H325  1  0.282200  0.933600  0.523400  1.0  0.1182
  H  H326  1  0.315100  0.002300  0.447900  1.0  0.1049
  H  H327  1  0.164900  0.022100  0.470900  1.0  0.1171
  H  H328  1  0.043800  0.035200  0.519600  1.0  0.1347
  H  H329  1  0.210100  0.027900  0.377900  1.0  0.1159
  H  H330  1  0.277400  0.016000  0.426800  1.0  0.1175
  H  H331  1  0.244700  0.946300  0.501100  1.0  0.1184
  H  H332  1  0.055800  0.051600  0.594000  1.0  0.1178
  H  H333  1  0.120900  0.031700  0.502500  1.0  0.281
  H  H334  1  0.216200  0.983200  0.466400  1.0  0.3026
  H  H335  1  0.545300  0.597900  0.308700  1.0  0.1056
  H  H336  1  0.548100  0.616300  0.420900  1.0  0.0996
  H  H337  1  0.539000  0.502800  0.390800  1.0  0.0903
  H  H338  1  0.433600  0.782200  0.260800  1.0  0.119
  H  H339  1  0.502300  0.815100  0.234700  1.0  0.1052
  H  H340  1  0.522100  0.664900  0.342100  1.0  0.1172
  H  H341  1  0.535200  0.543800  0.401400  1.0  0.1354
  H  H342  1  0.527900  0.710100  0.384100  1.0  0.1156
  H  H343  1  0.516000  0.777400  0.279800  1.0  0.1194
  H  H344  1  0.446300  0.744700  0.307900  1.0  0.117
  H  H345  1  0.551600  0.555800  0.298600  1.0  0.1159
  H  H346  1  0.531700  0.620900  0.344900  1.0  0.2816
  H  H347  1  0.483200  0.716200  0.334200  1.0  0.3022
  H  H348  1  0.048100  0.308700  0.597900  1.0  0.1045
  H  H349  1  0.914700  0.420900  0.616300  1.0  0.1
  H  H350  1  0.067400  0.390800  0.502800  1.0  0.0901
  H  H351  1  0.023400  0.260800  0.782200  1.0  0.1202
  H  H352  1  0.947900  0.234700  0.815100  1.0  0.1034
  H  H353  1  0.970900  0.342100  0.664900  1.0  0.118
  H  H354  1  0.019600  0.401400  0.543800  1.0  0.1343
  H  H355  1  0.877900  0.384100  0.710100  1.0  0.1144
  H  H356  1  0.926800  0.279800  0.777400  1.0  0.1154
  H  H357  1  0.001100  0.307900  0.744700  1.0  0.1183
  H  H358  1  0.094000  0.298600  0.555800  1.0  0.1135
  H  H359  1  0.002500  0.344900  0.620900  1.0  0.2842
  H  H360  1  0.966400  0.334200  0.716200  1.0  0.3024
  H  H361  1  0.454700  0.451900  0.402100  1.0  0.1056
  H  H362  1  0.451900  0.585300  0.383700  1.0  0.1026
  H  H363  1  0.461000  0.432600  0.497200  1.0  0.0903
  H  H364  1  0.566400  0.476600  0.217800  1.0  0.1207
  H  H365  1  0.497700  0.552100  0.184900  1.0  0.105
  H  H366  1  0.477900  0.529100  0.335100  1.0  0.1177
  H  H367  1  0.464800  0.480400  0.456200  1.0  0.1349
  H  H368  1  0.472100  0.622100  0.289900  1.0  0.1165
  H  H369  1  0.484000  0.573200  0.222600  1.0  0.1187
  H  H370  1  0.553700  0.498900  0.255300  1.0  0.1177
  H  H371  1  0.448400  0.406000  0.444200  1.0  0.1148
  H  H372  1  0.468300  0.497500  0.379100  1.0  0.2831
  H  H373  1  0.516800  0.533600  0.283800  1.0  0.3036
  H  H374  1  0.951900  0.954700  0.691300  1.0  0.1058
  H  H375  1  0.085300  0.951900  0.579100  1.0  0.1048
  H  H376  1  0.932600  0.961000  0.609200  1.0  0.0902
  H  H377  1  0.976600  0.066400  0.739200  1.0  0.1202
  H  H378  1  0.052100  0.997700  0.765300  1.0  0.1042
  H  H379  1  0.029100  0.977900  0.657900  1.0  0.1157
  H  H380  1  0.980400  0.964800  0.598600  1.0  0.1341
  H  H381  1  0.122100  0.972100  0.615900  1.0  0.1156
  H  H382  1  0.073200  0.984000  0.720200  1.0  0.1169
  H  H383  1  0.998900  0.053700  0.692100  1.0  0.12
  H  H384  1  0.906000  0.948400  0.701400  1.0  0.1173
  H  H385  1  0.997500  0.968300  0.655100  1.0  0.2833
  H  H386  1  0.033600  0.016800  0.665800  1.0  0.3006
  H  H387  1  0.191300  0.402100  0.451900  1.0  0.1056
  H  H388  1  0.079100  0.383700  0.585300  1.0  0.1009
  H  H389  1  0.109200  0.497200  0.432600  1.0  0.0904
  H  H390  1  0.239200  0.217800  0.476600  1.0  0.12
  H  H391  1  0.265300  0.184900  0.552100  1.0  0.1048
  H  H392  1  0.157900  0.335100  0.529100  1.0  0.1172
  H  H393  1  0.098600  0.456200  0.480400  1.0  0.134
  H  H394  1  0.115900  0.289900  0.622100  1.0  0.1167
  H  H395  1  0.220200  0.222600  0.573200  1.0  0.119
  H  H396  1  0.192100  0.255300  0.498900  1.0  0.1187
  H  H397  1  0.201400  0.444200  0.406000  1.0  0.1144
  H  H398  1  0.155100  0.379100  0.497500  1.0  0.2815
  H  H399  1  0.165800  0.283800  0.533600  1.0  0.3012
  H  H400  1  0.902100  0.691300  0.954700  1.0  0.1046
  H  H401  1  0.883700  0.579100  0.951900  1.0  0.1011
  H  H402  1  0.997200  0.609200  0.961000  1.0  0.0895
  H  H403  1  0.717800  0.739200  0.066400  1.0  0.1205
  H  H404  1  0.684900  0.765300  0.997700  1.0  0.1034
  H  H405  1  0.835100  0.657900  0.977900  1.0  0.1176
  H  H406  1  0.956200  0.598600  0.964800  1.0  0.1332
  H  H407  1  0.789900  0.615900  0.972100  1.0  0.1164
  H  H408  1  0.722600  0.720200  0.984000  1.0  0.1165
  H  H409  1  0.755300  0.692100  0.053700  1.0  0.1168
  H  H410  1  0.944200  0.701400  0.948400  1.0  0.1143
  H  H411  1  0.879100  0.655100  0.968300  1.0  0.2826
  H  H412  1  0.783800  0.665800  0.016800  1.0  0.3036
  H  H413  1  0.902100  0.451900  0.691300  1.0  0.1053
  H  H414  1  0.883700  0.585300  0.579100  1.0  0.1012
  H  H415  1  0.997200  0.432600  0.609200  1.0  0.0908
  H  H416  1  0.717800  0.476600  0.739200  1.0  0.1195
  H  H417  1  0.684900  0.552100  0.765300  1.0  0.1038
  H  H418  1  0.835100  0.529100  0.657900  1.0  0.1162
  H  H419  1  0.956200  0.480400  0.598600  1.0  0.1343
  H  H420  1  0.789900  0.622100  0.615900  1.0  0.1154
  H  H421  1  0.722600  0.573200  0.720200  1.0  0.1175
  H  H422  1  0.755300  0.498900  0.692100  1.0  0.1187
  H  H423  1  0.944200  0.406000  0.701400  1.0  0.1154
  H  H424  1  0.879100  0.497500  0.655100  1.0  0.2822
  H  H425  1  0.783800  0.533600  0.665800  1.0  0.3014
  H  H426  1  0.191300  0.954700  0.402100  1.0  0.1056
  H  H427  1  0.079100  0.951900  0.383700  1.0  0.1037
  H  H428  1  0.109200  0.961000  0.497200  1.0  0.0901
  H  H429  1  0.239200  0.066400  0.217800  1.0  0.1201
  H  H430  1  0.265300  0.997700  0.184900  1.0  0.1048
  H  H431  1  0.157900  0.977900  0.335100  1.0  0.1165
  H  H432  1  0.098600  0.964800  0.456200  1.0  0.1325
  H  H433  1  0.115900  0.972100  0.289900  1.0  0.1161
  H  H434  1  0.220200  0.984000  0.222600  1.0  0.1175
  H  H435  1  0.192100  0.053700  0.255300  1.0  0.1193
  H  H436  1  0.201400  0.948400  0.444200  1.0  0.1152
  H  H437  1  0.155100  0.968300  0.379100  1.0  0.2821
  H  H438  1  0.165800  0.016800  0.283800  1.0  0.3014
  H  H439  1  0.951900  0.402100  0.954700  1.0  0.1053
  H  H440  1  0.085300  0.383700  0.951900  1.0  0.1006
  H  H441  1  0.932600  0.497200  0.961000  1.0  0.0905
  H  H442  1  0.976600  0.217800  0.066400  1.0  0.1203
  H  H443  1  0.052100  0.184900  0.997700  1.0  0.1035
  H  H444  1  0.029100  0.335100  0.977900  1.0  0.1162
  H  H445  1  0.980400  0.456200  0.964800  1.0  0.1347
  H  H446  1  0.122100  0.289900  0.972100  1.0  0.1165
  H  H447  1  0.073200  0.222600  0.984000  1.0  0.1167
  H  H448  1  0.998900  0.255300  0.053700  1.0  0.1194
  H  H449  1  0.906000  0.444200  0.948400  1.0  0.1151
  H  H450  1  0.997500  0.379100  0.968300  1.0  0.2828
  H  H451  1  0.033600  0.283800  0.016800  1.0  0.3012
  H  H452  1  0.454700  0.691300  0.451900  1.0  0.103
  H  H453  1  0.451900  0.579100  0.585300  1.0  0.1017
  H  H454  1  0.461000  0.609200  0.432600  1.0  0.0899
  H  H455  1  0.566400  0.739200  0.476600  1.0  0.1197
  H  H456  1  0.497700  0.765300  0.552100  1.0  0.1047
  H  H457  1  0.477900  0.657900  0.529100  1.0  0.1162
  H  H458  1  0.464800  0.598600  0.480400  1.0  0.1332
  H  H459  1  0.472100  0.615900  0.622100  1.0  0.1155
  H  H460  1  0.484000  0.720200  0.573200  1.0  0.1177
  H  H461  1  0.553700  0.692100  0.498900  1.0  0.1184
  H  H462  1  0.448400  0.701400  0.406000  1.0  0.1134
  H  H463  1  0.468300  0.655100  0.497500  1.0  0.2834
  H  H464  1  0.516800  0.665800  0.533600  1.0  0.303
  H  H465  1  0.191300  0.451900  0.954700  1.0  0.1054
  H  H466  1  0.079100  0.585300  0.951900  1.0  0.1018
  H  H467  1  0.109200  0.432600  0.961000  1.0  0.0905
  H  H468  1  0.239200  0.476600  0.066400  1.0  0.1199
  H  H469  1  0.265300  0.552100  0.997700  1.0  0.1049
  H  H470  1  0.157900  0.529100  0.977900  1.0  0.1168
  H  H471  1  0.098600  0.480400  0.964800  1.0  0.1334
  H  H472  1  0.115900  0.622100  0.972100  1.0  0.1144
  H  H473  1  0.220200  0.573200  0.984000  1.0  0.1167
  H  H474  1  0.192100  0.498900  0.053700  1.0  0.1183
  H  H475  1  0.201400  0.406000  0.948400  1.0  0.1137
  H  H476  1  0.155100  0.497500  0.968300  1.0  0.284
  H  H477  1  0.165800  0.533600  0.016800  1.0  0.3028
  H  H478  1  0.902100  0.954700  0.451900  1.0  0.106
  H  H479  1  0.883700  0.951900  0.585300  1.0  0.1015
  H  H480  1  0.997200  0.961000  0.432600  1.0  0.0914
  H  H481  1  0.717800  0.066400  0.476600  1.0  0.1201
  H  H482  1  0.684900  0.997700  0.552100  1.0  0.1045
  H  H483  1  0.835100  0.977900  0.529100  1.0  0.1176
  H  H484  1  0.956200  0.964800  0.480400  1.0  0.1341
  H  H485  1  0.789900  0.972100  0.622100  1.0  0.1156
  H  H486  1  0.722600  0.984000  0.573200  1.0  0.1174
  H  H487  1  0.755300  0.053700  0.498900  1.0  0.1191
  H  H488  1  0.944200  0.948400  0.406000  1.0  0.1165
  H  H489  1  0.879100  0.968300  0.497500  1.0  0.2816
  H  H490  1  0.783800  0.016800  0.533600  1.0  0.3028
  H  H491  1  0.454700  0.402100  0.691300  1.0  0.1054
  H  H492  1  0.451900  0.383700  0.579100  1.0  0.1014
  H  H493  1  0.461000  0.497200  0.609200  1.0  0.0902
  H  H494  1  0.566400  0.217800  0.739200  1.0  0.1189
  H  H495  1  0.497700  0.184900  0.765300  1.0  0.1044
  H  H496  1  0.477900  0.335100  0.657900  1.0  0.118
  H  H497  1  0.464800  0.456200  0.598600  1.0  0.1357
  H  H498  1  0.472100  0.289900  0.615900  1.0  0.1163
  H  H499  1  0.484000  0.222600  0.720200  1.0  0.1169
  H  H500  1  0.553700  0.255300  0.692100  1.0  0.1177
  H  H501  1  0.448400  0.444200  0.701400  1.0  0.1161
  H  H502  1  0.468300  0.379100  0.655100  1.0  0.2806
  H  H503  1  0.516800  0.283800  0.665800  1.0  0.3012
  H  H504  1  0.951900  0.691300  0.402100  1.0  0.1056
  H  H505  1  0.085300  0.579100  0.383700  1.0  0.0997
  H  H506  1  0.932600  0.609200  0.497200  1.0  0.0902
  H  H507  1  0.976600  0.739200  0.217800  1.0  0.1197
  H  H508  1  0.052100  0.765300  0.184900  1.0  0.1036
  H  H509  1  0.029100  0.657900  0.335100  1.0  0.1165
  H  H510  1  0.980400  0.598600  0.456200  1.0  0.1349
  H  H511  1  0.122100  0.615900  0.289900  1.0  0.1151
  H  H512  1  0.073200  0.720200  0.222600  1.0  0.1158
  H  H513  1  0.998900  0.692100  0.255300  1.0  0.119
  H  H514  1  0.906000  0.701400  0.444200  1.0  0.1138
  H  H515  1  0.997500  0.655100  0.379100  1.0  0.2837
  H  H516  1  0.033600  0.665800  0.283800  1.0  0.3058
  H  H517  1  0.451900  0.454700  0.902100  1.0  0.1057
  H  H518  1  0.585300  0.451900  0.883700  1.0  0.1046
  H  H519  1  0.432600  0.461000  0.997200  1.0  0.0894
  H  H520  1  0.476600  0.566400  0.717800  1.0  0.1201
  H  H521  1  0.552100  0.497700  0.684900  1.0  0.1042
  H  H522  1  0.529100  0.477900  0.835100  1.0  0.1155
  H  H523  1  0.480400  0.464800  0.956200  1.0  0.1347
  H  H524  1  0.622100  0.472100  0.789900  1.0  0.1159
  H  H525  1  0.573200  0.484000  0.722600  1.0  0.1171
  H  H526  1  0.498900  0.553700  0.755300  1.0  0.1189
  H  H527  1  0.406000  0.448400  0.944200  1.0  0.1161
  H  H528  1  0.497500  0.468300  0.879100  1.0  0.2821
  H  H529  1  0.533600  0.516800  0.783800  1.0  0.3016
  H  H530  1  0.954700  0.951900  0.191300  1.0  0.1053
  H  H531  1  0.951900  0.085300  0.079100  1.0  0.103
  H  H532  1  0.961000  0.932600  0.109200  1.0  0.0897
  H  H533  1  0.066400  0.976600  0.239200  1.0  0.1207
  H  H534  1  0.997700  0.052100  0.265300  1.0  0.1045
  H  H535  1  0.977900  0.029100  0.157900  1.0  0.1177
  H  H536  1  0.964800  0.980400  0.098600  1.0  0.1348
  H  H537  1  0.972100  0.122100  0.115900  1.0  0.117
  H  H538  1  0.984000  0.073200  0.220200  1.0  0.1184
  H  H539  1  0.053700  0.998900  0.192100  1.0  0.1181
  H  H540  1  0.948400  0.906000  0.201400  1.0  0.1155
  H  H541  1  0.968300  0.997500  0.155100  1.0  0.284
  H  H542  1  0.016800  0.033600  0.165800  1.0  0.3026
  H  H543  1  0.402100  0.191300  0.951900  1.0  0.1049
  H  H544  1  0.383700  0.079100  0.085300  1.0  0.1005
  H  H545  1  0.497200  0.109200  0.932600  1.0  0.0893
  H  H546  1  0.217800  0.239200  0.976600  1.0  0.1199
  H  H547  1  0.184900  0.265300  0.052100  1.0  0.1044
  H  H548  1  0.335100  0.157900  0.029100  1.0  0.1173
  H  H549  1  0.456200  0.098600  0.980400  1.0  0.1331
  H  H550  1  0.289900  0.115900  0.122100  1.0  0.1167
  H  H551  1  0.222600  0.220200  0.073200  1.0  0.118
  H  H552  1  0.255300  0.192100  0.998900  1.0  0.1171
  H  H553  1  0.444200  0.201400  0.906000  1.0  0.1136
  H  H554  1  0.379100  0.155100  0.997500  1.0  0.2814
  H  H555  1  0.283800  0.165800  0.033600  1.0  0.3008
  H  H556  1  0.691300  0.902100  0.454700  1.0  0.1049
  H  H557  1  0.579100  0.883700  0.451900  1.0  0.1009
  H  H558  1  0.609200  0.997200  0.461000  1.0  0.0909
  H  H559  1  0.739200  0.717800  0.566400  1.0  0.1209
  H  H560  1  0.765300  0.684900  0.497700  1.0  0.1034
  H  H561  1  0.657900  0.835100  0.477900  1.0  0.117
  H  H562  1  0.598600  0.956200  0.464800  1.0  0.134
  H  H563  1  0.615900  0.789900  0.472100  1.0  0.1171
  H  H564  1  0.720200  0.722600  0.484000  1.0  0.1175
  H  H565  1  0.692100  0.755300  0.553700  1.0  0.1184
  H  H566  1  0.701400  0.944200  0.448400  1.0  0.1142
  H  H567  1  0.655100  0.879100  0.468300  1.0  0.282
  H  H568  1  0.665800  0.783800  0.516800  1.0  0.3029
  H  H569  1  0.451900  0.902100  0.191300  1.0  0.1048
  H  H570  1  0.585300  0.883700  0.079100  1.0  0.1003
  H  H571  1  0.432600  0.997200  0.109200  1.0  0.091
  H  H572  1  0.476600  0.717800  0.239200  1.0  0.1199
  H  H573  1  0.552100  0.684900  0.265300  1.0  0.1036
  H  H574  1  0.529100  0.835100  0.157900  1.0  0.1158
  H  H575  1  0.480400  0.956200  0.098600  1.0  0.1343
  H  H576  1  0.622100  0.789900  0.115900  1.0  0.116
  H  H577  1  0.573200  0.722600  0.220200  1.0  0.1171
  H  H578  1  0.498900  0.755300  0.192100  1.0  0.1198
  H  H579  1  0.406000  0.944200  0.201400  1.0  0.1151
  H  H580  1  0.497500  0.879100  0.155100  1.0  0.2814
  H  H581  1  0.533600  0.783800  0.165800  1.0  0.3009
  H  H582  1  0.954700  0.191300  0.902100  1.0  0.1035
  H  H583  1  0.951900  0.079100  0.883700  1.0  0.102
  H  H584  1  0.961000  0.109200  0.997200  1.0  0.0901
  H  H585  1  0.066400  0.239200  0.717800  1.0  0.1198
  H  H586  1  0.997700  0.265300  0.684900  1.0  0.1045
  H  H587  1  0.977900  0.157900  0.835100  1.0  0.1172
  H  H588  1  0.964800  0.098600  0.956200  1.0  0.1335
  H  H589  1  0.972100  0.115900  0.789900  1.0  0.1161
  H  H590  1  0.984000  0.220200  0.722600  1.0  0.1167
  H  H591  1  0.053700  0.192100  0.755300  1.0  0.1183
  H  H592  1  0.948400  0.201400  0.944200  1.0  0.1131
  H  H593  1  0.968300  0.155100  0.879100  1.0  0.2841
  H  H594  1  0.016800  0.165800  0.783800  1.0  0.3042
  H  H595  1  0.402100  0.951900  0.454700  1.0  0.1061
  H  H596  1  0.383700  0.085300  0.451900  1.0  0.1012
  H  H597  1  0.497200  0.932600  0.461000  1.0  0.0902
  H  H598  1  0.217800  0.976600  0.566400  1.0  0.1204
  H  H599  1  0.184900  0.052100  0.497700  1.0  0.1045
  H  H600  1  0.335100  0.029100  0.477900  1.0  0.1164
  H  H601  1  0.456200  0.980400  0.464800  1.0  0.1342
  H  H602  1  0.289900  0.122100  0.472100  1.0  0.1159
  H  H603  1  0.222600  0.073200  0.484000  1.0  0.1175
  H  H604  1  0.255300  0.998900  0.553700  1.0  0.1183
  H  H605  1  0.444200  0.906000  0.448400  1.0  0.1152
  H  H606  1  0.379100  0.997500  0.468300  1.0  0.2833
  H  H607  1  0.283800  0.033600  0.516800  1.0  0.3024
  H  H608  1  0.691300  0.454700  0.951900  1.0  0.1058
  H  H609  1  0.579100  0.451900  0.085300  1.0  0.1027
  H  H610  1  0.609200  0.461000  0.932600  1.0  0.0903
  H  H611  1  0.739200  0.566400  0.976600  1.0  0.1205
  H  H612  1  0.765300  0.497700  0.052100  1.0  0.1051
  H  H613  1  0.657900  0.477900  0.029100  1.0  0.1157
  H  H614  1  0.598600  0.464800  0.980400  1.0  0.1322
  H  H615  1  0.615900  0.472100  0.122100  1.0  0.1149
  H  H616  1  0.720200  0.484000  0.073200  1.0  0.1186
  H  H617  1  0.692100  0.553700  0.998900  1.0  0.1203
  H  H618  1  0.701400  0.448400  0.906000  1.0  0.1155
  H  H619  1  0.655100  0.468300  0.997500  1.0  0.2822
  H  H620  1  0.665800  0.516800  0.033600  1.0  0.3012
  H  H621  1  0.451900  0.191300  0.454700  1.0  0.105
  H  H622  1  0.585300  0.079100  0.451900  1.0  0.0999
  H  H623  1  0.432600  0.109200  0.461000  1.0  0.0906
  H  H624  1  0.476600  0.239200  0.566400  1.0  0.1206
  H  H625  1  0.552100  0.265300  0.497700  1.0  0.1038
  H  H626  1  0.529100  0.157900  0.477900  1.0  0.1169
  H  H627  1  0.480400  0.098600  0.464800  1.0  0.135
  H  H628  1  0.622100  0.115900  0.472100  1.0  0.1142
  H  H629  1  0.573200  0.220200  0.484000  1.0  0.1152
  H  H630  1  0.498900  0.192100  0.553700  1.0  0.1183
  H  H631  1  0.406000  0.201400  0.448400  1.0  0.1148
  H  H632  1  0.497500  0.155100  0.468300  1.0  0.285
  H  H633  1  0.533600  0.165800  0.516800  1.0  0.3053
  H  H634  1  0.954700  0.902100  0.951900  1.0  0.105
  H  H635  1  0.951900  0.883700  0.085300  1.0  0.1007
  H  H636  1  0.961000  0.997200  0.932600  1.0  0.091
  H  H637  1  0.066400  0.717800  0.976600  1.0  0.1193
  H  H638  1  0.997700  0.684900  0.052100  1.0  0.1046
  H  H639  1  0.977900  0.835100  0.029100  1.0  0.1188
  H  H640  1  0.964800  0.956200  0.980400  1.0  0.1356
  H  H641  1  0.972100  0.789900  0.122100  1.0  0.1162
  H  H642  1  0.984000  0.722600  0.073200  1.0  0.1178
  H  H643  1  0.053700  0.755300  0.998900  1.0  0.1176
  H  H644  1  0.948400  0.944200  0.906000  1.0  0.1158
  H  H645  1  0.968300  0.879100  0.997500  1.0  0.2798
  H  H646  1  0.016800  0.783800  0.033600  1.0  0.3019
  H  H647  1  0.402100  0.454700  0.191300  1.0  0.1062
  H  H648  1  0.383700  0.451900  0.079100  1.0  0.1017
  H  H649  1  0.497200  0.461000  0.109200  1.0  0.0906
  H  H650  1  0.217800  0.566400  0.239200  1.0  0.1192
  H  H651  1  0.184900  0.497700  0.265300  1.0  0.1039
  H  H652  1  0.335100  0.477900  0.157900  1.0  0.1172
  H  H653  1  0.456200  0.464800  0.098600  1.0  0.1347
  H  H654  1  0.289900  0.472100  0.115900  1.0  0.1158
  H  H655  1  0.222600  0.484000  0.220200  1.0  0.1159
  H  H656  1  0.255300  0.553700  0.192100  1.0  0.119
  H  H657  1  0.444200  0.448400  0.201400  1.0  0.1176
  H  H658  1  0.379100  0.468300  0.155100  1.0  0.2819
  H  H659  1  0.283800  0.516800  0.165800  1.0  0.3024
  H  H660  1  0.691300  0.951900  0.902100  1.0  0.1052
  H  H661  1  0.579100  0.085300  0.883700  1.0  0.1014
  H  H662  1  0.609200  0.932600  0.997200  1.0  0.0909
  H  H663  1  0.739200  0.976600  0.717800  1.0  0.1189
  H  H664  1  0.765300  0.052100  0.684900  1.0  0.1044
  H  H665  1  0.657900  0.029100  0.835100  1.0  0.1169
  H  H666  1  0.598600  0.980400  0.956200  1.0  0.134
  H  H667  1  0.615900  0.122100  0.789900  1.0  0.1152
  H  H668  1  0.720200  0.073200  0.722600  1.0  0.117
  H  H669  1  0.692100  0.998900  0.755300  1.0  0.119
  H  H670  1  0.701400  0.906000  0.944200  1.0  0.1143
  H  H671  1  0.655100  0.997500  0.879100  1.0  0.283
  H  H672  1  0.665800  0.033600  0.783800  1.0  0.3042
  C  C673  1  0.551620  0.544540  0.078460  1.0  -0.1588
  C  C674  1  0.417190  0.541690  0.135750  1.0  0.1206
  C  C675  1  0.487540  0.467000  0.302300  1.0  -0.1452
  C  C676  1  0.585520  0.545880  0.024280  1.0  -0.0538
  C  C677  1  0.446810  0.535850  0.135310  1.0  -0.1547
  C  C678  1  0.473350  0.539390  0.103770  1.0  0.5647
  C  C679  1  0.528780  0.539960  0.075620  1.0  0.2405
  C  C680  1  0.424900  0.522640  0.193040  1.0  -0.0132
  C  C681  1  0.462230  0.483770  0.256350  1.0  0.2677
  C  C682  1  0.563300  0.540800  0.021900  1.0  -0.0032
  C  C683  1  0.503890  0.450090  0.281410  1.0  -0.0321
  C  C684  1  0.459130  0.491130  0.300670  1.0  -0.0143
  C  C685  1  0.502790  0.460550  0.325230  1.0  0.6494
  C  C686  1  0.450990  0.526130  0.164570  1.0  -0.1067
  C  C687  1  0.425120  0.514900  0.225220  1.0  0.5849
  C  C688  1  0.534640  0.538160  0.046480  1.0  -0.2109
  C  C689  1  0.395600  0.529520  0.191140  1.0  0.0299
  C  C690  1  0.616020  0.548400  0.997980  1.0  0.3046
  C  C691  1  0.446470  0.499410  0.277890  1.0  -0.1345
  C  C692  1  0.490630  0.458190  0.258410  1.0  -0.1124
  C  C693  1  0.579280  0.547880  0.053480  1.0  -0.0204
  C  C694  1  0.044540  0.051620  0.825380  1.0  -0.1553
  C  C695  1  0.041690  0.917190  0.905370  1.0  0.1244
  C  C696  1  0.967000  0.987540  0.743160  1.0  -0.1442
  C  C697  1  0.045880  0.085520  0.844320  1.0  -0.0616
  C  C698  1  0.035850  0.946810  0.882030  1.0  -0.153
  C  C699  1  0.039390  0.973350  0.883490  1.0  0.5654
  C  C700  1  0.039960  0.028780  0.855640  1.0  0.242
  C  C701  1  0.022640  0.924900  0.859420  1.0  -0.0152
  C  C702  1  0.983770  0.962230  0.797650  1.0  0.2677
  C  C703  1  0.040800  0.063300  0.874000  1.0  0.0034
  C  C704  1  0.950090  0.003890  0.764610  1.0  -0.0344
  C  C705  1  0.991130  0.959130  0.749070  1.0  -0.0164
  C  C706  1  0.960550  0.002790  0.711430  1.0  0.6518
  C  C707  1  0.026130  0.950990  0.858310  1.0  -0.1052
  C  C708  1  0.014900  0.925120  0.834760  1.0  0.5839
  C  C709  1  0.038160  0.034640  0.880720  1.0  -0.2115
  C  C710  1  0.029520  0.895600  0.883740  1.0  0.0328
  C  C711  1  0.048400  0.116020  0.837600  1.0  0.3022
  C  C712  1  0.999410  0.946470  0.776230  1.0  -0.1413
  C  C713  1  0.958190  0.990630  0.792770  1.0  -0.112
  C  C714  1  0.047880  0.079280  0.819360  1.0  -0.0194
  C  C715  1  0.578460  0.825380  0.051620  1.0  -0.1625
  C  C716  1  0.635750  0.905370  0.917190  1.0  0.1232
  C  C717  1  0.802300  0.743160  0.987540  1.0  -0.1482
  C  C718  1  0.524280  0.844320  0.085520  1.0  -0.0637
  C  C719  1  0.635310  0.882030  0.946810  1.0  -0.1516
  C  C720  1  0.603770  0.883490  0.973350  1.0  0.5636
  C  C721  1  0.575620  0.855640  0.028780  1.0  0.237
  C  C722  1  0.693040  0.859420  0.924900  1.0  -0.0173
  C  C723  1  0.756350  0.797650  0.962230  1.0  0.2648
  C  C724  1  0.521900  0.874000  0.063300  1.0  -0.0003
  C  C725  1  0.781410  0.764610  0.003890  1.0  -0.0274
  C  C726  1  0.800670  0.749070  0.959130  1.0  -0.0126
  C  C727  1  0.825230  0.711430  0.002790  1.0  0.6518
  C  C728  1  0.664570  0.858310  0.950990  1.0  -0.1096
  C  C729  1  0.725220  0.834760  0.925120  1.0  0.5895
  C  C730  1  0.546480  0.880720  0.034640  1.0  -0.212
  C  C731  1  0.691140  0.883740  0.895600  1.0  0.031
  C  C732  1  0.497980  0.837600  0.116020  1.0  0.3111
  C  C733  1  0.777890  0.776230  0.946470  1.0  -0.1397
  C  C734  1  0.758410  0.792770  0.990630  1.0  -0.1062
  C  C735  1  0.553480  0.819360  0.079280  1.0  -0.0187
  C  C736  1  0.325380  0.078460  0.544540  1.0  -0.1608
  C  C737  1  0.405370  0.135750  0.541690  1.0  0.1234
  C  C738  1  0.243160  0.302300  0.467000  1.0  -0.1449
  C  C739  1  0.344320  0.024280  0.545880  1.0  -0.0594
  C  C740  1  0.382030  0.135310  0.535850  1.0  -0.1496
  C  C741  1  0.383490  0.103770  0.539390  1.0  0.5643
  C  C742  1  0.355640  0.075620  0.539960  1.0  0.2395
  C  C743  1  0.359420  0.193040  0.522640  1.0  -0.0135
  C  C744  1  0.297650  0.256350  0.483770  1.0  0.2662
  C  C745  1  0.374000  0.021900  0.540800  1.0  -0.0009
  C  C746  1  0.264610  0.281410  0.450090  1.0  -0.0238
  C  C747  1  0.249070  0.300670  0.491130  1.0  -0.0099
  C  C748  1  0.211430  0.325230  0.460550  1.0  0.6513
  C  C749  1  0.358310  0.164570  0.526130  1.0  -0.1108
  C  C750  1  0.334760  0.225220  0.514900  1.0  0.5837
  C  C751  1  0.380720  0.046480  0.538160  1.0  -0.2146
  C  C752  1  0.383740  0.191140  0.529520  1.0  0.0309
  C  C753  1  0.337600  0.997980  0.548400  1.0  0.3109
  C  C754  1  0.276230  0.277890  0.499410  1.0  -0.1427
  C  C755  1  0.292770  0.258410  0.458190  1.0  -0.1109
  C  C756  1  0.319360  0.053480  0.547880  1.0  -0.0163
  C  C757  1  0.551620  0.078460  0.825380  1.0  -0.1628
  C  C758  1  0.417190  0.135750  0.905370  1.0  0.1266
  C  C759  1  0.487540  0.302300  0.743160  1.0  -0.1425
  C  C760  1  0.585520  0.024280  0.844320  1.0  -0.0587
  C  C761  1  0.446810  0.135310  0.882030  1.0  -0.1557
  C  C762  1  0.473350  0.103770  0.883490  1.0  0.5613
  C  C763  1  0.528780  0.075620  0.855640  1.0  0.2397
  C  C764  1  0.424900  0.193040  0.859420  1.0  -0.0169
  C  C765  1  0.462230  0.256350  0.797650  1.0  0.265
  C  C766  1  0.563300  0.021900  0.874000  1.0  -1e-04
  C  C767  1  0.503890  0.281410  0.764610  1.0  -0.0326
  C  C768  1  0.459130  0.300670  0.749070  1.0  -0.009
  C  C769  1  0.502790  0.325230  0.711430  1.0  0.6488
  C  C770  1  0.450990  0.164570  0.858310  1.0  -0.1076
  C  C771  1  0.425120  0.225220  0.834760  1.0  0.5854
  C  C772  1  0.534640  0.046480  0.880720  1.0  -0.2083
  C  C773  1  0.395600  0.191140  0.883740  1.0  0.0302
  C  C774  1  0.616020  0.997980  0.837600  1.0  0.3127
  C  C775  1  0.446470  0.277890  0.776230  1.0  -0.1332
  C  C776  1  0.490630  0.258410  0.792770  1.0  -0.1118
  C  C777  1  0.579280  0.053480  0.819360  1.0  -0.019
  C  C778  1  0.044540  0.825380  0.078460  1.0  -0.1604
  C  C779  1  0.041690  0.905370  0.135750  1.0  0.128
  C  C780  1  0.967000  0.743160  0.302300  1.0  -0.1462
  C  C781  1  0.045880  0.844320  0.024280  1.0  -0.0625
  C  C782  1  0.035850  0.882030  0.135310  1.0  -0.1545
  C  C783  1  0.039390  0.883490  0.103770  1.0  0.5632
  C  C784  1  0.039960  0.855640  0.075620  1.0  0.2388
  C  C785  1  0.022640  0.859420  0.193040  1.0  -0.0132
  C  C786  1  0.983770  0.797650  0.256350  1.0  0.2649
  C  C787  1  0.040800  0.874000  0.021900  1.0  -0.001
  C  C788  1  0.950090  0.764610  0.281410  1.0  -0.0332
  C  C789  1  0.991130  0.749070  0.300670  1.0  -0.0133
  C  C790  1  0.960550  0.711430  0.325230  1.0  0.6515
  C  C791  1  0.026130  0.858310  0.164570  1.0  -0.1037
  C  C792  1  0.014900  0.834760  0.225220  1.0  0.5878
  C  C793  1  0.038160  0.880720  0.046480  1.0  -0.2114
  C  C794  1  0.029520  0.883740  0.191140  1.0  0.0355
  C  C795  1  0.048400  0.837600  0.997980  1.0  0.303
  C  C796  1  0.999410  0.776230  0.277890  1.0  -0.142
  C  C797  1  0.958190  0.792770  0.258410  1.0  -0.1127
  C  C798  1  0.047880  0.819360  0.053480  1.0  -0.0181
  C  C799  1  0.578460  0.051620  0.544540  1.0  -0.1643
  C  C800  1  0.635750  0.917190  0.541690  1.0  0.1267
  C  C801  1  0.802300  0.987540  0.467000  1.0  -0.1477
  C  C802  1  0.524280  0.085520  0.545880  1.0  -0.0588
  C  C803  1  0.635310  0.946810  0.535850  1.0  -0.1502
  C  C804  1  0.603770  0.973350  0.539390  1.0  0.562
  C  C805  1  0.575620  0.028780  0.539960  1.0  0.2383
  C  C806  1  0.693040  0.924900  0.522640  1.0  -0.0161
  C  C807  1  0.756350  0.962230  0.483770  1.0  0.2643
  C  C808  1  0.521900  0.063300  0.540800  1.0  0.0057
  C  C809  1  0.781410  0.003890  0.450090  1.0  -0.0311
  C  C810  1  0.800670  0.959130  0.491130  1.0  -0.0127
  C  C811  1  0.825230  0.002790  0.460550  1.0  0.6494
  C  C812  1  0.664570  0.950990  0.526130  1.0  -0.1083
  C  C813  1  0.725220  0.925120  0.514900  1.0  0.5835
  C  C814  1  0.546480  0.034640  0.538160  1.0  -0.2088
  C  C815  1  0.691140  0.895600  0.529520  1.0  0.0285
  C  C816  1  0.497980  0.116020  0.548400  1.0  0.3129
  C  C817  1  0.777890  0.946470  0.499410  1.0  -0.1425
  C  C818  1  0.758410  0.990630  0.458190  1.0  -0.1064
  C  C819  1  0.553480  0.079280  0.547880  1.0  -0.0227
  C  C820  1  0.325380  0.544540  0.051620  1.0  -0.1608
  C  C821  1  0.405370  0.541690  0.917190  1.0  0.122
  C  C822  1  0.243160  0.467000  0.987540  1.0  -0.144
  C  C823  1  0.344320  0.545880  0.085520  1.0  -0.0545
  C  C824  1  0.382030  0.535850  0.946810  1.0  -0.1563
  C  C825  1  0.383490  0.539390  0.973350  1.0  0.5626
  C  C826  1  0.355640  0.539960  0.028780  1.0  0.24
  C  C827  1  0.359420  0.522640  0.924900  1.0  -0.0154
  C  C828  1  0.297650  0.483770  0.962230  1.0  0.2617
  C  C829  1  0.374000  0.540800  0.063300  1.0  0.0046
  C  C830  1  0.264610  0.450090  0.003890  1.0  -0.0333
  C  C831  1  0.249070  0.491130  0.959130  1.0  -0.0143
  C  C832  1  0.211430  0.460550  0.002790  1.0  0.6483
  C  C833  1  0.358310  0.526130  0.950990  1.0  -0.1059
  C  C834  1  0.334760  0.514900  0.925120  1.0  0.5835
  C  C835  1  0.380720  0.538160  0.034640  1.0  -0.2063
  C  C836  1  0.383740  0.529520  0.895600  1.0  0.0326
  C  C837  1  0.337600  0.548400  0.116020  1.0  0.3061
  C  C838  1  0.276230  0.499410  0.946470  1.0  -0.1447
  C  C839  1  0.292770  0.458190  0.990630  1.0  -0.1106
  C  C840  1  0.319360  0.547880  0.079280  1.0  -0.019
  C  C841  1  0.551620  0.825380  0.544540  1.0  -0.1604
  C  C842  1  0.417190  0.905370  0.541690  1.0  0.1246
  C  C843  1  0.487540  0.743160  0.467000  1.0  -0.142
  C  C844  1  0.585520  0.844320  0.545880  1.0  -0.0556
  C  C845  1  0.446810  0.882030  0.535850  1.0  -0.1456
  C  C846  1  0.473350  0.883490  0.539390  1.0  0.5691
  C  C847  1  0.528780  0.855640  0.539960  1.0  0.2392
  C  C848  1  0.424900  0.859420  0.522640  1.0  -0.0166
  C  C849  1  0.462230  0.797650  0.483770  1.0  0.2643
  C  C850  1  0.563300  0.874000  0.540800  1.0  -0.0017
  C  C851  1  0.503890  0.764610  0.450090  1.0  -0.0296
  C  C852  1  0.459130  0.749070  0.491130  1.0  -0.0097
  C  C853  1  0.502790  0.711430  0.460550  1.0  0.6524
  C  C854  1  0.450990  0.858310  0.526130  1.0  -0.1086
  C  C855  1  0.425120  0.834760  0.514900  1.0  0.5892
  C  C856  1  0.534640  0.880720  0.538160  1.0  -0.2154
  C  C857  1  0.395600  0.883740  0.529520  1.0  0.0288
  C  C858  1  0.616020  0.837600  0.548400  1.0  0.3141
  C  C859  1  0.446470  0.776230  0.499410  1.0  -0.1304
  C  C860  1  0.490630  0.792770  0.458190  1.0  -0.1078
  C  C861  1  0.579280  0.819360  0.547880  1.0  -0.0196
  C  C862  1  0.044540  0.078460  0.051620  1.0  -0.1576
  C  C863  1  0.041690  0.135750  0.917190  1.0  0.1263
  C  C864  1  0.967000  0.302300  0.987540  1.0  -0.1463
  C  C865  1  0.045880  0.024280  0.085520  1.0  -0.062
  C  C866  1  0.035850  0.135310  0.946810  1.0  -0.1539
  C  C867  1  0.039390  0.103770  0.973350  1.0  0.5623
  C  C868  1  0.039960  0.075620  0.028780  1.0  0.2404
  C  C869  1  0.022640  0.193040  0.924900  1.0  -0.0154
  C  C870  1  0.983770  0.256350  0.962230  1.0  0.2637
  C  C871  1  0.040800  0.021900  0.063300  1.0  0.0014
  C  C872  1  0.950090  0.281410  0.003890  1.0  -0.0346
  C  C873  1  0.991130  0.300670  0.959130  1.0  -0.0112
  C  C874  1  0.960550  0.325230  0.002790  1.0  0.651
  C  C875  1  0.026130  0.164570  0.950990  1.0  -0.1039
  C  C876  1  0.014900  0.225220  0.925120  1.0  0.5856
  C  C877  1  0.038160  0.046480  0.034640  1.0  -0.208
  C  C878  1  0.029520  0.191140  0.895600  1.0  0.0316
  C  C879  1  0.048400  0.997980  0.116020  1.0  0.3041
  C  C880  1  0.999410  0.277890  0.946470  1.0  -0.1416
  C  C881  1  0.958190  0.258410  0.990630  1.0  -0.1123
  C  C882  1  0.047880  0.053480  0.079280  1.0  -0.0189
  C  C883  1  0.578460  0.544540  0.825380  1.0  -0.1589
  C  C884  1  0.635750  0.541690  0.905370  1.0  0.1199
  C  C885  1  0.802300  0.467000  0.743160  1.0  -0.1457
  C  C886  1  0.524280  0.545880  0.844320  1.0  -0.0578
  C  C887  1  0.635310  0.535850  0.882030  1.0  -0.1577
  C  C888  1  0.603770  0.539390  0.883490  1.0  0.5624
  C  C889  1  0.575620  0.539960  0.855640  1.0  0.241
  C  C890  1  0.693040  0.522640  0.859420  1.0  -0.0127
  C  C891  1  0.756350  0.483770  0.797650  1.0  0.2629
  C  C892  1  0.521900  0.540800  0.874000  1.0  -0.0021
  C  C893  1  0.781410  0.450090  0.764610  1.0  -0.0326
  C  C894  1  0.800670  0.491130  0.749070  1.0  -0.0054
  C  C895  1  0.825230  0.460550  0.711430  1.0  0.6489
  C  C896  1  0.664570  0.526130  0.858310  1.0  -0.1049
  C  C897  1  0.725220  0.514900  0.834760  1.0  0.5848
  C  C898  1  0.546480  0.538160  0.880720  1.0  -0.2089
  C  C899  1  0.691140  0.529520  0.883740  1.0  0.033
  C  C900  1  0.497980  0.548400  0.837600  1.0  0.3057
  C  C901  1  0.777890  0.499410  0.776230  1.0  -0.1361
  C  C902  1  0.758410  0.458190  0.792770  1.0  -0.108
  C  C903  1  0.553480  0.547880  0.819360  1.0  -0.0211
  C  C904  1  0.325380  0.051620  0.078460  1.0  -0.1579
  C  C905  1  0.405370  0.917190  0.135750  1.0  0.1202
  C  C906  1  0.243160  0.987540  0.302300  1.0  -0.1401
  C  C907  1  0.344320  0.085520  0.024280  1.0  -0.0558
  C  C908  1  0.382030  0.946810  0.135310  1.0  -0.1484
  C  C909  1  0.383490  0.973350  0.103770  1.0  0.5632
  C  C910  1  0.355640  0.028780  0.075620  1.0  0.2384
  C  C911  1  0.359420  0.924900  0.193040  1.0  -0.0138
  C  C912  1  0.297650  0.962230  0.256350  1.0  0.2652
  C  C913  1  0.374000  0.063300  0.021900  1.0  0.0014
  C  C914  1  0.264610  0.003890  0.281410  1.0  -0.0298
  C  C915  1  0.249070  0.959130  0.300670  1.0  -0.0145
  C  C916  1  0.211430  0.002790  0.325230  1.0  0.6515
  C  C917  1  0.358310  0.950990  0.164570  1.0  -0.1083
  C  C918  1  0.334760  0.925120  0.225220  1.0  0.5855
  C  C919  1  0.380720  0.034640  0.046480  1.0  -0.2118
  C  C920  1  0.383740  0.895600  0.191140  1.0  0.0329
  C  C921  1  0.337600  0.116020  0.997980  1.0  0.3135
  C  C922  1  0.276230  0.946470  0.277890  1.0  -0.1403
  C  C923  1  0.292770  0.990630  0.258410  1.0  -0.1117
  C  C924  1  0.319360  0.079280  0.053480  1.0  -0.0162
  C  C925  1  0.544540  0.551620  0.578460  1.0  -0.1562
  C  C926  1  0.541690  0.417190  0.635750  1.0  0.1245
  C  C927  1  0.467000  0.487540  0.802300  1.0  -0.1461
  C  C928  1  0.545880  0.585520  0.524280  1.0  -0.0607
  C  C929  1  0.535850  0.446810  0.635310  1.0  -0.1531
  C  C930  1  0.539390  0.473350  0.603770  1.0  0.5637
  C  C931  1  0.539960  0.528780  0.575620  1.0  0.242
  C  C932  1  0.522640  0.424900  0.693040  1.0  -0.0151
  C  C933  1  0.483770  0.462230  0.756350  1.0  0.268
  C  C934  1  0.540800  0.563300  0.521900  1.0  0.0037
  C  C935  1  0.450090  0.503890  0.781410  1.0  -0.0344
  C  C936  1  0.491130  0.459130  0.800670  1.0  -0.0174
  C  C937  1  0.460550  0.502790  0.825230  1.0  0.6508
  C  C938  1  0.526130  0.450990  0.664570  1.0  -0.1049
  C  C939  1  0.514900  0.425120  0.725220  1.0  0.584
  C  C940  1  0.538160  0.534640  0.546480  1.0  -0.2118
  C  C941  1  0.529520  0.395600  0.691140  1.0  0.0318
  C  C942  1  0.548400  0.616020  0.497980  1.0  0.3022
  C  C943  1  0.499410  0.446470  0.777890  1.0  -0.142
  C  C944  1  0.458190  0.490630  0.758410  1.0  -0.1122
  C  C945  1  0.547880  0.579280  0.553480  1.0  -0.0187
  C  C946  1  0.051620  0.044540  0.325380  1.0  -0.1601
  C  C947  1  0.917190  0.041690  0.405370  1.0  0.1213
  C  C948  1  0.987540  0.967000  0.243160  1.0  -0.1431
  C  C949  1  0.085520  0.045880  0.344320  1.0  -0.0546
  C  C950  1  0.946810  0.035850  0.382030  1.0  -0.1553
  C  C951  1  0.973350  0.039390  0.383490  1.0  0.5629
  C  C952  1  0.028780  0.039960  0.355640  1.0  0.2412
  C  C953  1  0.924900  0.022640  0.359420  1.0  -0.0148
  C  C954  1  0.962230  0.983770  0.297650  1.0  0.2676
  C  C955  1  0.063300  0.040800  0.374000  1.0  -0.0016
  C  C956  1  0.003890  0.950090  0.264610  1.0  -0.0314
  C  C957  1  0.959130  0.991130  0.249070  1.0  -0.0138
  C  C958  1  0.002790  0.960550  0.211430  1.0  0.6494
  C  C959  1  0.950990  0.026130  0.358310  1.0  -0.1066
  C  C960  1  0.925120  0.014900  0.334760  1.0  0.5867
  C  C961  1  0.034640  0.038160  0.380720  1.0  -0.2112
  C  C962  1  0.895600  0.029520  0.383740  1.0  0.0307
  C  C963  1  0.116020  0.048400  0.337600  1.0  0.3041
  C  C964  1  0.946470  0.999410  0.276230  1.0  -0.134
  C  C965  1  0.990630  0.958190  0.292770  1.0  -0.1117
  C  C966  1  0.079280  0.047880  0.319360  1.0  -0.0205
  C  C967  1  0.825380  0.578460  0.551620  1.0  -0.1589
  C  C968  1  0.905370  0.635750  0.417190  1.0  0.1213
  C  C969  1  0.743160  0.802300  0.487540  1.0  -0.1463
  C  C970  1  0.844320  0.524280  0.585520  1.0  -0.0623
  C  C971  1  0.882030  0.635310  0.446810  1.0  -0.1535
  C  C972  1  0.883490  0.603770  0.473350  1.0  0.5613
  C  C973  1  0.855640  0.575620  0.528780  1.0  0.236
  C  C974  1  0.859420  0.693040  0.424900  1.0  -0.015
  C  C975  1  0.797650  0.756350  0.462230  1.0  0.2664
  C  C976  1  0.874000  0.521900  0.563300  1.0  0.0
  C  C977  1  0.764610  0.781410  0.503890  1.0  -0.0272
  C  C978  1  0.749070  0.800670  0.459130  1.0  -0.0106
  C  C979  1  0.711430  0.825230  0.502790  1.0  0.6505
  C  C980  1  0.858310  0.664570  0.450990  1.0  -0.1099
  C  C981  1  0.834760  0.725220  0.425120  1.0  0.5833
  C  C982  1  0.880720  0.546480  0.534640  1.0  -0.2118
  C  C983  1  0.883740  0.691140  0.395600  1.0  0.0305
  C  C984  1  0.837600  0.497980  0.616020  1.0  0.3126
  C  C985  1  0.776230  0.777890  0.446470  1.0  -0.1437
  C  C986  1  0.792770  0.758410  0.490630  1.0  -0.1121
  C  C987  1  0.819360  0.553480  0.579280  1.0  -0.0157
  C  C988  1  0.078460  0.325380  0.044540  1.0  -0.1648
  C  C989  1  0.135750  0.405370  0.041690  1.0  0.1242
  C  C990  1  0.302300  0.243160  0.967000  1.0  -0.1465
  C  C991  1  0.024280  0.344320  0.045880  1.0  -0.0588
  C  C992  1  0.135310  0.382030  0.035850  1.0  -0.1483
  C  C993  1  0.103770  0.383490  0.039390  1.0  0.5682
  C  C994  1  0.075620  0.355640  0.039960  1.0  0.2384
  C  C995  1  0.193040  0.359420  0.022640  1.0  -0.0124
  C  C996  1  0.256350  0.297650  0.983770  1.0  0.2646
  C  C997  1  0.021900  0.374000  0.040800  1.0  -0.0009
  C  C998  1  0.281410  0.264610  0.950090  1.0  -0.0255
  C  C999  1  0.300670  0.249070  0.991130  1.0  -0.0124
  C  C1000  1  0.325230  0.211430  0.960550  1.0  0.6525
  C  C1001  1  0.164570  0.358310  0.026130  1.0  -0.1099
  C  C1002  1  0.225220  0.334760  0.014900  1.0  0.5899
  C  C1003  1  0.046480  0.380720  0.038160  1.0  -0.2126
  C  C1004  1  0.191140  0.383740  0.029520  1.0  0.0319
  C  C1005  1  0.997980  0.337600  0.048400  1.0  0.3097
  C  C1006  1  0.277890  0.276230  0.999410  1.0  -0.1394
  C  C1007  1  0.258410  0.292770  0.958190  1.0  -0.105
  C  C1008  1  0.053480  0.319360  0.047880  1.0  -0.0203
  C  C1009  1  0.078460  0.551620  0.325380  1.0  -0.1643
  C  C1010  1  0.135750  0.417190  0.405370  1.0  0.1274
  C  C1011  1  0.302300  0.487540  0.243160  1.0  -0.1458
  C  C1012  1  0.024280  0.585520  0.344320  1.0  -0.0598
  C  C1013  1  0.135310  0.446810  0.382030  1.0  -0.1531
  C  C1014  1  0.103770  0.473350  0.383490  1.0  0.5618
  C  C1015  1  0.075620  0.528780  0.355640  1.0  0.2392
  C  C1016  1  0.193040  0.424900  0.359420  1.0  -0.0181
  C  C1017  1  0.256350  0.462230  0.297650  1.0  0.2648
  C  C1018  1  0.021900  0.563300  0.374000  1.0  0.0054
  C  C1019  1  0.281410  0.503890  0.264610  1.0  -0.0319
  C  C1020  1  0.300670  0.459130  0.249070  1.0  -0.013
  C  C1021  1  0.325230  0.502790  0.211430  1.0  0.6492
  C  C1022  1  0.164570  0.450990  0.358310  1.0  -0.1087
  C  C1023  1  0.225220  0.425120  0.334760  1.0  0.5842
  C  C1024  1  0.046480  0.534640  0.380720  1.0  -0.2093
  C  C1025  1  0.191140  0.395600  0.383740  1.0  0.0302
  C  C1026  1  0.997980  0.616020  0.337600  1.0  0.3139
  C  C1027  1  0.277890  0.446470  0.276230  1.0  -0.1422
  C  C1028  1  0.258410  0.490630  0.292770  1.0  -0.108
  C  C1029  1  0.053480  0.579280  0.319360  1.0  -0.0201
  C  C1030  1  0.825380  0.044540  0.578460  1.0  -0.1596
  C  C1031  1  0.905370  0.041690  0.635750  1.0  0.1231
  C  C1032  1  0.743160  0.967000  0.802300  1.0  -0.1435
  C  C1033  1  0.844320  0.045880  0.524280  1.0  -0.0549
  C  C1034  1  0.882030  0.035850  0.635310  1.0  -0.1569
  C  C1035  1  0.883490  0.039390  0.603770  1.0  0.5628
  C  C1036  1  0.855640  0.039960  0.575620  1.0  0.2399
  C  C1037  1  0.859420  0.022640  0.693040  1.0  -0.0118
  C  C1038  1  0.797650  0.983770  0.756350  1.0  0.2637
  C  C1039  1  0.874000  0.040800  0.521900  1.0  0.0035
  C  C1040  1  0.764610  0.950090  0.781410  1.0  -0.0328
  C  C1041  1  0.749070  0.991130  0.800670  1.0  -0.0122
  C  C1042  1  0.711430  0.960550  0.825230  1.0  0.6487
  C  C1043  1  0.858310  0.026130  0.664570  1.0  -0.1065
  C  C1044  1  0.834760  0.014900  0.725220  1.0  0.5851
  C  C1045  1  0.880720  0.038160  0.546480  1.0  -0.2054
  C  C1046  1  0.883740  0.029520  0.691140  1.0  0.0315
  C  C1047  1  0.837600  0.048400  0.497980  1.0  0.3079
  C  C1048  1  0.776230  0.999410  0.777890  1.0  -0.1428
  C  C1049  1  0.792770  0.958190  0.758410  1.0  -0.1088
  C  C1050  1  0.819360  0.047880  0.553480  1.0  -0.0199
  C  C1051  1  0.051620  0.578460  0.044540  1.0  -0.165
  C  C1052  1  0.917190  0.635750  0.041690  1.0  0.1254
  C  C1053  1  0.987540  0.802300  0.967000  1.0  -0.1424
  C  C1054  1  0.085520  0.524280  0.045880  1.0  -0.0567
  C  C1055  1  0.946810  0.635310  0.035850  1.0  -0.1518
  C  C1056  1  0.973350  0.603770  0.039390  1.0  0.5617
  C  C1057  1  0.028780  0.575620  0.039960  1.0  0.2388
  C  C1058  1  0.924900  0.693040  0.022640  1.0  -0.0157
  C  C1059  1  0.962230  0.756350  0.983770  1.0  0.2648
  C  C1060  1  0.063300  0.521900  0.040800  1.0  -0.0002
  C  C1061  1  0.003890  0.781410  0.950090  1.0  -0.0306
  C  C1062  1  0.959130  0.800670  0.991130  1.0  -0.0089
  C  C1063  1  0.002790  0.825230  0.960550  1.0  0.6495
  C  C1064  1  0.950990  0.664570  0.026130  1.0  -0.1073
  C  C1065  1  0.925120  0.725220  0.014900  1.0  0.5828
  C  C1066  1  0.034640  0.546480  0.038160  1.0  -0.2078
  C  C1067  1  0.895600  0.691140  0.029520  1.0  0.0288
  C  C1068  1  0.116020  0.497980  0.048400  1.0  0.3118
  C  C1069  1  0.946470  0.777890  0.999410  1.0  -0.1335
  C  C1070  1  0.990630  0.758410  0.958190  1.0  -0.1097
  C  C1071  1  0.079280  0.553480  0.047880  1.0  -0.0217
  C  C1072  1  0.544540  0.325380  0.551620  1.0  -0.1606
  C  C1073  1  0.541690  0.405370  0.417190  1.0  0.1277
  C  C1074  1  0.467000  0.243160  0.487540  1.0  -0.1475
  C  C1075  1  0.545880  0.344320  0.585520  1.0  -0.0615
  C  C1076  1  0.535850  0.382030  0.446810  1.0  -0.1546
  C  C1077  1  0.539390  0.383490  0.473350  1.0  0.5645
  C  C1078  1  0.539960  0.355640  0.528780  1.0  0.2387
  C  C1079  1  0.522640  0.359420  0.424900  1.0  -0.0186
  C  C1080  1  0.483770  0.297650  0.462230  1.0  0.2636
  C  C1081  1  0.540800  0.374000  0.563300  1.0  -0.0003
  C  C1082  1  0.450090  0.264610  0.503890  1.0  -0.0335
  C  C1083  1  0.491130  0.249070  0.459130  1.0  -0.0154
  C  C1084  1  0.460550  0.211430  0.502790  1.0  0.6513
  C  C1085  1  0.526130  0.358310  0.450990  1.0  -0.1029
  C  C1086  1  0.514900  0.334760  0.425120  1.0  0.5851
  C  C1087  1  0.538160  0.380720  0.534640  1.0  -0.2119
  C  C1088  1  0.529520  0.383740  0.395600  1.0  0.036
  C  C1089  1  0.548400  0.337600  0.616020  1.0  0.3031
  C  C1090  1  0.499410  0.276230  0.446470  1.0  -0.1423
  C  C1091  1  0.458190  0.292770  0.490630  1.0  -0.1137
  C  C1092  1  0.547880  0.319360  0.579280  1.0  -0.0184
  C  C1093  1  0.825380  0.551620  0.044540  1.0  -0.1571
  C  C1094  1  0.905370  0.417190  0.041690  1.0  0.1221
  C  C1095  1  0.743160  0.487540  0.967000  1.0  -0.1418
  C  C1096  1  0.844320  0.585520  0.045880  1.0  -0.0572
  C  C1097  1  0.882030  0.446810  0.035850  1.0  -0.1448
  C  C1098  1  0.883490  0.473350  0.039390  1.0  0.5711
  C  C1099  1  0.855640  0.528780  0.039960  1.0  0.2402
  C  C1100  1  0.859420  0.424900  0.022640  1.0  -0.0139
  C  C1101  1  0.797650  0.462230  0.983770  1.0  0.2635
  C  C1102  1  0.874000  0.563300  0.040800  1.0  0.0016
  C  C1103  1  0.764610  0.503890  0.950090  1.0  -0.0283
  C  C1104  1  0.749070  0.459130  0.991130  1.0  -0.0136
  C  C1105  1  0.711430  0.502790  0.960550  1.0  0.6518
  C  C1106  1  0.858310  0.450990  0.026130  1.0  -0.1102
  C  C1107  1  0.834760  0.425120  0.014900  1.0  0.5853
  C  C1108  1  0.880720  0.534640  0.038160  1.0  -0.214
  C  C1109  1  0.883740  0.395600  0.029520  1.0  0.0326
  C  C1110  1  0.837600  0.616020  0.048400  1.0  0.3151
  C  C1111  1  0.776230  0.446470  0.999410  1.0  -0.1403
  C  C1112  1  0.792770  0.490630  0.958190  1.0  -0.1098
  C  C1113  1  0.819360  0.579280  0.047880  1.0  -0.0196
  C  C1114  1  0.078460  0.044540  0.551620  1.0  -0.1591
  C  C1115  1  0.135750  0.041690  0.417190  1.0  0.1198
  C  C1116  1  0.302300  0.967000  0.487540  1.0  -0.1466
  C  C1117  1  0.024280  0.045880  0.585520  1.0  -0.0572
  C  C1118  1  0.135310  0.035850  0.446810  1.0  -0.1559
  C  C1119  1  0.103770  0.039390  0.473350  1.0  0.5626
  C  C1120  1  0.075620  0.039960  0.528780  1.0  0.2408
  C  C1121  1  0.193040  0.022640  0.424900  1.0  -0.0133
  C  C1122  1  0.256350  0.983770  0.462230  1.0  0.2622
  C  C1123  1  0.021900  0.040800  0.563300  1.0  -0.0003
  C  C1124  1  0.281410  0.950090  0.503890  1.0  -0.0329
  C  C1125  1  0.300670  0.991130  0.459130  1.0  -0.0057
  C  C1126  1  0.325230  0.960550  0.502790  1.0  0.6491
  C  C1127  1  0.164570  0.026130  0.450990  1.0  -0.1052
  C  C1128  1  0.225220  0.014900  0.425120  1.0  0.5866
  C  C1129  1  0.046480  0.038160  0.534640  1.0  -0.2077
  C  C1130  1  0.191140  0.029520  0.395600  1.0  0.0324
  C  C1131  1  0.997980  0.048400  0.616020  1.0  0.3056
  C  C1132  1  0.277890  0.999410  0.446470  1.0  -0.1402
  C  C1133  1  0.258410  0.958190  0.490630  1.0  -0.1088
  C  C1134  1  0.053480  0.047880  0.579280  1.0  -0.0197
  C  C1135  1  0.544540  0.578460  0.325380  1.0  -0.157
  C  C1136  1  0.541690  0.635750  0.405370  1.0  0.1256
  C  C1137  1  0.467000  0.802300  0.243160  1.0  -0.1459
  C  C1138  1  0.545880  0.524280  0.344320  1.0  -0.0616
  C  C1139  1  0.535850  0.635310  0.382030  1.0  -0.1543
  C  C1140  1  0.539390  0.603770  0.383490  1.0  0.5638
  C  C1141  1  0.539960  0.575620  0.355640  1.0  0.2396
  C  C1142  1  0.522640  0.693040  0.359420  1.0  -0.0148
  C  C1143  1  0.483770  0.756350  0.297650  1.0  0.2641
  C  C1144  1  0.540800  0.521900  0.374000  1.0  -0.0003
  C  C1145  1  0.450090  0.781410  0.264610  1.0  -0.0345
  C  C1146  1  0.491130  0.800670  0.249070  1.0  -0.0111
  C  C1147  1  0.460550  0.825230  0.211430  1.0  0.652
  C  C1148  1  0.526130  0.664570  0.358310  1.0  -0.1039
  C  C1149  1  0.514900  0.725220  0.334760  1.0  0.5835
  C  C1150  1  0.538160  0.546480  0.380720  1.0  -0.2119
  C  C1151  1  0.529520  0.691140  0.383740  1.0  0.0326
  C  C1152  1  0.548400  0.497980  0.337600  1.0  0.304
  C  C1153  1  0.499410  0.777890  0.276230  1.0  -0.1393
  C  C1154  1  0.458190  0.758410  0.292770  1.0  -0.112
  C  C1155  1  0.547880  0.553480  0.319360  1.0  -0.0183
  C  C1156  1  0.051620  0.325380  0.578460  1.0  -0.1617
  C  C1157  1  0.917190  0.405370  0.635750  1.0  0.1246
  C  C1158  1  0.987540  0.243160  0.802300  1.0  -0.1393
  C  C1159  1  0.085520  0.344320  0.524280  1.0  -0.0575
  C  C1160  1  0.946810  0.382030  0.635310  1.0  -0.1488
  C  C1161  1  0.973350  0.383490  0.603770  1.0  0.5644
  C  C1162  1  0.028780  0.355640  0.575620  1.0  0.2386
  C  C1163  1  0.924900  0.359420  0.693040  1.0  -0.0163
  C  C1164  1  0.962230  0.297650  0.756350  1.0  0.265
  C  C1165  1  0.063300  0.374000  0.521900  1.0  -0.0022
  C  C1166  1  0.003890  0.264610  0.781410  1.0  -0.0318
  C  C1167  1  0.959130  0.249070  0.800670  1.0  -0.0103
  C  C1168  1  0.002790  0.211430  0.825230  1.0  0.6509
  C  C1169  1  0.950990  0.358310  0.664570  1.0  -0.1062
  C  C1170  1  0.925120  0.334760  0.725220  1.0  0.589
  C  C1171  1  0.034640  0.380720  0.546480  1.0  -0.2136
  C  C1172  1  0.895600  0.383740  0.691140  1.0  0.0291
  C  C1173  1  0.116020  0.337600  0.497980  1.0  0.3112
  C  C1174  1  0.946470  0.276230  0.777890  1.0  -0.1312
  C  C1175  1  0.990630  0.292770  0.758410  1.0  -0.1092
  C  C1176  1  0.079280  0.319360  0.553480  1.0  -0.0171
  C  C1177  1  0.455460  0.448380  0.421540  1.0  -0.1567
  C  C1178  1  0.458310  0.582810  0.364250  1.0  0.1243
  C  C1179  1  0.533000  0.512460  0.197700  1.0  -0.1446
  C  C1180  1  0.454120  0.414480  0.475720  1.0  -0.0612
  C  C1181  1  0.464150  0.553190  0.364690  1.0  -0.1531
  C  C1182  1  0.460610  0.526650  0.396230  1.0  0.5633
  C  C1183  1  0.460040  0.471220  0.424380  1.0  0.2418
  C  C1184  1  0.477360  0.575100  0.306960  1.0  -0.0139
  C  C1185  1  0.516230  0.537770  0.243650  1.0  0.2669
  C  C1186  1  0.459200  0.436700  0.478100  1.0  0.0027
  C  C1187  1  0.549910  0.496110  0.218590  1.0  -0.0329
  C  C1188  1  0.508870  0.540870  0.199330  1.0  -0.013
  C  C1189  1  0.539450  0.497210  0.174770  1.0  0.6502
  C  C1190  1  0.473870  0.549010  0.335430  1.0  -0.1049
  C  C1191  1  0.485100  0.574880  0.274780  1.0  0.581
  C  C1192  1  0.461840  0.465360  0.453520  1.0  -0.2124
  C  C1193  1  0.470480  0.604400  0.308860  1.0  0.0308
  C  C1194  1  0.451600  0.383980  0.502020  1.0  0.3023
  C  C1195  1  0.500590  0.553530  0.222110  1.0  -0.1377
  C  C1196  1  0.541810  0.509370  0.241590  1.0  -0.1109
  C  C1197  1  0.452120  0.420720  0.446520  1.0  -0.0184
  C  C1198  1  0.948380  0.955460  0.674620  1.0  -0.1651
  C  C1199  1  0.082810  0.958310  0.594630  1.0  0.1194
  C  C1200  1  0.012460  0.033000  0.756840  1.0  -0.1465
  C  C1201  1  0.914480  0.954120  0.655680  1.0  -0.0583
  C  C1202  1  0.053190  0.964150  0.617970  1.0  -0.1536
  C  C1203  1  0.026650  0.960610  0.616510  1.0  0.5638
  C  C1204  1  0.971220  0.960040  0.644360  1.0  0.2404
  C  C1205  1  0.075100  0.977360  0.640580  1.0  -0.0171
  C  C1206  1  0.037770  0.016230  0.702350  1.0  0.265
  C  C1207  1  0.936700  0.959200  0.626000  1.0  -0.0015
  C  C1208  1  0.996110  0.049910  0.735390  1.0  -0.0286
  C  C1209  1  0.040870  0.008870  0.750930  1.0  -0.0144
  C  C1210  1  0.997210  0.039450  0.788570  1.0  0.6511
  C  C1211  1  0.049010  0.973870  0.641690  1.0  -0.1069
  C  C1212  1  0.074880  0.985100  0.665240  1.0  0.5874
  C  C1213  1  0.965360  0.961840  0.619280  1.0  -0.2109
  C  C1214  1  0.104400  0.970480  0.616260  1.0  0.0311
  C  C1215  1  0.883980  0.951600  0.662400  1.0  0.3019
  C  C1216  1  0.053530  0.000590  0.723770  1.0  -0.1367
  C  C1217  1  0.009370  0.041810  0.707230  1.0  -0.1099
  C  C1218  1  0.920720  0.952120  0.680640  1.0  -0.021
  C  C1219  1  0.174620  0.421540  0.448380  1.0  -0.1598
  C  C1220  1  0.094630  0.364250  0.582810  1.0  0.1236
  C  C1221  1  0.256840  0.197700  0.512460  1.0  -0.1453
  C  C1222  1  0.155680  0.475720  0.414480  1.0  -0.0586
  C  C1223  1  0.117970  0.364690  0.553190  1.0  -0.1497
  C  C1224  1  0.116510  0.396230  0.526650  1.0  0.5662
  C  C1225  1  0.144360  0.424380  0.471220  1.0  0.2382
  C  C1226  1  0.140580  0.306960  0.575100  1.0  -0.0133
  C  C1227  1  0.202350  0.243650  0.537770  1.0  0.2688
  C  C1228  1  0.126000  0.478100  0.436700  1.0  -0.0011
  C  C1229  1  0.235390  0.218590  0.496110  1.0  -0.0264
  C  C1230  1  0.250930  0.199330  0.540870  1.0  -0.0113
  C  C1231  1  0.288570  0.174770  0.497210  1.0  0.6502
  C  C1232  1  0.141690  0.335430  0.549010  1.0  -0.1081
  C  C1233  1  0.165240  0.274780  0.574880  1.0  0.5846
  C  C1234  1  0.119280  0.453520  0.465360  1.0  -0.2159
  C  C1235  1  0.116260  0.308860  0.604400  1.0  0.0299
  C  C1236  1  0.162400  0.502020  0.383980  1.0  0.3114
  C  C1237  1  0.223770  0.222110  0.553530  1.0  -0.1434
  C  C1238  1  0.207230  0.241590  0.509370  1.0  -0.1105
  C  C1239  1  0.180640  0.446520  0.420720  1.0  -0.0131
  C  C1240  1  0.921540  0.674620  0.955460  1.0  -0.1601
  C  C1241  1  0.864250  0.594630  0.958310  1.0  0.1219
  C  C1242  1  0.697700  0.756840  0.033000  1.0  -0.1467
  C  C1243  1  0.975720  0.655680  0.954120  1.0  -0.0616
  C  C1244  1  0.864690  0.617970  0.964150  1.0  -0.153
  C  C1245  1  0.896230  0.616510  0.960610  1.0  0.5638
  C  C1246  1  0.924380  0.644360  0.960040  1.0  0.2363
  C  C1247  1  0.806960  0.640580  0.977360  1.0  -0.0146
  C  C1248  1  0.743650  0.702350  0.016230  1.0  0.2674
  C  C1249  1  0.978100  0.626000  0.959200  1.0  -0.0004
  C  C1250  1  0.718590  0.735390  0.049910  1.0  -0.0276
  C  C1251  1  0.699330  0.750930  0.008870  1.0  -0.012
  C  C1252  1  0.674770  0.788570  0.039450  1.0  0.6513
  C  C1253  1  0.835430  0.641690  0.973870  1.0  -0.1086
  C  C1254  1  0.774780  0.665240  0.985100  1.0  0.5906
  C  C1255  1  0.953520  0.619280  0.961840  1.0  -0.2108
  C  C1256  1  0.808860  0.616260  0.970480  1.0  0.0286
  C  C1257  1  0.002020  0.662400  0.951600  1.0  0.3087
  C  C1258  1  0.722110  0.723770  0.000590  1.0  -0.1362
  C  C1259  1  0.741590  0.707230  0.041810  1.0  -0.1082
  C  C1260  1  0.946520  0.680640  0.952120  1.0  -0.0182
  C  C1261  1  0.921540  0.448380  0.674620  1.0  -0.1642
  C  C1262  1  0.864250  0.582810  0.594630  1.0  0.1257
  C  C1263  1  0.697700  0.512460  0.756840  1.0  -0.1468
  C  C1264  1  0.975720  0.414480  0.655680  1.0  -0.0574
  C  C1265  1  0.864690  0.553190  0.617970  1.0  -0.1487
  C  C1266  1  0.896230  0.526650  0.616510  1.0  0.5668
  C  C1267  1  0.924380  0.471220  0.644360  1.0  0.2395
  C  C1268  1  0.806960  0.575100  0.640580  1.0  -0.0151
  C  C1269  1  0.743650  0.537770  0.702350  1.0  0.2659
  C  C1270  1  0.978100  0.436700  0.626000  1.0  0.0052
  C  C1271  1  0.718590  0.496110  0.735390  1.0  -0.0314
  C  C1272  1  0.699330  0.540870  0.750930  1.0  -0.0097
  C  C1273  1  0.674770  0.497210  0.788570  1.0  0.6502
  C  C1274  1  0.835430  0.549010  0.641690  1.0  -0.108
  C  C1275  1  0.774780  0.574880  0.665240  1.0  0.58
  C  C1276  1  0.953520  0.465360  0.619280  1.0  -0.2115
  C  C1277  1  0.808860  0.604400  0.616260  1.0  0.0276
  C  C1278  1  0.002020  0.383980  0.662400  1.0  0.3102
  C  C1279  1  0.722110  0.553530  0.723770  1.0  -0.1358
  C  C1280  1  0.741590  0.509370  0.707230  1.0  -0.108
  C  C1281  1  0.946520  0.420720  0.680640  1.0  -0.0209
  C  C1282  1  0.174620  0.955460  0.421540  1.0  -0.1632
  C  C1283  1  0.094630  0.958310  0.364250  1.0  0.1208
  C  C1284  1  0.256840  0.033000  0.197700  1.0  -0.1454
  C  C1285  1  0.155680  0.954120  0.475720  1.0  -0.0579
  C  C1286  1  0.117970  0.964150  0.364690  1.0  -0.1556
  C  C1287  1  0.116510  0.960610  0.396230  1.0  0.5614
  C  C1288  1  0.144360  0.960040  0.424380  1.0  0.2408
  C  C1289  1  0.140580  0.977360  0.306960  1.0  -0.0175
  C  C1290  1  0.202350  0.016230  0.243650  1.0  0.2632
  C  C1291  1  0.126000  0.959200  0.478100  1.0  0.0039
  C  C1292  1  0.235390  0.049910  0.218590  1.0  -0.0309
  C  C1293  1  0.250930  0.008870  0.199330  1.0  -0.0141
  C  C1294  1  0.288570  0.039450  0.174770  1.0  0.6498
  C  C1295  1  0.141690  0.973870  0.335430  1.0  -0.1046
  C  C1296  1  0.165240  0.985100  0.274780  1.0  0.5838
  C  C1297  1  0.119280  0.961840  0.453520  1.0  -0.2044
  C  C1298  1  0.116260  0.970480  0.308860  1.0  0.0331
  C  C1299  1  0.162400  0.951600  0.502020  1.0  0.3039
  C  C1300  1  0.223770  0.000590  0.222110  1.0  -0.1439
  C  C1301  1  0.207230  0.041810  0.241590  1.0  -0.1098
  C  C1302  1  0.180640  0.952120  0.446520  1.0  -0.0184
  C  C1303  1  0.948380  0.421540  0.955460  1.0  -0.1632
  C  C1304  1  0.082810  0.364250  0.958310  1.0  0.1248
  C  C1305  1  0.012460  0.197700  0.033000  1.0  -0.1431
  C  C1306  1  0.914480  0.475720  0.954120  1.0  -0.0578
  C  C1307  1  0.053190  0.364690  0.964150  1.0  -0.156
  C  C1308  1  0.026650  0.396230  0.960610  1.0  0.5633
  C  C1309  1  0.971220  0.424380  0.960040  1.0  0.2414
  C  C1310  1  0.075100  0.306960  0.977360  1.0  -0.0186
  C  C1311  1  0.037770  0.243650  0.016230  1.0  0.2653
  C  C1312  1  0.936700  0.478100  0.959200  1.0  0.0024
  C  C1313  1  0.996110  0.218590  0.049910  1.0  -0.0336
  C  C1314  1  0.040870  0.199330  0.008870  1.0  -0.0111
  C  C1315  1  0.997210  0.174770  0.039450  1.0  0.6471
  C  C1316  1  0.049010  0.335430  0.973870  1.0  -0.1069
  C  C1317  1  0.074880  0.274780  0.985100  1.0  0.5862
  C  C1318  1  0.965360  0.453520  0.961840  1.0  -0.2096
  C  C1319  1  0.104400  0.308860  0.970480  1.0  0.0311
  C  C1320  1  0.883980  0.502020  0.951600  1.0  0.313
  C  C1321  1  0.053530  0.222110  0.000590  1.0  -0.1341
  C  C1322  1  0.009370  0.241590  0.041810  1.0  -0.1142
  C  C1323  1  0.920720  0.446520  0.952120  1.0  -0.0168
  C  C1324  1  0.455460  0.674620  0.448380  1.0  -0.1572
  C  C1325  1  0.458310  0.594630  0.582810  1.0  0.1272
  C  C1326  1  0.533000  0.756840  0.512460  1.0  -0.1479
  C  C1327  1  0.454120  0.655680  0.414480  1.0  -0.0607
  C  C1328  1  0.464150  0.617970  0.553190  1.0  -0.1539
  C  C1329  1  0.460610  0.616510  0.526650  1.0  0.5605
  C  C1330  1  0.460040  0.644360  0.471220  1.0  0.2394
  C  C1331  1  0.477360  0.640580  0.575100  1.0  -0.0136
  C  C1332  1  0.516230  0.702350  0.537770  1.0  0.2642
  C  C1333  1  0.459200  0.626000  0.436700  1.0  -0.0034
  C  C1334  1  0.549910  0.735390  0.496110  1.0  -0.032
  C  C1335  1  0.508870  0.750930  0.540870  1.0  -0.0137
  C  C1336  1  0.539450  0.788570  0.497210  1.0  0.6507
  C  C1337  1  0.473870  0.641690  0.549010  1.0  -0.1036
  C  C1338  1  0.485100  0.665240  0.574880  1.0  0.5883
  C  C1339  1  0.461840  0.619280  0.465360  1.0  -0.2084
  C  C1340  1  0.470480  0.616260  0.604400  1.0  0.033
  C  C1341  1  0.451600  0.662400  0.383980  1.0  0.3048
  C  C1342  1  0.500590  0.723770  0.553530  1.0  -0.1419
  C  C1343  1  0.541810  0.707230  0.509370  1.0  -0.1114
  C  C1344  1  0.452120  0.680640  0.420720  1.0  -0.0178
  C  C1345  1  0.174620  0.448380  0.955460  1.0  -0.1546
  C  C1346  1  0.094630  0.582810  0.958310  1.0  0.1198
  C  C1347  1  0.256840  0.512460  0.033000  1.0  -0.1406
  C  C1348  1  0.155680  0.414480  0.954120  1.0  -0.058
  C  C1349  1  0.117970  0.553190  0.964150  1.0  -0.1512
  C  C1350  1  0.116510  0.526650  0.960610  1.0  0.5647
  C  C1351  1  0.144360  0.471220  0.960040  1.0  0.2383
  C  C1352  1  0.140580  0.575100  0.977360  1.0  -0.0129
  C  C1353  1  0.202350  0.537770  0.016230  1.0  0.2656
  C  C1354  1  0.126000  0.436700  0.959200  1.0  0.0004
  C  C1355  1  0.235390  0.496110  0.049910  1.0  -0.0305
  C  C1356  1  0.250930  0.540870  0.008870  1.0  -0.0103
  C  C1357  1  0.288570  0.497210  0.039450  1.0  0.6508
  C  C1358  1  0.141690  0.549010  0.973870  1.0  -0.1074
  C  C1359  1  0.165240  0.574880  0.985100  1.0  0.5799
  C  C1360  1  0.119280  0.465360  0.961840  1.0  -0.2137
  C  C1361  1  0.116260  0.604400  0.970480  1.0  0.032
  C  C1362  1  0.162400  0.383980  0.951600  1.0  0.3134
  C  C1363  1  0.223770  0.553530  0.000590  1.0  -0.1361
  C  C1364  1  0.207230  0.509370  0.041810  1.0  -0.1138
  C  C1365  1  0.180640  0.420720  0.952120  1.0  -0.0148
  C  C1366  1  0.921540  0.955460  0.448380  1.0  -0.1644
  C  C1367  1  0.864250  0.958310  0.582810  1.0  0.118
  C  C1368  1  0.697700  0.033000  0.512460  1.0  -0.146
  C  C1369  1  0.975720  0.954120  0.414480  1.0  -0.0589
  C  C1370  1  0.864690  0.964150  0.553190  1.0  -0.1551
  C  C1371  1  0.896230  0.960610  0.526650  1.0  0.5633
  C  C1372  1  0.924380  0.960040  0.471220  1.0  0.2415
  C  C1373  1  0.806960  0.977360  0.575100  1.0  -0.0144
  C  C1374  1  0.743650  0.016230  0.537770  1.0  0.2636
  C  C1375  1  0.978100  0.959200  0.436700  1.0  -0.0026
  C  C1376  1  0.718590  0.049910  0.496110  1.0  -0.0308
  C  C1377  1  0.699330  0.008870  0.540870  1.0  -0.0069
  C  C1378  1  0.674770  0.039450  0.497210  1.0  0.6498
  C  C1379  1  0.835430  0.973870  0.549010  1.0  -0.1058
  C  C1380  1  0.774780  0.985100  0.574880  1.0  0.5873
  C  C1381  1  0.953520  0.961840  0.465360  1.0  -0.2116
  C  C1382  1  0.808860  0.970480  0.604400  1.0  0.0297
  C  C1383  1  0.002020  0.951600  0.383980  1.0  0.302
  C  C1384  1  0.722110  0.000590  0.553530  1.0  -0.1394
  C  C1385  1  0.741590  0.041810  0.509370  1.0  -0.1064
  C  C1386  1  0.946520  0.952120  0.420720  1.0  -0.0197
  C  C1387  1  0.455460  0.421540  0.674620  1.0  -0.1603
  C  C1388  1  0.458310  0.364250  0.594630  1.0  0.1243
  C  C1389  1  0.533000  0.197700  0.756840  1.0  -0.1467
  C  C1390  1  0.454120  0.475720  0.655680  1.0  -0.0611
  C  C1391  1  0.464150  0.364690  0.617970  1.0  -0.1546
  C  C1392  1  0.460610  0.396230  0.616510  1.0  0.563
  C  C1393  1  0.460040  0.424380  0.644360  1.0  0.2416
  C  C1394  1  0.477360  0.306960  0.640580  1.0  -0.0152
  C  C1395  1  0.516230  0.243650  0.702350  1.0  0.2632
  C  C1396  1  0.459200  0.478100  0.626000  1.0  -0.001
  C  C1397  1  0.549910  0.218590  0.735390  1.0  -0.0325
  C  C1398  1  0.508870  0.199330  0.750930  1.0  -0.0121
  C  C1399  1  0.539450  0.174770  0.788570  1.0  0.6506
  C  C1400  1  0.473870  0.335430  0.641690  1.0  -0.1042
  C  C1401  1  0.485100  0.274780  0.665240  1.0  0.5862
  C  C1402  1  0.461840  0.453520  0.619280  1.0  -0.2107
  C  C1403  1  0.470480  0.308860  0.616260  1.0  0.0292
  C  C1404  1  0.451600  0.502020  0.662400  1.0  0.3068
  C  C1405  1  0.500590  0.222110  0.723770  1.0  -0.1405
  C  C1406  1  0.541810  0.241590  0.707230  1.0  -0.1115
  C  C1407  1  0.452120  0.446520  0.680640  1.0  -0.0167
  C  C1408  1  0.948380  0.674620  0.421540  1.0  -0.1592
  C  C1409  1  0.082810  0.594630  0.364250  1.0  0.1251
  C  C1410  1  0.012460  0.756840  0.197700  1.0  -0.1403
  C  C1411  1  0.914480  0.655680  0.475720  1.0  -0.0558
  C  C1412  1  0.053190  0.617970  0.364690  1.0  -0.1435
  C  C1413  1  0.026650  0.616510  0.396230  1.0  0.5715
  C  C1414  1  0.971220  0.644360  0.424380  1.0  0.2385
  C  C1415  1  0.075100  0.640580  0.306960  1.0  -0.0163
  C  C1416  1  0.037770  0.702350  0.243650  1.0  0.2635
  C  C1417  1  0.936700  0.626000  0.478100  1.0  -0.0023
  C  C1418  1  0.996110  0.735390  0.218590  1.0  -0.0293
  C  C1419  1  0.040870  0.750930  0.199330  1.0  -0.0088
  C  C1420  1  0.997210  0.788570  0.174770  1.0  0.6502
  C  C1421  1  0.049010  0.641690  0.335430  1.0  -0.1084
  C  C1422  1  0.074880  0.665240  0.274780  1.0  0.5883
  C  C1423  1  0.965360  0.619280  0.453520  1.0  -0.2159
  C  C1424  1  0.104400  0.616260  0.308860  1.0  0.0306
  C  C1425  1  0.883980  0.662400  0.502020  1.0  0.312
  C  C1426  1  0.053530  0.723770  0.222110  1.0  -0.1301
  C  C1427  1  0.009370  0.707230  0.241590  1.0  -0.1079
  C  C1428  1  0.920720  0.680640  0.446520  1.0  -0.0193
  C  C1429  1  0.448380  0.455460  0.921540  1.0  -0.1631
  C  C1430  1  0.582810  0.458310  0.864250  1.0  0.1186
  C  C1431  1  0.512460  0.533000  0.697700  1.0  -0.1444
  C  C1432  1  0.414480  0.454120  0.975720  1.0  -0.0585
  C  C1433  1  0.553190  0.464150  0.864690  1.0  -0.1539
  C  C1434  1  0.526650  0.460610  0.896230  1.0  0.5625
  C  C1435  1  0.471220  0.460040  0.924380  1.0  0.2411
  C  C1436  1  0.575100  0.477360  0.806960  1.0  -0.0172
  C  C1437  1  0.537770  0.516230  0.743650  1.0  0.2648
  C  C1438  1  0.436700  0.459200  0.978100  1.0  -0.0049
  C  C1439  1  0.496110  0.549910  0.718590  1.0  -0.0286
  C  C1440  1  0.540870  0.508870  0.699330  1.0  -0.013
  C  C1441  1  0.497210  0.539450  0.674770  1.0  0.6517
  C  C1442  1  0.549010  0.473870  0.835430  1.0  -0.1068
  C  C1443  1  0.574880  0.485100  0.774780  1.0  0.5861
  C  C1444  1  0.465360  0.461840  0.953520  1.0  -0.2123
  C  C1445  1  0.604400  0.470480  0.808860  1.0  0.0323
  C  C1446  1  0.383980  0.451600  0.002020  1.0  0.3022
  C  C1447  1  0.553530  0.500590  0.722110  1.0  -0.1357
  C  C1448  1  0.509370  0.541810  0.741590  1.0  -0.11
  C  C1449  1  0.420720  0.452120  0.946520  1.0  -0.0196
  C  C1450  1  0.955460  0.948380  0.174620  1.0  -0.1578
  C  C1451  1  0.958310  0.082810  0.094630  1.0  0.1237
  C  C1452  1  0.033000  0.012460  0.256840  1.0  -0.1478
  C  C1453  1  0.954120  0.914480  0.155680  1.0  -0.0605
  C  C1454  1  0.964150  0.053190  0.117970  1.0  -0.1531
  C  C1455  1  0.960610  0.026650  0.116510  1.0  0.5651
  C  C1456  1  0.960040  0.971220  0.144360  1.0  0.2414
  C  C1457  1  0.977360  0.075100  0.140580  1.0  -0.0128
  C  C1458  1  0.016230  0.037770  0.202350  1.0  0.2674
  C  C1459  1  0.959200  0.936700  0.126000  1.0  0.0009
  C  C1460  1  0.049910  0.996110  0.235390  1.0  -0.0326
  C  C1461  1  0.008870  0.040870  0.250930  1.0  -0.0134
  C  C1462  1  0.039450  0.997210  0.288570  1.0  0.6504
  C  C1463  1  0.973870  0.049010  0.141690  1.0  -0.1053
  C  C1464  1  0.985100  0.074880  0.165240  1.0  0.5783
  C  C1465  1  0.961840  0.965360  0.119280  1.0  -0.213
  C  C1466  1  0.970480  0.104400  0.116260  1.0  0.0301
  C  C1467  1  0.951600  0.883980  0.162400  1.0  0.3029
  C  C1468  1  0.000590  0.053530  0.223770  1.0  -0.1379
  C  C1469  1  0.041810  0.009370  0.207230  1.0  -0.1115
  C  C1470  1  0.952120  0.920720  0.180640  1.0  -0.0192
  C  C1471  1  0.421540  0.174620  0.948380  1.0  -0.1606
  C  C1472  1  0.364250  0.094630  0.082810  1.0  0.1251
  C  C1473  1  0.197700  0.256840  0.012460  1.0  -0.1468
  C  C1474  1  0.475720  0.155680  0.914480  1.0  -0.0577
  C  C1475  1  0.364690  0.117970  0.053190  1.0  -0.1471
  C  C1476  1  0.396230  0.116510  0.026650  1.0  0.5692
  C  C1477  1  0.424380  0.144360  0.971220  1.0  0.2397
  C  C1478  1  0.306960  0.140580  0.075100  1.0  -0.0137
  C  C1479  1  0.243650  0.202350  0.037770  1.0  0.2675
  C  C1480  1  0.478100  0.126000  0.936700  1.0  -0.0013
  C  C1481  1  0.218590  0.235390  0.996110  1.0  -0.0266
  C  C1482  1  0.199330  0.250930  0.040870  1.0  -0.0129
  C  C1483  1  0.174770  0.288570  0.997210  1.0  0.6519
  C  C1484  1  0.335430  0.141690  0.049010  1.0  -0.1088
  C  C1485  1  0.274780  0.165240  0.074880  1.0  0.5913
  C  C1486  1  0.453520  0.119280  0.965360  1.0  -0.2126
  C  C1487  1  0.308860  0.116260  0.104400  1.0  0.0276
  C  C1488  1  0.502020  0.162400  0.883980  1.0  0.3092
  C  C1489  1  0.222110  0.223770  0.053530  1.0  -0.1377
  C  C1490  1  0.241590  0.207230  0.009370  1.0  -0.1062
  C  C1491  1  0.446520  0.180640  0.920720  1.0  -0.019
  C  C1492  1  0.674620  0.921540  0.455460  1.0  -0.158
  C  C1493  1  0.594630  0.864250  0.458310  1.0  0.1208
  C  C1494  1  0.756840  0.697700  0.533000  1.0  -0.1453
  C  C1495  1  0.655680  0.975720  0.454120  1.0  -0.0617
  C  C1496  1  0.617970  0.864690  0.464150  1.0  -0.1545
  C  C1497  1  0.616510  0.896230  0.460610  1.0  0.5616
  C  C1498  1  0.644360  0.924380  0.460040  1.0  0.2367
  C  C1499  1  0.640580  0.806960  0.477360  1.0  -0.0175
  C  C1500  1  0.702350  0.743650  0.516230  1.0  0.2686
  C  C1501  1  0.626000  0.978100  0.459200  1.0  -0.0002
  C  C1502  1  0.735390  0.718590  0.549910  1.0  -0.0268
  C  C1503  1  0.750930  0.699330  0.508870  1.0  -0.0118
  C  C1504  1  0.788570  0.674770  0.539450  1.0  0.6498
  C  C1505  1  0.641690  0.835430  0.473870  1.0  -0.1093
  C  C1506  1  0.665240  0.774780  0.485100  1.0  0.5857
  C  C1507  1  0.619280  0.953520  0.461840  1.0  -0.2131
  C  C1508  1  0.616260  0.808860  0.470480  1.0  0.0306
  C  C1509  1  0.662400  0.002020  0.451600  1.0  0.3113
  C  C1510  1  0.723770  0.722110  0.500590  1.0  -0.1402
  C  C1511  1  0.707230  0.741590  0.541810  1.0  -0.1124
  C  C1512  1  0.680640  0.946520  0.452120  1.0  -0.0114
  C  C1513  1  0.448380  0.921540  0.174620  1.0  -0.1649
  C  C1514  1  0.582810  0.864250  0.094630  1.0  0.1247
  C  C1515  1  0.512460  0.697700  0.256840  1.0  -0.1446
  C  C1516  1  0.414480  0.975720  0.155680  1.0  -0.0566
  C  C1517  1  0.553190  0.864690  0.117970  1.0  -0.1517
  C  C1518  1  0.526650  0.896230  0.116510  1.0  0.5636
  C  C1519  1  0.471220  0.924380  0.144360  1.0  0.2391
  C  C1520  1  0.575100  0.806960  0.140580  1.0  -0.0167
  C  C1521  1  0.537770  0.743650  0.202350  1.0  0.2649
  C  C1522  1  0.436700  0.978100  0.126000  1.0  0.0024
  C  C1523  1  0.496110  0.718590  0.235390  1.0  -0.0308
  C  C1524  1  0.540870  0.699330  0.250930  1.0  -0.0105
  C  C1525  1  0.497210  0.674770  0.288570  1.0  0.6493
  C  C1526  1  0.549010  0.835430  0.141690  1.0  -0.1071
  C  C1527  1  0.574880  0.774780  0.165240  1.0  0.5864
  C  C1528  1  0.465360  0.953520  0.119280  1.0  -0.2098
  C  C1529  1  0.604400  0.808860  0.116260  1.0  0.031
  C  C1530  1  0.383980  0.002020  0.162400  1.0  0.3139
  C  C1531  1  0.553530  0.722110  0.223770  1.0  -0.1335
  C  C1532  1  0.509370  0.741590  0.207230  1.0  -0.1102
  C  C1533  1  0.420720  0.946520  0.180640  1.0  -0.0197
  C  C1534  1  0.955460  0.174620  0.921540  1.0  -0.1581
  C  C1535  1  0.958310  0.094630  0.864250  1.0  0.1261
  C  C1536  1  0.033000  0.256840  0.697700  1.0  -0.1465
  C  C1537  1  0.954120  0.155680  0.975720  1.0  -0.0609
  C  C1538  1  0.964150  0.117970  0.864690  1.0  -0.1537
  C  C1539  1  0.960610  0.116510  0.896230  1.0  0.5611
  C  C1540  1  0.960040  0.144360  0.924380  1.0  0.2394
  C  C1541  1  0.977360  0.140580  0.806960  1.0  -0.016
  C  C1542  1  0.016230  0.202350  0.743650  1.0  0.2623
  C  C1543  1  0.959200  0.126000  0.978100  1.0  -0.002
  C  C1544  1  0.049910  0.235390  0.718590  1.0  -0.0303
  C  C1545  1  0.008870  0.250930  0.699330  1.0  -0.0158
  C  C1546  1  0.039450  0.288570  0.674770  1.0  0.6503
  C  C1547  1  0.973870  0.141690  0.835430  1.0  -0.1029
  C  C1548  1  0.985100  0.165240  0.774780  1.0  0.5868
  C  C1549  1  0.961840  0.119280  0.953520  1.0  -0.2079
  C  C1550  1  0.970480  0.116260  0.808860  1.0  0.0347
  C  C1551  1  0.951600  0.162400  0.002020  1.0  0.3031
  C  C1552  1  0.000590  0.223770  0.722110  1.0  -0.1412
  C  C1553  1  0.041810  0.207230  0.741590  1.0  -0.1126
  C  C1554  1  0.952120  0.180640  0.946520  1.0  -0.0173
  C  C1555  1  0.421540  0.948380  0.455460  1.0  -0.1624
  C  C1556  1  0.364250  0.082810  0.458310  1.0  0.1259
  C  C1557  1  0.197700  0.012460  0.533000  1.0  -0.1455
  C  C1558  1  0.475720  0.914480  0.454120  1.0  -0.0609
  C  C1559  1  0.364690  0.053190  0.464150  1.0  -0.1542
  C  C1560  1  0.396230  0.026650  0.460610  1.0  0.5657
  C  C1561  1  0.424380  0.971220  0.460040  1.0  0.2417
  C  C1562  1  0.306960  0.075100  0.477360  1.0  -0.016
  C  C1563  1  0.243650  0.037770  0.516230  1.0  0.2655
  C  C1564  1  0.478100  0.936700  0.459200  1.0  0.006
  C  C1565  1  0.218590  0.996110  0.549910  1.0  -0.033
  C  C1566  1  0.199330  0.040870  0.508870  1.0  -0.0099
  C  C1567  1  0.174770  0.997210  0.539450  1.0  0.6466
  C  C1568  1  0.335430  0.049010  0.473870  1.0  -0.1082
  C  C1569  1  0.274780  0.074880  0.485100  1.0  0.5833
  C  C1570  1  0.453520  0.965360  0.461840  1.0  -0.2109
  C  C1571  1  0.308860  0.104400  0.470480  1.0  0.0292
  C  C1572  1  0.502020  0.883980  0.451600  1.0  0.3098
  C  C1573  1  0.222110  0.053530  0.500590  1.0  -0.1363
  C  C1574  1  0.241590  0.009370  0.541810  1.0  -0.1118
  C  C1575  1  0.446520  0.920720  0.452120  1.0  -0.0191
  C  C1576  1  0.674620  0.455460  0.948380  1.0  -0.1633
  C  C1577  1  0.594630  0.458310  0.082810  1.0  0.1221
  C  C1578  1  0.756840  0.533000  0.012460  1.0  -0.1456
  C  C1579  1  0.655680  0.454120  0.914480  1.0  -0.0575
  C  C1580  1  0.617970  0.464150  0.053190  1.0  -0.1552
  C  C1581  1  0.616510  0.460610  0.026650  1.0  0.5604
  C  C1582  1  0.644360  0.460040  0.971220  1.0  0.2406
  C  C1583  1  0.640580  0.477360  0.075100  1.0  -0.013
  C  C1584  1  0.702350  0.516230  0.037770  1.0  0.2647
  C  C1585  1  0.626000  0.459200  0.936700  1.0  0.0032
  C  C1586  1  0.735390  0.549910  0.996110  1.0  -0.0311
  C  C1587  1  0.750930  0.508870  0.040870  1.0  -0.0123
  C  C1588  1  0.788570  0.539450  0.997210  1.0  0.6499
  C  C1589  1  0.641690  0.473870  0.049010  1.0  -0.1054
  C  C1590  1  0.665240  0.485100  0.074880  1.0  0.5864
  C  C1591  1  0.619280  0.461840  0.965360  1.0  -0.2053
  C  C1592  1  0.616260  0.470480  0.104400  1.0  0.0284
  C  C1593  1  0.662400  0.451600  0.883980  1.0  0.3042
  C  C1594  1  0.723770  0.500590  0.053530  1.0  -0.1448
  C  C1595  1  0.707230  0.541810  0.009370  1.0  -0.1081
  C  C1596  1  0.680640  0.452120  0.920720  1.0  -0.018
  C  C1597  1  0.448380  0.174620  0.455460  1.0  -0.1606
  C  C1598  1  0.582810  0.094630  0.458310  1.0  0.1223
  C  C1599  1  0.512460  0.256840  0.533000  1.0  -0.1386
  C  C1600  1  0.414480  0.155680  0.454120  1.0  -0.0567
  C  C1601  1  0.553190  0.117970  0.464150  1.0  -0.1504
  C  C1602  1  0.526650  0.116510  0.460610  1.0  0.5639
  C  C1603  1  0.471220  0.144360  0.460040  1.0  0.2376
  C  C1604  1  0.575100  0.140580  0.477360  1.0  -0.0164
  C  C1605  1  0.537770  0.202350  0.516230  1.0  0.2634
  C  C1606  1  0.436700  0.126000  0.459200  1.0  -0.0012
  C  C1607  1  0.496110  0.235390  0.549910  1.0  -0.0332
  C  C1608  1  0.540870  0.250930  0.508870  1.0  -0.0092
  C  C1609  1  0.497210  0.288570  0.539450  1.0  0.6496
  C  C1610  1  0.549010  0.141690  0.473870  1.0  -0.1064
  C  C1611  1  0.574880  0.165240  0.485100  1.0  0.5888
  C  C1612  1  0.465360  0.119280  0.461840  1.0  -0.2133
  C  C1613  1  0.604400  0.116260  0.470480  1.0  0.0322
  C  C1614  1  0.383980  0.162400  0.451600  1.0  0.3126
  C  C1615  1  0.553530  0.223770  0.500590  1.0  -0.1311
  C  C1616  1  0.509370  0.207230  0.541810  1.0  -0.1125
  C  C1617  1  0.420720  0.180640  0.452120  1.0  -0.0174
  C  C1618  1  0.955460  0.921540  0.948380  1.0  -0.158
  C  C1619  1  0.958310  0.864250  0.082810  1.0  0.1237
  C  C1620  1  0.033000  0.697700  0.012460  1.0  -0.1467
  C  C1621  1  0.954120  0.975720  0.914480  1.0  -0.0618
  C  C1622  1  0.964150  0.864690  0.053190  1.0  -0.1553
  C  C1623  1  0.960610  0.896230  0.026650  1.0  0.5617
  C  C1624  1  0.960040  0.924380  0.971220  1.0  0.2412
  C  C1625  1  0.977360  0.806960  0.075100  1.0  -0.0151
  C  C1626  1  0.016230  0.743650  0.037770  1.0  0.2649
  C  C1627  1  0.959200  0.978100  0.936700  1.0  -0.0006
  C  C1628  1  0.049910  0.718590  0.996110  1.0  -0.0335
  C  C1629  1  0.008870  0.699330  0.040870  1.0  -0.0124
  C  C1630  1  0.039450  0.674770  0.997210  1.0  0.6508
  C  C1631  1  0.973870  0.835430  0.049010  1.0  -0.1057
  C  C1632  1  0.985100  0.774780  0.074880  1.0  0.5867
  C  C1633  1  0.961840  0.953520  0.965360  1.0  -0.2104
  C  C1634  1  0.970480  0.808860  0.104400  1.0  0.0296
  C  C1635  1  0.951600  0.002020  0.883980  1.0  0.307
  C  C1636  1  0.000590  0.722110  0.053530  1.0  -0.1396
  C  C1637  1  0.041810  0.741590  0.009370  1.0  -0.1103
  C  C1638  1  0.952120  0.946520  0.920720  1.0  -0.0165
  C  C1639  1  0.421540  0.455460  0.174620  1.0  -0.1654
  C  C1640  1  0.364250  0.458310  0.094630  1.0  0.119
  C  C1641  1  0.197700  0.533000  0.256840  1.0  -0.1466
  C  C1642  1  0.475720  0.454120  0.155680  1.0  -0.06
  C  C1643  1  0.364690  0.464150  0.117970  1.0  -0.155
  C  C1644  1  0.396230  0.460610  0.116510  1.0  0.5627
  C  C1645  1  0.424380  0.460040  0.144360  1.0  0.2414
  C  C1646  1  0.306960  0.477360  0.140580  1.0  -0.0148
  C  C1647  1  0.243650  0.516230  0.202350  1.0  0.2631
  C  C1648  1  0.478100  0.459200  0.126000  1.0  0.0006
  C  C1649  1  0.218590  0.549910  0.235390  1.0  -0.0308
  C  C1650  1  0.199330  0.508870  0.250930  1.0  -0.0067
  C  C1651  1  0.174770  0.539450  0.288570  1.0  0.6493
  C  C1652  1  0.335430  0.473870  0.141690  1.0  -0.105
  C  C1653  1  0.274780  0.485100  0.165240  1.0  0.5868
  C  C1654  1  0.453520  0.461840  0.119280  1.0  -0.2097
  C  C1655  1  0.308860  0.470480  0.116260  1.0  0.03
  C  C1656  1  0.502020  0.451600  0.162400  1.0  0.3027
  C  C1657  1  0.222110  0.500590  0.223770  1.0  -0.1396
  C  C1658  1  0.241590  0.541810  0.207230  1.0  -0.1072
  C  C1659  1  0.446520  0.452120  0.180640  1.0  -0.0214
  C  C1660  1  0.674620  0.948380  0.921540  1.0  -0.1545
  C  C1661  1  0.594630  0.082810  0.864250  1.0  0.1223
  C  C1662  1  0.756840  0.012460  0.697700  1.0  -0.1429
  C  C1663  1  0.655680  0.914480  0.975720  1.0  -0.054
  C  C1664  1  0.617970  0.053190  0.864690  1.0  -0.1427
  C  C1665  1  0.616510  0.026650  0.896230  1.0  0.5684
  C  C1666  1  0.644360  0.971220  0.924380  1.0  0.2384
  C  C1667  1  0.640580  0.075100  0.806960  1.0  -0.0127
  C  C1668  1  0.702350  0.037770  0.743650  1.0  0.2658
  C  C1669  1  0.626000  0.936700  0.978100  1.0  -0.0023
  C  C1670  1  0.735390  0.996110  0.718590  1.0  -0.0287
  C  C1671  1  0.750930  0.040870  0.699330  1.0  -0.0104
  C  C1672  1  0.788570  0.997210  0.674770  1.0  0.652
  C  C1673  1  0.641690  0.049010  0.835430  1.0  -0.1093
  C  C1674  1  0.665240  0.074880  0.774780  1.0  0.5805
  C  C1675  1  0.619280  0.965360  0.953520  1.0  -0.2158
  C  C1676  1  0.616260  0.104400  0.808860  1.0  0.0312
  C  C1677  1  0.662400  0.883980  0.002020  1.0  0.3145
  C  C1678  1  0.723770  0.053530  0.722110  1.0  -0.1359
  C  C1679  1  0.707230  0.009370  0.741590  1.0  -0.1098
  C  C1680  1  0.680640  0.920720  0.946520  1.0  -0.0167
  N  N1681  1  0.391490  0.538510  0.162930  1.0  -0.3666
  N  N1682  1  0.501200  0.536380  0.102760  1.0  -0.3502
  N  N1683  1  0.453060  0.492720  0.230220  1.0  -0.3527
  N  N1684  1  0.038510  0.891490  0.907070  1.0  -0.3599
  N  N1685  1  0.036380  0.001200  0.859660  1.0  -0.3496
  N  N1686  1  0.992720  0.953060  0.824000  1.0  -0.3553
  N  N1687  1  0.662930  0.907070  0.891490  1.0  -0.3651
  N  N1688  1  0.602760  0.859660  0.001200  1.0  -0.3531
  N  N1689  1  0.730220  0.824000  0.953060  1.0  -0.3514
  N  N1690  1  0.407070  0.162930  0.538510  1.0  -0.3672
  N  N1691  1  0.359660  0.102760  0.536380  1.0  -0.3555
  N  N1692  1  0.324000  0.230220  0.492720  1.0  -0.3553
  N  N1693  1  0.391490  0.162930  0.907070  1.0  -0.3654
  N  N1694  1  0.501200  0.102760  0.859660  1.0  -0.353
  N  N1695  1  0.453060  0.230220  0.824000  1.0  -0.3558
  N  N1696  1  0.038510  0.907070  0.162930  1.0  -0.3627
  N  N1697  1  0.036380  0.859660  0.102760  1.0  -0.3491
  N  N1698  1  0.992720  0.824000  0.230220  1.0  -0.3541
  N  N1699  1  0.662930  0.891490  0.538510  1.0  -0.3572
  N  N1700  1  0.602760  0.001200  0.536380  1.0  -0.3499
  N  N1701  1  0.730220  0.953060  0.492720  1.0  -0.3534
  N  N1702  1  0.407070  0.538510  0.891490  1.0  -0.3694
  N  N1703  1  0.359660  0.536380  0.001200  1.0  -0.351
  N  N1704  1  0.324000  0.492720  0.953060  1.0  -0.3524
  N  N1705  1  0.391490  0.907070  0.538510  1.0  -0.3668
  N  N1706  1  0.501200  0.859660  0.536380  1.0  -0.3546
  N  N1707  1  0.453060  0.824000  0.492720  1.0  -0.3551
  N  N1708  1  0.038510  0.162930  0.891490  1.0  -0.3655
  N  N1709  1  0.036380  0.102760  0.001200  1.0  -0.3516
  N  N1710  1  0.992720  0.230220  0.953060  1.0  -0.3537
  N  N1711  1  0.662930  0.538510  0.907070  1.0  -0.366
  N  N1712  1  0.602760  0.536380  0.859660  1.0  -0.3522
  N  N1713  1  0.730220  0.492720  0.824000  1.0  -0.3512
  N  N1714  1  0.407070  0.891490  0.162930  1.0  -0.3566
  N  N1715  1  0.359660  0.001200  0.102760  1.0  -0.3548
  N  N1716  1  0.324000  0.953060  0.230220  1.0  -0.3543
  N  N1717  1  0.538510  0.391490  0.662930  1.0  -0.3594
  N  N1718  1  0.536380  0.501200  0.602760  1.0  -0.3504
  N  N1719  1  0.492720  0.453060  0.730220  1.0  -0.3552
  N  N1720  1  0.891490  0.038510  0.407070  1.0  -0.3662
  N  N1721  1  0.001200  0.036380  0.359660  1.0  -0.35
  N  N1722  1  0.953060  0.992720  0.324000  1.0  -0.3514
  N  N1723  1  0.907070  0.662930  0.391490  1.0  -0.3679
  N  N1724  1  0.859660  0.602760  0.501200  1.0  -0.3554
  N  N1725  1  0.824000  0.730220  0.453060  1.0  -0.3561
  N  N1726  1  0.162930  0.407070  0.038510  1.0  -0.3643
  N  N1727  1  0.102760  0.359660  0.036380  1.0  -0.353
  N  N1728  1  0.230220  0.324000  0.992720  1.0  -0.3508
  N  N1729  1  0.162930  0.391490  0.407070  1.0  -0.3571
  N  N1730  1  0.102760  0.501200  0.359660  1.0  -0.3495
  N  N1731  1  0.230220  0.453060  0.324000  1.0  -0.3531
  N  N1732  1  0.907070  0.038510  0.662930  1.0  -0.3666
  N  N1733  1  0.859660  0.036380  0.602760  1.0  -0.351
  N  N1734  1  0.824000  0.992720  0.730220  1.0  -0.3519
  N  N1735  1  0.891490  0.662930  0.038510  1.0  -0.3654
  N  N1736  1  0.001200  0.602760  0.036380  1.0  -0.3527
  N  N1737  1  0.953060  0.730220  0.992720  1.0  -0.3556
  N  N1738  1  0.538510  0.407070  0.391490  1.0  -0.3637
  N  N1739  1  0.536380  0.359660  0.501200  1.0  -0.3488
  N  N1740  1  0.492720  0.324000  0.453060  1.0  -0.3545
  N  N1741  1  0.907070  0.391490  0.038510  1.0  -0.3577
  N  N1742  1  0.859660  0.501200  0.036380  1.0  -0.355
  N  N1743  1  0.824000  0.453060  0.992720  1.0  -0.354
  N  N1744  1  0.162930  0.038510  0.391490  1.0  -0.3684
  N  N1745  1  0.102760  0.036380  0.501200  1.0  -0.3527
  N  N1746  1  0.230220  0.992720  0.453060  1.0  -0.3502
  N  N1747  1  0.538510  0.662930  0.407070  1.0  -0.3653
  N  N1748  1  0.536380  0.602760  0.359660  1.0  -0.3512
  N  N1749  1  0.492720  0.730220  0.324000  1.0  -0.3546
  N  N1750  1  0.891490  0.407070  0.662930  1.0  -0.3657
  N  N1751  1  0.001200  0.359660  0.602760  1.0  -0.3543
  N  N1752  1  0.953060  0.324000  0.730220  1.0  -0.3562
  N  N1753  1  0.461490  0.608510  0.337070  1.0  -0.3602
  N  N1754  1  0.463620  0.498800  0.397240  1.0  -0.3519
  N  N1755  1  0.507280  0.546940  0.269780  1.0  -0.354
  N  N1756  1  0.108510  0.961490  0.592930  1.0  -0.367
  N  N1757  1  0.998800  0.963620  0.640340  1.0  -0.3525
  N  N1758  1  0.046940  0.007280  0.676000  1.0  -0.3506
  N  N1759  1  0.092930  0.337070  0.608510  1.0  -0.3649
  N  N1760  1  0.140340  0.397240  0.498800  1.0  -0.3524
  N  N1761  1  0.176000  0.269780  0.546940  1.0  -0.3557
  N  N1762  1  0.837070  0.592930  0.961490  1.0  -0.368
  N  N1763  1  0.897240  0.640340  0.963620  1.0  -0.3519
  N  N1764  1  0.769780  0.676000  0.007280  1.0  -0.3522
  N  N1765  1  0.837070  0.608510  0.592930  1.0  -0.3566
  N  N1766  1  0.897240  0.498800  0.640340  1.0  -0.3489
  N  N1767  1  0.769780  0.546940  0.676000  1.0  -0.3551
  N  N1768  1  0.092930  0.961490  0.337070  1.0  -0.3674
  N  N1769  1  0.140340  0.963620  0.397240  1.0  -0.3549
  N  N1770  1  0.176000  0.007280  0.269780  1.0  -0.3525
  N  N1771  1  0.108510  0.337070  0.961490  1.0  -0.369
  N  N1772  1  0.998800  0.397240  0.963620  1.0  -0.35
  N  N1773  1  0.046940  0.269780  0.007280  1.0  -0.3544
  N  N1774  1  0.461490  0.592930  0.608510  1.0  -0.3636
  N  N1775  1  0.463620  0.640340  0.498800  1.0  -0.3512
  N  N1776  1  0.507280  0.676000  0.546940  1.0  -0.3522
  N  N1777  1  0.092930  0.608510  0.961490  1.0  -0.3593
  N  N1778  1  0.140340  0.498800  0.963620  1.0  -0.3533
  N  N1779  1  0.176000  0.546940  0.007280  1.0  -0.355
  N  N1780  1  0.837070  0.961490  0.608510  1.0  -0.3651
  N  N1781  1  0.897240  0.963620  0.498800  1.0  -0.3531
  N  N1782  1  0.769780  0.007280  0.546940  1.0  -0.3545
  N  N1783  1  0.461490  0.337070  0.592930  1.0  -0.3659
  N  N1784  1  0.463620  0.397240  0.640340  1.0  -0.3521
  N  N1785  1  0.507280  0.269780  0.676000  1.0  -0.355
  N  N1786  1  0.108510  0.592930  0.337070  1.0  -0.3664
  N  N1787  1  0.998800  0.640340  0.397240  1.0  -0.3528
  N  N1788  1  0.046940  0.676000  0.269780  1.0  -0.3523
  N  N1789  1  0.608510  0.461490  0.837070  1.0  -0.3673
  N  N1790  1  0.498800  0.463620  0.897240  1.0  -0.3519
  N  N1791  1  0.546940  0.507280  0.769780  1.0  -0.3505
  N  N1792  1  0.961490  0.108510  0.092930  1.0  -0.3602
  N  N1793  1  0.963620  0.998800  0.140340  1.0  -0.3512
  N  N1794  1  0.007280  0.046940  0.176000  1.0  -0.3547
  N  N1795  1  0.337070  0.092930  0.108510  1.0  -0.3637
  N  N1796  1  0.397240  0.140340  0.998800  1.0  -0.352
  N  N1797  1  0.269780  0.176000  0.046940  1.0  -0.3525
  N  N1798  1  0.592930  0.837070  0.461490  1.0  -0.3664
  N  N1799  1  0.640340  0.897240  0.463620  1.0  -0.3531
  N  N1800  1  0.676000  0.769780  0.507280  1.0  -0.3567
  N  N1801  1  0.608510  0.837070  0.092930  1.0  -0.3662
  N  N1802  1  0.498800  0.897240  0.140340  1.0  -0.3505
  N  N1803  1  0.546940  0.769780  0.176000  1.0  -0.3547
  N  N1804  1  0.961490  0.092930  0.837070  1.0  -0.3658
  N  N1805  1  0.963620  0.140340  0.897240  1.0  -0.3523
  N  N1806  1  0.007280  0.176000  0.769780  1.0  -0.3527
  N  N1807  1  0.337070  0.108510  0.461490  1.0  -0.358
  N  N1808  1  0.397240  0.998800  0.463620  1.0  -0.3489
  N  N1809  1  0.269780  0.046940  0.507280  1.0  -0.3552
  N  N1810  1  0.592930  0.461490  0.108510  1.0  -0.3657
  N  N1811  1  0.640340  0.463620  0.998800  1.0  -0.3546
  N  N1812  1  0.676000  0.507280  0.046940  1.0  -0.3524
  N  N1813  1  0.608510  0.092930  0.461490  1.0  -0.3669
  N  N1814  1  0.498800  0.140340  0.463620  1.0  -0.3544
  N  N1815  1  0.546940  0.176000  0.507280  1.0  -0.3533
  N  N1816  1  0.961490  0.837070  0.108510  1.0  -0.3655
  N  N1817  1  0.963620  0.897240  0.998800  1.0  -0.3522
  N  N1818  1  0.007280  0.769780  0.046940  1.0  -0.3548
  N  N1819  1  0.337070  0.461490  0.092930  1.0  -0.3673
  N  N1820  1  0.397240  0.463620  0.140340  1.0  -0.3535
  N  N1821  1  0.269780  0.507280  0.176000  1.0  -0.3543
  N  N1822  1  0.592930  0.108510  0.837070  1.0  -0.3598
  N  N1823  1  0.640340  0.998800  0.897240  1.0  -0.353
  N  N1824  1  0.676000  0.046940  0.769780  1.0  -0.3538
  O  O1825  1  0.467550  0.546390  0.080150  1.0  -0.4609
  O  O1826  1  0.402280  0.527440  0.244440  1.0  -0.4421
  O  O1827  1  0.530870  0.439570  0.322810  1.0  -0.607
  O  O1828  1  0.487750  0.476490  0.343710  1.0  -0.5618
  O  O1829  1  0.638340  0.549280  0.001900  1.0  -0.6428
  O  O1830  1  0.619780  0.548020  0.971620  1.0  -0.5891
  O  O1831  1  0.046390  0.967550  0.905910  1.0  -0.4653
  O  O1832  1  0.027440  0.902280  0.825840  1.0  -0.4452
  O  O1833  1  0.939570  0.030870  0.706750  1.0  -0.6057
  O  O1834  1  0.976490  0.987750  0.692050  1.0  -0.5643
  O  O1835  1  0.049280  0.138340  0.810480  1.0  -0.6435
  O  O1836  1  0.048020  0.119780  0.860580  1.0  -0.5963
  O  O1837  1  0.580150  0.905910  0.967550  1.0  -0.4622
  O  O1838  1  0.744440  0.825840  0.902280  1.0  -0.4424
  O  O1839  1  0.822810  0.706750  0.030870  1.0  -0.6014
  O  O1840  1  0.843710  0.692050  0.987750  1.0  -0.5635
  O  O1841  1  0.501900  0.810480  0.138340  1.0  -0.6405
  O  O1842  1  0.471620  0.860580  0.119780  1.0  -0.5915
  O  O1843  1  0.405910  0.080150  0.546390  1.0  -0.4621
  O  O1844  1  0.325840  0.244440  0.527440  1.0  -0.4416
  O  O1845  1  0.206750  0.322810  0.439570  1.0  -0.6036
  O  O1846  1  0.192050  0.343710  0.476490  1.0  -0.5652
  O  O1847  1  0.310480  0.001900  0.549280  1.0  -0.6408
  O  O1848  1  0.360580  0.971620  0.548020  1.0  -0.5916
  O  O1849  1  0.467550  0.080150  0.905910  1.0  -0.4641
  O  O1850  1  0.402280  0.244440  0.825840  1.0  -0.4429
  O  O1851  1  0.530870  0.322810  0.706750  1.0  -0.6052
  O  O1852  1  0.487750  0.343710  0.692050  1.0  -0.562
  O  O1853  1  0.638340  0.001900  0.810480  1.0  -0.6407
  O  O1854  1  0.619780  0.971620  0.860580  1.0  -0.5944
  O  O1855  1  0.046390  0.905910  0.080150  1.0  -0.4654
  O  O1856  1  0.027440  0.825840  0.244440  1.0  -0.445
  O  O1857  1  0.939570  0.706750  0.322810  1.0  -0.6076
  O  O1858  1  0.976490  0.692050  0.343710  1.0  -0.5631
  O  O1859  1  0.049280  0.810480  0.001900  1.0  -0.6439
  O  O1860  1  0.048020  0.860580  0.971620  1.0  -0.5956
  O  O1861  1  0.580150  0.967550  0.546390  1.0  -0.4622
  O  O1862  1  0.744440  0.902280  0.527440  1.0  -0.4461
  O  O1863  1  0.822810  0.030870  0.439570  1.0  -0.606
  O  O1864  1  0.843710  0.987750  0.476490  1.0  -0.5636
  O  O1865  1  0.501900  0.138340  0.549280  1.0  -0.6438
  O  O1866  1  0.471620  0.119780  0.548020  1.0  -0.593
  O  O1867  1  0.405910  0.546390  0.967550  1.0  -0.4642
  O  O1868  1  0.325840  0.527440  0.902280  1.0  -0.443
  O  O1869  1  0.206750  0.439570  0.030870  1.0  -0.609
  O  O1870  1  0.192050  0.476490  0.987750  1.0  -0.5659
  O  O1871  1  0.310480  0.549280  0.138340  1.0  -0.6424
  O  O1872  1  0.360580  0.548020  0.119780  1.0  -0.5913
  O  O1873  1  0.467550  0.905910  0.546390  1.0  -0.4623
  O  O1874  1  0.402280  0.825840  0.527440  1.0  -0.4379
  O  O1875  1  0.530870  0.706750  0.439570  1.0  -0.6031
  O  O1876  1  0.487750  0.692050  0.476490  1.0  -0.5625
  O  O1877  1  0.638340  0.810480  0.549280  1.0  -0.642
  O  O1878  1  0.619780  0.860580  0.548020  1.0  -0.5925
  O  O1879  1  0.046390  0.080150  0.967550  1.0  -0.4672
  O  O1880  1  0.027440  0.244440  0.902280  1.0  -0.444
  O  O1881  1  0.939570  0.322810  0.030870  1.0  -0.6038
  O  O1882  1  0.976490  0.343710  0.987750  1.0  -0.5627
  O  O1883  1  0.049280  0.001900  0.138340  1.0  -0.6435
  O  O1884  1  0.048020  0.971620  0.119780  1.0  -0.597
  O  O1885  1  0.580150  0.546390  0.905910  1.0  -0.4622
  O  O1886  1  0.744440  0.527440  0.825840  1.0  -0.4425
  O  O1887  1  0.822810  0.439570  0.706750  1.0  -0.606
  O  O1888  1  0.843710  0.476490  0.692050  1.0  -0.5613
  O  O1889  1  0.501900  0.549280  0.810480  1.0  -0.6386
  O  O1890  1  0.471620  0.548020  0.860580  1.0  -0.591
  O  O1891  1  0.405910  0.967550  0.080150  1.0  -0.4661
  O  O1892  1  0.325840  0.902280  0.244440  1.0  -0.4451
  O  O1893  1  0.206750  0.030870  0.322810  1.0  -0.6068
  O  O1894  1  0.192050  0.987750  0.343710  1.0  -0.5636
  O  O1895  1  0.310480  0.138340  0.001900  1.0  -0.6398
  O  O1896  1  0.360580  0.119780  0.971620  1.0  -0.5901
  O  O1897  1  0.546390  0.467550  0.580150  1.0  -0.4664
  O  O1898  1  0.527440  0.402280  0.744440  1.0  -0.4459
  O  O1899  1  0.439570  0.530870  0.822810  1.0  -0.6054
  O  O1900  1  0.476490  0.487750  0.843710  1.0  -0.5635
  O  O1901  1  0.549280  0.638340  0.501900  1.0  -0.6435
  O  O1902  1  0.548020  0.619780  0.471620  1.0  -0.5961
  O  O1903  1  0.967550  0.046390  0.405910  1.0  -0.4582
  O  O1904  1  0.902280  0.027440  0.325840  1.0  -0.4428
  O  O1905  1  0.030870  0.939570  0.206750  1.0  -0.6072
  O  O1906  1  0.987750  0.976490  0.192050  1.0  -0.562
  O  O1907  1  0.138340  0.049280  0.310480  1.0  -0.6425
  O  O1908  1  0.119780  0.048020  0.360580  1.0  -0.5887
  O  O1909  1  0.905910  0.580150  0.467550  1.0  -0.4621
  O  O1910  1  0.825840  0.744440  0.402280  1.0  -0.4435
  O  O1911  1  0.706750  0.822810  0.530870  1.0  -0.6027
  O  O1912  1  0.692050  0.843710  0.487750  1.0  -0.5644
  O  O1913  1  0.810480  0.501900  0.638340  1.0  -0.6393
  O  O1914  1  0.860580  0.471620  0.619780  1.0  -0.5906
  O  O1915  1  0.080150  0.405910  0.046390  1.0  -0.4597
  O  O1916  1  0.244440  0.325840  0.027440  1.0  -0.4455
  O  O1917  1  0.322810  0.206750  0.939570  1.0  -0.602
  O  O1918  1  0.343710  0.192050  0.976490  1.0  -0.5639
  O  O1919  1  0.001900  0.310480  0.049280  1.0  -0.6424
  O  O1920  1  0.971620  0.360580  0.048020  1.0  -0.5885
  O  O1921  1  0.080150  0.467550  0.405910  1.0  -0.462
  O  O1922  1  0.244440  0.402280  0.325840  1.0  -0.4439
  O  O1923  1  0.322810  0.530870  0.206750  1.0  -0.6029
  O  O1924  1  0.343710  0.487750  0.192050  1.0  -0.5635
  O  O1925  1  0.001900  0.638340  0.310480  1.0  -0.6453
  O  O1926  1  0.971620  0.619780  0.360580  1.0  -0.594
  O  O1927  1  0.905910  0.046390  0.580150  1.0  -0.4648
  O  O1928  1  0.825840  0.027440  0.744440  1.0  -0.4418
  O  O1929  1  0.706750  0.939570  0.822810  1.0  -0.6073
  O  O1930  1  0.692050  0.976490  0.843710  1.0  -0.564
  O  O1931  1  0.810480  0.049280  0.501900  1.0  -0.6421
  O  O1932  1  0.860580  0.048020  0.471620  1.0  -0.5915
  O  O1933  1  0.967550  0.580150  0.046390  1.0  -0.4641
  O  O1934  1  0.902280  0.744440  0.027440  1.0  -0.4427
  O  O1935  1  0.030870  0.822810  0.939570  1.0  -0.6069
  O  O1936  1  0.987750  0.843710  0.976490  1.0  -0.5621
  O  O1937  1  0.138340  0.501900  0.049280  1.0  -0.641
  O  O1938  1  0.119780  0.471620  0.048020  1.0  -0.5944
  O  O1939  1  0.546390  0.405910  0.467550  1.0  -0.4653
  O  O1940  1  0.527440  0.325840  0.402280  1.0  -0.4418
  O  O1941  1  0.439570  0.206750  0.530870  1.0  -0.6061
  O  O1942  1  0.476490  0.192050  0.487750  1.0  -0.5648
  O  O1943  1  0.549280  0.310480  0.638340  1.0  -0.6452
  O  O1944  1  0.548020  0.360580  0.619780  1.0  -0.5955
  O  O1945  1  0.905910  0.467550  0.046390  1.0  -0.4633
  O  O1946  1  0.825840  0.402280  0.027440  1.0  -0.4451
  O  O1947  1  0.706750  0.530870  0.939570  1.0  -0.6062
  O  O1948  1  0.692050  0.487750  0.976490  1.0  -0.5652
  O  O1949  1  0.810480  0.638340  0.049280  1.0  -0.6404
  O  O1950  1  0.860580  0.619780  0.048020  1.0  -0.5894
  O  O1951  1  0.080150  0.046390  0.467550  1.0  -0.4658
  O  O1952  1  0.244440  0.027440  0.402280  1.0  -0.4432
  O  O1953  1  0.322810  0.939570  0.530870  1.0  -0.6063
  O  O1954  1  0.343710  0.976490  0.487750  1.0  -0.5614
  O  O1955  1  0.001900  0.049280  0.638340  1.0  -0.641
  O  O1956  1  0.971620  0.048020  0.619780  1.0  -0.5915
  O  O1957  1  0.546390  0.580150  0.405910  1.0  -0.4665
  O  O1958  1  0.527440  0.744440  0.325840  1.0  -0.4434
  O  O1959  1  0.439570  0.822810  0.206750  1.0  -0.6039
  O  O1960  1  0.476490  0.843710  0.192050  1.0  -0.5628
  O  O1961  1  0.549280  0.501900  0.310480  1.0  -0.6418
  O  O1962  1  0.548020  0.471620  0.360580  1.0  -0.5962
  O  O1963  1  0.967550  0.405910  0.580150  1.0  -0.4654
  O  O1964  1  0.902280  0.325840  0.744440  1.0  -0.4382
  O  O1965  1  0.030870  0.206750  0.822810  1.0  -0.6029
  O  O1966  1  0.987750  0.192050  0.843710  1.0  -0.5615
  O  O1967  1  0.138340  0.310480  0.501900  1.0  -0.6394
  O  O1968  1  0.119780  0.360580  0.471620  1.0  -0.5933
  O  O1969  1  0.453610  0.532450  0.419850  1.0  -0.4623
  O  O1970  1  0.472560  0.597720  0.255560  1.0  -0.4461
  O  O1971  1  0.560430  0.469130  0.177190  1.0  -0.6058
  O  O1972  1  0.523510  0.512250  0.156290  1.0  -0.5654
  O  O1973  1  0.450720  0.361660  0.498100  1.0  -0.6427
  O  O1974  1  0.451980  0.380220  0.528380  1.0  -0.5946
  O  O1975  1  0.032450  0.953610  0.594090  1.0  -0.4598
  O  O1976  1  0.097720  0.972560  0.674160  1.0  -0.4435
  O  O1977  1  0.969130  0.060430  0.793250  1.0  -0.6051
  O  O1978  1  0.012250  0.023510  0.807950  1.0  -0.5633
  O  O1979  1  0.861660  0.950720  0.689520  1.0  -0.6438
  O  O1980  1  0.880220  0.951980  0.639420  1.0  -0.5904
  O  O1981  1  0.094090  0.419850  0.532450  1.0  -0.4594
  O  O1982  1  0.174160  0.255560  0.597720  1.0  -0.4452
  O  O1983  1  0.293250  0.177190  0.469130  1.0  -0.6041
  O  O1984  1  0.307950  0.156290  0.512250  1.0  -0.5649
  O  O1985  1  0.189520  0.498100  0.361660  1.0  -0.6392
  O  O1986  1  0.139420  0.528380  0.380220  1.0  -0.5888
  O  O1987  1  0.919850  0.594090  0.953610  1.0  -0.4665
  O  O1988  1  0.755560  0.674160  0.972560  1.0  -0.4447
  O  O1989  1  0.677190  0.793250  0.060430  1.0  -0.6004
  O  O1990  1  0.656290  0.807950  0.023510  1.0  -0.563
  O  O1991  1  0.998100  0.689520  0.950720  1.0  -0.6397
  O  O1992  1  0.028380  0.639420  0.951980  1.0  -0.5952
  O  O1993  1  0.919850  0.532450  0.594090  1.0  -0.462
  O  O1994  1  0.755560  0.597720  0.674160  1.0  -0.4446
  O  O1995  1  0.677190  0.469130  0.793250  1.0  -0.6048
  O  O1996  1  0.656290  0.512250  0.807950  1.0  -0.5632
  O  O1997  1  0.998100  0.361660  0.689520  1.0  -0.6442
  O  O1998  1  0.028380  0.380220  0.639420  1.0  -0.5924
  O  O1999  1  0.094090  0.953610  0.419850  1.0  -0.4616
  O  O2000  1  0.174160  0.972560  0.255560  1.0  -0.4431
  O  O2001  1  0.293250  0.060430  0.177190  1.0  -0.6045
  O  O2002  1  0.307950  0.023510  0.156290  1.0  -0.5651
  O  O2003  1  0.189520  0.950720  0.498100  1.0  -0.6444
  O  O2004  1  0.139420  0.951980  0.528380  1.0  -0.5948
  O  O2005  1  0.032450  0.419850  0.953610  1.0  -0.468
  O  O2006  1  0.097720  0.255560  0.972560  1.0  -0.4425
  O  O2007  1  0.969130  0.177190  0.060430  1.0  -0.6048
  O  O2008  1  0.012250  0.156290  0.023510  1.0  -0.5622
  O  O2009  1  0.861660  0.498100  0.950720  1.0  -0.6389
  O  O2010  1  0.880220  0.528380  0.951980  1.0  -0.5936
  O  O2011  1  0.453610  0.594090  0.532450  1.0  -0.4624
  O  O2012  1  0.472560  0.674160  0.597720  1.0  -0.4435
  O  O2013  1  0.560430  0.793250  0.469130  1.0  -0.6067
  O  O2014  1  0.523510  0.807950  0.512250  1.0  -0.5631
  O  O2015  1  0.450720  0.689520  0.361660  1.0  -0.6435
  O  O2016  1  0.451980  0.639420  0.380220  1.0  -0.5936
  O  O2017  1  0.094090  0.532450  0.953610  1.0  -0.4631
  O  O2018  1  0.174160  0.597720  0.972560  1.0  -0.4461
  O  O2019  1  0.293250  0.469130  0.060430  1.0  -0.6049
  O  O2020  1  0.307950  0.512250  0.023510  1.0  -0.5639
  O  O2021  1  0.189520  0.361660  0.950720  1.0  -0.639
  O  O2022  1  0.139420  0.380220  0.951980  1.0  -0.5878
  O  O2023  1  0.919850  0.953610  0.532450  1.0  -0.4664
  O  O2024  1  0.755560  0.972560  0.597720  1.0  -0.4438
  O  O2025  1  0.677190  0.060430  0.469130  1.0  -0.6055
  O  O2026  1  0.656290  0.023510  0.512250  1.0  -0.561
  O  O2027  1  0.998100  0.950720  0.361660  1.0  -0.6408
  O  O2028  1  0.028380  0.951980  0.380220  1.0  -0.5941
  O  O2029  1  0.453610  0.419850  0.594090  1.0  -0.4674
  O  O2030  1  0.472560  0.255560  0.674160  1.0  -0.4434
  O  O2031  1  0.560430  0.177190  0.793250  1.0  -0.6024
  O  O2032  1  0.523510  0.156290  0.807950  1.0  -0.5623
  O  O2033  1  0.450720  0.498100  0.689520  1.0  -0.6416
  O  O2034  1  0.451980  0.528380  0.639420  1.0  -0.5966
  O  O2035  1  0.032450  0.594090  0.419850  1.0  -0.4627
  O  O2036  1  0.097720  0.674160  0.255560  1.0  -0.4391
  O  O2037  1  0.969130  0.793250  0.177190  1.0  -0.6043
  O  O2038  1  0.012250  0.807950  0.156290  1.0  -0.5648
  O  O2039  1  0.861660  0.689520  0.498100  1.0  -0.6386
  O  O2040  1  0.880220  0.639420  0.528380  1.0  -0.5927
  O  O2041  1  0.532450  0.453610  0.919850  1.0  -0.4597
  O  O2042  1  0.597720  0.472560  0.755560  1.0  -0.4435
  O  O2043  1  0.469130  0.560430  0.677190  1.0  -0.605
  O  O2044  1  0.512250  0.523510  0.656290  1.0  -0.5629
  O  O2045  1  0.361660  0.450720  0.998100  1.0  -0.6443
  O  O2046  1  0.380220  0.451980  0.028380  1.0  -0.592
  O  O2047  1  0.953610  0.032450  0.094090  1.0  -0.4653
  O  O2048  1  0.972560  0.097720  0.174160  1.0  -0.4447
  O  O2049  1  0.060430  0.969130  0.293250  1.0  -0.6058
  O  O2050  1  0.023510  0.012250  0.307950  1.0  -0.5659
  O  O2051  1  0.950720  0.861660  0.189520  1.0  -0.6423
  O  O2052  1  0.951980  0.880220  0.139420  1.0  -0.5939
  O  O2053  1  0.419850  0.094090  0.032450  1.0  -0.466
  O  O2054  1  0.255560  0.174160  0.097720  1.0  -0.4433
  O  O2055  1  0.177190  0.293250  0.969130  1.0  -0.6013
  O  O2056  1  0.156290  0.307950  0.012250  1.0  -0.5632
  O  O2057  1  0.498100  0.189520  0.861660  1.0  -0.6393
  O  O2058  1  0.528380  0.139420  0.880220  1.0  -0.5924
  O  O2059  1  0.594090  0.919850  0.453610  1.0  -0.4617
  O  O2060  1  0.674160  0.755560  0.472560  1.0  -0.4431
  O  O2061  1  0.793250  0.677190  0.560430  1.0  -0.6032
  O  O2062  1  0.807950  0.656290  0.523510  1.0  -0.565
  O  O2063  1  0.689520  0.998100  0.450720  1.0  -0.6387
  O  O2064  1  0.639420  0.028380  0.451980  1.0  -0.5909
  O  O2065  1  0.532450  0.919850  0.094090  1.0  -0.4667
  O  O2066  1  0.597720  0.755560  0.174160  1.0  -0.4439
  O  O2067  1  0.469130  0.677190  0.293250  1.0  -0.6061
  O  O2068  1  0.512250  0.656290  0.307950  1.0  -0.5621
  O  O2069  1  0.361660  0.998100  0.189520  1.0  -0.6401
  O  O2070  1  0.380220  0.028380  0.139420  1.0  -0.5926
  O  O2071  1  0.953610  0.094090  0.919850  1.0  -0.4611
  O  O2072  1  0.972560  0.174160  0.755560  1.0  -0.4447
  O  O2073  1  0.060430  0.293250  0.677190  1.0  -0.606
  O  O2074  1  0.023510  0.307950  0.656290  1.0  -0.5651
  O  O2075  1  0.950720  0.189520  0.998100  1.0  -0.6439
  O  O2076  1  0.951980  0.139420  0.028380  1.0  -0.5942
  O  O2077  1  0.419850  0.032450  0.453610  1.0  -0.4626
  O  O2078  1  0.255560  0.097720  0.472560  1.0  -0.4456
  O  O2079  1  0.177190  0.969130  0.560430  1.0  -0.6053
  O  O2080  1  0.156290  0.012250  0.523510  1.0  -0.5627
  O  O2081  1  0.498100  0.861660  0.450720  1.0  -0.6419
  O  O2082  1  0.528380  0.880220  0.451980  1.0  -0.594
  O  O2083  1  0.594090  0.453610  0.032450  1.0  -0.4619
  O  O2084  1  0.674160  0.472560  0.097720  1.0  -0.4438
  O  O2085  1  0.793250  0.560430  0.969130  1.0  -0.607
  O  O2086  1  0.807950  0.523510  0.012250  1.0  -0.5638
  O  O2087  1  0.689520  0.450720  0.861660  1.0  -0.6439
  O  O2088  1  0.639420  0.451980  0.880220  1.0  -0.5938
  O  O2089  1  0.532450  0.094090  0.453610  1.0  -0.465
  O  O2090  1  0.597720  0.174160  0.472560  1.0  -0.4391
  O  O2091  1  0.469130  0.293250  0.560430  1.0  -0.6042
  O  O2092  1  0.512250  0.307950  0.523510  1.0  -0.5637
  O  O2093  1  0.361660  0.189520  0.450720  1.0  -0.6379
  O  O2094  1  0.380220  0.139420  0.451980  1.0  -0.5929
  O  O2095  1  0.953610  0.919850  0.032450  1.0  -0.464
  O  O2096  1  0.972560  0.755560  0.097720  1.0  -0.4452
  O  O2097  1  0.060430  0.677190  0.969130  1.0  -0.6018
  O  O2098  1  0.023510  0.656290  0.012250  1.0  -0.5615
  O  O2099  1  0.950720  0.998100  0.861660  1.0  -0.6417
  O  O2100  1  0.951980  0.028380  0.880220  1.0  -0.5961
  O  O2101  1  0.419850  0.453610  0.094090  1.0  -0.4671
  O  O2102  1  0.255560  0.472560  0.174160  1.0  -0.4428
  O  O2103  1  0.177190  0.560430  0.293250  1.0  -0.6057
  O  O2104  1  0.156290  0.523510  0.307950  1.0  -0.5612
  O  O2105  1  0.498100  0.450720  0.189520  1.0  -0.6411
  O  O2106  1  0.528380  0.451980  0.139420  1.0  -0.5941
  O  O2107  1  0.594090  0.032450  0.919850  1.0  -0.4605
  O  O2108  1  0.674160  0.097720  0.755560  1.0  -0.4456
  O  O2109  1  0.793250  0.969130  0.677190  1.0  -0.6052
  O  O2110  1  0.807950  0.012250  0.656290  1.0  -0.5646
  O  O2111  1  0.689520  0.861660  0.998100  1.0  -0.641
  O  O2112  1  0.639420  0.880220  0.028380  1.0  -0.5881
