# generated using pymatgen
data_NiH24(C3O)12
_symmetry_space_group_name_H-M   'P 1'
_cell_length_a   30.01400000
_cell_length_b   30.01400000
_cell_length_c   30.01400000
_cell_angle_alpha   90.00000000
_cell_angle_beta   90.00000000
_cell_angle_gamma   90.00000000
_symmetry_Int_Tables_number   1
_chemical_formula_structural   NiH24(C3O)12
_chemical_formula_sum   'Ni12 H288 C432 O144'
_cell_volume   27037.81764274
_cell_formula_units_Z   12
loop_
 _symmetry_equiv_pos_site_id
 _symmetry_equiv_pos_as_xyz
  1  'x, y, z'
loop_
 _atom_site_type_symbol
 _atom_site_label
 _atom_site_symmetry_multiplicity
 _atom_site_fract_x
 _atom_site_fract_y
 _atom_site_fract_z
 _atom_site_occupancy
 _atom_site_charge
  Ni  Ni1  1  0.000000  0.000000  0.376570  1.0  0.7239
  Ni  Ni2  1  0.500000  0.500000  0.876570  1.0  0.7239
  Ni  Ni3  1  0.000000  0.000000  0.623430  1.0  0.724
  Ni  Ni4  1  0.500000  0.500000  0.123430  1.0  0.724
  Ni  Ni5  1  0.376570  0.000000  0.000000  1.0  0.7239
  Ni  Ni6  1  0.876570  0.500000  0.500000  1.0  0.7239
  Ni  Ni7  1  0.623430  0.000000  0.000000  1.0  0.7251
  Ni  Ni8  1  0.123430  0.500000  0.500000  1.0  0.7251
  Ni  Ni9  1  0.000000  0.376570  0.000000  1.0  0.7251
  Ni  Ni10  1  0.500000  0.876570  0.500000  1.0  0.7251
  Ni  Ni11  1  0.000000  0.623430  0.000000  1.0  0.7246
  Ni  Ni12  1  0.500000  0.123430  0.500000  1.0  0.7246
  H  H13  1  0.235300  0.198200  0.349100  1.0  0.0786
  H  H14  1  0.735300  0.698200  0.849100  1.0  0.0786
  H  H15  1  0.764700  0.801800  0.349100  1.0  0.0782
  H  H16  1  0.264700  0.301800  0.849100  1.0  0.0782
  H  H17  1  0.764700  0.198200  0.650900  1.0  0.0778
  H  H18  1  0.264700  0.698200  0.150900  1.0  0.0778
  H  H19  1  0.235300  0.801800  0.650900  1.0  0.0784
  H  H20  1  0.735300  0.301800  0.150900  1.0  0.0784
  H  H21  1  0.349100  0.235300  0.198200  1.0  0.078
  H  H22  1  0.849100  0.735300  0.698200  1.0  0.078
  H  H23  1  0.349100  0.764700  0.801800  1.0  0.0779
  H  H24  1  0.849100  0.264700  0.301800  1.0  0.0779
  H  H25  1  0.650900  0.764700  0.198200  1.0  0.0776
  H  H26  1  0.150900  0.264700  0.698200  1.0  0.0776
  H  H27  1  0.650900  0.235300  0.801800  1.0  0.0783
  H  H28  1  0.150900  0.735300  0.301800  1.0  0.0783
  H  H29  1  0.198200  0.349100  0.235300  1.0  0.0785
  H  H30  1  0.698200  0.849100  0.735300  1.0  0.0785
  H  H31  1  0.801800  0.349100  0.764700  1.0  0.0776
  H  H32  1  0.301800  0.849100  0.264700  1.0  0.0776
  H  H33  1  0.198200  0.650900  0.764700  1.0  0.0775
  H  H34  1  0.698200  0.150900  0.264700  1.0  0.0775
  H  H35  1  0.801800  0.650900  0.235300  1.0  0.0787
  H  H36  1  0.301800  0.150900  0.735300  1.0  0.0787
  H  H37  1  0.198200  0.235300  0.650900  1.0  0.0796
  H  H38  1  0.698200  0.735300  0.150900  1.0  0.0796
  H  H39  1  0.801800  0.764700  0.650900  1.0  0.0776
  H  H40  1  0.301800  0.264700  0.150900  1.0  0.0776
  H  H41  1  0.198200  0.764700  0.349100  1.0  0.0794
  H  H42  1  0.698200  0.264700  0.849100  1.0  0.0794
  H  H43  1  0.801800  0.235300  0.349100  1.0  0.0789
  H  H44  1  0.301800  0.735300  0.849100  1.0  0.0789
  H  H45  1  0.235300  0.349100  0.801800  1.0  0.0771
  H  H46  1  0.735300  0.849100  0.301800  1.0  0.0771
  H  H47  1  0.764700  0.349100  0.198200  1.0  0.0775
  H  H48  1  0.264700  0.849100  0.698200  1.0  0.0775
  H  H49  1  0.764700  0.650900  0.801800  1.0  0.0772
  H  H50  1  0.264700  0.150900  0.301800  1.0  0.0772
  H  H51  1  0.235300  0.650900  0.198200  1.0  0.0771
  H  H52  1  0.735300  0.150900  0.698200  1.0  0.0771
  H  H53  1  0.349100  0.198200  0.764700  1.0  0.078
  H  H54  1  0.849100  0.698200  0.264700  1.0  0.078
  H  H55  1  0.349100  0.801800  0.235300  1.0  0.0783
  H  H56  1  0.849100  0.301800  0.735300  1.0  0.0783
  H  H57  1  0.650900  0.198200  0.235300  1.0  0.0785
  H  H58  1  0.150900  0.698200  0.735300  1.0  0.0785
  H  H59  1  0.650900  0.801800  0.764700  1.0  0.0781
  H  H60  1  0.150900  0.301800  0.264700  1.0  0.0781
  H  H61  1  0.764700  0.801800  0.650900  1.0  0.0783
  H  H62  1  0.264700  0.301800  0.150900  1.0  0.0783
  H  H63  1  0.235300  0.198200  0.650900  1.0  0.0779
  H  H64  1  0.735300  0.698200  0.150900  1.0  0.0779
  H  H65  1  0.235300  0.801800  0.349100  1.0  0.0783
  H  H66  1  0.735300  0.301800  0.849100  1.0  0.0783
  H  H67  1  0.764700  0.198200  0.349100  1.0  0.0785
  H  H68  1  0.264700  0.698200  0.849100  1.0  0.0785
  H  H69  1  0.650900  0.764700  0.801800  1.0  0.0777
  H  H70  1  0.150900  0.264700  0.301800  1.0  0.0777
  H  H71  1  0.650900  0.235300  0.198200  1.0  0.0783
  H  H72  1  0.150900  0.735300  0.698200  1.0  0.0783
  H  H73  1  0.349100  0.235300  0.801800  1.0  0.0777
  H  H74  1  0.849100  0.735300  0.301800  1.0  0.0777
  H  H75  1  0.349100  0.764700  0.198200  1.0  0.0779
  H  H76  1  0.849100  0.264700  0.698200  1.0  0.0779
  H  H77  1  0.801800  0.650900  0.764700  1.0  0.0773
  H  H78  1  0.301800  0.150900  0.264700  1.0  0.0773
  H  H79  1  0.198200  0.650900  0.235300  1.0  0.0785
  H  H80  1  0.698200  0.150900  0.735300  1.0  0.0785
  H  H81  1  0.801800  0.349100  0.235300  1.0  0.0783
  H  H82  1  0.301800  0.849100  0.735300  1.0  0.0783
  H  H83  1  0.198200  0.349100  0.764700  1.0  0.0782
  H  H84  1  0.698200  0.849100  0.264700  1.0  0.0782
  H  H85  1  0.801800  0.764700  0.349100  1.0  0.0795
  H  H86  1  0.301800  0.264700  0.849100  1.0  0.0795
  H  H87  1  0.198200  0.235300  0.349100  1.0  0.0789
  H  H88  1  0.698200  0.735300  0.849100  1.0  0.0789
  H  H89  1  0.801800  0.235300  0.650900  1.0  0.0791
  H  H90  1  0.301800  0.735300  0.150900  1.0  0.0791
  H  H91  1  0.198200  0.764700  0.650900  1.0  0.078
  H  H92  1  0.698200  0.264700  0.150900  1.0  0.078
  H  H93  1  0.764700  0.650900  0.198200  1.0  0.0771
  H  H94  1  0.264700  0.150900  0.698200  1.0  0.0771
  H  H95  1  0.235300  0.650900  0.801800  1.0  0.0772
  H  H96  1  0.735300  0.150900  0.301800  1.0  0.0772
  H  H97  1  0.235300  0.349100  0.198200  1.0  0.0772
  H  H98  1  0.735300  0.849100  0.698200  1.0  0.0772
  H  H99  1  0.764700  0.349100  0.801800  1.0  0.0775
  H  H100  1  0.264700  0.849100  0.301800  1.0  0.0775
  H  H101  1  0.650900  0.801800  0.235300  1.0  0.0782
  H  H102  1  0.150900  0.301800  0.735300  1.0  0.0782
  H  H103  1  0.650900  0.198200  0.764700  1.0  0.0779
  H  H104  1  0.150900  0.698200  0.264700  1.0  0.0779
  H  H105  1  0.349100  0.801800  0.764700  1.0  0.0782
  H  H106  1  0.849100  0.301800  0.264700  1.0  0.0782
  H  H107  1  0.349100  0.198200  0.235300  1.0  0.0783
  H  H108  1  0.849100  0.698200  0.735300  1.0  0.0783
  H  H109  1  0.093800  0.093800  0.431900  1.0  0.0929
  H  H110  1  0.141000  0.141000  0.454800  1.0  0.0987
  H  H111  1  0.184700  0.184700  0.405500  1.0  0.1311
  H  H112  1  0.120100  0.120100  0.305100  1.0  0.1379
  H  H113  1  0.593800  0.593800  0.931900  1.0  0.0929
  H  H114  1  0.641000  0.641000  0.954800  1.0  0.0987
  H  H115  1  0.684700  0.684700  0.905500  1.0  0.1311
  H  H116  1  0.620100  0.620100  0.805100  1.0  0.1379
  H  H117  1  0.906200  0.906200  0.431900  1.0  0.0935
  H  H118  1  0.859000  0.859000  0.454800  1.0  0.0991
  H  H119  1  0.815300  0.815300  0.405500  1.0  0.1313
  H  H120  1  0.879900  0.879900  0.305100  1.0  0.1378
  H  H121  1  0.406200  0.406200  0.931900  1.0  0.0935
  H  H122  1  0.359000  0.359000  0.954800  1.0  0.0991
  H  H123  1  0.315300  0.315300  0.905500  1.0  0.1313
  H  H124  1  0.379900  0.379900  0.805100  1.0  0.1378
  H  H125  1  0.906200  0.093800  0.568100  1.0  0.0929
  H  H126  1  0.859000  0.141000  0.545200  1.0  0.0984
  H  H127  1  0.815300  0.184700  0.594500  1.0  0.1317
  H  H128  1  0.879900  0.120100  0.694900  1.0  0.1381
  H  H129  1  0.406200  0.593800  0.068100  1.0  0.0929
  H  H130  1  0.359000  0.641000  0.045200  1.0  0.0984
  H  H131  1  0.315300  0.684700  0.094500  1.0  0.1317
  H  H132  1  0.379900  0.620100  0.194900  1.0  0.1381
  H  H133  1  0.093800  0.906200  0.568100  1.0  0.0929
  H  H134  1  0.141000  0.859000  0.545200  1.0  0.0989
  H  H135  1  0.184700  0.815300  0.594500  1.0  0.132
  H  H136  1  0.120100  0.879900  0.694900  1.0  0.138
  H  H137  1  0.593800  0.406200  0.068100  1.0  0.0929
  H  H138  1  0.641000  0.359000  0.045200  1.0  0.0989
  H  H139  1  0.684700  0.315300  0.094500  1.0  0.132
  H  H140  1  0.620100  0.379900  0.194900  1.0  0.138
  H  H141  1  0.431900  0.093800  0.093800  1.0  0.0919
  H  H142  1  0.454800  0.141000  0.141000  1.0  0.0968
  H  H143  1  0.405500  0.184700  0.184700  1.0  0.1302
  H  H144  1  0.305100  0.120100  0.120100  1.0  0.1377
  H  H145  1  0.931900  0.593800  0.593800  1.0  0.0919
  H  H146  1  0.954800  0.641000  0.641000  1.0  0.0968
  H  H147  1  0.905500  0.684700  0.684700  1.0  0.1302
  H  H148  1  0.805100  0.620100  0.620100  1.0  0.1377
  H  H149  1  0.431900  0.906200  0.906200  1.0  0.0926
  H  H150  1  0.454800  0.859000  0.859000  1.0  0.0976
  H  H151  1  0.405500  0.815300  0.815300  1.0  0.1306
  H  H152  1  0.305100  0.879900  0.879900  1.0  0.138
  H  H153  1  0.931900  0.406200  0.406200  1.0  0.0926
  H  H154  1  0.954800  0.359000  0.359000  1.0  0.0976
  H  H155  1  0.905500  0.315300  0.315300  1.0  0.1306
  H  H156  1  0.805100  0.379900  0.379900  1.0  0.138
  H  H157  1  0.568100  0.906200  0.093800  1.0  0.0924
  H  H158  1  0.545200  0.859000  0.141000  1.0  0.0996
  H  H159  1  0.594500  0.815300  0.184700  1.0  0.1303
  H  H160  1  0.694900  0.879900  0.120100  1.0  0.1368
  H  H161  1  0.068100  0.406200  0.593800  1.0  0.0924
  H  H162  1  0.045200  0.359000  0.641000  1.0  0.0996
  H  H163  1  0.094500  0.315300  0.684700  1.0  0.1303
  H  H164  1  0.194900  0.379900  0.620100  1.0  0.1368
  H  H165  1  0.568100  0.093800  0.906200  1.0  0.0922
  H  H166  1  0.545200  0.141000  0.859000  1.0  0.0996
  H  H167  1  0.594500  0.184700  0.815300  1.0  0.1304
  H  H168  1  0.694900  0.120100  0.879900  1.0  0.1365
  H  H169  1  0.068100  0.593800  0.406200  1.0  0.0922
  H  H170  1  0.045200  0.641000  0.359000  1.0  0.0996
  H  H171  1  0.094500  0.684700  0.315300  1.0  0.1304
  H  H172  1  0.194900  0.620100  0.379900  1.0  0.1365
  H  H173  1  0.093800  0.431900  0.093800  1.0  0.0928
  H  H174  1  0.141000  0.454800  0.141000  1.0  0.0994
  H  H175  1  0.184700  0.405500  0.184700  1.0  0.131
  H  H176  1  0.120100  0.305100  0.120100  1.0  0.1378
  H  H177  1  0.593800  0.931900  0.593800  1.0  0.0928
  H  H178  1  0.641000  0.954800  0.641000  1.0  0.0994
  H  H179  1  0.684700  0.905500  0.684700  1.0  0.131
  H  H180  1  0.620100  0.805100  0.620100  1.0  0.1378
  H  H181  1  0.906200  0.431900  0.906200  1.0  0.0927
  H  H182  1  0.859000  0.454800  0.859000  1.0  0.0993
  H  H183  1  0.815300  0.405500  0.815300  1.0  0.1313
  H  H184  1  0.879900  0.305100  0.879900  1.0  0.1384
  H  H185  1  0.406200  0.931900  0.406200  1.0  0.0927
  H  H186  1  0.359000  0.954800  0.359000  1.0  0.0993
  H  H187  1  0.315300  0.905500  0.315300  1.0  0.1313
  H  H188  1  0.379900  0.805100  0.379900  1.0  0.1384
  H  H189  1  0.093800  0.568100  0.906200  1.0  0.0924
  H  H190  1  0.141000  0.545200  0.859000  1.0  0.0993
  H  H191  1  0.184700  0.594500  0.815300  1.0  0.131
  H  H192  1  0.120100  0.694900  0.879900  1.0  0.1377
  H  H193  1  0.593800  0.068100  0.406200  1.0  0.0924
  H  H194  1  0.641000  0.045200  0.359000  1.0  0.0993
  H  H195  1  0.684700  0.094500  0.315300  1.0  0.131
  H  H196  1  0.620100  0.194900  0.379900  1.0  0.1377
  H  H197  1  0.906200  0.568100  0.093800  1.0  0.0923
  H  H198  1  0.859000  0.545200  0.141000  1.0  0.0992
  H  H199  1  0.815300  0.594500  0.184700  1.0  0.131
  H  H200  1  0.879900  0.694900  0.120100  1.0  0.1375
  H  H201  1  0.406200  0.068100  0.593800  1.0  0.0923
  H  H202  1  0.359000  0.045200  0.641000  1.0  0.0992
  H  H203  1  0.315300  0.094500  0.684700  1.0  0.131
  H  H204  1  0.379900  0.194900  0.620100  1.0  0.1375
  H  H205  1  0.093800  0.093800  0.568100  1.0  0.0929
  H  H206  1  0.141000  0.141000  0.545200  1.0  0.0984
  H  H207  1  0.184700  0.184700  0.594500  1.0  0.1319
  H  H208  1  0.120100  0.120100  0.694900  1.0  0.1382
  H  H209  1  0.593800  0.593800  0.068100  1.0  0.0929
  H  H210  1  0.641000  0.641000  0.045200  1.0  0.0984
  H  H211  1  0.684700  0.684700  0.094500  1.0  0.1319
  H  H212  1  0.620100  0.620100  0.194900  1.0  0.1382
  H  H213  1  0.906200  0.906200  0.568100  1.0  0.0932
  H  H214  1  0.859000  0.859000  0.545200  1.0  0.0988
  H  H215  1  0.815300  0.815300  0.594500  1.0  0.1315
  H  H216  1  0.879900  0.879900  0.694900  1.0  0.1379
  H  H217  1  0.406200  0.406200  0.068100  1.0  0.0932
  H  H218  1  0.359000  0.359000  0.045200  1.0  0.0988
  H  H219  1  0.315300  0.315300  0.094500  1.0  0.1315
  H  H220  1  0.379900  0.379900  0.194900  1.0  0.1379
  H  H221  1  0.093800  0.906200  0.431900  1.0  0.0931
  H  H222  1  0.141000  0.859000  0.454800  1.0  0.0989
  H  H223  1  0.184700  0.815300  0.405500  1.0  0.1313
  H  H224  1  0.120100  0.879900  0.305100  1.0  0.1379
  H  H225  1  0.593800  0.406200  0.931900  1.0  0.0931
  H  H226  1  0.641000  0.359000  0.954800  1.0  0.0989
  H  H227  1  0.684700  0.315300  0.905500  1.0  0.1313
  H  H228  1  0.620100  0.379900  0.805100  1.0  0.1379
  H  H229  1  0.906200  0.093800  0.431900  1.0  0.0931
  H  H230  1  0.859000  0.141000  0.454800  1.0  0.0986
  H  H231  1  0.815300  0.184700  0.405500  1.0  0.1312
  H  H232  1  0.879900  0.120100  0.305100  1.0  0.1379
  H  H233  1  0.406200  0.593800  0.931900  1.0  0.0931
  H  H234  1  0.359000  0.641000  0.954800  1.0  0.0986
  H  H235  1  0.315300  0.684700  0.905500  1.0  0.1312
  H  H236  1  0.379900  0.620100  0.805100  1.0  0.1379
  H  H237  1  0.093800  0.431900  0.906200  1.0  0.0925
  H  H238  1  0.141000  0.454800  0.859000  1.0  0.099
  H  H239  1  0.184700  0.405500  0.815300  1.0  0.1313
  H  H240  1  0.120100  0.305100  0.879900  1.0  0.1384
  H  H241  1  0.593800  0.931900  0.406200  1.0  0.0925
  H  H242  1  0.641000  0.954800  0.359000  1.0  0.099
  H  H243  1  0.684700  0.905500  0.315300  1.0  0.1313
  H  H244  1  0.620100  0.805100  0.379900  1.0  0.1384
  H  H245  1  0.906200  0.431900  0.093800  1.0  0.093
  H  H246  1  0.859000  0.454800  0.141000  1.0  0.0993
  H  H247  1  0.815300  0.405500  0.184700  1.0  0.1309
  H  H248  1  0.879900  0.305100  0.120100  1.0  0.1381
  H  H249  1  0.406200  0.931900  0.593800  1.0  0.093
  H  H250  1  0.359000  0.954800  0.641000  1.0  0.0993
  H  H251  1  0.315300  0.905500  0.684700  1.0  0.1309
  H  H252  1  0.379900  0.805100  0.620100  1.0  0.1381
  H  H253  1  0.906200  0.568100  0.906200  1.0  0.0927
  H  H254  1  0.859000  0.545200  0.859000  1.0  0.0988
  H  H255  1  0.815300  0.594500  0.815300  1.0  0.1308
  H  H256  1  0.879900  0.694900  0.879900  1.0  0.1376
  H  H257  1  0.406200  0.068100  0.406200  1.0  0.0927
  H  H258  1  0.359000  0.045200  0.359000  1.0  0.0988
  H  H259  1  0.315300  0.094500  0.315300  1.0  0.1308
  H  H260  1  0.379900  0.194900  0.379900  1.0  0.1376
  H  H261  1  0.093800  0.568100  0.093800  1.0  0.0921
  H  H262  1  0.141000  0.545200  0.141000  1.0  0.0995
  H  H263  1  0.184700  0.594500  0.184700  1.0  0.1312
  H  H264  1  0.120100  0.694900  0.120100  1.0  0.1373
  H  H265  1  0.593800  0.068100  0.593800  1.0  0.0921
  H  H266  1  0.641000  0.045200  0.641000  1.0  0.0995
  H  H267  1  0.684700  0.094500  0.684700  1.0  0.1312
  H  H268  1  0.620100  0.194900  0.620100  1.0  0.1373
  H  H269  1  0.431900  0.093800  0.906200  1.0  0.0921
  H  H270  1  0.454800  0.141000  0.859000  1.0  0.0973
  H  H271  1  0.405500  0.184700  0.815300  1.0  0.1308
  H  H272  1  0.305100  0.120100  0.879900  1.0  0.1379
  H  H273  1  0.931900  0.593800  0.406200  1.0  0.0921
  H  H274  1  0.954800  0.641000  0.359000  1.0  0.0973
  H  H275  1  0.905500  0.684700  0.315300  1.0  0.1308
  H  H276  1  0.805100  0.620100  0.379900  1.0  0.1379
  H  H277  1  0.431900  0.906200  0.093800  1.0  0.093
  H  H278  1  0.454800  0.859000  0.141000  1.0  0.0974
  H  H279  1  0.405500  0.815300  0.184700  1.0  0.1303
  H  H280  1  0.305100  0.879900  0.120100  1.0  0.138
  H  H281  1  0.931900  0.406200  0.593800  1.0  0.093
  H  H282  1  0.954800  0.359000  0.641000  1.0  0.0974
  H  H283  1  0.905500  0.315300  0.684700  1.0  0.1303
  H  H284  1  0.805100  0.379900  0.620100  1.0  0.138
  H  H285  1  0.568100  0.093800  0.093800  1.0  0.0919
  H  H286  1  0.545200  0.141000  0.141000  1.0  0.0993
  H  H287  1  0.594500  0.184700  0.184700  1.0  0.1303
  H  H288  1  0.694900  0.120100  0.120100  1.0  0.1367
  H  H289  1  0.068100  0.593800  0.593800  1.0  0.0919
  H  H290  1  0.045200  0.641000  0.641000  1.0  0.0993
  H  H291  1  0.094500  0.684700  0.684700  1.0  0.1303
  H  H292  1  0.194900  0.620100  0.620100  1.0  0.1367
  H  H293  1  0.568100  0.906200  0.906200  1.0  0.0922
  H  H294  1  0.545200  0.859000  0.859000  1.0  0.0996
  H  H295  1  0.594500  0.815300  0.815300  1.0  0.1301
  H  H296  1  0.694900  0.879900  0.879900  1.0  0.1364
  H  H297  1  0.068100  0.406200  0.406200  1.0  0.0922
  H  H298  1  0.045200  0.359000  0.359000  1.0  0.0996
  H  H299  1  0.094500  0.315300  0.315300  1.0  0.1301
  H  H300  1  0.194900  0.379900  0.379900  1.0  0.1364
  C  C301  1  0.067930  0.067930  0.351800  1.0  0.7143
  C  C302  1  0.101910  0.101910  0.368600  1.0  -0.1372
  C  C303  1  0.109900  0.109900  0.410800  1.0  -0.0945
  C  C304  1  0.137400  0.137400  0.424200  1.0  -0.1015
  C  C305  1  0.164100  0.164100  0.395000  1.0  -0.2066
  C  C306  1  0.157110  0.157110  0.350100  1.0  0.2915
  C  C307  1  0.125240  0.125240  0.335200  1.0  -0.0903
  C  C308  1  0.212070  0.212070  0.331400  1.0  0.0933
  C  C309  1  0.231110  0.231110  0.289730  1.0  0.032
  C  C310  1  0.567930  0.567930  0.851800  1.0  0.7143
  C  C311  1  0.601910  0.601910  0.868600  1.0  -0.1372
  C  C312  1  0.609900  0.609900  0.910800  1.0  -0.0945
  C  C313  1  0.637400  0.637400  0.924200  1.0  -0.1015
  C  C314  1  0.664100  0.664100  0.895000  1.0  -0.2066
  C  C315  1  0.657110  0.657110  0.850100  1.0  0.2915
  C  C316  1  0.625240  0.625240  0.835200  1.0  -0.0903
  C  C317  1  0.712070  0.712070  0.831400  1.0  0.0933
  C  C318  1  0.731110  0.731110  0.789730  1.0  0.032
  C  C319  1  0.932070  0.932070  0.351800  1.0  0.7142
  C  C320  1  0.898090  0.898090  0.368600  1.0  -0.1358
  C  C321  1  0.890100  0.890100  0.410800  1.0  -0.0955
  C  C322  1  0.862600  0.862600  0.424200  1.0  -0.1019
  C  C323  1  0.835900  0.835900  0.395000  1.0  -0.2098
  C  C324  1  0.842890  0.842890  0.350100  1.0  0.2924
  C  C325  1  0.874760  0.874760  0.335200  1.0  -0.0911
  C  C326  1  0.787930  0.787930  0.331400  1.0  0.0925
  C  C327  1  0.768890  0.768890  0.289730  1.0  0.0322
  C  C328  1  0.432070  0.432070  0.851800  1.0  0.7142
  C  C329  1  0.398090  0.398090  0.868600  1.0  -0.1358
  C  C330  1  0.390100  0.390100  0.910800  1.0  -0.0955
  C  C331  1  0.362600  0.362600  0.924200  1.0  -0.1019
  C  C332  1  0.335900  0.335900  0.895000  1.0  -0.2098
  C  C333  1  0.342890  0.342890  0.850100  1.0  0.2924
  C  C334  1  0.374760  0.374760  0.835200  1.0  -0.0911
  C  C335  1  0.287930  0.287930  0.831400  1.0  0.0925
  C  C336  1  0.268890  0.268890  0.789730  1.0  0.0322
  C  C337  1  0.932070  0.067930  0.648200  1.0  0.715
  C  C338  1  0.898090  0.101910  0.631400  1.0  -0.1365
  C  C339  1  0.890100  0.109900  0.589200  1.0  -0.0948
  C  C340  1  0.862600  0.137400  0.575800  1.0  -0.1029
  C  C341  1  0.835900  0.164100  0.605000  1.0  -0.2093
  C  C342  1  0.842890  0.157110  0.649900  1.0  0.2907
  C  C343  1  0.874760  0.125240  0.664800  1.0  -0.0885
  C  C344  1  0.787930  0.212070  0.668600  1.0  0.0937
  C  C345  1  0.768890  0.231110  0.710270  1.0  0.0328
  C  C346  1  0.432070  0.567930  0.148200  1.0  0.715
  C  C347  1  0.398090  0.601910  0.131400  1.0  -0.1365
  C  C348  1  0.390100  0.609900  0.089200  1.0  -0.0948
  C  C349  1  0.362600  0.637400  0.075800  1.0  -0.1029
  C  C350  1  0.335900  0.664100  0.105000  1.0  -0.2093
  C  C351  1  0.342890  0.657110  0.149900  1.0  0.2907
  C  C352  1  0.374760  0.625240  0.164800  1.0  -0.0885
  C  C353  1  0.287930  0.712070  0.168600  1.0  0.0937
  C  C354  1  0.268890  0.731110  0.210270  1.0  0.0328
  C  C355  1  0.067930  0.932070  0.648200  1.0  0.7143
  C  C356  1  0.101910  0.898090  0.631400  1.0  -0.1361
  C  C357  1  0.109900  0.890100  0.589200  1.0  -0.0943
  C  C358  1  0.137400  0.862600  0.575800  1.0  -0.1024
  C  C359  1  0.164100  0.835900  0.605000  1.0  -0.2092
  C  C360  1  0.157110  0.842890  0.649900  1.0  0.2899
  C  C361  1  0.125240  0.874760  0.664800  1.0  -0.0905
  C  C362  1  0.212070  0.787930  0.668600  1.0  0.0952
  C  C363  1  0.231110  0.768890  0.710270  1.0  0.0328
  C  C364  1  0.567930  0.432070  0.148200  1.0  0.7143
  C  C365  1  0.601910  0.398090  0.131400  1.0  -0.1361
  C  C366  1  0.609900  0.390100  0.089200  1.0  -0.0943
  C  C367  1  0.637400  0.362600  0.075800  1.0  -0.1024
  C  C368  1  0.664100  0.335900  0.105000  1.0  -0.2092
  C  C369  1  0.657110  0.342890  0.149900  1.0  0.2899
  C  C370  1  0.625240  0.374760  0.164800  1.0  -0.0905
  C  C371  1  0.712070  0.287930  0.168600  1.0  0.0952
  C  C372  1  0.731110  0.268890  0.210270  1.0  0.0328
  C  C373  1  0.351800  0.067930  0.067930  1.0  0.7176
  C  C374  1  0.368600  0.101910  0.101910  1.0  -0.1372
  C  C375  1  0.410800  0.109900  0.109900  1.0  -0.0908
  C  C376  1  0.424200  0.137400  0.137400  1.0  -0.1031
  C  C377  1  0.395000  0.164100  0.164100  1.0  -0.2086
  C  C378  1  0.350100  0.157110  0.157110  1.0  0.2901
  C  C379  1  0.335200  0.125240  0.125240  1.0  -0.0936
  C  C380  1  0.331400  0.212070  0.212070  1.0  0.095
  C  C381  1  0.289730  0.231110  0.231110  1.0  0.033
  C  C382  1  0.851800  0.567930  0.567930  1.0  0.7176
  C  C383  1  0.868600  0.601910  0.601910  1.0  -0.1372
  C  C384  1  0.910800  0.609900  0.609900  1.0  -0.0908
  C  C385  1  0.924200  0.637400  0.637400  1.0  -0.1031
  C  C386  1  0.895000  0.664100  0.664100  1.0  -0.2086
  C  C387  1  0.850100  0.657110  0.657110  1.0  0.2901
  C  C388  1  0.835200  0.625240  0.625240  1.0  -0.0936
  C  C389  1  0.831400  0.712070  0.712070  1.0  0.095
  C  C390  1  0.789730  0.731110  0.731110  1.0  0.033
  C  C391  1  0.351800  0.932070  0.932070  1.0  0.7174
  C  C392  1  0.368600  0.898090  0.898090  1.0  -0.1365
  C  C393  1  0.410800  0.890100  0.890100  1.0  -0.0915
  C  C394  1  0.424200  0.862600  0.862600  1.0  -0.1032
  C  C395  1  0.395000  0.835900  0.835900  1.0  -0.2094
  C  C396  1  0.350100  0.842890  0.842890  1.0  0.289
  C  C397  1  0.335200  0.874760  0.874760  1.0  -0.0939
  C  C398  1  0.331400  0.787930  0.787930  1.0  0.0944
  C  C399  1  0.289730  0.768890  0.768890  1.0  0.0328
  C  C400  1  0.851800  0.432070  0.432070  1.0  0.7174
  C  C401  1  0.868600  0.398090  0.398090  1.0  -0.1365
  C  C402  1  0.910800  0.390100  0.390100  1.0  -0.0915
  C  C403  1  0.924200  0.362600  0.362600  1.0  -0.1032
  C  C404  1  0.895000  0.335900  0.335900  1.0  -0.2094
  C  C405  1  0.850100  0.342890  0.342890  1.0  0.289
  C  C406  1  0.835200  0.374760  0.374760  1.0  -0.0939
  C  C407  1  0.831400  0.287930  0.287930  1.0  0.0944
  C  C408  1  0.789730  0.268890  0.268890  1.0  0.0328
  C  C409  1  0.648200  0.932070  0.067930  1.0  0.7167
  C  C410  1  0.631400  0.898090  0.101910  1.0  -0.135
  C  C411  1  0.589200  0.890100  0.109900  1.0  -0.0893
  C  C412  1  0.575800  0.862600  0.137400  1.0  -0.1037
  C  C413  1  0.605000  0.835900  0.164100  1.0  -0.2112
  C  C414  1  0.649900  0.842890  0.157110  1.0  0.2894
  C  C415  1  0.664800  0.874760  0.125240  1.0  -0.0902
  C  C416  1  0.668600  0.787930  0.212070  1.0  0.0972
  C  C417  1  0.710270  0.768890  0.231110  1.0  0.0319
  C  C418  1  0.148200  0.432070  0.567930  1.0  0.7167
  C  C419  1  0.131400  0.398090  0.601910  1.0  -0.135
  C  C420  1  0.089200  0.390100  0.609900  1.0  -0.0893
  C  C421  1  0.075800  0.362600  0.637400  1.0  -0.1037
  C  C422  1  0.105000  0.335900  0.664100  1.0  -0.2112
  C  C423  1  0.149900  0.342890  0.657110  1.0  0.2894
  C  C424  1  0.164800  0.374760  0.625240  1.0  -0.0902
  C  C425  1  0.168600  0.287930  0.712070  1.0  0.0972
  C  C426  1  0.210270  0.268890  0.731110  1.0  0.0319
  C  C427  1  0.648200  0.067930  0.932070  1.0  0.7176
  C  C428  1  0.631400  0.101910  0.898090  1.0  -0.1364
  C  C429  1  0.589200  0.109900  0.890100  1.0  -0.0894
  C  C430  1  0.575800  0.137400  0.862600  1.0  -0.105
  C  C431  1  0.605000  0.164100  0.835900  1.0  -0.2099
  C  C432  1  0.649900  0.157110  0.842890  1.0  0.289
  C  C433  1  0.664800  0.125240  0.874760  1.0  -0.089
  C  C434  1  0.668600  0.212070  0.787930  1.0  0.0973
  C  C435  1  0.710270  0.231110  0.768890  1.0  0.0319
  C  C436  1  0.148200  0.567930  0.432070  1.0  0.7176
  C  C437  1  0.131400  0.601910  0.398090  1.0  -0.1364
  C  C438  1  0.089200  0.609900  0.390100  1.0  -0.0894
  C  C439  1  0.075800  0.637400  0.362600  1.0  -0.105
  C  C440  1  0.105000  0.664100  0.335900  1.0  -0.2099
  C  C441  1  0.149900  0.657110  0.342890  1.0  0.289
  C  C442  1  0.164800  0.625240  0.374760  1.0  -0.089
  C  C443  1  0.168600  0.712070  0.287930  1.0  0.0973
  C  C444  1  0.210270  0.731110  0.268890  1.0  0.0319
  C  C445  1  0.067930  0.351800  0.067930  1.0  0.7153
  C  C446  1  0.101910  0.368600  0.101910  1.0  -0.1373
  C  C447  1  0.109900  0.410800  0.109900  1.0  -0.0936
  C  C448  1  0.137400  0.424200  0.137400  1.0  -0.1033
  C  C449  1  0.164100  0.395000  0.164100  1.0  -0.2075
  C  C450  1  0.157110  0.350100  0.157110  1.0  0.289
  C  C451  1  0.125240  0.335200  0.125240  1.0  -0.0958
  C  C452  1  0.212070  0.331400  0.212070  1.0  0.0965
  C  C453  1  0.231110  0.289730  0.231110  1.0  0.0322
  C  C454  1  0.567930  0.851800  0.567930  1.0  0.7153
  C  C455  1  0.601910  0.868600  0.601910  1.0  -0.1373
  C  C456  1  0.609900  0.910800  0.609900  1.0  -0.0936
  C  C457  1  0.637400  0.924200  0.637400  1.0  -0.1033
  C  C458  1  0.664100  0.895000  0.664100  1.0  -0.2075
  C  C459  1  0.657110  0.850100  0.657110  1.0  0.289
  C  C460  1  0.625240  0.835200  0.625240  1.0  -0.0958
  C  C461  1  0.712070  0.831400  0.712070  1.0  0.0965
  C  C462  1  0.731110  0.789730  0.731110  1.0  0.0322
  C  C463  1  0.932070  0.351800  0.932070  1.0  0.7163
  C  C464  1  0.898090  0.368600  0.898090  1.0  -0.1373
  C  C465  1  0.890100  0.410800  0.890100  1.0  -0.0949
  C  C466  1  0.862600  0.424200  0.862600  1.0  -0.1038
  C  C467  1  0.835900  0.395000  0.835900  1.0  -0.2082
  C  C468  1  0.842890  0.350100  0.842890  1.0  0.2893
  C  C469  1  0.874760  0.335200  0.874760  1.0  -0.0946
  C  C470  1  0.787930  0.331400  0.787930  1.0  0.0958
  C  C471  1  0.768890  0.289730  0.768890  1.0  0.0324
  C  C472  1  0.432070  0.851800  0.432070  1.0  0.7163
  C  C473  1  0.398090  0.868600  0.398090  1.0  -0.1373
  C  C474  1  0.390100  0.910800  0.390100  1.0  -0.0949
  C  C475  1  0.362600  0.924200  0.362600  1.0  -0.1038
  C  C476  1  0.335900  0.895000  0.335900  1.0  -0.2082
  C  C477  1  0.342890  0.850100  0.342890  1.0  0.2893
  C  C478  1  0.374760  0.835200  0.374760  1.0  -0.0946
  C  C479  1  0.287930  0.831400  0.287930  1.0  0.0958
  C  C480  1  0.268890  0.789730  0.268890  1.0  0.0324
  C  C481  1  0.067930  0.648200  0.932070  1.0  0.7153
  C  C482  1  0.101910  0.631400  0.898090  1.0  -0.1374
  C  C483  1  0.109900  0.589200  0.890100  1.0  -0.0928
  C  C484  1  0.137400  0.575800  0.862600  1.0  -0.1032
  C  C485  1  0.164100  0.605000  0.835900  1.0  -0.2095
  C  C486  1  0.157110  0.649900  0.842890  1.0  0.2893
  C  C487  1  0.125240  0.664800  0.874760  1.0  -0.0954
  C  C488  1  0.212070  0.668600  0.787930  1.0  0.0948
  C  C489  1  0.231110  0.710270  0.768890  1.0  0.0319
  C  C490  1  0.567930  0.148200  0.432070  1.0  0.7153
  C  C491  1  0.601910  0.131400  0.398090  1.0  -0.1374
  C  C492  1  0.609900  0.089200  0.390100  1.0  -0.0928
  C  C493  1  0.637400  0.075800  0.362600  1.0  -0.1032
  C  C494  1  0.664100  0.105000  0.335900  1.0  -0.2095
  C  C495  1  0.657110  0.149900  0.342890  1.0  0.2893
  C  C496  1  0.625240  0.164800  0.374760  1.0  -0.0954
  C  C497  1  0.712070  0.168600  0.287930  1.0  0.0948
  C  C498  1  0.731110  0.210270  0.268890  1.0  0.0319
  C  C499  1  0.932070  0.648200  0.067930  1.0  0.7156
  C  C500  1  0.898090  0.631400  0.101910  1.0  -0.1367
  C  C501  1  0.890100  0.589200  0.109900  1.0  -0.0936
  C  C502  1  0.862600  0.575800  0.137400  1.0  -0.104
  C  C503  1  0.835900  0.605000  0.164100  1.0  -0.2103
  C  C504  1  0.842890  0.649900  0.157110  1.0  0.2906
  C  C505  1  0.874760  0.664800  0.125240  1.0  -0.0938
  C  C506  1  0.787930  0.668600  0.212070  1.0  0.0945
  C  C507  1  0.768890  0.710270  0.231110  1.0  0.0322
  C  C508  1  0.432070  0.148200  0.567930  1.0  0.7156
  C  C509  1  0.398090  0.131400  0.601910  1.0  -0.1367
  C  C510  1  0.390100  0.089200  0.609900  1.0  -0.0936
  C  C511  1  0.362600  0.075800  0.637400  1.0  -0.104
  C  C512  1  0.335900  0.105000  0.664100  1.0  -0.2103
  C  C513  1  0.342890  0.149900  0.657110  1.0  0.2906
  C  C514  1  0.374760  0.164800  0.625240  1.0  -0.0938
  C  C515  1  0.287930  0.168600  0.712070  1.0  0.0945
  C  C516  1  0.268890  0.210270  0.731110  1.0  0.0322
  C  C517  1  0.067930  0.067930  0.648200  1.0  0.7148
  C  C518  1  0.101910  0.101910  0.631400  1.0  -0.1368
  C  C519  1  0.109900  0.109900  0.589200  1.0  -0.0939
  C  C520  1  0.137400  0.137400  0.575800  1.0  -0.1028
  C  C521  1  0.164100  0.164100  0.605000  1.0  -0.2088
  C  C522  1  0.157110  0.157110  0.649900  1.0  0.2901
  C  C523  1  0.125240  0.125240  0.664800  1.0  -0.0906
  C  C524  1  0.212070  0.212070  0.668600  1.0  0.0945
  C  C525  1  0.231110  0.231110  0.710270  1.0  0.0325
  C  C526  1  0.567930  0.567930  0.148200  1.0  0.7148
  C  C527  1  0.601910  0.601910  0.131400  1.0  -0.1368
  C  C528  1  0.609900  0.609900  0.089200  1.0  -0.0939
  C  C529  1  0.637400  0.637400  0.075800  1.0  -0.1028
  C  C530  1  0.664100  0.664100  0.105000  1.0  -0.2088
  C  C531  1  0.657110  0.657110  0.149900  1.0  0.2901
  C  C532  1  0.625240  0.625240  0.164800  1.0  -0.0906
  C  C533  1  0.712070  0.712070  0.168600  1.0  0.0945
  C  C534  1  0.731110  0.731110  0.210270  1.0  0.0325
  C  C535  1  0.932070  0.932070  0.648200  1.0  0.7146
  C  C536  1  0.898090  0.898090  0.631400  1.0  -0.1362
  C  C537  1  0.890100  0.890100  0.589200  1.0  -0.0959
  C  C538  1  0.862600  0.862600  0.575800  1.0  -0.1026
  C  C539  1  0.835900  0.835900  0.605000  1.0  -0.2102
  C  C540  1  0.842890  0.842890  0.649900  1.0  0.2904
  C  C541  1  0.874760  0.874760  0.664800  1.0  -0.0883
  C  C542  1  0.787930  0.787930  0.668600  1.0  0.0946
  C  C543  1  0.768890  0.768890  0.710270  1.0  0.0331
  C  C544  1  0.432070  0.432070  0.148200  1.0  0.7146
  C  C545  1  0.398090  0.398090  0.131400  1.0  -0.1362
  C  C546  1  0.390100  0.390100  0.089200  1.0  -0.0959
  C  C547  1  0.362600  0.362600  0.075800  1.0  -0.1026
  C  C548  1  0.335900  0.335900  0.105000  1.0  -0.2102
  C  C549  1  0.342890  0.342890  0.149900  1.0  0.2904
  C  C550  1  0.374760  0.374760  0.164800  1.0  -0.0883
  C  C551  1  0.287930  0.287930  0.168600  1.0  0.0946
  C  C552  1  0.268890  0.268890  0.210270  1.0  0.0331
  C  C553  1  0.067930  0.932070  0.351800  1.0  0.7144
  C  C554  1  0.101910  0.898090  0.368600  1.0  -0.1363
  C  C555  1  0.109900  0.890100  0.410800  1.0  -0.095
  C  C556  1  0.137400  0.862600  0.424200  1.0  -0.1015
  C  C557  1  0.164100  0.835900  0.395000  1.0  -0.2079
  C  C558  1  0.157110  0.842890  0.350100  1.0  0.2919
  C  C559  1  0.125240  0.874760  0.335200  1.0  -0.0909
  C  C560  1  0.212070  0.787930  0.331400  1.0  0.0935
  C  C561  1  0.231110  0.768890  0.289730  1.0  0.032
  C  C562  1  0.567930  0.432070  0.851800  1.0  0.7144
  C  C563  1  0.601910  0.398090  0.868600  1.0  -0.1363
  C  C564  1  0.609900  0.390100  0.910800  1.0  -0.095
  C  C565  1  0.637400  0.362600  0.924200  1.0  -0.1015
  C  C566  1  0.664100  0.335900  0.895000  1.0  -0.2079
  C  C567  1  0.657110  0.342890  0.850100  1.0  0.2919
  C  C568  1  0.625240  0.374760  0.835200  1.0  -0.0909
  C  C569  1  0.712070  0.287930  0.831400  1.0  0.0935
  C  C570  1  0.731110  0.268890  0.789730  1.0  0.032
  C  C571  1  0.932070  0.067930  0.351800  1.0  0.714
  C  C572  1  0.898090  0.101910  0.368600  1.0  -0.1361
  C  C573  1  0.890100  0.109900  0.410800  1.0  -0.0948
  C  C574  1  0.862600  0.137400  0.424200  1.0  -0.1018
  C  C575  1  0.835900  0.164100  0.395000  1.0  -0.2081
  C  C576  1  0.842890  0.157110  0.350100  1.0  0.2921
  C  C577  1  0.874760  0.125240  0.335200  1.0  -0.0906
  C  C578  1  0.787930  0.212070  0.331400  1.0  0.0927
  C  C579  1  0.768890  0.231110  0.289730  1.0  0.0322
  C  C580  1  0.432070  0.567930  0.851800  1.0  0.714
  C  C581  1  0.398090  0.601910  0.868600  1.0  -0.1361
  C  C582  1  0.390100  0.609900  0.910800  1.0  -0.0948
  C  C583  1  0.362600  0.637400  0.924200  1.0  -0.1018
  C  C584  1  0.335900  0.664100  0.895000  1.0  -0.2081
  C  C585  1  0.342890  0.657110  0.850100  1.0  0.2921
  C  C586  1  0.374760  0.625240  0.835200  1.0  -0.0906
  C  C587  1  0.287930  0.712070  0.831400  1.0  0.0927
  C  C588  1  0.268890  0.731110  0.789730  1.0  0.0322
  C  C589  1  0.067930  0.351800  0.932070  1.0  0.7165
  C  C590  1  0.101910  0.368600  0.898090  1.0  -0.1373
  C  C591  1  0.109900  0.410800  0.890100  1.0  -0.0947
  C  C592  1  0.137400  0.424200  0.862600  1.0  -0.1032
  C  C593  1  0.164100  0.395000  0.835900  1.0  -0.2069
  C  C594  1  0.157110  0.350100  0.842890  1.0  0.2882
  C  C595  1  0.125240  0.335200  0.874760  1.0  -0.0959
  C  C596  1  0.212070  0.331400  0.787930  1.0  0.0965
  C  C597  1  0.231110  0.289730  0.768890  1.0  0.0321
  C  C598  1  0.567930  0.851800  0.432070  1.0  0.7165
  C  C599  1  0.601910  0.868600  0.398090  1.0  -0.1373
  C  C600  1  0.609900  0.910800  0.390100  1.0  -0.0947
  C  C601  1  0.637400  0.924200  0.362600  1.0  -0.1032
  C  C602  1  0.664100  0.895000  0.335900  1.0  -0.2069
  C  C603  1  0.657110  0.850100  0.342890  1.0  0.2882
  C  C604  1  0.625240  0.835200  0.374760  1.0  -0.0959
  C  C605  1  0.712070  0.831400  0.287930  1.0  0.0965
  C  C606  1  0.731110  0.789730  0.268890  1.0  0.0321
  C  C607  1  0.932070  0.351800  0.067930  1.0  0.7151
  C  C608  1  0.898090  0.368600  0.101910  1.0  -0.1367
  C  C609  1  0.890100  0.410800  0.109900  1.0  -0.0943
  C  C610  1  0.862600  0.424200  0.137400  1.0  -0.1037
  C  C611  1  0.835900  0.395000  0.164100  1.0  -0.2088
  C  C612  1  0.842890  0.350100  0.157110  1.0  0.2903
  C  C613  1  0.874760  0.335200  0.125240  1.0  -0.0947
  C  C614  1  0.787930  0.331400  0.212070  1.0  0.0961
  C  C615  1  0.768890  0.289730  0.231110  1.0  0.0324
  C  C616  1  0.432070  0.851800  0.567930  1.0  0.7151
  C  C617  1  0.398090  0.868600  0.601910  1.0  -0.1367
  C  C618  1  0.390100  0.910800  0.609900  1.0  -0.0943
  C  C619  1  0.362600  0.924200  0.637400  1.0  -0.1037
  C  C620  1  0.335900  0.895000  0.664100  1.0  -0.2088
  C  C621  1  0.342890  0.850100  0.657110  1.0  0.2903
  C  C622  1  0.374760  0.835200  0.625240  1.0  -0.0947
  C  C623  1  0.287930  0.831400  0.712070  1.0  0.0961
  C  C624  1  0.268890  0.789730  0.731110  1.0  0.0324
  C  C625  1  0.932070  0.648200  0.932070  1.0  0.7155
  C  C626  1  0.898090  0.631400  0.898090  1.0  -0.1378
  C  C627  1  0.890100  0.589200  0.890100  1.0  -0.0933
  C  C628  1  0.862600  0.575800  0.862600  1.0  -0.1038
  C  C629  1  0.835900  0.605000  0.835900  1.0  -0.2102
  C  C630  1  0.842890  0.649900  0.842890  1.0  0.29
  C  C631  1  0.874760  0.664800  0.874760  1.0  -0.0937
  C  C632  1  0.787930  0.668600  0.787930  1.0  0.0944
  C  C633  1  0.768890  0.710270  0.768890  1.0  0.0321
  C  C634  1  0.432070  0.148200  0.432070  1.0  0.7155
  C  C635  1  0.398090  0.131400  0.398090  1.0  -0.1378
  C  C636  1  0.390100  0.089200  0.390100  1.0  -0.0933
  C  C637  1  0.362600  0.075800  0.362600  1.0  -0.1038
  C  C638  1  0.335900  0.105000  0.335900  1.0  -0.2102
  C  C639  1  0.342890  0.149900  0.342890  1.0  0.29
  C  C640  1  0.374760  0.164800  0.374760  1.0  -0.0937
  C  C641  1  0.287930  0.168600  0.287930  1.0  0.0944
  C  C642  1  0.268890  0.210270  0.268890  1.0  0.0321
  C  C643  1  0.067930  0.648200  0.067930  1.0  0.7154
  C  C644  1  0.101910  0.631400  0.101910  1.0  -0.1367
  C  C645  1  0.109900  0.589200  0.109900  1.0  -0.0929
  C  C646  1  0.137400  0.575800  0.137400  1.0  -0.1035
  C  C647  1  0.164100  0.605000  0.164100  1.0  -0.2094
  C  C648  1  0.157110  0.649900  0.157110  1.0  0.2899
  C  C649  1  0.125240  0.664800  0.125240  1.0  -0.0948
  C  C650  1  0.212070  0.668600  0.212070  1.0  0.095
  C  C651  1  0.231110  0.710270  0.231110  1.0  0.032
  C  C652  1  0.567930  0.148200  0.567930  1.0  0.7154
  C  C653  1  0.601910  0.131400  0.601910  1.0  -0.1367
  C  C654  1  0.609900  0.089200  0.609900  1.0  -0.0929
  C  C655  1  0.637400  0.075800  0.637400  1.0  -0.1035
  C  C656  1  0.664100  0.105000  0.664100  1.0  -0.2094
  C  C657  1  0.657110  0.149900  0.657110  1.0  0.2899
  C  C658  1  0.625240  0.164800  0.625240  1.0  -0.0948
  C  C659  1  0.712070  0.168600  0.712070  1.0  0.095
  C  C660  1  0.731110  0.210270  0.731110  1.0  0.032
  C  C661  1  0.351800  0.067930  0.932070  1.0  0.718
  C  C662  1  0.368600  0.101910  0.898090  1.0  -0.137
  C  C663  1  0.410800  0.109900  0.890100  1.0  -0.0907
  C  C664  1  0.424200  0.137400  0.862600  1.0  -0.1034
  C  C665  1  0.395000  0.164100  0.835900  1.0  -0.2082
  C  C666  1  0.350100  0.157110  0.842890  1.0  0.2893
  C  C667  1  0.335200  0.125240  0.874760  1.0  -0.0935
  C  C668  1  0.331400  0.212070  0.787930  1.0  0.0946
  C  C669  1  0.289730  0.231110  0.768890  1.0  0.0327
  C  C670  1  0.851800  0.567930  0.432070  1.0  0.718
  C  C671  1  0.868600  0.601910  0.398090  1.0  -0.137
  C  C672  1  0.910800  0.609900  0.390100  1.0  -0.0907
  C  C673  1  0.924200  0.637400  0.362600  1.0  -0.1034
  C  C674  1  0.895000  0.664100  0.335900  1.0  -0.2082
  C  C675  1  0.850100  0.657110  0.342890  1.0  0.2893
  C  C676  1  0.835200  0.625240  0.374760  1.0  -0.0935
  C  C677  1  0.831400  0.712070  0.287930  1.0  0.0946
  C  C678  1  0.789730  0.731110  0.268890  1.0  0.0327
  C  C679  1  0.351800  0.932070  0.067930  1.0  0.7178
  C  C680  1  0.368600  0.898090  0.101910  1.0  -0.1361
  C  C681  1  0.410800  0.890100  0.109900  1.0  -0.091
  C  C682  1  0.424200  0.862600  0.137400  1.0  -0.1028
  C  C683  1  0.395000  0.835900  0.164100  1.0  -0.2095
  C  C684  1  0.350100  0.842890  0.157110  1.0  0.2898
  C  C685  1  0.335200  0.874760  0.125240  1.0  -0.0939
  C  C686  1  0.331400  0.787930  0.212070  1.0  0.095
  C  C687  1  0.289730  0.768890  0.231110  1.0  0.0331
  C  C688  1  0.851800  0.432070  0.567930  1.0  0.7178
  C  C689  1  0.868600  0.398090  0.601910  1.0  -0.1361
  C  C690  1  0.910800  0.390100  0.609900  1.0  -0.091
  C  C691  1  0.924200  0.362600  0.637400  1.0  -0.1028
  C  C692  1  0.895000  0.335900  0.664100  1.0  -0.2095
  C  C693  1  0.850100  0.342890  0.657110  1.0  0.2898
  C  C694  1  0.835200  0.374760  0.625240  1.0  -0.0939
  C  C695  1  0.831400  0.287930  0.712070  1.0  0.095
  C  C696  1  0.789730  0.268890  0.731110  1.0  0.0331
  C  C697  1  0.648200  0.067930  0.067930  1.0  0.7166
  C  C698  1  0.631400  0.101910  0.101910  1.0  -0.1356
  C  C699  1  0.589200  0.109900  0.109900  1.0  -0.09
  C  C700  1  0.575800  0.137400  0.137400  1.0  -0.1049
  C  C701  1  0.605000  0.164100  0.164100  1.0  -0.2104
  C  C702  1  0.649900  0.157110  0.157110  1.0  0.2898
  C  C703  1  0.664800  0.125240  0.125240  1.0  -0.0896
  C  C704  1  0.668600  0.212070  0.212070  1.0  0.0974
  C  C705  1  0.710270  0.231110  0.231110  1.0  0.032
  C  C706  1  0.148200  0.567930  0.567930  1.0  0.7166
  C  C707  1  0.131400  0.601910  0.601910  1.0  -0.1356
  C  C708  1  0.089200  0.609900  0.609900  1.0  -0.09
  C  C709  1  0.075800  0.637400  0.637400  1.0  -0.1049
  C  C710  1  0.105000  0.664100  0.664100  1.0  -0.2104
  C  C711  1  0.149900  0.657110  0.657110  1.0  0.2898
  C  C712  1  0.164800  0.625240  0.625240  1.0  -0.0896
  C  C713  1  0.168600  0.712070  0.712070  1.0  0.0974
  C  C714  1  0.210270  0.731110  0.731110  1.0  0.032
  C  C715  1  0.648200  0.932070  0.932070  1.0  0.7169
  C  C716  1  0.631400  0.898090  0.898090  1.0  -0.1363
  C  C717  1  0.589200  0.890100  0.890100  1.0  -0.0897
  C  C718  1  0.575800  0.862600  0.862600  1.0  -0.1039
  C  C719  1  0.605000  0.835900  0.835900  1.0  -0.2109
  C  C720  1  0.649900  0.842890  0.842890  1.0  0.2888
  C  C721  1  0.664800  0.874760  0.874760  1.0  -0.0895
  C  C722  1  0.668600  0.787930  0.787930  1.0  0.0974
  C  C723  1  0.710270  0.768890  0.768890  1.0  0.0318
  C  C724  1  0.148200  0.432070  0.432070  1.0  0.7169
  C  C725  1  0.131400  0.398090  0.398090  1.0  -0.1363
  C  C726  1  0.089200  0.390100  0.390100  1.0  -0.0897
  C  C727  1  0.075800  0.362600  0.362600  1.0  -0.1039
  C  C728  1  0.105000  0.335900  0.335900  1.0  -0.2109
  C  C729  1  0.149900  0.342890  0.342890  1.0  0.2888
  C  C730  1  0.164800  0.374760  0.374760  1.0  -0.0895
  C  C731  1  0.168600  0.287930  0.287930  1.0  0.0974
  C  C732  1  0.210270  0.268890  0.268890  1.0  0.0318
  O  O733  1  0.063900  0.063900  0.310890  1.0  -0.4365
  O  O734  1  0.047480  0.047480  0.380020  1.0  -0.5948
  O  O735  1  0.179180  0.179180  0.317750  1.0  -0.258
  O  O736  1  0.563900  0.563900  0.810890  1.0  -0.4365
  O  O737  1  0.547480  0.547480  0.880020  1.0  -0.5948
  O  O738  1  0.679180  0.679180  0.817750  1.0  -0.258
  O  O739  1  0.936100  0.936100  0.310890  1.0  -0.4362
  O  O740  1  0.952520  0.952520  0.380020  1.0  -0.5942
  O  O741  1  0.820820  0.820820  0.317750  1.0  -0.2582
  O  O742  1  0.436100  0.436100  0.810890  1.0  -0.4362
  O  O743  1  0.452520  0.452520  0.880020  1.0  -0.5942
  O  O744  1  0.320820  0.320820  0.817750  1.0  -0.2582
  O  O745  1  0.936100  0.063900  0.689110  1.0  -0.4378
  O  O746  1  0.952520  0.047480  0.619980  1.0  -0.5953
  O  O747  1  0.820820  0.179180  0.682250  1.0  -0.2568
  O  O748  1  0.436100  0.563900  0.189110  1.0  -0.4378
  O  O749  1  0.452520  0.547480  0.119980  1.0  -0.5953
  O  O750  1  0.320820  0.679180  0.182250  1.0  -0.2568
  O  O751  1  0.063900  0.936100  0.689110  1.0  -0.4388
  O  O752  1  0.047480  0.952520  0.619980  1.0  -0.5956
  O  O753  1  0.179180  0.820820  0.682250  1.0  -0.2568
  O  O754  1  0.563900  0.436100  0.189110  1.0  -0.4388
  O  O755  1  0.547480  0.452520  0.119980  1.0  -0.5956
  O  O756  1  0.679180  0.320820  0.182250  1.0  -0.2568
  O  O757  1  0.310890  0.063900  0.063900  1.0  -0.4509
  O  O758  1  0.380020  0.047480  0.047480  1.0  -0.5966
  O  O759  1  0.317750  0.179180  0.179180  1.0  -0.2582
  O  O760  1  0.810890  0.563900  0.563900  1.0  -0.4509
  O  O761  1  0.880020  0.547480  0.547480  1.0  -0.5966
  O  O762  1  0.817750  0.679180  0.679180  1.0  -0.2582
  O  O763  1  0.310890  0.936100  0.936100  1.0  -0.4516
  O  O764  1  0.380020  0.952520  0.952520  1.0  -0.5962
  O  O765  1  0.317750  0.820820  0.820820  1.0  -0.2599
  O  O766  1  0.810890  0.436100  0.436100  1.0  -0.4516
  O  O767  1  0.880020  0.452520  0.452520  1.0  -0.5962
  O  O768  1  0.817750  0.320820  0.320820  1.0  -0.2599
  O  O769  1  0.689110  0.936100  0.063900  1.0  -0.4491
  O  O770  1  0.619980  0.952520  0.047480  1.0  -0.597
  O  O771  1  0.682250  0.820820  0.179180  1.0  -0.2584
  O  O772  1  0.189110  0.436100  0.563900  1.0  -0.4491
  O  O773  1  0.119980  0.452520  0.547480  1.0  -0.597
  O  O774  1  0.182250  0.320820  0.679180  1.0  -0.2584
  O  O775  1  0.689110  0.063900  0.936100  1.0  -0.4507
  O  O776  1  0.619980  0.047480  0.952520  1.0  -0.5969
  O  O777  1  0.682250  0.179180  0.820820  1.0  -0.2586
  O  O778  1  0.189110  0.563900  0.436100  1.0  -0.4507
  O  O779  1  0.119980  0.547480  0.452520  1.0  -0.5969
  O  O780  1  0.182250  0.679180  0.320820  1.0  -0.2586
  O  O781  1  0.063900  0.310890  0.063900  1.0  -0.4387
  O  O782  1  0.047480  0.380020  0.047480  1.0  -0.5967
  O  O783  1  0.179180  0.317750  0.179180  1.0  -0.2578
  O  O784  1  0.563900  0.810890  0.563900  1.0  -0.4387
  O  O785  1  0.547480  0.880020  0.547480  1.0  -0.5967
  O  O786  1  0.679180  0.817750  0.679180  1.0  -0.2578
  O  O787  1  0.936100  0.310890  0.936100  1.0  -0.4383
  O  O788  1  0.952520  0.380020  0.952520  1.0  -0.5969
  O  O789  1  0.820820  0.317750  0.820820  1.0  -0.2582
  O  O790  1  0.436100  0.810890  0.436100  1.0  -0.4383
  O  O791  1  0.452520  0.880020  0.452520  1.0  -0.5969
  O  O792  1  0.320820  0.817750  0.320820  1.0  -0.2582
  O  O793  1  0.063900  0.689110  0.936100  1.0  -0.441
  O  O794  1  0.047480  0.619980  0.952520  1.0  -0.595
  O  O795  1  0.179180  0.682250  0.820820  1.0  -0.2592
  O  O796  1  0.563900  0.189110  0.436100  1.0  -0.441
  O  O797  1  0.547480  0.119980  0.452520  1.0  -0.595
  O  O798  1  0.679180  0.182250  0.320820  1.0  -0.2592
  O  O799  1  0.936100  0.689110  0.063900  1.0  -0.4406
  O  O800  1  0.952520  0.619980  0.047480  1.0  -0.5958
  O  O801  1  0.820820  0.682250  0.179180  1.0  -0.2586
  O  O802  1  0.436100  0.189110  0.563900  1.0  -0.4406
  O  O803  1  0.452520  0.119980  0.547480  1.0  -0.5958
  O  O804  1  0.320820  0.182250  0.679180  1.0  -0.2586
  O  O805  1  0.063900  0.063900  0.689110  1.0  -0.4388
  O  O806  1  0.047480  0.047480  0.619980  1.0  -0.5951
  O  O807  1  0.179180  0.179180  0.682250  1.0  -0.2566
  O  O808  1  0.563900  0.563900  0.189110  1.0  -0.4388
  O  O809  1  0.547480  0.547480  0.119980  1.0  -0.5951
  O  O810  1  0.679180  0.679180  0.182250  1.0  -0.2566
  O  O811  1  0.936100  0.936100  0.689110  1.0  -0.4378
  O  O812  1  0.952520  0.952520  0.619980  1.0  -0.5958
  O  O813  1  0.820820  0.820820  0.682250  1.0  -0.2572
  O  O814  1  0.436100  0.436100  0.189110  1.0  -0.4378
  O  O815  1  0.452520  0.452520  0.119980  1.0  -0.5958
  O  O816  1  0.320820  0.320820  0.182250  1.0  -0.2572
  O  O817  1  0.063900  0.936100  0.310890  1.0  -0.4366
  O  O818  1  0.047480  0.952520  0.380020  1.0  -0.594
  O  O819  1  0.179180  0.820820  0.317750  1.0  -0.2576
  O  O820  1  0.563900  0.436100  0.810890  1.0  -0.4366
  O  O821  1  0.547480  0.452520  0.880020  1.0  -0.594
  O  O822  1  0.679180  0.320820  0.817750  1.0  -0.2576
  O  O823  1  0.936100  0.063900  0.310890  1.0  -0.436
  O  O824  1  0.952520  0.047480  0.380020  1.0  -0.595
  O  O825  1  0.820820  0.179180  0.317750  1.0  -0.2583
  O  O826  1  0.436100  0.563900  0.810890  1.0  -0.436
  O  O827  1  0.452520  0.547480  0.880020  1.0  -0.595
  O  O828  1  0.320820  0.679180  0.817750  1.0  -0.2583
  O  O829  1  0.063900  0.310890  0.936100  1.0  -0.4391
  O  O830  1  0.047480  0.380020  0.952520  1.0  -0.5966
  O  O831  1  0.179180  0.317750  0.820820  1.0  -0.258
  O  O832  1  0.563900  0.810890  0.436100  1.0  -0.4391
  O  O833  1  0.547480  0.880020  0.452520  1.0  -0.5966
  O  O834  1  0.679180  0.817750  0.320820  1.0  -0.258
  O  O835  1  0.936100  0.310890  0.063900  1.0  -0.4378
  O  O836  1  0.952520  0.380020  0.047480  1.0  -0.5972
  O  O837  1  0.820820  0.317750  0.179180  1.0  -0.2578
  O  O838  1  0.436100  0.810890  0.563900  1.0  -0.4378
  O  O839  1  0.452520  0.880020  0.547480  1.0  -0.5972
  O  O840  1  0.320820  0.817750  0.679180  1.0  -0.2578
  O  O841  1  0.936100  0.689110  0.936100  1.0  -0.4406
  O  O842  1  0.952520  0.619980  0.952520  1.0  -0.5952
  O  O843  1  0.820820  0.682250  0.820820  1.0  -0.2592
  O  O844  1  0.436100  0.189110  0.436100  1.0  -0.4406
  O  O845  1  0.452520  0.119980  0.452520  1.0  -0.5952
  O  O846  1  0.320820  0.182250  0.320820  1.0  -0.2592
  O  O847  1  0.063900  0.689110  0.063900  1.0  -0.4409
  O  O848  1  0.047480  0.619980  0.047480  1.0  -0.5954
  O  O849  1  0.179180  0.682250  0.179180  1.0  -0.2588
  O  O850  1  0.563900  0.189110  0.563900  1.0  -0.4409
  O  O851  1  0.547480  0.119980  0.547480  1.0  -0.5954
  O  O852  1  0.679180  0.182250  0.679180  1.0  -0.2588
  O  O853  1  0.310890  0.063900  0.936100  1.0  -0.4515
  O  O854  1  0.380020  0.047480  0.952520  1.0  -0.5965
  O  O855  1  0.317750  0.179180  0.820820  1.0  -0.2588
  O  O856  1  0.810890  0.563900  0.436100  1.0  -0.4515
  O  O857  1  0.880020  0.547480  0.452520  1.0  -0.5965
  O  O858  1  0.817750  0.679180  0.320820  1.0  -0.2588
  O  O859  1  0.310890  0.936100  0.063900  1.0  -0.4513
  O  O860  1  0.380020  0.952520  0.047480  1.0  -0.5964
  O  O861  1  0.317750  0.820820  0.179180  1.0  -0.2589
  O  O862  1  0.810890  0.436100  0.563900  1.0  -0.4513
  O  O863  1  0.880020  0.452520  0.547480  1.0  -0.5964
  O  O864  1  0.817750  0.320820  0.679180  1.0  -0.2589
  O  O865  1  0.689110  0.063900  0.063900  1.0  -0.4495
  O  O866  1  0.619980  0.047480  0.047480  1.0  -0.5969
  O  O867  1  0.682250  0.179180  0.179180  1.0  -0.2581
  O  O868  1  0.189110  0.563900  0.563900  1.0  -0.4495
  O  O869  1  0.119980  0.547480  0.547480  1.0  -0.5969
  O  O870  1  0.182250  0.679180  0.679180  1.0  -0.2581
  O  O871  1  0.689110  0.936100  0.936100  1.0  -0.4501
  O  O872  1  0.619980  0.952520  0.952520  1.0  -0.5966
  O  O873  1  0.682250  0.820820  0.820820  1.0  -0.2587
  O  O874  1  0.189110  0.436100  0.436100  1.0  -0.4501
  O  O875  1  0.119980  0.452520  0.452520  1.0  -0.5966
  O  O876  1  0.182250  0.320820  0.320820  1.0  -0.2587
