# generated using pymatgen
data_Cu3H44C50(NO)8
_symmetry_space_group_name_H-M   'P 1'
_cell_length_a   19.42510000
_cell_length_b   36.58900000
_cell_length_c   37.76200000
_cell_angle_alpha   90.00000000
_cell_angle_beta   114.20200000
_cell_angle_gamma   90.00000000
_symmetry_Int_Tables_number   1
_chemical_formula_structural   Cu3H44C50(NO)8
_chemical_formula_sum   'Cu24 H352 C400 N64 O64'
_cell_volume   24480.14645833
_cell_formula_units_Z   8
loop_
 _symmetry_equiv_pos_site_id
 _symmetry_equiv_pos_as_xyz
  1  'x, y, z'
loop_
 _atom_site_type_symbol
 _atom_site_label
 _atom_site_symmetry_multiplicity
 _atom_site_fract_x
 _atom_site_fract_y
 _atom_site_fract_z
 _atom_site_occupancy
 _atom_site_charge
  Cu  Cu1  1  0.096410  0.189280  0.247030  1.0  0.8946
  Cu  Cu2  1  0.162010  0.188760  0.323390  1.0  0.9095
  Cu  Cu3  1  0.406930  0.205140  0.947160  1.0  0.9119
  Cu  Cu4  1  0.554940  0.200900  0.973090  1.0  0.8741
  Cu  Cu5  1  0.547890  0.456670  0.762220  1.0  0.411
  Cu  Cu6  1  0.605010  0.392180  0.249220  1.0  0.4065
  Cu  Cu7  1  0.903590  0.689280  0.252970  1.0  0.8949
  Cu  Cu8  1  0.837990  0.688760  0.176610  1.0  0.9094
  Cu  Cu9  1  0.593070  0.705140  0.552840  1.0  0.9154
  Cu  Cu10  1  0.445060  0.700900  0.526910  1.0  0.8756
  Cu  Cu11  1  0.452110  0.956670  0.737780  1.0  0.4115
  Cu  Cu12  1  0.394990  0.892180  0.250780  1.0  0.4063
  Cu  Cu13  1  0.903590  0.810720  0.752970  1.0  0.8933
  Cu  Cu14  1  0.837990  0.811240  0.676610  1.0  0.9093
  Cu  Cu15  1  0.593070  0.794860  0.052840  1.0  0.9157
  Cu  Cu16  1  0.445060  0.799100  0.026910  1.0  0.874
  Cu  Cu17  1  0.452110  0.543330  0.237780  1.0  0.4122
  Cu  Cu18  1  0.394990  0.607820  0.750780  1.0  0.4066
  Cu  Cu19  1  0.096410  0.310720  0.747030  1.0  0.8971
  Cu  Cu20  1  0.162010  0.311240  0.823390  1.0  0.9097
  Cu  Cu21  1  0.406930  0.294860  0.447160  1.0  0.9119
  Cu  Cu22  1  0.554940  0.299100  0.473090  1.0  0.8747
  Cu  Cu23  1  0.547890  0.043330  0.262220  1.0  0.4116
  Cu  Cu24  1  0.605010  0.107820  0.749220  1.0  0.4067
  H  H25  1  0.715700  0.970700  0.324200  1.0  0.0756
  H  H26  1  0.647600  0.994100  0.326000  1.0  0.1066
  H  H27  1  0.692400  0.343600  0.356500  1.0  0.0808
  H  H28  1  0.670100  0.382500  0.335500  1.0  0.109
  H  H29  1  0.449800  0.447600  0.157700  1.0  0.0703
  H  H30  1  0.464900  0.426900  0.197500  1.0  0.0838
  H  H31  1  0.383100  0.445300  0.720900  1.0  0.0884
  H  H32  1  0.343500  0.406700  0.705200  1.0  0.0709
  H  H33  1  0.409800  0.960700  0.192100  1.0  0.1148
  H  H34  1  0.444000  0.982500  0.166200  1.0  0.1253
  H  H35  1  0.429700  0.003200  0.199900  1.0  0.1163
  H  H36  1  0.754500  0.363100  0.212500  1.0  0.1223
  H  H37  1  0.828100  0.383700  0.242400  1.0  0.1267
  H  H38  1  0.746600  0.401900  0.230000  1.0  0.1346
  H  H39  1  0.723900  0.482600  0.302200  1.0  0.1175
  H  H40  1  0.773000  0.471900  0.278500  1.0  0.1184
  H  H41  1  0.730400  0.440800  0.291600  1.0  0.1402
  H  H42  1  0.608800  0.467400  0.698600  1.0  0.1356
  H  H43  1  0.589200  0.456600  0.654400  1.0  0.126
  H  H44  1  0.638100  0.429400  0.688800  1.0  0.125
  H  H45  1  0.747800  0.936800  0.263800  1.0  0.1169
  H  H46  1  0.699100  0.899900  0.255000  1.0  0.1068
  H  H47  1  0.723300  0.920000  0.296000  1.0  0.1091
  H  H48  1  0.820800  0.310600  0.377200  1.0  0.1154
  H  H49  1  0.832400  0.279900  0.350000  1.0  0.1164
  H  H50  1  0.751000  0.285900  0.350200  1.0  0.121
  H  H51  1  0.532600  0.498600  0.130300  1.0  0.1166
  H  H52  1  0.531000  0.533900  0.154900  1.0  0.099
  H  H53  1  0.469100  0.502500  0.146800  1.0  0.1043
  H  H54  1  0.350200  0.356900  0.661200  1.0  0.1128
  H  H55  1  0.348400  0.364400  0.619000  1.0  0.1014
  H  H56  1  0.304100  0.391000  0.636100  1.0  0.0983
  H  H57  1  0.447300  0.913200  0.164700  1.0  0.096
  H  H58  1  0.834200  0.308800  0.232800  1.0  0.096
  H  H59  1  0.737500  0.538000  0.276400  1.0  0.1078
  H  H60  1  0.589500  0.383100  0.634700  1.0  0.0948
  H  H61  1  0.430600  0.874900  0.112600  1.0  0.1057
  H  H62  1  0.931700  0.273100  0.230200  1.0  0.1061
  H  H63  1  0.803000  0.591300  0.276100  1.0  0.1079
  H  H64  1  0.594200  0.358900  0.578200  1.0  0.1055
  H  H65  1  0.656400  0.876900  0.141900  1.0  0.1085
  H  H66  1  0.035300  0.274700  0.347700  1.0  0.1069
  H  H67  1  0.711400  0.590900  0.159100  1.0  0.1035
  H  H68  1  0.368600  0.375800  0.520800  1.0  0.1113
  H  H69  1  0.671300  0.917800  0.191500  1.0  0.1021
  H  H70  1  0.940900  0.311900  0.349500  1.0  0.1045
  H  H71  1  0.651100  0.535500  0.158400  1.0  0.1101
  H  H72  1  0.366400  0.402600  0.575900  1.0  0.1059
  H  H73  1  0.663000  0.115700  0.240500  1.0  0.1336
  H  H74  1  0.711000  0.132900  0.282400  1.0  0.143
  H  H75  1  0.627800  0.117600  0.272100  1.0  0.1365
  H  H76  1  0.422700  0.382400  0.222600  1.0  0.1216
  H  H77  1  0.374500  0.347400  0.223700  1.0  0.112
  H  H78  1  0.430500  0.345100  0.202400  1.0  0.134
  H  H79  1  0.662100  0.319600  0.191700  1.0  0.1283
  H  H80  1  0.588100  0.294400  0.175700  1.0  0.1377
  H  H81  1  0.612900  0.314700  0.216600  1.0  0.1358
  H  H82  1  0.629700  0.396000  0.851000  1.0  0.1161
  H  H83  1  0.578200  0.406800  0.873400  1.0  0.1265
  H  H84  1  0.598400  0.436900  0.848400  1.0  0.1221
  H  H85  1  0.857400  0.998300  0.352300  1.0  0.1164
  H  H86  1  0.886400  0.008800  0.319600  1.0  0.1276
  H  H87  1  0.825000  0.977100  0.311600  1.0  0.1081
  H  H88  1  0.639200  0.283900  0.356200  1.0  0.1145
  H  H89  1  0.556600  0.272800  0.352100  1.0  0.1236
  H  H90  1  0.597500  0.308200  0.376600  1.0  0.1275
  H  H91  1  0.385800  0.410200  0.091600  1.0  0.1146
  H  H92  1  0.438500  0.400200  0.069700  1.0  0.1236
  H  H93  1  0.455100  0.436100  0.096100  1.0  0.1202
  H  H94  1  0.305900  0.360700  0.738900  1.0  0.1023
  H  H95  1  0.351300  0.327300  0.765700  1.0  0.1155
  H  H96  1  0.363100  0.337300  0.727300  1.0  0.139
  H  H97  1  0.920000  0.077100  0.350400  1.0  0.1133
  H  H98  1  0.432900  0.303000  0.341300  1.0  0.0834
  H  H99  1  0.626200  0.322500  0.113700  1.0  0.1077
  H  H100  1  0.587400  0.330100  0.856300  1.0  0.107
  H  H101  1  0.016100  0.112900  0.347800  1.0  0.1061
  H  H102  1  0.332900  0.267300  0.339200  1.0  0.103
  H  H103  1  0.615000  0.279100  0.065700  1.0  0.1111
  H  H104  1  0.591200  0.283300  0.899500  1.0  0.106
  H  H105  1  0.893500  0.131000  0.233700  1.0  0.1119
  H  H106  1  0.280700  0.243100  0.226600  1.0  0.1148
  H  H107  1  0.387400  0.289600  0.022400  1.0  0.1145
  H  H108  1  0.368100  0.297300  0.872400  1.0  0.1109
  H  H109  1  0.793000  0.098800  0.237600  1.0  0.0966
  H  H110  1  0.383100  0.278200  0.228900  1.0  0.107
  H  H111  1  0.401600  0.331200  0.072100  1.0  0.0999
  H  H112  1  0.364500  0.345000  0.830500  1.0  0.0864
  H  H113  1  0.284300  0.470700  0.175800  1.0  0.0759
  H  H114  1  0.352400  0.494100  0.174000  1.0  0.1071
  H  H115  1  0.307600  0.843600  0.143500  1.0  0.0806
  H  H116  1  0.329900  0.882500  0.164500  1.0  0.1068
  H  H117  1  0.550200  0.947600  0.342300  1.0  0.0683
  H  H118  1  0.535100  0.926900  0.302500  1.0  0.085
  H  H119  1  0.616900  0.945300  0.779100  1.0  0.0909
  H  H120  1  0.656500  0.906700  0.794800  1.0  0.0715
  H  H121  1  0.590200  0.460700  0.307900  1.0  0.1155
  H  H122  1  0.556000  0.482500  0.333800  1.0  0.1251
  H  H123  1  0.570300  0.503200  0.300100  1.0  0.1165
  H  H124  1  0.245500  0.863100  0.287500  1.0  0.1232
  H  H125  1  0.171900  0.883700  0.257600  1.0  0.1291
  H  H126  1  0.253400  0.901900  0.270000  1.0  0.1332
  H  H127  1  0.276100  0.982600  0.197800  1.0  0.1151
  H  H128  1  0.227000  0.971900  0.221500  1.0  0.1184
  H  H129  1  0.269600  0.940800  0.208400  1.0  0.1384
  H  H130  1  0.391200  0.967400  0.801400  1.0  0.1354
  H  H131  1  0.410800  0.956600  0.845600  1.0  0.1266
  H  H132  1  0.361900  0.929400  0.811200  1.0  0.1242
  H  H133  1  0.252200  0.436800  0.236200  1.0  0.1167
  H  H134  1  0.300900  0.399900  0.245000  1.0  0.1044
  H  H135  1  0.276700  0.420000  0.204000  1.0  0.1074
  H  H136  1  0.179200  0.810600  0.122800  1.0  0.1158
  H  H137  1  0.167600  0.779900  0.150000  1.0  0.1144
  H  H138  1  0.249000  0.785900  0.149800  1.0  0.1215
  H  H139  1  0.467400  0.998600  0.369700  1.0  0.1164
  H  H140  1  0.469000  0.033900  0.345100  1.0  0.0986
  H  H141  1  0.530900  0.002500  0.353200  1.0  0.1028
  H  H142  1  0.649800  0.856900  0.838800  1.0  0.1139
  H  H143  1  0.651600  0.864400  0.881000  1.0  0.1004
  H  H144  1  0.695900  0.891000  0.863900  1.0  0.1006
  H  H145  1  0.552700  0.413200  0.335300  1.0  0.0957
  H  H146  1  0.165800  0.808800  0.267200  1.0  0.0968
  H  H147  1  0.262500  0.038000  0.223600  1.0  0.1085
  H  H148  1  0.410500  0.883100  0.865300  1.0  0.0938
  H  H149  1  0.569400  0.374900  0.387400  1.0  0.1051
  H  H150  1  0.068300  0.773100  0.269800  1.0  0.1065
  H  H151  1  0.197000  0.091300  0.223900  1.0  0.1096
  H  H152  1  0.405800  0.858900  0.921800  1.0  0.1062
  H  H153  1  0.343600  0.376900  0.358100  1.0  0.1088
  H  H154  1  0.964700  0.774700  0.152300  1.0  0.1069
  H  H155  1  0.288600  0.090900  0.340900  1.0  0.1026
  H  H156  1  0.631400  0.875800  0.979200  1.0  0.1111
  H  H157  1  0.328700  0.417800  0.308500  1.0  0.1009
  H  H158  1  0.059100  0.811900  0.150500  1.0  0.1043
  H  H159  1  0.348900  0.035500  0.341600  1.0  0.11
  H  H160  1  0.633600  0.902600  0.924100  1.0  0.1066
  H  H161  1  0.337000  0.615700  0.259500  1.0  0.1339
  H  H162  1  0.289000  0.632900  0.217600  1.0  0.1442
  H  H163  1  0.372200  0.617600  0.227900  1.0  0.1386
  H  H164  1  0.577300  0.882400  0.277400  1.0  0.1203
  H  H165  1  0.625500  0.847400  0.276300  1.0  0.1129
  H  H166  1  0.569500  0.845100  0.297600  1.0  0.1337
  H  H167  1  0.337900  0.819600  0.308300  1.0  0.1274
  H  H168  1  0.411900  0.794400  0.324300  1.0  0.1382
  H  H169  1  0.387100  0.814700  0.283400  1.0  0.1355
  H  H170  1  0.370300  0.896000  0.649000  1.0  0.1181
  H  H171  1  0.421800  0.906800  0.626600  1.0  0.1235
  H  H172  1  0.401600  0.936900  0.651600  1.0  0.1227
  H  H173  1  0.142600  0.498300  0.147700  1.0  0.1171
  H  H174  1  0.113600  0.508800  0.180400  1.0  0.1241
  H  H175  1  0.175000  0.477100  0.188400  1.0  0.1075
  H  H176  1  0.360800  0.783900  0.143800  1.0  0.1171
  H  H177  1  0.443400  0.772800  0.147900  1.0  0.1224
  H  H178  1  0.402500  0.808200  0.123400  1.0  0.1257
  H  H179  1  0.614200  0.910200  0.408400  1.0  0.1188
  H  H180  1  0.561500  0.900200  0.430300  1.0  0.1254
  H  H181  1  0.544900  0.936100  0.403900  1.0  0.1172
  H  H182  1  0.694100  0.860700  0.761100  1.0  0.1039
  H  H183  1  0.648700  0.827300  0.734300  1.0  0.1138
  H  H184  1  0.636900  0.837300  0.772700  1.0  0.1391
  H  H185  1  0.080000  0.577100  0.149600  1.0  0.1142
  H  H186  1  0.567100  0.803000  0.158700  1.0  0.0832
  H  H187  1  0.373800  0.822500  0.386300  1.0  0.1084
  H  H188  1  0.412600  0.830100  0.643700  1.0  0.1068
  H  H189  1  0.983900  0.612900  0.152200  1.0  0.1063
  H  H190  1  0.667100  0.767300  0.160800  1.0  0.1031
  H  H191  1  0.385000  0.779100  0.434300  1.0  0.1114
  H  H192  1  0.408800  0.783300  0.600500  1.0  0.1063
  H  H193  1  0.106500  0.631000  0.266300  1.0  0.1119
  H  H194  1  0.719300  0.743100  0.273400  1.0  0.1138
  H  H195  1  0.612600  0.789600  0.477600  1.0  0.1139
  H  H196  1  0.631900  0.797300  0.627600  1.0  0.111
  H  H197  1  0.207000  0.598800  0.262400  1.0  0.097
  H  H198  1  0.616900  0.778200  0.271100  1.0  0.1058
  H  H199  1  0.598400  0.831200  0.427900  1.0  0.0999
  H  H200  1  0.635500  0.845000  0.669500  1.0  0.0863
  H  H201  1  0.284300  0.029300  0.675800  1.0  0.0768
  H  H202  1  0.352400  0.005900  0.674000  1.0  0.1073
  H  H203  1  0.307600  0.656400  0.643500  1.0  0.0809
  H  H204  1  0.329900  0.617500  0.664500  1.0  0.1101
  H  H205  1  0.550200  0.552400  0.842300  1.0  0.0686
  H  H206  1  0.535100  0.573100  0.802500  1.0  0.0847
  H  H207  1  0.616900  0.554700  0.279100  1.0  0.0909
  H  H208  1  0.656500  0.593300  0.294800  1.0  0.0711
  H  H209  1  0.590200  0.039300  0.807900  1.0  0.1148
  H  H210  1  0.556000  0.017500  0.833800  1.0  0.125
  H  H211  1  0.570300  0.996800  0.800100  1.0  0.1168
  H  H212  1  0.245500  0.636900  0.787500  1.0  0.1227
  H  H213  1  0.171900  0.616300  0.757600  1.0  0.1293
  H  H214  1  0.253400  0.598100  0.770000  1.0  0.135
  H  H215  1  0.276100  0.517400  0.697800  1.0  0.1189
  H  H216  1  0.227000  0.528100  0.721500  1.0  0.1183
  H  H217  1  0.269600  0.559200  0.708400  1.0  0.1383
  H  H218  1  0.391200  0.532600  0.301400  1.0  0.1363
  H  H219  1  0.410800  0.543400  0.345600  1.0  0.127
  H  H220  1  0.361900  0.570600  0.311200  1.0  0.1246
  H  H221  1  0.252200  0.063200  0.736200  1.0  0.1167
  H  H222  1  0.300900  0.100100  0.745000  1.0  0.1071
  H  H223  1  0.276700  0.080000  0.704000  1.0  0.1096
  H  H224  1  0.179200  0.689400  0.622800  1.0  0.1131
  H  H225  1  0.167600  0.720100  0.650000  1.0  0.114
  H  H226  1  0.249000  0.714100  0.649800  1.0  0.123
  H  H227  1  0.467400  0.501400  0.869700  1.0  0.1165
  H  H228  1  0.469000  0.466100  0.845100  1.0  0.0968
  H  H229  1  0.530900  0.497500  0.853200  1.0  0.103
  H  H230  1  0.649800  0.643100  0.338800  1.0  0.113
  H  H231  1  0.651600  0.635600  0.381000  1.0  0.1011
  H  H232  1  0.695900  0.609000  0.363900  1.0  0.0981
  H  H233  1  0.552700  0.086800  0.835300  1.0  0.096
  H  H234  1  0.165800  0.691200  0.767200  1.0  0.0964
  H  H235  1  0.262500  0.462000  0.723600  1.0  0.1088
  H  H236  1  0.410500  0.616900  0.365300  1.0  0.0937
  H  H237  1  0.569400  0.125100  0.887400  1.0  0.1049
  H  H238  1  0.068300  0.726900  0.769800  1.0  0.1062
  H  H239  1  0.197000  0.408700  0.723900  1.0  0.108
  H  H240  1  0.405800  0.641100  0.421800  1.0  0.1058
  H  H241  1  0.343600  0.123100  0.858100  1.0  0.1089
  H  H242  1  0.964700  0.725300  0.652300  1.0  0.1073
  H  H243  1  0.288600  0.409100  0.840900  1.0  0.1028
  H  H244  1  0.631400  0.624200  0.479200  1.0  0.1116
  H  H245  1  0.328700  0.082200  0.808500  1.0  0.1011
  H  H246  1  0.059100  0.688100  0.650500  1.0  0.1045
  H  H247  1  0.348900  0.464500  0.841600  1.0  0.1097
  H  H248  1  0.633600  0.597400  0.424100  1.0  0.107
  H  H249  1  0.337000  0.884300  0.759500  1.0  0.1341
  H  H250  1  0.289000  0.867100  0.717600  1.0  0.1432
  H  H251  1  0.372200  0.882400  0.727900  1.0  0.1377
  H  H252  1  0.577300  0.617600  0.777400  1.0  0.1216
  H  H253  1  0.625500  0.652600  0.776300  1.0  0.1137
  H  H254  1  0.569500  0.654900  0.797600  1.0  0.1328
  H  H255  1  0.337900  0.680400  0.808300  1.0  0.1272
  H  H256  1  0.411900  0.705600  0.824300  1.0  0.1398
  H  H257  1  0.387100  0.685300  0.783400  1.0  0.136
  H  H258  1  0.370300  0.604000  0.149000  1.0  0.114
  H  H259  1  0.421800  0.593200  0.126600  1.0  0.1255
  H  H260  1  0.401600  0.563100  0.151600  1.0  0.1231
  H  H261  1  0.142600  0.001700  0.647700  1.0  0.1165
  H  H262  1  0.113600  0.991200  0.680400  1.0  0.1251
  H  H263  1  0.175000  0.022900  0.688400  1.0  0.1059
  H  H264  1  0.360800  0.716100  0.643800  1.0  0.1172
  H  H265  1  0.443400  0.727200  0.647900  1.0  0.1222
  H  H266  1  0.402500  0.691800  0.623400  1.0  0.1255
  H  H267  1  0.614200  0.589800  0.908400  1.0  0.116
  H  H268  1  0.561500  0.599800  0.930300  1.0  0.1258
  H  H269  1  0.544900  0.563900  0.903900  1.0  0.1204
  H  H270  1  0.694100  0.639300  0.261100  1.0  0.1031
  H  H271  1  0.648700  0.672700  0.234300  1.0  0.1148
  H  H272  1  0.636900  0.662700  0.272700  1.0  0.1397
  H  H273  1  0.080000  0.922900  0.649600  1.0  0.1136
  H  H274  1  0.567100  0.697000  0.658700  1.0  0.083
  H  H275  1  0.373800  0.677500  0.886300  1.0  0.1085
  H  H276  1  0.412600  0.669900  0.143700  1.0  0.1065
  H  H277  1  0.983900  0.887100  0.652200  1.0  0.1059
  H  H278  1  0.667100  0.732700  0.660800  1.0  0.1031
  H  H279  1  0.385000  0.720900  0.934300  1.0  0.1112
  H  H280  1  0.408800  0.716700  0.100500  1.0  0.1062
  H  H281  1  0.106500  0.869000  0.766300  1.0  0.1122
  H  H282  1  0.719300  0.756900  0.773400  1.0  0.1147
  H  H283  1  0.612600  0.710400  0.977600  1.0  0.1144
  H  H284  1  0.631900  0.702700  0.127600  1.0  0.1111
  H  H285  1  0.207000  0.901200  0.762400  1.0  0.0973
  H  H286  1  0.616900  0.721800  0.771100  1.0  0.1054
  H  H287  1  0.598400  0.668800  0.927900  1.0  0.1002
  H  H288  1  0.635500  0.655000  0.169500  1.0  0.0862
  H  H289  1  0.715700  0.529300  0.824200  1.0  0.0747
  H  H290  1  0.647600  0.505900  0.826000  1.0  0.1063
  H  H291  1  0.692400  0.156400  0.856500  1.0  0.0811
  H  H292  1  0.670100  0.117500  0.835500  1.0  0.1083
  H  H293  1  0.449800  0.052400  0.657700  1.0  0.0697
  H  H294  1  0.464900  0.073100  0.697500  1.0  0.0832
  H  H295  1  0.383100  0.054700  0.220900  1.0  0.0886
  H  H296  1  0.343500  0.093300  0.205200  1.0  0.0714
  H  H297  1  0.409800  0.539300  0.692100  1.0  0.1157
  H  H298  1  0.444000  0.517500  0.666200  1.0  0.1257
  H  H299  1  0.429700  0.496800  0.699900  1.0  0.1153
  H  H300  1  0.754500  0.136900  0.712500  1.0  0.1218
  H  H301  1  0.828100  0.116300  0.742400  1.0  0.1258
  H  H302  1  0.746600  0.098100  0.730000  1.0  0.1348
  H  H303  1  0.723900  0.017400  0.802200  1.0  0.1158
  H  H304  1  0.773000  0.028100  0.778500  1.0  0.1187
  H  H305  1  0.730400  0.059200  0.791600  1.0  0.1386
  H  H306  1  0.608800  0.032600  0.198600  1.0  0.1356
  H  H307  1  0.589200  0.043400  0.154400  1.0  0.1254
  H  H308  1  0.638100  0.070600  0.188800  1.0  0.125
  H  H309  1  0.747800  0.563200  0.763800  1.0  0.1164
  H  H310  1  0.699100  0.600100  0.755000  1.0  0.1088
  H  H311  1  0.723300  0.580000  0.796000  1.0  0.1081
  H  H312  1  0.820800  0.189400  0.877200  1.0  0.1173
  H  H313  1  0.832400  0.220100  0.850000  1.0  0.1145
  H  H314  1  0.751000  0.214100  0.850200  1.0  0.1235
  H  H315  1  0.532600  0.001400  0.630300  1.0  0.1164
  H  H316  1  0.531000  0.966100  0.654900  1.0  0.096
  H  H317  1  0.469100  0.997500  0.646800  1.0  0.1039
  H  H318  1  0.350200  0.143100  0.161200  1.0  0.1114
  H  H319  1  0.348400  0.135600  0.119000  1.0  0.0986
  H  H320  1  0.304100  0.109000  0.136100  1.0  0.1002
  H  H321  1  0.447300  0.586800  0.664700  1.0  0.0956
  H  H322  1  0.834200  0.191200  0.732800  1.0  0.0962
  H  H323  1  0.737500  0.962000  0.776400  1.0  0.1079
  H  H324  1  0.589500  0.116900  0.134700  1.0  0.0943
  H  H325  1  0.430600  0.625100  0.612600  1.0  0.1054
  H  H326  1  0.931700  0.226900  0.730200  1.0  0.1061
  H  H327  1  0.803000  0.908700  0.776100  1.0  0.1098
  H  H328  1  0.594200  0.141100  0.078200  1.0  0.1065
  H  H329  1  0.656400  0.623100  0.641900  1.0  0.1085
  H  H330  1  0.035300  0.225300  0.847700  1.0  0.107
  H  H331  1  0.711400  0.909100  0.659100  1.0  0.1038
  H  H332  1  0.368600  0.124200  0.020800  1.0  0.1116
  H  H333  1  0.671300  0.582200  0.691500  1.0  0.1019
  H  H334  1  0.940900  0.188100  0.849500  1.0  0.1042
  H  H335  1  0.651100  0.964500  0.658400  1.0  0.1103
  H  H336  1  0.366400  0.097400  0.075900  1.0  0.1062
  H  H337  1  0.663000  0.384300  0.740500  1.0  0.1327
  H  H338  1  0.711000  0.367100  0.782400  1.0  0.143
  H  H339  1  0.627800  0.382400  0.772100  1.0  0.1368
  H  H340  1  0.422700  0.117600  0.722600  1.0  0.1224
  H  H341  1  0.374500  0.152600  0.723700  1.0  0.112
  H  H342  1  0.430500  0.154900  0.702400  1.0  0.1334
  H  H343  1  0.662100  0.180400  0.691700  1.0  0.1285
  H  H344  1  0.588100  0.205600  0.675700  1.0  0.1394
  H  H345  1  0.612900  0.185300  0.716600  1.0  0.1365
  H  H346  1  0.629700  0.104000  0.351000  1.0  0.1195
  H  H347  1  0.578200  0.093200  0.373400  1.0  0.1226
  H  H348  1  0.598400  0.063100  0.348400  1.0  0.1246
  H  H349  1  0.857400  0.501700  0.852300  1.0  0.118
  H  H350  1  0.886400  0.491200  0.819600  1.0  0.1262
  H  H351  1  0.825000  0.522900  0.811600  1.0  0.1057
  H  H352  1  0.639200  0.216100  0.856200  1.0  0.1152
  H  H353  1  0.556600  0.227200  0.852100  1.0  0.1231
  H  H354  1  0.597500  0.191800  0.876600  1.0  0.1271
  H  H355  1  0.385800  0.089800  0.591600  1.0  0.1174
  H  H356  1  0.438500  0.099800  0.569700  1.0  0.1242
  H  H357  1  0.455100  0.063900  0.596100  1.0  0.1167
  H  H358  1  0.305900  0.139300  0.238900  1.0  0.1019
  H  H359  1  0.351300  0.172700  0.265700  1.0  0.1151
  H  H360  1  0.363100  0.162700  0.227300  1.0  0.1401
  H  H361  1  0.920000  0.422900  0.850400  1.0  0.1137
  H  H362  1  0.432900  0.197000  0.841300  1.0  0.0836
  H  H363  1  0.626200  0.177500  0.613700  1.0  0.1078
  H  H364  1  0.587400  0.169900  0.356300  1.0  0.1072
  H  H365  1  0.016100  0.387100  0.847800  1.0  0.1059
  H  H366  1  0.332900  0.232700  0.839200  1.0  0.1033
  H  H367  1  0.615000  0.220900  0.565700  1.0  0.1112
  H  H368  1  0.591200  0.216700  0.399500  1.0  0.1071
  H  H369  1  0.893500  0.369000  0.733700  1.0  0.1121
  H  H370  1  0.280700  0.256900  0.726600  1.0  0.1135
  H  H371  1  0.387400  0.210400  0.522400  1.0  0.1138
  H  H372  1  0.368100  0.202700  0.372400  1.0  0.1112
  H  H373  1  0.793000  0.401200  0.737600  1.0  0.0966
  H  H374  1  0.383100  0.221800  0.728900  1.0  0.1066
  H  H375  1  0.401600  0.168800  0.572100  1.0  0.0998
  H  H376  1  0.364500  0.155000  0.330500  1.0  0.0863
  C  C377  1  0.675480  0.988460  0.309850  1.0  -0.0186
  C  C378  1  0.671340  0.355900  0.330900  1.0  0.0109
  C  C379  1  0.487900  0.433870  0.179470  1.0  0.0113
  C  C380  1  0.392840  0.419040  0.718490  1.0  0.0218
  C  C381  1  0.522330  0.970490  0.220250  1.0  0.2004
  C  C382  1  0.765890  0.359710  0.269140  1.0  0.2052
  C  C383  1  0.659780  0.470520  0.245420  1.0  0.2194
  C  C384  1  0.524800  0.428600  0.677350  1.0  0.1989
  C  C385  1  0.573100  0.943500  0.217410  1.0  -0.2253
  C  C386  1  0.810450  0.331870  0.293550  1.0  -0.2367
  C  C387  1  0.641220  0.498480  0.217010  1.0  -0.2214
  C  C388  1  0.473100  0.406920  0.648000  1.0  -0.18
  C  C389  1  0.636990  0.945620  0.252160  1.0  0.1505
  C  C390  1  0.778640  0.325320  0.320070  1.0  0.1375
  C  C391  1  0.571710  0.488770  0.188070  1.0  0.1281
  C  C392  1  0.416200  0.398650  0.659980  1.0  0.1823
  C  C393  1  0.444890  0.980030  0.192220  1.0  -0.373
  C  C394  1  0.774500  0.378810  0.235530  1.0  -0.3699
  C  C395  1  0.727550  0.466060  0.282590  1.0  -0.3583
  C  C396  1  0.596600  0.447130  0.680020  1.0  -0.3938
  C  C397  1  0.707850  0.923710  0.268090  1.0  -0.3668
  C  C398  1  0.797300  0.298100  0.352130  1.0  -0.3686
  C  C399  1  0.521920  0.507500  0.151970  1.0  -0.3654
  C  C400  1  0.349300  0.375900  0.642660  1.0  -0.3801
  C  C401  1  0.561240  0.918990  0.184330  1.0  0.0079
  C  C402  1  0.875100  0.312420  0.291810  1.0  0.0198
  C  C403  1  0.684870  0.531760  0.217390  1.0  -0.0067
  C  C404  1  0.477400  0.394320  0.611620  1.0  -0.0069
  C  C405  1  0.489890  0.906030  0.160020  1.0  -0.1624
  C  C406  1  0.874600  0.301520  0.256190  1.0  -0.1384
  C  C407  1  0.731950  0.548550  0.252420  1.0  -0.143
  C  C408  1  0.544600  0.381670  0.611600  1.0  -0.1137
  C  C409  1  0.479830  0.882970  0.129160  1.0  -0.0401
  C  C410  1  0.932500  0.280150  0.254550  1.0  -0.0872
  C  C411  1  0.770460  0.580430  0.252240  1.0  -0.0599
  C  C412  1  0.547400  0.366790  0.577900  1.0  -0.0527
  C  C413  1  0.541620  0.871580  0.122470  1.0  -0.0975
  C  C414  1  0.992000  0.269010  0.289010  1.0  -0.1483
  C  C415  1  0.761500  0.596560  0.216960  1.0  -0.1296
  C  C416  1  0.481900  0.363680  0.544270  1.0  -0.1437
  C  C417  1  0.613780  0.884500  0.146310  1.0  -0.0713
  C  C418  1  0.994250  0.281290  0.324200  1.0  -0.0471
  C  C419  1  0.717090  0.580000  0.182920  1.0  -0.0091
  C  C420  1  0.413600  0.377320  0.543830  1.0  -0.0568
  C  C421  1  0.622520  0.908330  0.176130  1.0  -0.1096
  C  C422  1  0.937400  0.303020  0.325180  1.0  -0.117
  C  C423  1  0.679840  0.547300  0.182370  1.0  -0.1263
  C  C424  1  0.412300  0.392760  0.576790  1.0  -0.1441
  C  C425  1  0.532100  0.844640  0.090340  1.0  0.6843
  C  C426  1  0.048920  0.242100  0.287800  1.0  0.6907
  C  C427  1  0.800730  0.631920  0.216770  1.0  0.6611
  C  C428  1  0.482200  0.342520  0.510220  1.0  0.6792
  C  C429  1  0.706700  0.076720  0.283250  1.0  0.2072
  C  C430  1  0.485840  0.343720  0.261750  1.0  0.2238
  C  C431  1  0.563800  0.349250  0.170230  1.0  0.2108
  C  C432  1  0.518640  0.400780  0.815370  1.0  0.2216
  C  C433  1  0.781270  0.064030  0.295590  1.0  -0.191
  C  C434  1  0.485240  0.316460  0.287780  1.0  -0.1695
  C  C435  1  0.522800  0.355670  0.130740  1.0  -0.1347
  C  C436  1  0.469960  0.370340  0.809660  1.0  -0.1354
  C  C437  1  0.780310  0.028580  0.307930  1.0  0.1563
  C  C438  1  0.555590  0.316540  0.317480  1.0  0.0728
  C  C439  1  0.487700  0.389240  0.127720  1.0  0.1477
  C  C440  1  0.416250  0.372500  0.771930  1.0  0.0926
  C  C441  1  0.674300  0.114040  0.268240  1.0  -0.3955
  C  C442  1  0.422900  0.355720  0.224340  1.0  -0.3995
  C  C443  1  0.610800  0.316630  0.190320  1.0  -0.4285
  C  C444  1  0.586990  0.410980  0.849960  1.0  -0.416
  C  C445  1  0.842700  0.000780  0.324270  1.0  -0.3806
  C  C446  1  0.590290  0.293320  0.353810  1.0  -0.3786
  C  C447  1  0.437500  0.410760  0.093350  1.0  -0.3915
  C  C448  1  0.353820  0.347270  0.748990  1.0  -0.4055
  C  C449  1  0.845570  0.084520  0.294340  1.0  0.0167
  C  C450  1  0.420000  0.293770  0.285510  1.0  0.0122
  C  C451  1  0.514800  0.330580  0.098080  1.0  0.0016
  C  C452  1  0.475320  0.341780  0.838360  1.0  -0.0256
  C  C453  1  0.913400  0.088700  0.326740  1.0  -0.1392
  C  C454  1  0.402770  0.290560  0.317970  1.0  -0.1347
  C  C455  1  0.577500  0.315420  0.095550  1.0  -0.0966
  C  C456  1  0.542830  0.323490  0.859380  1.0  -0.1195
  C  C457  1  0.971100  0.109410  0.325040  1.0  -0.0559
  C  C458  1  0.342770  0.269550  0.316610  1.0  -0.0294
  C  C459  1  0.571100  0.289650  0.066710  1.0  -0.0558
  C  C460  1  0.544990  0.295500  0.885010  1.0  -0.0597
  C  C461  1  0.964170  0.125170  0.290280  1.0  -0.1407
  C  C462  1  0.297350  0.251930  0.283240  1.0  -0.1466
  C  C463  1  0.500700  0.279850  0.039970  1.0  -0.1305
  C  C464  1  0.480170  0.285380  0.889390  1.0  -0.1285
  C  C465  1  0.898500  0.120720  0.257710  1.0  -0.0759
  C  C466  1  0.312100  0.255130  0.249980  1.0  -0.0752
  C  C467  1  0.436300  0.295690  0.041250  1.0  -0.0996
  C  C468  1  0.412430  0.303950  0.869050  1.0  -0.0513
  C  C469  1  0.839000  0.101010  0.260050  1.0  -0.1227
  C  C470  1  0.373160  0.276030  0.251500  1.0  -0.1176
  C  C471  1  0.445300  0.320690  0.070820  1.0  -0.1214
  C  C472  1  0.410350  0.332110  0.843980  1.0  -0.1356
  C  C473  1  0.026900  0.148600  0.288900  1.0  0.6742
  C  C474  1  0.233550  0.228860  0.282680  1.0  0.672
  C  C475  1  0.492800  0.251460  0.010050  1.0  0.6732
  C  C476  1  0.481070  0.253930  0.915280  1.0  0.6642
  C  C477  1  0.324520  0.488460  0.190150  1.0  -0.0186
  C  C478  1  0.328660  0.855900  0.169100  1.0  0.0132
  C  C479  1  0.512100  0.933870  0.320530  1.0  0.0102
  C  C480  1  0.607160  0.919040  0.781510  1.0  0.0204
  C  C481  1  0.477670  0.470490  0.279750  1.0  0.2002
  C  C482  1  0.234110  0.859710  0.230860  1.0  0.2056
  C  C483  1  0.340220  0.970520  0.254580  1.0  0.2186
  C  C484  1  0.475200  0.928600  0.822650  1.0  0.1955
  C  C485  1  0.426900  0.443500  0.282590  1.0  -0.2248
  C  C486  1  0.189550  0.831870  0.206450  1.0  -0.2372
  C  C487  1  0.358780  0.998480  0.282990  1.0  -0.2215
  C  C488  1  0.526900  0.906920  0.852000  1.0  -0.178
  C  C489  1  0.363010  0.445620  0.247840  1.0  0.1471
  C  C490  1  0.221360  0.825320  0.179930  1.0  0.1379
  C  C491  1  0.428290  0.988770  0.311930  1.0  0.129
  C  C492  1  0.583800  0.898650  0.840020  1.0  0.1823
  C  C493  1  0.555110  0.480030  0.307780  1.0  -0.3725
  C  C494  1  0.225500  0.878810  0.264470  1.0  -0.3703
  C  C495  1  0.272450  0.966060  0.217410  1.0  -0.3594
  C  C496  1  0.403400  0.947130  0.819980  1.0  -0.3893
  C  C497  1  0.292150  0.423710  0.231910  1.0  -0.3674
  C  C498  1  0.202700  0.798100  0.147870  1.0  -0.3675
  C  C499  1  0.478080  0.007500  0.348030  1.0  -0.3646
  C  C500  1  0.650700  0.875900  0.857340  1.0  -0.3801
  C  C501  1  0.438760  0.418990  0.315670  1.0  0.0099
  C  C502  1  0.124900  0.812420  0.208190  1.0  0.0201
  C  C503  1  0.315130  0.031760  0.282610  1.0  -0.0071
  C  C504  1  0.522600  0.894320  0.888380  1.0  -0.0073
  C  C505  1  0.510110  0.406030  0.339980  1.0  -0.1626
  C  C506  1  0.125400  0.801520  0.243810  1.0  -0.1362
  C  C507  1  0.268050  0.048550  0.247580  1.0  -0.1412
  C  C508  1  0.455400  0.881670  0.888400  1.0  -0.1144
  C  C509  1  0.520170  0.382970  0.370840  1.0  -0.0406
  C  C510  1  0.067500  0.780150  0.245450  1.0  -0.0902
  C  C511  1  0.229540  0.080430  0.247760  1.0  -0.0594
  C  C512  1  0.452600  0.866790  0.922100  1.0  -0.0527
  C  C513  1  0.458380  0.371580  0.377530  1.0  -0.0981
  C  C514  1  0.008000  0.769010  0.210990  1.0  -0.1486
  C  C515  1  0.238500  0.096560  0.283040  1.0  -0.1297
  C  C516  1  0.518100  0.863680  0.955730  1.0  -0.1418
  C  C517  1  0.386220  0.384500  0.353690  1.0  -0.0705
  C  C518  1  0.005750  0.781290  0.175800  1.0  -0.0488
  C  C519  1  0.282910  0.080000  0.317080  1.0  -0.009
  C  C520  1  0.586400  0.877320  0.956170  1.0  -0.0562
  C  C521  1  0.377480  0.408330  0.323870  1.0  -0.1125
  C  C522  1  0.062600  0.803020  0.174820  1.0  -0.1176
  C  C523  1  0.320160  0.047300  0.317630  1.0  -0.1277
  C  C524  1  0.587700  0.892760  0.923210  1.0  -0.1422
  C  C525  1  0.467900  0.344640  0.409660  1.0  0.6834
  C  C526  1  0.951080  0.742100  0.212200  1.0  0.6902
  C  C527  1  0.199270  0.131920  0.283230  1.0  0.6627
  C  C528  1  0.517800  0.842520  0.989780  1.0  0.679
  C  C529  1  0.293300  0.576720  0.216750  1.0  0.207
  C  C530  1  0.514160  0.843720  0.238250  1.0  0.2229
  C  C531  1  0.436200  0.849250  0.329770  1.0  0.21
  C  C532  1  0.481360  0.900780  0.684630  1.0  0.2203
  C  C533  1  0.218730  0.564030  0.204410  1.0  -0.1902
  C  C534  1  0.514760  0.816460  0.212220  1.0  -0.1684
  C  C535  1  0.477200  0.855670  0.369260  1.0  -0.1335
  C  C536  1  0.530040  0.870340  0.690340  1.0  -0.1355
  C  C537  1  0.219690  0.528580  0.192070  1.0  0.1524
  C  C538  1  0.444410  0.816540  0.182520  1.0  0.0737
  C  C539  1  0.512300  0.889240  0.372280  1.0  0.147
  C  C540  1  0.583750  0.872500  0.728070  1.0  0.0922
  C  C541  1  0.325700  0.614040  0.231760  1.0  -0.396
  C  C542  1  0.577100  0.855720  0.275660  1.0  -0.3994
  C  C543  1  0.389200  0.816630  0.309680  1.0  -0.4275
  C  C544  1  0.413010  0.910980  0.650040  1.0  -0.4166
  C  C545  1  0.157300  0.500780  0.175730  1.0  -0.3815
  C  C546  1  0.409710  0.793320  0.146190  1.0  -0.3799
  C  C547  1  0.562500  0.910760  0.406650  1.0  -0.3936
  C  C548  1  0.646180  0.847270  0.751010  1.0  -0.4049
  C  C549  1  0.154430  0.584520  0.205660  1.0  0.0174
  C  C550  1  0.580000  0.793770  0.214490  1.0  0.0116
  C  C551  1  0.485200  0.830580  0.401920  1.0  0.0008
  C  C552  1  0.524680  0.841780  0.661640  1.0  -0.0263
  C  C553  1  0.086600  0.588700  0.173260  1.0  -0.1401
  C  C554  1  0.597230  0.790560  0.182030  1.0  -0.133
  C  C555  1  0.422500  0.815420  0.404450  1.0  -0.0976
  C  C556  1  0.457170  0.823490  0.640620  1.0  -0.122
  C  C557  1  0.028900  0.609410  0.174960  1.0  -0.0571
  C  C558  1  0.657230  0.769550  0.183390  1.0  -0.0306
  C  C559  1  0.428900  0.789650  0.433290  1.0  -0.0568
  C  C560  1  0.455010  0.795500  0.614990  1.0  -0.0618
  C  C561  1  0.035830  0.625170  0.209720  1.0  -0.1409
  C  C562  1  0.702650  0.751930  0.216760  1.0  -0.1474
  C  C563  1  0.499300  0.779850  0.460030  1.0  -0.1303
  C  C564  1  0.519830  0.785380  0.610610  1.0  -0.1295
  C  C565  1  0.101500  0.620720  0.242290  1.0  -0.0773
  C  C566  1  0.687900  0.755130  0.250020  1.0  -0.0757
  C  C567  1  0.563700  0.795690  0.458750  1.0  -0.0984
  C  C568  1  0.587570  0.803950  0.630950  1.0  -0.0478
  C  C569  1  0.161000  0.601010  0.239950  1.0  -0.1213
  C  C570  1  0.626840  0.776030  0.248500  1.0  -0.1198
  C  C571  1  0.554700  0.820690  0.429180  1.0  -0.1203
  C  C572  1  0.589650  0.832110  0.656020  1.0  -0.1362
  C  C573  1  0.973100  0.648600  0.211100  1.0  0.6745
  C  C574  1  0.766450  0.728860  0.217320  1.0  0.6697
  C  C575  1  0.507200  0.751460  0.489950  1.0  0.6732
  C  C576  1  0.518930  0.753930  0.584720  1.0  0.6652
  C  C577  1  0.324520  0.011540  0.690150  1.0  -0.0191
  C  C578  1  0.328660  0.644100  0.669100  1.0  0.0128
  C  C579  1  0.512100  0.566130  0.820530  1.0  0.0096
  C  C580  1  0.607160  0.580960  0.281510  1.0  0.0188
  C  C581  1  0.477670  0.029510  0.779750  1.0  0.2003
  C  C582  1  0.234110  0.640290  0.730860  1.0  0.206
  C  C583  1  0.340220  0.529480  0.754580  1.0  0.2192
  C  C584  1  0.475200  0.571400  0.322650  1.0  0.1953
  C  C585  1  0.426900  0.056500  0.782590  1.0  -0.2253
  C  C586  1  0.189550  0.668130  0.706450  1.0  -0.2372
  C  C587  1  0.358780  0.501520  0.782990  1.0  -0.2211
  C  C588  1  0.526900  0.593080  0.352000  1.0  -0.1784
  C  C589  1  0.363010  0.054380  0.747840  1.0  0.147
  C  C590  1  0.221360  0.674680  0.679930  1.0  0.1381
  C  C591  1  0.428290  0.511230  0.811930  1.0  0.1288
  C  C592  1  0.583800  0.601350  0.340020  1.0  0.1819
  C  C593  1  0.555110  0.019970  0.807780  1.0  -0.3724
  C  C594  1  0.225500  0.621190  0.764470  1.0  -0.3701
  C  C595  1  0.272450  0.533940  0.717410  1.0  -0.3596
  C  C596  1  0.403400  0.552870  0.319980  1.0  -0.3896
  C  C597  1  0.292150  0.076290  0.731910  1.0  -0.3666
  C  C598  1  0.202700  0.701900  0.647870  1.0  -0.3652
  C  C599  1  0.478080  0.492500  0.848030  1.0  -0.3644
  C  C600  1  0.650700  0.624100  0.357340  1.0  -0.3797
  C  C601  1  0.438760  0.081010  0.815670  1.0  0.0123
  C  C602  1  0.124900  0.687580  0.708190  1.0  0.0196
  C  C603  1  0.315130  0.468240  0.782610  1.0  -0.0068
  C  C604  1  0.522600  0.605680  0.388380  1.0  -0.0073
  C  C605  1  0.510110  0.093970  0.839980  1.0  -0.1629
  C  C606  1  0.125400  0.698480  0.743810  1.0  -0.136
  C  C607  1  0.268050  0.451450  0.747580  1.0  -0.141
  C  C608  1  0.455400  0.618330  0.388400  1.0  -0.1141
  C  C609  1  0.520170  0.117030  0.870840  1.0  -0.0411
  C  C610  1  0.067500  0.719850  0.745450  1.0  -0.0901
  C  C611  1  0.229540  0.419570  0.747760  1.0  -0.0597
  C  C612  1  0.452600  0.633210  0.422100  1.0  -0.0522
  C  C613  1  0.458380  0.128420  0.877530  1.0  -0.0984
  C  C614  1  0.008000  0.730990  0.710990  1.0  -0.1486
  C  C615  1  0.238500  0.403440  0.783040  1.0  -0.1291
  C  C616  1  0.518100  0.636320  0.455730  1.0  -0.1435
  C  C617  1  0.386220  0.115500  0.853690  1.0  -0.0697
  C  C618  1  0.005750  0.718710  0.675800  1.0  -0.0488
  C  C619  1  0.282910  0.420000  0.817080  1.0  -0.0092
  C  C620  1  0.586400  0.622680  0.456170  1.0  -0.056
  C  C621  1  0.377480  0.091670  0.823870  1.0  -0.1117
  C  C622  1  0.062600  0.696980  0.674820  1.0  -0.117
  C  C623  1  0.320160  0.452700  0.817630  1.0  -0.1277
  C  C624  1  0.587700  0.607240  0.423210  1.0  -0.1417
  C  C625  1  0.467900  0.155360  0.909660  1.0  0.6836
  C  C626  1  0.951080  0.757900  0.712200  1.0  0.6903
  C  C627  1  0.199270  0.368080  0.783230  1.0  0.662
  C  C628  1  0.517800  0.657480  0.489780  1.0  0.6787
  C  C629  1  0.293300  0.923280  0.716750  1.0  0.2065
  C  C630  1  0.514160  0.656280  0.738250  1.0  0.2232
  C  C631  1  0.436200  0.650750  0.829770  1.0  0.2101
  C  C632  1  0.481360  0.599220  0.184630  1.0  0.2207
  C  C633  1  0.218730  0.935970  0.704410  1.0  -0.1904
  C  C634  1  0.514760  0.683540  0.712220  1.0  -0.169
  C  C635  1  0.477200  0.644330  0.869260  1.0  -0.134
  C  C636  1  0.530040  0.629660  0.190340  1.0  -0.1354
  C  C637  1  0.219690  0.971420  0.692070  1.0  0.1522
  C  C638  1  0.444410  0.683460  0.682520  1.0  0.0732
  C  C639  1  0.512300  0.610760  0.872280  1.0  0.1468
  C  C640  1  0.583750  0.627500  0.228070  1.0  0.0914
  C  C641  1  0.325700  0.885960  0.731760  1.0  -0.3969
  C  C642  1  0.577100  0.644280  0.775660  1.0  -0.4001
  C  C643  1  0.389200  0.683370  0.809680  1.0  -0.4288
  C  C644  1  0.413010  0.589020  0.150040  1.0  -0.4165
  C  C645  1  0.157300  0.999220  0.675730  1.0  -0.3795
  C  C646  1  0.409710  0.706680  0.646190  1.0  -0.3799
  C  C647  1  0.562500  0.589240  0.906650  1.0  -0.3936
  C  C648  1  0.646180  0.652730  0.251010  1.0  -0.4047
  C  C649  1  0.154430  0.915480  0.705660  1.0  0.0184
  C  C650  1  0.580000  0.706230  0.714490  1.0  0.0123
  C  C651  1  0.485200  0.669420  0.901920  1.0  0.0007
  C  C652  1  0.524680  0.658220  0.161640  1.0  -0.0267
  C  C653  1  0.086600  0.911300  0.673260  1.0  -0.14
  C  C654  1  0.597230  0.709440  0.682030  1.0  -0.1326
  C  C655  1  0.422500  0.684580  0.904450  1.0  -0.097
  C  C656  1  0.457170  0.676510  0.140620  1.0  -0.1222
  C  C657  1  0.028900  0.890590  0.674960  1.0  -0.0572
  C  C658  1  0.657230  0.730450  0.683390  1.0  -0.0309
  C  C659  1  0.428900  0.710350  0.933290  1.0  -0.0566
  C  C660  1  0.455010  0.704500  0.114990  1.0  -0.0616
  C  C661  1  0.035830  0.874830  0.709720  1.0  -0.1407
  C  C662  1  0.702650  0.748070  0.716760  1.0  -0.1476
  C  C663  1  0.499300  0.720150  0.960030  1.0  -0.1307
  C  C664  1  0.519830  0.714620  0.110610  1.0  -0.1283
  C  C665  1  0.101500  0.879280  0.742290  1.0  -0.0772
  C  C666  1  0.687900  0.744870  0.750020  1.0  -0.076
  C  C667  1  0.563700  0.704310  0.958750  1.0  -0.0981
  C  C668  1  0.587570  0.696050  0.130950  1.0  -0.0487
  C  C669  1  0.161000  0.898990  0.739950  1.0  -0.1212
  C  C670  1  0.626840  0.723970  0.748500  1.0  -0.1201
  C  C671  1  0.554700  0.679310  0.929180  1.0  -0.1204
  C  C672  1  0.589650  0.667890  0.156020  1.0  -0.1367
  C  C673  1  0.973100  0.851400  0.711100  1.0  0.6741
  C  C674  1  0.766450  0.771140  0.717320  1.0  0.67
  C  C675  1  0.507200  0.748540  0.989950  1.0  0.6734
  C  C676  1  0.518930  0.746070  0.084720  1.0  0.6645
  C  C677  1  0.675480  0.511540  0.809850  1.0  -0.0184
  C  C678  1  0.671340  0.144100  0.830900  1.0  0.0101
  C  C679  1  0.487900  0.066130  0.679470  1.0  0.0107
  C  C680  1  0.392840  0.080960  0.218490  1.0  0.0203
  C  C681  1  0.522330  0.529510  0.720250  1.0  0.2008
  C  C682  1  0.765890  0.140290  0.769140  1.0  0.2055
  C  C683  1  0.659780  0.029480  0.745420  1.0  0.2199
  C  C684  1  0.524800  0.071400  0.177350  1.0  0.1989
  C  C685  1  0.573100  0.556500  0.717410  1.0  -0.2253
  C  C686  1  0.810450  0.168130  0.793550  1.0  -0.2369
  C  C687  1  0.641220  0.001520  0.717010  1.0  -0.2211
  C  C688  1  0.473100  0.093080  0.148000  1.0  -0.1797
  C  C689  1  0.636990  0.554380  0.752160  1.0  0.1509
  C  C690  1  0.778640  0.174680  0.820070  1.0  0.1376
  C  C691  1  0.571710  0.011230  0.688070  1.0  0.1281
  C  C692  1  0.416200  0.101350  0.159980  1.0  0.1819
  C  C693  1  0.444890  0.519970  0.692220  1.0  -0.3731
  C  C694  1  0.774500  0.121190  0.735530  1.0  -0.3708
  C  C695  1  0.727550  0.033940  0.782590  1.0  -0.3585
  C  C696  1  0.596600  0.052870  0.180020  1.0  -0.3944
  C  C697  1  0.707850  0.576290  0.768090  1.0  -0.3673
  C  C698  1  0.797300  0.201900  0.852130  1.0  -0.368
  C  C699  1  0.521920  0.992500  0.651970  1.0  -0.3653
  C  C700  1  0.349300  0.124100  0.142660  1.0  -0.3786
  C  C701  1  0.561240  0.581010  0.684330  1.0  0.0072
  C  C702  1  0.875100  0.187580  0.791810  1.0  0.0196
  C  C703  1  0.684870  0.968240  0.717390  1.0  -0.0061
  C  C704  1  0.477400  0.105680  0.111620  1.0  -0.0074
  C  C705  1  0.489890  0.593970  0.660020  1.0  -0.1637
  C  C706  1  0.874600  0.198480  0.756190  1.0  -0.1387
  C  C707  1  0.731950  0.951450  0.752420  1.0  -0.1433
  C  C708  1  0.544600  0.118330  0.111600  1.0  -0.1135
  C  C709  1  0.479830  0.617030  0.629160  1.0  -0.0411
  C  C710  1  0.932500  0.219850  0.754550  1.0  -0.0878
  C  C711  1  0.770460  0.919570  0.752240  1.0  -0.0603
  C  C712  1  0.547400  0.133210  0.077900  1.0  -0.0522
  C  C713  1  0.541620  0.628420  0.622470  1.0  -0.096
  C  C714  1  0.992000  0.230990  0.789010  1.0  -0.1484
  C  C715  1  0.761500  0.903440  0.716960  1.0  -0.1302
  C  C716  1  0.481900  0.136320  0.044270  1.0  -0.1421
  C  C717  1  0.613780  0.615500  0.646310  1.0  -0.072
  C  C718  1  0.994250  0.218710  0.824200  1.0  -0.047
  C  C719  1  0.717090  0.920000  0.682920  1.0  -0.0069
  C  C720  1  0.413600  0.122680  0.043830  1.0  -0.0563
  C  C721  1  0.622520  0.591670  0.676130  1.0  -0.1105
  C  C722  1  0.937400  0.196980  0.825180  1.0  -0.1169
  C  C723  1  0.679840  0.952700  0.682370  1.0  -0.126
  C  C724  1  0.412300  0.107240  0.076790  1.0  -0.1435
  C  C725  1  0.532100  0.655360  0.590340  1.0  0.6836
  C  C726  1  0.048920  0.257900  0.787800  1.0  0.6909
  C  C727  1  0.800730  0.868080  0.716770  1.0  0.661
  C  C728  1  0.482200  0.157480  0.010220  1.0  0.6788
  C  C729  1  0.706700  0.423280  0.783250  1.0  0.2064
  C  C730  1  0.485840  0.156280  0.761750  1.0  0.2236
  C  C731  1  0.563800  0.150750  0.670230  1.0  0.2108
  C  C732  1  0.518640  0.099220  0.315370  1.0  0.2215
  C  C733  1  0.781270  0.435970  0.795590  1.0  -0.1908
  C  C734  1  0.485240  0.183540  0.787780  1.0  -0.1689
  C  C735  1  0.522800  0.144330  0.630740  1.0  -0.1344
  C  C736  1  0.469960  0.129660  0.309660  1.0  -0.1356
  C  C737  1  0.780310  0.471420  0.807930  1.0  0.1564
  C  C738  1  0.555590  0.183460  0.817480  1.0  0.0728
  C  C739  1  0.487700  0.110760  0.627720  1.0  0.148
  C  C740  1  0.416250  0.127500  0.271930  1.0  0.0924
  C  C741  1  0.674300  0.385960  0.768240  1.0  -0.3964
  C  C742  1  0.422900  0.144280  0.724340  1.0  -0.3994
  C  C743  1  0.610800  0.183370  0.690320  1.0  -0.4287
  C  C744  1  0.586990  0.089020  0.349960  1.0  -0.4159
  C  C745  1  0.842700  0.499220  0.824270  1.0  -0.3805
  C  C746  1  0.590290  0.206680  0.853810  1.0  -0.379
  C  C747  1  0.437500  0.089240  0.593350  1.0  -0.3912
  C  C748  1  0.353820  0.152730  0.248990  1.0  -0.4037
  C  C749  1  0.845570  0.415480  0.794340  1.0  0.0171
  C  C750  1  0.420000  0.206230  0.785510  1.0  0.0124
  C  C751  1  0.514800  0.169420  0.598080  1.0  0.0015
  C  C752  1  0.475320  0.158220  0.338360  1.0  -0.0258
  C  C753  1  0.913400  0.411300  0.826740  1.0  -0.1392
  C  C754  1  0.402770  0.209440  0.817970  1.0  -0.1351
  C  C755  1  0.577500  0.184580  0.595550  1.0  -0.0965
  C  C756  1  0.542830  0.176510  0.359380  1.0  -0.1194
  C  C757  1  0.971100  0.390590  0.825040  1.0  -0.0559
  C  C758  1  0.342770  0.230450  0.816610  1.0  -0.0295
  C  C759  1  0.571100  0.210350  0.566710  1.0  -0.0558
  C  C760  1  0.544990  0.204500  0.385010  1.0  -0.0598
  C  C761  1  0.964170  0.374830  0.790280  1.0  -0.1406
  C  C762  1  0.297350  0.248070  0.783240  1.0  -0.1473
  C  C763  1  0.500700  0.220150  0.539970  1.0  -0.1306
  C  C764  1  0.480170  0.214620  0.389390  1.0  -0.1291
  C  C765  1  0.898500  0.379280  0.757710  1.0  -0.076
  C  C766  1  0.312100  0.244870  0.749980  1.0  -0.075
  C  C767  1  0.436300  0.204310  0.541250  1.0  -0.0997
  C  C768  1  0.412430  0.196050  0.369050  1.0  -0.0521
  C  C769  1  0.839000  0.398990  0.760050  1.0  -0.1223
  C  C770  1  0.373160  0.223970  0.751500  1.0  -0.1186
  C  C771  1  0.445300  0.179310  0.570820  1.0  -0.1214
  C  C772  1  0.410350  0.167890  0.343980  1.0  -0.1348
  C  C773  1  0.026900  0.351400  0.788900  1.0  0.6735
  C  C774  1  0.233550  0.271140  0.782680  1.0  0.6725
  C  C775  1  0.492800  0.248540  0.510050  1.0  0.6735
  C  C776  1  0.481070  0.246070  0.415280  1.0  0.6646
  N  N777  1  0.624480  0.972550  0.273480  1.0  0.1147
  N  N778  1  0.719920  0.348950  0.310970  1.0  0.0988
  N  N779  1  0.552490  0.456800  0.199410  1.0  0.1037
  N  N780  1  0.436490  0.415180  0.694990  1.0  0.0958
  N  N781  1  0.554920  0.988560  0.254070  1.0  -0.3153
  N  N782  1  0.711410  0.370260  0.279790  1.0  -0.2919
  N  N783  1  0.605070  0.445310  0.234280  1.0  -0.2852
  N  N784  1  0.502560  0.434090  0.706140  1.0  -0.3091
  N  N785  1  0.709030  0.021590  0.303060  1.0  0.1373
  N  N786  1  0.595350  0.342970  0.308750  1.0  0.1361
  N  N787  1  0.509330  0.401010  0.164580  1.0  0.1164
  N  N788  1  0.431620  0.403640  0.756820  1.0  0.0915
  N  N789  1  0.662750  0.050720  0.287870  1.0  -0.2985
  N  N790  1  0.553020  0.360130  0.275060  1.0  -0.3059
  N  N791  1  0.556410  0.377000  0.191360  1.0  -0.3086
  N  N792  1  0.493980  0.421300  0.782950  1.0  -0.3092
  N  N793  1  0.375520  0.472550  0.226520  1.0  0.1147
  N  N794  1  0.280080  0.848950  0.189030  1.0  0.0999
  N  N795  1  0.447510  0.956800  0.300590  1.0  0.1029
  N  N796  1  0.563510  0.915180  0.805010  1.0  0.0953
  N  N797  1  0.445080  0.488560  0.245930  1.0  -0.3144
  N  N798  1  0.288590  0.870260  0.220210  1.0  -0.2921
  N  N799  1  0.394930  0.945310  0.265720  1.0  -0.2844
  N  N800  1  0.497440  0.934090  0.793860  1.0  -0.3093
  N  N801  1  0.290970  0.521590  0.196940  1.0  0.1379
  N  N802  1  0.404650  0.842970  0.191250  1.0  0.1356
  N  N803  1  0.490670  0.901010  0.335420  1.0  0.1169
  N  N804  1  0.568380  0.903640  0.743180  1.0  0.0909
  N  N805  1  0.337250  0.550720  0.212130  1.0  -0.2962
  N  N806  1  0.446980  0.860130  0.224940  1.0  -0.3069
  N  N807  1  0.443590  0.877000  0.308640  1.0  -0.3101
  N  N808  1  0.506020  0.921300  0.717050  1.0  -0.3104
  N  N809  1  0.375520  0.027450  0.726520  1.0  0.1144
  N  N810  1  0.280080  0.651050  0.689030  1.0  0.1
  N  N811  1  0.447510  0.543200  0.800590  1.0  0.1031
  N  N812  1  0.563510  0.584820  0.305010  1.0  0.0955
  N  N813  1  0.445080  0.011440  0.745930  1.0  -0.3139
  N  N814  1  0.288590  0.629740  0.720210  1.0  -0.2919
  N  N815  1  0.394930  0.554690  0.765720  1.0  -0.2842
  N  N816  1  0.497440  0.565910  0.293860  1.0  -0.31
  N  N817  1  0.290970  0.978410  0.696940  1.0  0.1373
  N  N818  1  0.404650  0.657030  0.691250  1.0  0.1355
  N  N819  1  0.490670  0.598990  0.835420  1.0  0.1167
  N  N820  1  0.568380  0.596360  0.243180  1.0  0.0916
  N  N821  1  0.337250  0.949280  0.712130  1.0  -0.2965
  N  N822  1  0.446980  0.639870  0.724940  1.0  -0.308
  N  N823  1  0.443590  0.623000  0.808640  1.0  -0.3102
  N  N824  1  0.506020  0.578700  0.217050  1.0  -0.3104
  N  N825  1  0.624480  0.527450  0.773480  1.0  0.1146
  N  N826  1  0.719920  0.151050  0.810970  1.0  0.099
  N  N827  1  0.552490  0.043200  0.699410  1.0  0.1039
  N  N828  1  0.436490  0.084820  0.194990  1.0  0.0962
  N  N829  1  0.554920  0.511440  0.754070  1.0  -0.3149
  N  N830  1  0.711410  0.129740  0.779790  1.0  -0.2921
  N  N831  1  0.605070  0.054690  0.734280  1.0  -0.2854
  N  N832  1  0.502560  0.065910  0.206140  1.0  -0.3097
  N  N833  1  0.709030  0.478410  0.803060  1.0  0.1383
  N  N834  1  0.595350  0.157030  0.808750  1.0  0.1367
  N  N835  1  0.509330  0.098990  0.664580  1.0  0.1162
  N  N836  1  0.431620  0.096360  0.256820  1.0  0.0919
  N  N837  1  0.662750  0.449280  0.787870  1.0  -0.2981
  N  N838  1  0.553020  0.139870  0.775060  1.0  -0.3071
  N  N839  1  0.556410  0.123000  0.691360  1.0  -0.309
  N  N840  1  0.493980  0.078700  0.282950  1.0  -0.3096
  O  O841  1  0.592850  0.830660  0.091210  1.0  -0.5713
  O  O842  1  0.047010  0.233670  0.254430  1.0  -0.5926
  O  O843  1  0.848410  0.643550  0.249200  1.0  -0.574
  O  O844  1  0.417460  0.333860  0.484230  1.0  -0.5794
  O  O845  1  0.465880  0.837410  0.066600  1.0  -0.5844
  O  O846  1  0.092490  0.228630  0.319890  1.0  -0.565
  O  O847  1  0.782120  0.647330  0.184330  1.0  -0.5723
  O  O848  1  0.546400  0.334000  0.510920  1.0  -0.5738
  O  O849  1  0.082760  0.154520  0.320520  1.0  -0.5742
  O  O850  1  0.231220  0.222910  0.315260  1.0  -0.5777
  O  O851  1  0.553600  0.240220  0.008450  1.0  -0.5676
  O  O852  1  0.418710  0.245070  0.915800  1.0  -0.5783
  O  O853  1  0.018540  0.160790  0.256050  1.0  -0.5833
  O  O854  1  0.185950  0.217140  0.250180  1.0  -0.5733
  O  O855  1  0.427050  0.240320  0.989420  1.0  -0.564
  O  O856  1  0.543240  0.238550  0.933850  1.0  -0.5759
  O  O857  1  0.407150  0.330660  0.408790  1.0  -0.5706
  O  O858  1  0.952990  0.733670  0.245570  1.0  -0.5914
  O  O859  1  0.151590  0.143550  0.250800  1.0  -0.5751
  O  O860  1  0.582540  0.833860  0.015770  1.0  -0.5791
  O  O861  1  0.534120  0.337410  0.433400  1.0  -0.5844
  O  O862  1  0.907510  0.728630  0.180110  1.0  -0.5646
  O  O863  1  0.217880  0.147330  0.315670  1.0  -0.5729
  O  O864  1  0.453600  0.834000  0.989080  1.0  -0.5732
  O  O865  1  0.917240  0.654520  0.179480  1.0  -0.5744
  O  O866  1  0.768780  0.722910  0.184740  1.0  -0.5791
  O  O867  1  0.446400  0.740220  0.491550  1.0  -0.5667
  O  O868  1  0.581290  0.745070  0.584200  1.0  -0.5779
  O  O869  1  0.981460  0.660790  0.243950  1.0  -0.5832
  O  O870  1  0.814050  0.717140  0.249820  1.0  -0.573
  O  O871  1  0.572950  0.740320  0.510580  1.0  -0.5651
  O  O872  1  0.456760  0.738550  0.566150  1.0  -0.5758
  O  O873  1  0.407150  0.169340  0.908790  1.0  -0.5702
  O  O874  1  0.952990  0.766330  0.745570  1.0  -0.5911
  O  O875  1  0.151590  0.356450  0.750800  1.0  -0.5754
  O  O876  1  0.582540  0.666140  0.515770  1.0  -0.5791
  O  O877  1  0.534120  0.162590  0.933400  1.0  -0.5847
  O  O878  1  0.907510  0.771370  0.680110  1.0  -0.5645
  O  O879  1  0.217880  0.352670  0.815670  1.0  -0.5731
  O  O880  1  0.453600  0.666000  0.489080  1.0  -0.5736
  O  O881  1  0.917240  0.845480  0.679480  1.0  -0.5746
  O  O882  1  0.768780  0.777090  0.684740  1.0  -0.5788
  O  O883  1  0.446400  0.759780  0.991550  1.0  -0.5669
  O  O884  1  0.581290  0.754930  0.084200  1.0  -0.5779
  O  O885  1  0.981460  0.839210  0.743950  1.0  -0.5833
  O  O886  1  0.814050  0.782860  0.749820  1.0  -0.5738
  O  O887  1  0.572950  0.759680  0.010580  1.0  -0.5658
  O  O888  1  0.456760  0.761450  0.066150  1.0  -0.576
  O  O889  1  0.592850  0.669340  0.591210  1.0  -0.5714
  O  O890  1  0.047010  0.266330  0.754430  1.0  -0.5917
  O  O891  1  0.848410  0.856450  0.749200  1.0  -0.5734
  O  O892  1  0.417460  0.166140  0.984230  1.0  -0.5791
  O  O893  1  0.465880  0.662590  0.566600  1.0  -0.5838
  O  O894  1  0.092490  0.271370  0.819890  1.0  -0.5647
  O  O895  1  0.782120  0.852670  0.684330  1.0  -0.5725
  O  O896  1  0.546400  0.166000  0.010920  1.0  -0.5744
  O  O897  1  0.082760  0.345480  0.820520  1.0  -0.5744
  O  O898  1  0.231220  0.277090  0.815260  1.0  -0.5777
  O  O899  1  0.553600  0.259780  0.508450  1.0  -0.5676
  O  O900  1  0.418710  0.254930  0.415800  1.0  -0.5782
  O  O901  1  0.018540  0.339210  0.756050  1.0  -0.5837
  O  O902  1  0.185950  0.282860  0.750180  1.0  -0.5731
  O  O903  1  0.427050  0.259680  0.489420  1.0  -0.5643
  O  O904  1  0.543240  0.261450  0.433850  1.0  -0.5755
