# generated using pymatgen
data_Na2CoPH87C62Br(N8O7)2
_symmetry_space_group_name_H-M   'P 1'
_cell_length_a   15.37450000
_cell_length_b   23.40230000
_cell_length_c   25.34430000
_cell_angle_alpha   90.00000000
_cell_angle_beta   90.00000000
_cell_angle_gamma   90.00000000
_symmetry_Int_Tables_number   1
_chemical_formula_structural   Na2CoPH87C62Br(N8O7)2
_chemical_formula_sum   'Na8 Co4 P4 H348 C248 Br4 N64 O56'
_cell_volume   9118.84521285
_cell_formula_units_Z   4
loop_
 _symmetry_equiv_pos_site_id
 _symmetry_equiv_pos_as_xyz
  1  'x, y, z'
loop_
 _atom_site_type_symbol
 _atom_site_label
 _atom_site_symmetry_multiplicity
 _atom_site_fract_x
 _atom_site_fract_y
 _atom_site_fract_z
 _atom_site_occupancy
 _atom_site_charge
  Na  Na1  1  0.270440  0.757840  0.838610  1.0  0.9352
  Na  Na2  1  0.212200  0.143090  0.566830  1.0  0.9528
  Na  Na3  1  0.229560  0.242160  0.338610  1.0  0.9325
  Na  Na4  1  0.287800  0.856910  0.066830  1.0  0.9572
  Na  Na5  1  0.729560  0.257840  0.661390  1.0  0.935
  Na  Na6  1  0.787800  0.643090  0.933170  1.0  0.9537
  Na  Na7  1  0.770440  0.742160  0.161390  1.0  0.9332
  Na  Na8  1  0.712200  0.356910  0.433170  1.0  0.9587
  Co  Co9  1  0.255560  0.429330  0.733480  1.0  0.5896
  Co  Co10  1  0.244440  0.570670  0.233480  1.0  0.5912
  Co  Co11  1  0.744440  0.929330  0.766520  1.0  0.5928
  Co  Co12  1  0.755560  0.070670  0.266520  1.0  0.5913
  P  P13  1  0.544320  0.250210  0.473750  1.0  1.6221
  P  P14  1  0.955680  0.749790  0.973750  1.0  1.6219
  P  P15  1  0.455680  0.750210  0.026250  1.0  1.6227
  P  P16  1  0.044320  0.249790  0.526250  1.0  1.6227
  H  H17  1  0.224400  0.636300  0.762000  1.0  0.0952
  H  H18  1  0.144900  0.594500  0.666667  1.0  0.0936
  H  H19  1  0.144300  0.659300  0.686500  1.0  0.0964
  H  H20  1  0.565500  0.428500  0.787600  1.0  0.0713
  H  H21  1  0.613700  0.539800  0.789300  1.0  0.1026
  H  H22  1  0.537900  0.585500  0.798900  1.0  0.1124
  H  H23  1  0.559000  0.563900  0.740400  1.0  0.1085
  H  H24  1  0.531100  0.490200  0.862300  1.0  0.1052
  H  H25  1  0.438300  0.462200  0.850200  1.0  0.1059
  H  H26  1  0.446300  0.529700  0.859000  1.0  0.1138
  H  H27  1  0.086700  0.552100  0.846100  1.0  0.0801
  H  H28  1  0.189100  0.559000  0.836900  1.0  0.1081
  H  H29  1  0.016200  0.605200  0.718700  1.0  0.102
  H  H30  1  0.045900  0.654100  0.758900  1.0  0.1025
  H  H31  1  0.986800  0.602300  0.779200  1.0  0.0997
  H  H32  1  0.298700  0.662500  0.670200  1.0  0.1133
  H  H33  1  0.290800  0.600500  0.644000  1.0  0.1034
  H  H34  1  0.542700  0.485400  0.688700  1.0  0.1016
  H  H35  1  0.554500  0.417800  0.686900  1.0  0.0941
  H  H36  1  0.974700  0.517000  0.801300  1.0  0.089
  H  H37  1  0.934100  0.459400  0.777600  1.0  0.1052
  H  H38  1  0.933700  0.516800  0.743300  1.0  0.1001
  H  H39  1  0.196900  0.308000  0.772400  1.0  0.1223
  H  H40  1  0.398100  0.406200  0.653700  1.0  0.0824
  H  H41  1  0.687100  0.475400  0.671200  1.0  0.0998
  H  H42  1  0.687100  0.487900  0.733400  1.0  0.075
  H  H43  1  0.571400  0.348700  0.765300  1.0  0.1108
  H  H44  1  0.541800  0.307900  0.717800  1.0  0.1059
  H  H45  1  0.519000  0.291100  0.777400  1.0  0.1005
  H  H46  1  0.050400  0.680200  0.896500  1.0  0.3298
  H  H47  1  0.014400  0.621500  0.882200  1.0  0.3146
  H  H48  1  0.275400  0.665900  0.526700  1.0  0.3354
  H  H49  1  0.328300  0.626000  0.561700  1.0  0.3403
  H  H50  1  0.949900  0.382400  0.741400  1.0  0.0896
  H  H51  1  0.112400  0.352500  0.624100  1.0  0.1112
  H  H52  1  0.148900  0.289400  0.634300  1.0  0.1068
  H  H53  1  0.213900  0.342900  0.635200  1.0  0.0916
  H  H54  1  0.261700  0.255100  0.678800  1.0  0.0987
  H  H55  1  0.118100  0.494700  0.645700  1.0  0.1084
  H  H56  1  0.998500  0.385500  0.632200  1.0  0.1001
  H  H57  1  0.910200  0.358300  0.653800  1.0  0.0794
  H  H58  1  0.939500  0.269800  0.701200  1.0  0.1096
  H  H59  1  0.031100  0.237700  0.697100  1.0  0.1067
  H  H60  1  0.002800  0.282100  0.652300  1.0  0.0953
  H  H61  1  0.084100  0.275200  0.786800  1.0  0.0714
  H  H62  1  0.063000  0.340400  0.800400  1.0  0.1116
  H  H63  1  0.404100  0.255700  0.817100  1.0  0.1009
  H  H64  1  0.346900  0.200400  0.804000  1.0  0.1071
  H  H65  1  0.300200  0.259200  0.819100  1.0  0.1017
  H  H66  1  0.469900  0.224700  0.730300  1.0  0.0836
  H  H67  1  0.393400  0.182900  0.712300  1.0  0.0854
  H  H68  1  0.214900  0.192400  0.771600  1.0  0.0738
  H  H69  1  0.140200  0.209800  0.730700  1.0  0.1071
  H  H70  1  0.436400  0.451800  0.518300  1.0  0.0986
  H  H71  1  0.297800  0.497500  0.495100  1.0  0.1227
  H  H72  1  0.786700  0.367900  0.769600  1.0  0.3105
  H  H73  1  0.760100  0.429000  0.782700  1.0  0.3188
  H  H74  1  0.950600  0.477600  0.654300  1.0  0.0825
  H  H75  1  0.864600  0.452000  0.680900  1.0  0.0746
  H  H76  1  0.377300  0.228400  0.633100  1.0  0.0782
  H  H77  1  0.432700  0.282500  0.652200  1.0  0.0777
  H  H78  1  0.382400  0.364000  0.496100  1.0  0.0734
  H  H79  1  0.011400  0.550100  0.603400  1.0  0.1217
  H  H80  1  0.002100  0.534100  0.542300  1.0  0.1154
  H  H81  1  0.047600  0.592800  0.559300  1.0  0.118
  H  H82  1  0.910000  0.236600  0.855300  1.0  0.3105
  H  H83  1  0.008200  0.232600  0.847900  1.0  0.3306
  H  H84  1  0.233000  0.068100  0.707700  1.0  0.3134
  H  H85  1  0.207100  0.098800  0.758400  1.0  0.3238
  H  H86  1  0.532200  0.357200  0.489700  1.0  0.0823
  H  H87  1  0.361200  0.300700  0.559000  1.0  0.3083
  H  H88  1  0.546700  0.346900  0.602400  1.0  0.0871
  H  H89  1  0.088300  0.562900  0.479700  1.0  0.0963
  H  H90  1  0.146200  0.519500  0.445900  1.0  0.1277
  H  H91  1  0.185200  0.580100  0.463000  1.0  0.1298
  H  H92  1  0.790800  0.504500  0.561400  1.0  0.336
  H  H93  1  0.821700  0.525800  0.615000  1.0  0.3298
  H  H94  1  0.445000  0.158300  0.592400  1.0  0.1867
  H  H95  1  0.676600  0.403900  0.588000  1.0  0.0869
  H  H96  1  0.682200  0.342900  0.559400  1.0  0.1058
  H  H97  1  0.550700  0.102800  0.561000  1.0  0.0886
  H  H98  1  0.614200  0.129600  0.604400  1.0  0.1056
  H  H99  1  0.682500  0.446100  0.506500  1.0  0.131
  H  H100  1  0.644800  0.208100  0.549100  1.0  0.0841
  H  H101  1  0.724800  0.120800  0.533300  1.0  0.1056
  H  H102  1  0.715300  0.158100  0.480800  1.0  0.0995
  H  H103  1  0.654300  0.103600  0.489700  1.0  0.1092
  H  H104  1  0.275600  0.363700  0.262000  1.0  0.0955
  H  H105  1  0.355100  0.405500  0.166700  1.0  0.0928
  H  H106  1  0.355700  0.340700  0.186500  1.0  0.0952
  H  H107  1  0.934500  0.571500  0.287600  1.0  0.0687
  H  H108  1  0.886300  0.460200  0.289300  1.0  0.1017
  H  H109  1  0.962100  0.414500  0.298900  1.0  0.1131
  H  H110  1  0.941000  0.436100  0.240400  1.0  0.1092
  H  H111  1  0.968900  0.509800  0.362300  1.0  0.1057
  H  H112  1  0.061700  0.537800  0.350200  1.0  0.1047
  H  H113  1  0.053700  0.470300  0.359000  1.0  0.1139
  H  H114  1  0.413300  0.447900  0.346100  1.0  0.0783
  H  H115  1  0.310900  0.441000  0.336900  1.0  0.1082
  H  H116  1  0.483800  0.394800  0.218700  1.0  0.1015
  H  H117  1  0.454100  0.345900  0.258900  1.0  0.1012
  H  H118  1  0.513200  0.397700  0.279200  1.0  0.0989
  H  H119  1  0.201300  0.337500  0.170200  1.0  0.1139
  H  H120  1  0.209200  0.399500  0.144000  1.0  0.1024
  H  H121  1  0.957300  0.514600  0.188700  1.0  0.1007
  H  H122  1  0.945500  0.582200  0.186900  1.0  0.0944
  H  H123  1  0.525300  0.483000  0.301300  1.0  0.0884
  H  H124  1  0.565900  0.540600  0.277600  1.0  0.1042
  H  H125  1  0.566300  0.483200  0.243300  1.0  0.0996
  H  H126  1  0.303100  0.692000  0.272400  1.0  0.1232
  H  H127  1  0.101900  0.593800  0.153700  1.0  0.0821
  H  H128  1  0.812900  0.524600  0.171200  1.0  0.1006
  H  H129  1  0.812900  0.512100  0.233400  1.0  0.0756
  H  H130  1  0.928600  0.651300  0.265300  1.0  0.1116
  H  H131  1  0.958200  0.692100  0.217800  1.0  0.1066
  H  H132  1  0.981000  0.708900  0.277400  1.0  0.1003
  H  H133  1  0.449600  0.319800  0.396500  1.0  0.3313
  H  H134  1  0.485600  0.378500  0.382200  1.0  0.3157
  H  H135  1  0.224600  0.334100  0.026700  1.0  0.3348
  H  H136  1  0.171700  0.374000  0.061700  1.0  0.3417
  H  H137  1  0.550100  0.617600  0.241400  1.0  0.0892
  H  H138  1  0.387600  0.647500  0.124100  1.0  0.1121
  H  H139  1  0.351100  0.710600  0.134300  1.0  0.1072
  H  H140  1  0.286100  0.657100  0.135200  1.0  0.09
  H  H141  1  0.238300  0.744900  0.178800  1.0  0.0992
  H  H142  1  0.381900  0.505300  0.145700  1.0  0.1088
  H  H143  1  0.501500  0.614500  0.132200  1.0  0.1017
  H  H144  1  0.589800  0.641700  0.153800  1.0  0.08
  H  H145  1  0.560500  0.730200  0.201200  1.0  0.1129
  H  H146  1  0.468900  0.762300  0.197100  1.0  0.1068
  H  H147  1  0.497200  0.717900  0.152300  1.0  0.0933
  H  H148  1  0.415900  0.724800  0.286800  1.0  0.0722
  H  H149  1  0.437000  0.659600  0.300400  1.0  0.1119
  H  H150  1  0.095900  0.744300  0.317100  1.0  0.1013
  H  H151  1  0.153100  0.799600  0.304000  1.0  0.1056
  H  H152  1  0.199800  0.740800  0.319100  1.0  0.1014
  H  H153  1  0.030100  0.775300  0.230300  1.0  0.0832
  H  H154  1  0.106600  0.817100  0.212300  1.0  0.0842
  H  H155  1  0.285100  0.807600  0.271600  1.0  0.0733
  H  H156  1  0.359800  0.790200  0.230700  1.0  0.1057
  H  H157  1  0.063600  0.548200  0.018300  1.0  0.0976
  H  H158  1  0.202200  0.502500  0.995100  1.0  0.1223
  H  H159  1  0.713300  0.632100  0.269600  1.0  0.3099
  H  H160  1  0.739900  0.571000  0.282700  1.0  0.3204
  H  H161  1  0.549400  0.522400  0.154300  1.0  0.0853
  H  H162  1  0.635400  0.548000  0.180900  1.0  0.0748
  H  H163  1  0.122700  0.771600  0.133100  1.0  0.0788
  H  H164  1  0.067300  0.717500  0.152200  1.0  0.078
  H  H165  1  0.117600  0.636000  0.996100  1.0  0.0741
  H  H166  1  0.488600  0.449900  0.103400  1.0  0.1233
  H  H167  1  0.497900  0.465900  0.042300  1.0  0.1157
  H  H168  1  0.452400  0.407200  0.059300  1.0  0.119
  H  H169  1  0.590000  0.763400  0.355300  1.0  0.3117
  H  H170  1  0.491800  0.767400  0.347900  1.0  0.3334
  H  H171  1  0.267000  0.931900  0.207700  1.0  0.3139
  H  H172  1  0.292900  0.901200  0.258400  1.0  0.324
  H  H173  1  0.967800  0.642800  0.989700  1.0  0.0821
  H  H174  1  0.138800  0.699300  0.059000  1.0  0.3105
  H  H175  1  0.953300  0.653100  0.102400  1.0  0.0885
  H  H176  1  0.411700  0.437100  0.979700  1.0  0.0945
  H  H177  1  0.353800  0.480500  0.945900  1.0  0.1262
  H  H178  1  0.314800  0.419900  0.963000  1.0  0.1307
  H  H179  1  0.709200  0.495500  0.061400  1.0  0.3364
  H  H180  1  0.678300  0.474200  0.115000  1.0  0.3282
  H  H181  1  0.055000  0.841700  0.092400  1.0  0.1851
  H  H182  1  0.823400  0.596100  0.088000  1.0  0.0869
  H  H183  1  0.817800  0.657100  0.059400  1.0  0.1063
  H  H184  1  0.949300  0.897200  0.061000  1.0  0.0877
  H  H185  1  0.885800  0.870400  0.104400  1.0  0.1052
  H  H186  1  0.817500  0.553900  0.006500  1.0  0.131
  H  H187  1  0.855200  0.791900  0.049100  1.0  0.0857
  H  H188  1  0.775200  0.879200  0.033300  1.0  0.1055
  H  H189  1  0.784700  0.841900  0.980800  1.0  0.0996
  H  H190  1  0.845700  0.896400  0.989700  1.0  0.1104
  H  H191  1  0.775600  0.136300  0.738000  1.0  0.0957
  H  H192  1  0.855100  0.094500  0.833300  1.0  0.0926
  H  H193  1  0.855700  0.159300  0.813500  1.0  0.0959
  H  H194  1  0.434500  0.928500  0.712400  1.0  0.0698
  H  H195  1  0.386300  0.039800  0.710700  1.0  0.101
  H  H196  1  0.462100  0.085500  0.701100  1.0  0.1129
  H  H197  1  0.441000  0.063900  0.759600  1.0  0.1082
  H  H198  1  0.468900  0.990200  0.637700  1.0  0.1033
  H  H199  1  0.561700  0.962200  0.649800  1.0  0.1051
  H  H200  1  0.553700  0.029700  0.641000  1.0  0.114
  H  H201  1  0.913300  0.052100  0.653900  1.0  0.0778
  H  H202  1  0.810900  0.059000  0.663100  1.0  0.1077
  H  H203  1  0.983800  0.105200  0.781300  1.0  0.101
  H  H204  1  0.954100  0.154100  0.741100  1.0  0.1031
  H  H205  1  0.013200  0.102300  0.720800  1.0  0.0991
  H  H206  1  0.701300  0.162500  0.829800  1.0  0.1144
  H  H207  1  0.709200  0.100500  0.856000  1.0  0.104
  H  H208  1  0.457300  0.985400  0.811300  1.0  0.0993
  H  H209  1  0.445500  0.917800  0.813100  1.0  0.0935
  H  H210  1  0.025300  0.017000  0.698700  1.0  0.0895
  H  H211  1  0.065900  0.959400  0.722400  1.0  0.1042
  H  H212  1  0.066300  0.016800  0.756700  1.0  0.1005
  H  H213  1  0.803100  0.808000  0.727600  1.0  0.121
  H  H214  1  0.601900  0.906200  0.846300  1.0  0.0827
  H  H215  1  0.312900  0.975400  0.828800  1.0  0.0973
  H  H216  1  0.312900  0.987900  0.766600  1.0  0.0756
  H  H217  1  0.428600  0.848700  0.734700  1.0  0.1082
  H  H218  1  0.458200  0.807900  0.782200  1.0  0.1053
  H  H219  1  0.481000  0.791100  0.722600  1.0  0.1008
  H  H220  1  0.949600  0.180200  0.603500  1.0  0.3301
  H  H221  1  0.985600  0.121500  0.617800  1.0  0.3163
  H  H222  1  0.724600  0.165900  0.973300  1.0  0.3346
  H  H223  1  0.671700  0.126000  0.938300  1.0  0.3392
  H  H224  1  0.050100  0.882400  0.758600  1.0  0.0901
  H  H225  1  0.887600  0.852500  0.875900  1.0  0.1122
  H  H226  1  0.851100  0.789400  0.865700  1.0  0.1086
  H  H227  1  0.786100  0.842900  0.864800  1.0  0.0895
  H  H228  1  0.738300  0.755100  0.821200  1.0  0.1
  H  H229  1  0.881900  0.994700  0.854300  1.0  0.1093
  H  H230  1  0.001500  0.885500  0.867800  1.0  0.1032
  H  H231  1  0.089800  0.858300  0.846200  1.0  0.0794
  H  H232  1  0.060500  0.769800  0.798800  1.0  0.1127
  H  H233  1  0.968900  0.737700  0.802900  1.0  0.1071
  H  H234  1  0.997200  0.782100  0.847700  1.0  0.0942
  H  H235  1  0.915900  0.775200  0.713200  1.0  0.0712
  H  H236  1  0.937000  0.840400  0.699600  1.0  0.1118
  H  H237  1  0.595900  0.755700  0.682900  1.0  0.1011
  H  H238  1  0.653100  0.700400  0.696000  1.0  0.1043
  H  H239  1  0.699800  0.759200  0.680900  1.0  0.1004
  H  H240  1  0.530100  0.724700  0.769700  1.0  0.0819
  H  H241  1  0.606600  0.682900  0.787700  1.0  0.0842
  H  H242  1  0.785100  0.692400  0.728400  1.0  0.0731
  H  H243  1  0.859800  0.709800  0.769300  1.0  0.1067
  H  H244  1  0.563600  0.951800  0.981700  1.0  0.0973
  H  H245  1  0.702200  0.997500  0.004900  1.0  0.1229
  H  H246  1  0.213300  0.867900  0.730400  1.0  0.3103
  H  H247  1  0.239900  0.929000  0.717300  1.0  0.319
  H  H248  1  0.049400  0.977600  0.845700  1.0  0.0844
  H  H249  1  0.135400  0.952000  0.819100  1.0  0.0747
  H  H250  1  0.622700  0.728400  0.866900  1.0  0.0781
  H  H251  1  0.567300  0.782500  0.847800  1.0  0.0771
  H  H252  1  0.617600  0.864000  0.003900  1.0  0.0732
  H  H253  1  0.988600  0.050100  0.896600  1.0  0.1203
  H  H254  1  0.997900  0.034100  0.957700  1.0  0.1148
  H  H255  1  0.952400  0.092800  0.940700  1.0  0.1167
  H  H256  1  0.090000  0.736600  0.644700  1.0  0.3107
  H  H257  1  0.991800  0.732600  0.652100  1.0  0.3319
  H  H258  1  0.767000  0.568100  0.792300  1.0  0.316
  H  H259  1  0.792900  0.598800  0.741600  1.0  0.3225
  H  H260  1  0.467800  0.857200  0.010300  1.0  0.0829
  H  H261  1  0.638800  0.800700  0.941000  1.0  0.3112
  H  H262  1  0.453300  0.846900  0.897600  1.0  0.0875
  H  H263  1  0.911700  0.062900  0.020300  1.0  0.0928
  H  H264  1  0.853800  0.019500  0.054100  1.0  0.128
  H  H265  1  0.814800  0.080100  0.037000  1.0  0.1301
  H  H266  1  0.209200  0.004500  0.938600  1.0  0.3367
  H  H267  1  0.178300  0.025800  0.885000  1.0  0.3305
  H  H268  1  0.555000  0.658300  0.907600  1.0  0.1855
  H  H269  1  0.323400  0.903900  0.912000  1.0  0.0856
  H  H270  1  0.317800  0.842900  0.940600  1.0  0.1064
  H  H271  1  0.449300  0.602800  0.939000  1.0  0.0881
  H  H272  1  0.385800  0.629600  0.895600  1.0  0.1055
  H  H273  1  0.317500  0.946100  0.993500  1.0  0.132
  H  H274  1  0.355200  0.708100  0.950900  1.0  0.0853
  H  H275  1  0.275200  0.620800  0.966700  1.0  0.1048
  H  H276  1  0.284700  0.658100  0.019200  1.0  0.0985
  H  H277  1  0.345700  0.603600  0.010300  1.0  0.11
  H  H278  1  0.724400  0.863700  0.238000  1.0  0.0943
  H  H279  1  0.644900  0.905500  0.333333  1.0  0.0922
  H  H280  1  0.644300  0.840700  0.313500  1.0  0.0963
  H  H281  1  0.065500  0.071500  0.212400  1.0  0.0724
  H  H282  1  0.113700  0.960200  0.210700  1.0  0.1016
  H  H283  1  0.037900  0.914500  0.201100  1.0  0.1124
  H  H284  1  0.059000  0.936100  0.259600  1.0  0.1093
  H  H285  1  0.031100  0.009800  0.137700  1.0  0.1062
  H  H286  1  0.938300  0.037800  0.149800  1.0  0.106
  H  H287  1  0.946300  0.970300  0.141000  1.0  0.1134
  H  H288  1  0.586700  0.947900  0.153900  1.0  0.0804
  H  H289  1  0.689100  0.941000  0.163100  1.0  0.1087
  H  H290  1  0.516200  0.894800  0.281300  1.0  0.1014
  H  H291  1  0.545900  0.845900  0.241100  1.0  0.1014
  H  H292  1  0.486800  0.897700  0.220800  1.0  0.0996
  H  H293  1  0.798700  0.837500  0.329800  1.0  0.1128
  H  H294  1  0.790800  0.899500  0.356000  1.0  0.1018
  H  H295  1  0.042700  0.014600  0.311300  1.0  0.1023
  H  H296  1  0.054500  0.082200  0.313100  1.0  0.0938
  H  H297  1  0.474700  0.983000  0.198700  1.0  0.0898
  H  H298  1  0.434100  0.040600  0.222400  1.0  0.1046
  H  H299  1  0.433700  0.983200  0.256700  1.0  0.1004
  H  H300  1  0.696900  0.192000  0.227600  1.0  0.1208
  H  H301  1  0.898100  0.093800  0.346300  1.0  0.082
  H  H302  1  0.187100  0.024600  0.328800  1.0  0.0992
  H  H303  1  0.187100  0.012100  0.266600  1.0  0.0753
  H  H304  1  0.071400  0.151300  0.234700  1.0  0.1081
  H  H305  1  0.041800  0.192100  0.282200  1.0  0.1054
  H  H306  1  0.019000  0.208900  0.222600  1.0  0.1024
  H  H307  1  0.550400  0.819800  0.103500  1.0  0.329
  H  H308  1  0.514400  0.878500  0.117800  1.0  0.3147
  H  H309  1  0.775400  0.834100  0.473300  1.0  0.3352
  H  H310  1  0.828300  0.874000  0.438300  1.0  0.342
  H  H311  1  0.449900  0.117600  0.258600  1.0  0.0903
  H  H312  1  0.612400  0.147500  0.375900  1.0  0.1113
  H  H313  1  0.648900  0.210600  0.365700  1.0  0.1092
  H  H314  1  0.713900  0.157100  0.364800  1.0  0.0916
  H  H315  1  0.761700  0.244900  0.321200  1.0  0.1001
  H  H316  1  0.618100  0.005300  0.354300  1.0  0.11
  H  H317  1  0.498500  0.114500  0.367800  1.0  0.1019
  H  H318  1  0.410200  0.141700  0.346200  1.0  0.0794
  H  H319  1  0.439500  0.230200  0.298800  1.0  0.1092
  H  H320  1  0.531100  0.262300  0.302900  1.0  0.1062
  H  H321  1  0.502800  0.217900  0.347700  1.0  0.0934
  H  H322  1  0.584100  0.224800  0.213200  1.0  0.0699
  H  H323  1  0.563000  0.159600  0.199600  1.0  0.1115
  H  H324  1  0.904100  0.244300  0.182900  1.0  0.1018
  H  H325  1  0.846900  0.299600  0.196000  1.0  0.1061
  H  H326  1  0.800200  0.240800  0.180900  1.0  0.1012
  H  H327  1  0.969900  0.275300  0.269700  1.0  0.083
  H  H328  1  0.893400  0.317100  0.287700  1.0  0.0842
  H  H329  1  0.714900  0.307600  0.228400  1.0  0.0752
  H  H330  1  0.640200  0.290200  0.269300  1.0  0.1069
  H  H331  1  0.936400  0.048200  0.481700  1.0  0.0987
  H  H332  1  0.797800  0.002500  0.504900  1.0  0.1225
  H  H333  1  0.286700  0.132100  0.230400  1.0  0.3094
  H  H334  1  0.260100  0.071000  0.217300  1.0  0.32
  H  H335  1  0.450600  0.022400  0.345700  1.0  0.0838
  H  H336  1  0.364600  0.048000  0.319100  1.0  0.0742
  H  H337  1  0.877300  0.271600  0.366900  1.0  0.0781
  H  H338  1  0.932700  0.217500  0.347800  1.0  0.0781
  H  H339  1  0.882400  0.136000  0.503900  1.0  0.0722
  H  H340  1  0.511400  0.949900  0.396600  1.0  0.1196
  H  H341  1  0.502100  0.965900  0.457700  1.0  0.1151
  H  H342  1  0.547600  0.907200  0.440700  1.0  0.1184
  H  H343  1  0.410000  0.263400  0.144700  1.0  0.3123
  H  H344  1  0.508200  0.267400  0.152100  1.0  0.3303
  H  H345  1  0.733000  0.431900  0.292300  1.0  0.3136
  H  H346  1  0.707100  0.401200  0.241600  1.0  0.3222
  H  H347  1  0.032200  0.142800  0.510300  1.0  0.0829
  H  H348  1  0.861200  0.199300  0.441000  1.0  0.3105
  H  H349  1  0.046700  0.153100  0.397600  1.0  0.0876
  H  H350  1  0.588300  0.937100  0.520300  1.0  0.0952
  H  H351  1  0.646200  0.980500  0.554100  1.0  0.1281
  H  H352  1  0.685200  0.919900  0.537000  1.0  0.1308
  H  H353  1  0.290800  0.995500  0.438600  1.0  0.3374
  H  H354  1  0.321700  0.974200  0.385000  1.0  0.3314
  H  H355  1  0.945000  0.341700  0.407600  1.0  0.1867
  H  H356  1  0.176600  0.096100  0.412000  1.0  0.0852
  H  H357  1  0.182200  0.157100  0.440600  1.0  0.1064
  H  H358  1  0.050700  0.397200  0.439000  1.0  0.0882
  H  H359  1  0.114200  0.370400  0.395600  1.0  0.1054
  H  H360  1  0.182500  0.053900  0.493500  1.0  0.133
  H  H361  1  0.144800  0.291900  0.450900  1.0  0.0851
  H  H362  1  0.224800  0.379200  0.466700  1.0  0.1051
  H  H363  1  0.215300  0.341900  0.519200  1.0  0.0997
  H  H364  1  0.154300  0.396400  0.510300  1.0  0.1096
  C  C365  1  0.345900  0.553300  0.752100  1.0  -0.1323
  C  C366  1  0.258000  0.552600  0.742900  1.0  0.1712
  C  C367  1  0.400700  0.505400  0.759000  1.0  0.0764
  C  C368  1  0.199600  0.604300  0.740600  1.0  -0.1307
  C  C369  1  0.490800  0.504200  0.784100  1.0  0.0908
  C  C370  1  0.116500  0.578600  0.768500  1.0  0.0661
  C  C371  1  0.180100  0.624200  0.684500  1.0  -0.1378
  C  C372  1  0.121900  0.517100  0.749200  1.0  0.114
  C  C373  1  0.525800  0.447500  0.761800  1.0  -0.1489
  C  C374  1  0.556200  0.552700  0.777600  1.0  -0.3797
  C  C375  1  0.475200  0.495800  0.844500  1.0  -0.3495
  C  C376  1  0.441600  0.412300  0.754100  1.0  0.0689
  C  C377  1  0.131800  0.576600  0.829700  1.0  -0.2794
  C  C378  1  0.033800  0.613200  0.755100  1.0  -0.3786
  C  C379  1  0.259200  0.636600  0.650800  1.0  -0.3312
  C  C380  1  0.055200  0.478400  0.746100  1.0  -0.0099
  C  C381  1  0.569200  0.452500  0.707300  1.0  -0.1766
  C  C382  1  0.441000  0.355200  0.748500  1.0  0.102
  C  C383  1  0.128900  0.635100  0.855000  1.0  0.5839
  C  C384  1  0.234300  0.663700  0.599000  1.0  0.5261
  C  C385  1  0.067400  0.422400  0.727000  1.0  0.2214
  C  C386  1  0.966400  0.494300  0.769100  1.0  -0.3429
  C  C387  1  0.138900  0.337000  0.703400  1.0  0.2194
  C  C388  1  0.360500  0.324600  0.740400  1.0  0.071
  C  C389  1  0.215000  0.311300  0.734600  1.0  0.0538
  C  C390  1  0.354700  0.427500  0.635700  1.0  0.1693
  C  C391  1  0.234500  0.470400  0.617100  1.0  0.1099
  C  C392  1  0.669300  0.460100  0.706000  1.0  -0.2396
  C  C393  1  0.525700  0.322900  0.752600  1.0  -0.3561
  C  C394  1  0.996000  0.379500  0.713700  1.0  -0.1498
  C  C395  1  0.042900  0.321400  0.720700  1.0  0.1029
  C  C396  1  0.155000  0.329800  0.643900  1.0  -0.3774
  C  C397  1  0.348200  0.259300  0.742200  1.0  0.0766
  C  C398  1  0.255900  0.255000  0.718100  1.0  -0.065
  C  C399  1  0.154600  0.495800  0.615400  1.0  -0.092
  C  C400  1  0.288500  0.472700  0.572400  1.0  0.087
  C  C401  1  0.714900  0.402600  0.715900  1.0  0.5965
  C  C402  1  0.953100  0.389200  0.659700  1.0  -0.167
  C  C403  1  0.000300  0.273600  0.690200  1.0  -0.3697
  C  C404  1  0.042100  0.306600  0.780500  1.0  -0.2614
  C  C405  1  0.350000  0.242100  0.801000  1.0  -0.3722
  C  C406  1  0.413400  0.223100  0.711700  1.0  -0.1921
  C  C407  1  0.203100  0.201400  0.734100  1.0  -0.2588
  C  C408  1  0.432900  0.425400  0.549200  1.0  -0.0171
  C  C409  1  0.126400  0.522800  0.570500  1.0  0.0565
  C  C410  1  0.261400  0.497700  0.525400  1.0  -0.1726
  C  C411  1  0.907200  0.446400  0.652100  1.0  -0.2722
  C  C412  1  0.954300  0.288700  0.803100  1.0  0.5385
  C  C413  1  0.427800  0.240400  0.654500  1.0  -0.2336
  C  C414  1  0.225500  0.149500  0.700100  1.0  0.6005
  C  C415  1  0.414800  0.364400  0.530300  1.0  0.1069
  C  C416  1  0.181700  0.522400  0.523900  1.0  0.0881
  C  C417  1  0.039200  0.552600  0.568700  1.0  -0.3642
  C  C418  1  0.859800  0.450200  0.598900  1.0  0.5834
  C  C419  1  0.509400  0.213400  0.632800  1.0  0.5577
  C  C420  1  0.507500  0.342900  0.523700  1.0  0.0608
  C  C421  1  0.554500  0.370600  0.569900  1.0  0.1226
  C  C422  1  0.147300  0.548500  0.473700  1.0  -0.3978
  C  C423  1  0.651700  0.380200  0.559300  1.0  0.0347
  C  C424  1  0.571800  0.139200  0.576400  1.0  0.0031
  C  C425  1  0.617100  0.173000  0.534200  1.0  0.1604
  C  C426  1  0.683700  0.135600  0.507100  1.0  -0.3452
  C  C427  1  0.154100  0.446700  0.252100  1.0  -0.1325
  C  C428  1  0.242000  0.447400  0.242900  1.0  0.1722
  C  C429  1  0.099300  0.494600  0.259000  1.0  0.077
  C  C430  1  0.300400  0.395700  0.240600  1.0  -0.1321
  C  C431  1  0.009200  0.495800  0.284100  1.0  0.0891
  C  C432  1  0.383500  0.421400  0.268500  1.0  0.0658
  C  C433  1  0.319900  0.375800  0.184500  1.0  -0.1404
  C  C434  1  0.378100  0.482900  0.249200  1.0  0.1145
  C  C435  1  0.974200  0.552500  0.261800  1.0  -0.1494
  C  C436  1  0.943800  0.447300  0.277600  1.0  -0.3801
  C  C437  1  0.024800  0.504200  0.344500  1.0  -0.35
  C  C438  1  0.058400  0.587700  0.254100  1.0  0.068
  C  C439  1  0.368200  0.423400  0.329700  1.0  -0.2787
  C  C440  1  0.466200  0.386800  0.255100  1.0  -0.3817
  C  C441  1  0.240800  0.363400  0.150800  1.0  -0.3345
  C  C442  1  0.444800  0.521600  0.246100  1.0  -0.009
  C  C443  1  0.930800  0.547500  0.207300  1.0  -0.177
  C  C444  1  0.059000  0.644800  0.248500  1.0  0.0997
  C  C445  1  0.371100  0.364900  0.355000  1.0  0.5827
  C  C446  1  0.265700  0.336300  0.099000  1.0  0.5253
  C  C447  1  0.432600  0.577600  0.227000  1.0  0.2202
  C  C448  1  0.533600  0.505700  0.269100  1.0  -0.3433
  C  C449  1  0.361100  0.663000  0.203400  1.0  0.2201
  C  C450  1  0.139500  0.675400  0.240400  1.0  0.0719
  C  C451  1  0.285000  0.688700  0.234600  1.0  0.0532
  C  C452  1  0.145300  0.572500  0.135700  1.0  0.1699
  C  C453  1  0.265500  0.529600  0.117100  1.0  0.1103
  C  C454  1  0.830700  0.539900  0.206000  1.0  -0.2386
  C  C455  1  0.974300  0.677100  0.252600  1.0  -0.3568
  C  C456  1  0.504000  0.620500  0.213700  1.0  -0.1483
  C  C457  1  0.457100  0.678600  0.220700  1.0  0.103
  C  C458  1  0.345000  0.670200  0.143900  1.0  -0.3768
  C  C459  1  0.151800  0.740700  0.242200  1.0  0.0752
  C  C460  1  0.244100  0.745000  0.218100  1.0  -0.0643
  C  C461  1  0.345400  0.504200  0.115400  1.0  -0.0914
  C  C462  1  0.211500  0.527300  0.072400  1.0  0.0865
  C  C463  1  0.785100  0.597400  0.215900  1.0  0.5963
  C  C464  1  0.546900  0.610800  0.159700  1.0  -0.1711
  C  C465  1  0.499700  0.726400  0.190200  1.0  -0.3714
  C  C466  1  0.457900  0.693400  0.280500  1.0  -0.2622
  C  C467  1  0.150000  0.757900  0.301000  1.0  -0.3741
  C  C468  1  0.086600  0.776900  0.211700  1.0  -0.1944
  C  C469  1  0.296900  0.798600  0.234100  1.0  -0.2589
  C  C470  1  0.067100  0.574600  0.049200  1.0  -0.017
  C  C471  1  0.373600  0.477200  0.070500  1.0  0.0583
  C  C472  1  0.238600  0.502300  0.025400  1.0  -0.1728
  C  C473  1  0.592800  0.553600  0.152100  1.0  -0.2742
  C  C474  1  0.545700  0.711300  0.303100  1.0  0.543
  C  C475  1  0.072200  0.759600  0.154500  1.0  -0.2337
  C  C476  1  0.274500  0.850500  0.200100  1.0  0.6002
  C  C477  1  0.085200  0.635600  0.030300  1.0  0.108
  C  C478  1  0.318300  0.477600  0.023900  1.0  0.0877
  C  C479  1  0.460800  0.447400  0.068700  1.0  -0.3677
  C  C480  1  0.640200  0.549800  0.098900  1.0  0.5841
  C  C481  1  0.990600  0.786600  0.132800  1.0  0.557
  C  C482  1  0.992500  0.657100  0.023700  1.0  0.0616
  C  C483  1  0.945500  0.629400  0.069900  1.0  0.1232
  C  C484  1  0.352700  0.451500  0.973700  1.0  -0.3981
  C  C485  1  0.848300  0.619800  0.059300  1.0  0.0347
  C  C486  1  0.928200  0.860800  0.076400  1.0  0.0021
  C  C487  1  0.882900  0.827000  0.034200  1.0  0.1604
  C  C488  1  0.816300  0.864400  0.007100  1.0  -0.3438
  C  C489  1  0.654100  0.053300  0.747900  1.0  -0.1313
  C  C490  1  0.742000  0.052600  0.757100  1.0  0.1726
  C  C491  1  0.599300  0.005400  0.741000  1.0  0.0749
  C  C492  1  0.800400  0.104300  0.759400  1.0  -0.1307
  C  C493  1  0.509200  0.004200  0.715900  1.0  0.0889
  C  C494  1  0.883500  0.078600  0.731500  1.0  0.0645
  C  C495  1  0.819900  0.124200  0.815500  1.0  -0.1369
  C  C496  1  0.878100  0.017100  0.750800  1.0  0.1143
  C  C497  1  0.474200  0.947500  0.738200  1.0  -0.1492
  C  C498  1  0.443800  0.052700  0.722400  1.0  -0.3794
  C  C499  1  0.524800  0.995800  0.655500  1.0  -0.3492
  C  C500  1  0.558400  0.912300  0.745900  1.0  0.069
  C  C501  1  0.868200  0.076600  0.670300  1.0  -0.2775
  C  C502  1  0.966200  0.113200  0.744900  1.0  -0.3809
  C  C503  1  0.740800  0.136600  0.849200  1.0  -0.3348
  C  C504  1  0.944800  0.978400  0.753900  1.0  -0.0084
  C  C505  1  0.430800  0.952500  0.792700  1.0  -0.1785
  C  C506  1  0.559000  0.855200  0.751500  1.0  0.1022
  C  C507  1  0.871100  0.135100  0.645000  1.0  0.583
  C  C508  1  0.765700  0.163700  0.901000  1.0  0.5261
  C  C509  1  0.932600  0.922400  0.773000  1.0  0.2226
  C  C510  1  0.033600  0.994300  0.730900  1.0  -0.3455
  C  C511  1  0.861100  0.837000  0.796600  1.0  0.2203
  C  C512  1  0.639500  0.824600  0.759600  1.0  0.0708
  C  C513  1  0.785000  0.811300  0.765400  1.0  0.0538
  C  C514  1  0.645300  0.927500  0.864300  1.0  0.1708
  C  C515  1  0.765500  0.970400  0.882900  1.0  0.1128
  C  C516  1  0.330700  0.960100  0.794000  1.0  -0.2389
  C  C517  1  0.474300  0.822900  0.747400  1.0  -0.3552
  C  C518  1  0.004000  0.879500  0.786300  1.0  -0.1488
  C  C519  1  0.957100  0.821400  0.779300  1.0  0.1012
  C  C520  1  0.845000  0.829800  0.856100  1.0  -0.3791
  C  C521  1  0.651800  0.759300  0.757800  1.0  0.074
  C  C522  1  0.744100  0.755000  0.781900  1.0  -0.064
  C  C523  1  0.845400  0.995800  0.884600  1.0  -0.0921
  C  C524  1  0.711500  0.972700  0.927600  1.0  0.0863
  C  C525  1  0.285100  0.902600  0.784100  1.0  0.5963
  C  C526  1  0.046900  0.889200  0.840300  1.0  -0.1696
  C  C527  1  0.999700  0.773600  0.809800  1.0  -0.3715
  C  C528  1  0.957900  0.806600  0.719500  1.0  -0.2611
  C  C529  1  0.650000  0.742100  0.699000  1.0  -0.3745
  C  C530  1  0.586600  0.723100  0.788300  1.0  -0.1942
  C  C531  1  0.796900  0.701400  0.765900  1.0  -0.2597
  C  C532  1  0.567100  0.925400  0.950800  1.0  -0.017
  C  C533  1  0.873600  0.022800  0.929500  1.0  0.0573
  C  C534  1  0.738600  0.997700  0.974600  1.0  -0.1722
  C  C535  1  0.092800  0.946400  0.847900  1.0  -0.2757
  C  C536  1  0.045700  0.788700  0.696900  1.0  0.5362
  C  C537  1  0.572200  0.740400  0.845500  1.0  -0.233
  C  C538  1  0.774500  0.649500  0.799900  1.0  0.599
  C  C539  1  0.585200  0.864400  0.969700  1.0  0.1077
  C  C540  1  0.818300  0.022400  0.976100  1.0  0.0869
  C  C541  1  0.960800  0.052600  0.931300  1.0  -0.3659
  C  C542  1  0.140200  0.950200  0.901100  1.0  0.5862
  C  C543  1  0.490600  0.713400  0.867200  1.0  0.5563
  C  C544  1  0.492500  0.842900  0.976300  1.0  0.0613
  C  C545  1  0.445500  0.870600  0.930100  1.0  0.1252
  C  C546  1  0.852700  0.048500  0.026300  1.0  -0.3987
  C  C547  1  0.348300  0.880200  0.940700  1.0  0.0345
  C  C548  1  0.428200  0.639200  0.923600  1.0  0.0028
  C  C549  1  0.382900  0.673000  0.965800  1.0  0.1599
  C  C550  1  0.316300  0.635600  0.992900  1.0  -0.3455
  C  C551  1  0.845900  0.946700  0.247900  1.0  -0.1322
  C  C552  1  0.758000  0.947400  0.257100  1.0  0.172
  C  C553  1  0.900700  0.994600  0.241000  1.0  0.0769
  C  C554  1  0.699600  0.895700  0.259400  1.0  -0.1315
  C  C555  1  0.990800  0.995800  0.215900  1.0  0.0885
  C  C556  1  0.616500  0.921400  0.231500  1.0  0.0645
  C  C557  1  0.680100  0.875800  0.315500  1.0  -0.1392
  C  C558  1  0.621900  0.982900  0.250800  1.0  0.1142
  C  C559  1  0.025800  0.052500  0.238200  1.0  -0.1494
  C  C560  1  0.056200  0.947300  0.222400  1.0  -0.3818
  C  C561  1  0.975200  0.004200  0.155500  1.0  -0.3492
  C  C562  1  0.941600  0.087700  0.245900  1.0  0.0707
  C  C563  1  0.631800  0.923400  0.170300  1.0  -0.2767
  C  C564  1  0.533800  0.886800  0.244900  1.0  -0.3796
  C  C565  1  0.759200  0.863400  0.349200  1.0  -0.3287
  C  C566  1  0.555200  0.021600  0.253900  1.0  -0.0092
  C  C567  1  0.069200  0.047500  0.292700  1.0  -0.1786
  C  C568  1  0.941000  0.144800  0.251500  1.0  0.1018
  C  C569  1  0.628900  0.864900  0.145000  1.0  0.5831
  C  C570  1  0.734300  0.836300  0.401000  1.0  0.5255
  C  C571  1  0.567400  0.077600  0.273000  1.0  0.2243
  C  C572  1  0.466400  0.005700  0.230900  1.0  -0.3426
  C  C573  1  0.638900  0.163000  0.296600  1.0  0.2195
  C  C574  1  0.860500  0.175400  0.259600  1.0  0.071
  C  C575  1  0.715000  0.188700  0.265400  1.0  0.0536
  C  C576  1  0.854700  0.072500  0.364300  1.0  0.1692
  C  C577  1  0.734500  0.029600  0.382900  1.0  0.1119
  C  C578  1  0.169300  0.039900  0.294000  1.0  -0.2388
  C  C579  1  0.025700  0.177100  0.247400  1.0  -0.3564
  C  C580  1  0.496000  0.120500  0.286300  1.0  -0.1504
  C  C581  1  0.542900  0.178600  0.279300  1.0  0.101
  C  C582  1  0.655000  0.170200  0.356100  1.0  -0.3786
  C  C583  1  0.848200  0.240700  0.257800  1.0  0.0739
  C  C584  1  0.755900  0.245000  0.281900  1.0  -0.0635
  C  C585  1  0.654600  0.004200  0.384600  1.0  -0.0935
  C  C586  1  0.788500  0.027300  0.427600  1.0  0.086
  C  C587  1  0.214900  0.097400  0.284100  1.0  0.5953
  C  C588  1  0.453100  0.110800  0.340300  1.0  -0.1688
  C  C589  1  0.500300  0.226400  0.309800  1.0  -0.3693
  C  C590  1  0.542100  0.193400  0.219500  1.0  -0.261
  C  C591  1  0.850000  0.257900  0.199000  1.0  -0.3739
  C  C592  1  0.913400  0.276900  0.288300  1.0  -0.1939
  C  C593  1  0.703100  0.298600  0.265900  1.0  -0.2578
  C  C594  1  0.932900  0.074600  0.450800  1.0  -0.0157
  C  C595  1  0.626400  0.977200  0.429500  1.0  0.0573
  C  C596  1  0.761400  0.002300  0.474600  1.0  -0.1717
  C  C597  1  0.407200  0.053600  0.347900  1.0  -0.2746
  C  C598  1  0.454300  0.211300  0.196900  1.0  0.5342
  C  C599  1  0.927800  0.259600  0.345500  1.0  -0.2346
  C  C600  1  0.725500  0.350500  0.299900  1.0  0.6005
  C  C601  1  0.914800  0.135600  0.469700  1.0  0.1074
  C  C602  1  0.681700  0.977600  0.476100  1.0  0.0884
  C  C603  1  0.539200  0.947400  0.431300  1.0  -0.3644
  C  C604  1  0.359800  0.049800  0.401100  1.0  0.5851
  C  C605  1  0.009400  0.286600  0.367200  1.0  0.5568
  C  C606  1  0.007500  0.157100  0.476300  1.0  0.0622
  C  C607  1  0.054500  0.129400  0.430100  1.0  0.1246
  C  C608  1  0.647300  0.951500  0.526300  1.0  -0.3981
  C  C609  1  0.151700  0.119800  0.440700  1.0  0.0357
  C  C610  1  0.071800  0.360800  0.423600  1.0  0.0032
  C  C611  1  0.117100  0.327000  0.465800  1.0  0.1615
  C  C612  1  0.183700  0.364400  0.492900  1.0  -0.3447
  Br  Br613  1  0.393050  0.627010  0.764850  1.0  -0.166
  Br  Br614  1  0.106950  0.372990  0.264850  1.0  -0.166
  Br  Br615  1  0.606950  0.127010  0.735150  1.0  -0.1666
  Br  Br616  1  0.893050  0.872990  0.235150  1.0  -0.1665
  N  N617  1  0.208400  0.504100  0.738600  1.0  -0.3109
  N  N618  1  0.373500  0.452300  0.749800  1.0  -0.3749
  N  N619  1  0.142800  0.398800  0.718300  1.0  -0.3609
  N  N620  1  0.227700  0.423900  0.808100  1.0  -0.3748
  N  N621  1  0.287600  0.351500  0.731600  1.0  -0.3123
  N  N622  1  0.281500  0.442300  0.658100  1.0  -0.3991
  N  N623  1  0.269100  0.395800  0.834600  1.0  0.4961
  N  N624  1  0.056500  0.646900  0.880700  1.0  -0.6232
  N  N625  1  0.285100  0.650300  0.557700  1.0  -0.6975
  N  N626  1  0.311600  0.368100  0.863500  1.0  -0.4509
  N  N627  1  0.364000  0.444700  0.585700  1.0  0.0009
  N  N628  1  0.758900  0.399500  0.761200  1.0  -0.6267
  N  N629  1  0.957900  0.248100  0.839500  1.0  -0.6113
  N  N630  1  0.221400  0.100000  0.724800  1.0  -0.6449
  N  N631  1  0.819700  0.498800  0.590900  1.0  -0.6497
  N  N632  1  0.498200  0.169400  0.600100  1.0  -0.3744
  N  N633  1  0.291600  0.495900  0.238600  1.0  -0.3103
  N  N634  1  0.126500  0.547700  0.249800  1.0  -0.3746
  N  N635  1  0.357200  0.601200  0.218300  1.0  -0.3603
  N  N636  1  0.272300  0.576100  0.308100  1.0  -0.3721
  N  N637  1  0.212400  0.648500  0.231600  1.0  -0.3119
  N  N638  1  0.218500  0.557700  0.158100  1.0  -0.3979
  N  N639  1  0.230900  0.604200  0.334600  1.0  0.4964
  N  N640  1  0.443500  0.353100  0.380700  1.0  -0.6219
  N  N641  1  0.214900  0.349700  0.057700  1.0  -0.6961
  N  N642  1  0.188400  0.631900  0.363500  1.0  -0.452
  N  N643  1  0.136000  0.555300  0.085700  1.0  0.0004
  N  N644  1  0.741100  0.600500  0.261200  1.0  -0.629
  N  N645  1  0.542100  0.751900  0.339500  1.0  -0.6107
  N  N646  1  0.278600  0.900000  0.224800  1.0  -0.6444
  N  N647  1  0.680300  0.501200  0.090900  1.0  -0.6506
  N  N648  1  0.001800  0.830600  0.100100  1.0  -0.3719
  N  N649  1  0.791600  0.004100  0.761400  1.0  -0.3106
  N  N650  1  0.626500  0.952300  0.750200  1.0  -0.3763
  N  N651  1  0.857200  0.898800  0.781700  1.0  -0.3579
  N  N652  1  0.772300  0.923900  0.691900  1.0  -0.3723
  N  N653  1  0.712400  0.851500  0.768400  1.0  -0.311
  N  N654  1  0.718500  0.942300  0.841900  1.0  -0.3985
  N  N655  1  0.730900  0.895800  0.665400  1.0  0.4956
  N  N656  1  0.943500  0.146900  0.619300  1.0  -0.623
  N  N657  1  0.714900  0.150300  0.942300  1.0  -0.695
  N  N658  1  0.688400  0.868100  0.636500  1.0  -0.4531
  N  N659  1  0.636000  0.944700  0.914300  1.0  0.0039
  N  N660  1  0.241100  0.899500  0.738800  1.0  -0.6237
  N  N661  1  0.042100  0.748100  0.660500  1.0  -0.6098
  N  N662  1  0.778600  0.600000  0.775200  1.0  -0.6447
  N  N663  1  0.180300  0.998800  0.909100  1.0  -0.6515
  N  N664  1  0.501800  0.669400  0.899900  1.0  -0.3715
  N  N665  1  0.708400  0.995900  0.261400  1.0  -0.3106
  N  N666  1  0.873500  0.047700  0.250200  1.0  -0.3758
  N  N667  1  0.642800  0.101200  0.281700  1.0  -0.3617
  N  N668  1  0.727700  0.076100  0.191900  1.0  -0.3723
  N  N669  1  0.787600  0.148500  0.268400  1.0  -0.3105
  N  N670  1  0.781500  0.057700  0.341900  1.0  -0.3992
  N  N671  1  0.769100  0.104200  0.165400  1.0  0.497
  N  N672  1  0.556500  0.853100  0.119300  1.0  -0.6212
  N  N673  1  0.785100  0.849700  0.442300  1.0  -0.6956
  N  N674  1  0.811600  0.131900  0.136500  1.0  -0.4513
  N  N675  1  0.864000  0.055300  0.414300  1.0  0.0002
  N  N676  1  0.258900  0.100500  0.238800  1.0  -0.6244
  N  N677  1  0.457900  0.251900  0.160500  1.0  -0.6107
  N  N678  1  0.721400  0.400000  0.275200  1.0  -0.6453
  N  N679  1  0.319700  0.001200  0.409100  1.0  -0.6491
  N  N680  1  0.998200  0.330600  0.399900  1.0  -0.3726
  O  O681  1  0.189800  0.668600  0.851500  1.0  -0.6528
  O  O682  1  0.173600  0.697400  0.595000  1.0  -0.543
  O  O683  1  0.709900  0.363900  0.684000  1.0  -0.5841
  O  O684  1  0.512800  0.425190  0.576650  1.0  -0.3362
  O  O685  1  0.885000  0.311100  0.790700  1.0  -0.5707
  O  O686  1  0.245200  0.154600  0.652700  1.0  -0.6345
  O  O687  1  0.370600  0.334250  0.569380  1.0  -0.5399
  O  O688  1  0.582400  0.230900  0.646800  1.0  -0.6671
  O  O689  1  0.860500  0.409600  0.566900  1.0  -0.5681
  O  O690  1  0.515100  0.283280  0.526050  1.0  -0.4084
  O  O691  1  0.665500  0.407300  0.511000  1.0  -0.6418
  O  O692  1  0.552400  0.187600  0.494530  1.0  -0.4105
  O  O693  1  0.629100  0.274690  0.455500  1.0  -0.931
  O  O694  1  0.471700  0.251100  0.435200  1.0  -0.6837
  O  O695  1  0.310200  0.331400  0.351500  1.0  -0.6517
  O  O696  1  0.326400  0.302600  0.095000  1.0  -0.5412
  O  O697  1  0.790100  0.636100  0.184000  1.0  -0.5841
  O  O698  1  0.987200  0.574810  0.076650  1.0  -0.3359
  O  O699  1  0.615000  0.688900  0.290700  1.0  -0.57
  O  O700  1  0.254800  0.845400  0.152700  1.0  -0.6324
  O  O701  1  0.129400  0.665750  0.069380  1.0  -0.5375
  O  O702  1  0.917600  0.769100  0.146800  1.0  -0.6711
  O  O703  1  0.639500  0.590400  0.066900  1.0  -0.5656
  O  O704  1  0.984900  0.716720  0.026050  1.0  -0.4068
  O  O705  1  0.834500  0.592700  0.011000  1.0  -0.6422
  O  O706  1  0.947600  0.812400  0.994530  1.0  -0.41
  O  O707  1  0.870900  0.725310  0.955500  1.0  -0.9293
  O  O708  1  0.028300  0.748900  0.935200  1.0  -0.6851
  O  O709  1  0.810200  0.168600  0.648500  1.0  -0.6522
  O  O710  1  0.826400  0.197400  0.905000  1.0  -0.5378
  O  O711  1  0.290100  0.863900  0.816000  1.0  -0.5841
  O  O712  1  0.487200  0.925190  0.923350  1.0  -0.3376
  O  O713  1  0.115000  0.811100  0.709300  1.0  -0.5712
  O  O714  1  0.754800  0.654600  0.847300  1.0  -0.6365
  O  O715  1  0.629400  0.834250  0.930620  1.0  -0.5383
  O  O716  1  0.417600  0.730900  0.853200  1.0  -0.6699
  O  O717  1  0.139500  0.909600  0.933100  1.0  -0.5653
  O  O718  1  0.484900  0.783280  0.973950  1.0  -0.408
  O  O719  1  0.334500  0.907300  0.989000  1.0  -0.6426
  O  O720  1  0.447600  0.687600  0.005470  1.0  -0.4104
  O  O721  1  0.370900  0.774690  0.044500  1.0  -0.9292
  O  O722  1  0.528300  0.751100  0.064800  1.0  -0.6853
  O  O723  1  0.689800  0.831400  0.148500  1.0  -0.6524
  O  O724  1  0.673600  0.802600  0.405000  1.0  -0.5406
  O  O725  1  0.209900  0.136100  0.316000  1.0  -0.5838
  O  O726  1  0.012800  0.074810  0.423350  1.0  -0.336
  O  O727  1  0.385000  0.188900  0.209300  1.0  -0.5733
  O  O728  1  0.745200  0.345400  0.347300  1.0  -0.6341
  O  O729  1  0.870600  0.165750  0.430620  1.0  -0.5376
  O  O730  1  0.082400  0.269100  0.353200  1.0  -0.6667
  O  O731  1  0.360500  0.090400  0.433100  1.0  -0.566
  O  O732  1  0.015100  0.216720  0.473950  1.0  -0.4075
  O  O733  1  0.165500  0.092700  0.489000  1.0  -0.644
  O  O734  1  0.052400  0.312400  0.505470  1.0  -0.4104
  O  O735  1  0.129100  0.225310  0.544500  1.0  -0.9314
  O  O736  1  0.971700  0.248900  0.564800  1.0  -0.6819
