# generated using pymatgen
data_ZnH6C11N2O5
_symmetry_space_group_name_H-M   'P 1'
_cell_length_a   30.59190000
_cell_length_b   30.59190000
_cell_length_c   44.81810000
_cell_angle_alpha   90.00000000
_cell_angle_beta   90.00000000
_cell_angle_gamma   90.00000000
_symmetry_Int_Tables_number   1
_chemical_formula_structural   ZnH6C11N2O5
_chemical_formula_sum   'Zn48 H288 C528 N96 O240'
_cell_volume   41943.66182798
_cell_formula_units_Z   48
loop_
 _symmetry_equiv_pos_site_id
 _symmetry_equiv_pos_as_xyz
  1  'x, y, z'
loop_
 _atom_site_type_symbol
 _atom_site_label
 _atom_site_symmetry_multiplicity
 _atom_site_fract_x
 _atom_site_fract_y
 _atom_site_fract_z
 _atom_site_occupancy
 _atom_site_charge
  Zn  Zn1  1  0.095370  0.848300  0.628160  1.0  1.1455
  Zn  Zn2  1  0.133490  0.789250  0.673980  1.0  1.1378
  Zn  Zn3  1  0.595370  0.348300  0.128160  1.0  1.1455
  Zn  Zn4  1  0.633490  0.289250  0.173980  1.0  1.1378
  Zn  Zn5  1  0.904630  0.151700  0.628160  1.0  1.144
  Zn  Zn6  1  0.866510  0.210750  0.673980  1.0  1.14
  Zn  Zn7  1  0.404630  0.651700  0.128160  1.0  1.144
  Zn  Zn8  1  0.366510  0.710750  0.173980  1.0  1.14
  Zn  Zn9  1  0.151700  0.095370  0.628160  1.0  1.1453
  Zn  Zn10  1  0.210750  0.133490  0.673980  1.0  1.1406
  Zn  Zn11  1  0.651700  0.595370  0.128160  1.0  1.1453
  Zn  Zn12  1  0.710750  0.633490  0.173980  1.0  1.1406
  Zn  Zn13  1  0.848300  0.904630  0.628160  1.0  1.1455
  Zn  Zn14  1  0.789250  0.866510  0.673980  1.0  1.1398
  Zn  Zn15  1  0.348300  0.404630  0.128160  1.0  1.1455
  Zn  Zn16  1  0.289250  0.366510  0.173980  1.0  1.1398
  Zn  Zn17  1  0.904630  0.151700  0.371840  1.0  1.1449
  Zn  Zn18  1  0.866510  0.210750  0.326020  1.0  1.1392
  Zn  Zn19  1  0.404630  0.651700  0.871840  1.0  1.1449
  Zn  Zn20  1  0.366510  0.710750  0.826020  1.0  1.1392
  Zn  Zn21  1  0.095370  0.848300  0.371840  1.0  1.1466
  Zn  Zn22  1  0.133490  0.789250  0.326020  1.0  1.1376
  Zn  Zn23  1  0.595370  0.348300  0.871840  1.0  1.1466
  Zn  Zn24  1  0.633490  0.289250  0.826020  1.0  1.1376
  Zn  Zn25  1  0.848300  0.904630  0.371840  1.0  1.1473
  Zn  Zn26  1  0.789250  0.866510  0.326020  1.0  1.1398
  Zn  Zn27  1  0.348300  0.404630  0.871840  1.0  1.1473
  Zn  Zn28  1  0.289250  0.366510  0.826020  1.0  1.1398
  Zn  Zn29  1  0.151700  0.095370  0.371840  1.0  1.1462
  Zn  Zn30  1  0.210750  0.133490  0.326020  1.0  1.1387
  Zn  Zn31  1  0.651700  0.595370  0.871840  1.0  1.1462
  Zn  Zn32  1  0.710750  0.633490  0.826020  1.0  1.1387
  Zn  Zn33  1  0.071620  0.341820  0.500000  1.0  1.1238
  Zn  Zn34  1  0.053260  0.246330  0.500000  1.0  1.1351
  Zn  Zn35  1  0.571620  0.841820  0.000000  1.0  1.1238
  Zn  Zn36  1  0.553260  0.746330  0.000000  1.0  1.1309
  Zn  Zn37  1  0.928380  0.658180  0.500000  1.0  1.1258
  Zn  Zn38  1  0.946740  0.753670  0.500000  1.0  1.1298
  Zn  Zn39  1  0.428380  0.158180  0.000000  1.0  1.1258
  Zn  Zn40  1  0.446740  0.253670  0.000000  1.0  1.1261
  Zn  Zn41  1  0.658180  0.071620  0.500000  1.0  1.1239
  Zn  Zn42  1  0.753670  0.053260  0.500000  1.0  1.1348
  Zn  Zn43  1  0.158180  0.571620  0.000000  1.0  1.1239
  Zn  Zn44  1  0.253670  0.553260  0.000000  1.0  1.1335
  Zn  Zn45  1  0.341820  0.928380  0.500000  1.0  1.1271
  Zn  Zn46  1  0.246330  0.946740  0.500000  1.0  1.1275
  Zn  Zn47  1  0.841820  0.428380  0.000000  1.0  1.1271
  Zn  Zn48  1  0.746330  0.446740  0.000000  1.0  1.1269
  H  H49  1  0.237000  0.338400  0.629100  1.0  0.2773
  H  H50  1  0.247400  0.401400  0.641100  1.0  0.2959
  H  H51  1  0.276100  0.581100  0.729600  1.0  0.2854
  H  H52  1  0.245900  0.570800  0.691200  1.0  0.2855
  H  H53  1  0.133200  0.529000  0.594200  1.0  0.1741
  H  H54  1  0.094200  0.579600  0.578100  1.0  0.2814
  H  H55  1  0.137300  0.208300  0.573400  1.0  0.1185
  H  H56  1  0.211700  0.262600  0.637800  1.0  0.1156
  H  H57  1  0.165200  0.336800  0.568400  1.0  0.1167
  H  H58  1  0.353800  0.533100  0.837100  1.0  0.1226
  H  H59  1  0.320700  0.609900  0.767500  1.0  0.1197
  H  H60  1  0.287300  0.480900  0.767300  1.0  0.1171
  H  H61  1  0.031300  0.749100  0.574400  1.0  0.1172
  H  H62  1  0.036100  0.619900  0.558800  1.0  0.1252
  H  H63  1  0.112400  0.674300  0.623700  1.0  0.1134
  H  H64  1  0.256600  0.459300  0.672600  1.0  0.1271
  H  H65  1  0.192400  0.574800  0.656700  1.0  0.1221
  H  H66  1  0.166700  0.466200  0.603300  1.0  0.1301
  H  H67  1  0.737000  0.838400  0.129100  1.0  0.2773
  H  H68  1  0.747400  0.901400  0.141100  1.0  0.2959
  H  H69  1  0.776100  0.081100  0.229600  1.0  0.2854
  H  H70  1  0.745900  0.070800  0.191200  1.0  0.2855
  H  H71  1  0.633200  0.029000  0.094200  1.0  0.174
  H  H72  1  0.594200  0.079600  0.078100  1.0  0.2814
  H  H73  1  0.637300  0.708300  0.073400  1.0  0.1185
  H  H74  1  0.711700  0.762600  0.137800  1.0  0.1156
  H  H75  1  0.665200  0.836800  0.068400  1.0  0.1167
  H  H76  1  0.853800  0.033100  0.337100  1.0  0.1226
  H  H77  1  0.820700  0.109900  0.267500  1.0  0.1197
  H  H78  1  0.787300  0.980900  0.267300  1.0  0.1171
  H  H79  1  0.531300  0.249100  0.074400  1.0  0.1172
  H  H80  1  0.536100  0.119900  0.058800  1.0  0.1252
  H  H81  1  0.612400  0.174300  0.123700  1.0  0.1134
  H  H82  1  0.756600  0.959300  0.172600  1.0  0.1271
  H  H83  1  0.692400  0.074800  0.156700  1.0  0.1221
  H  H84  1  0.666667  0.966200  0.103300  1.0  0.1294
  H  H85  1  0.763000  0.661600  0.629100  1.0  0.2771
  H  H86  1  0.752600  0.598600  0.641100  1.0  0.2949
  H  H87  1  0.723900  0.418900  0.729600  1.0  0.286
  H  H88  1  0.754100  0.429200  0.691200  1.0  0.2866
  H  H89  1  0.866800  0.471000  0.594200  1.0  0.1737
  H  H90  1  0.905800  0.420400  0.578100  1.0  0.2804
  H  H91  1  0.862700  0.791700  0.573400  1.0  0.1186
  H  H92  1  0.788300  0.737400  0.637800  1.0  0.1155
  H  H93  1  0.834800  0.663200  0.568400  1.0  0.1163
  H  H94  1  0.646200  0.466900  0.837100  1.0  0.1227
  H  H95  1  0.679300  0.390100  0.767500  1.0  0.1194
  H  H96  1  0.712700  0.519100  0.767300  1.0  0.1172
  H  H97  1  0.968700  0.250900  0.574400  1.0  0.1178
  H  H98  1  0.963900  0.380100  0.558800  1.0  0.1252
  H  H99  1  0.887600  0.325700  0.623700  1.0  0.1131
  H  H100  1  0.743400  0.540700  0.672600  1.0  0.1272
  H  H101  1  0.807600  0.425200  0.656700  1.0  0.1227
  H  H102  1  0.833300  0.533800  0.603300  1.0  0.1302
  H  H103  1  0.263000  0.161600  0.129100  1.0  0.2771
  H  H104  1  0.252600  0.098600  0.141100  1.0  0.2949
  H  H105  1  0.223900  0.918900  0.229600  1.0  0.286
  H  H106  1  0.254100  0.929200  0.191200  1.0  0.2866
  H  H107  1  0.366800  0.971000  0.094200  1.0  0.1737
  H  H108  1  0.405800  0.920400  0.078100  1.0  0.2804
  H  H109  1  0.362700  0.291700  0.073400  1.0  0.1186
  H  H110  1  0.288300  0.237400  0.137800  1.0  0.1155
  H  H111  1  0.334800  0.163200  0.068400  1.0  0.1163
  H  H112  1  0.146200  0.966900  0.337100  1.0  0.1227
  H  H113  1  0.179300  0.890100  0.267500  1.0  0.1194
  H  H114  1  0.212700  0.019100  0.267300  1.0  0.1172
  H  H115  1  0.468700  0.750900  0.074400  1.0  0.1178
  H  H116  1  0.463900  0.880100  0.058800  1.0  0.1252
  H  H117  1  0.387600  0.825700  0.123700  1.0  0.1131
  H  H118  1  0.243400  0.040700  0.172600  1.0  0.1272
  H  H119  1  0.307600  0.925200  0.156700  1.0  0.1227
  H  H120  1  0.333333  0.033800  0.103300  1.0  0.1295
  H  H121  1  0.661600  0.237000  0.629100  1.0  0.2772
  H  H122  1  0.598600  0.247400  0.641100  1.0  0.2955
  H  H123  1  0.418900  0.276100  0.729600  1.0  0.2844
  H  H124  1  0.429200  0.245900  0.691200  1.0  0.2867
  H  H125  1  0.471000  0.133200  0.594200  1.0  0.1735
  H  H126  1  0.420400  0.094200  0.578100  1.0  0.282
  H  H127  1  0.791700  0.137300  0.573400  1.0  0.1182
  H  H128  1  0.737400  0.211700  0.637800  1.0  0.1158
  H  H129  1  0.663200  0.165200  0.568400  1.0  0.1172
  H  H130  1  0.466900  0.353800  0.837100  1.0  0.1226
  H  H131  1  0.390100  0.320700  0.767500  1.0  0.12
  H  H132  1  0.519100  0.287300  0.767300  1.0  0.1177
  H  H133  1  0.250900  0.031300  0.574400  1.0  0.1165
  H  H134  1  0.380100  0.036100  0.558800  1.0  0.1251
  H  H135  1  0.325700  0.112400  0.623700  1.0  0.1129
  H  H136  1  0.540700  0.256600  0.672600  1.0  0.1275
  H  H137  1  0.425200  0.192400  0.656700  1.0  0.122
  H  H138  1  0.533800  0.166700  0.603300  1.0  0.13
  H  H139  1  0.161600  0.737000  0.129100  1.0  0.2772
  H  H140  1  0.098600  0.747400  0.141100  1.0  0.2955
  H  H141  1  0.918900  0.776100  0.229600  1.0  0.2844
  H  H142  1  0.929200  0.745900  0.191200  1.0  0.2867
  H  H143  1  0.971000  0.633200  0.094200  1.0  0.1735
  H  H144  1  0.920400  0.594200  0.078100  1.0  0.282
  H  H145  1  0.291700  0.637300  0.073400  1.0  0.1182
  H  H146  1  0.237400  0.711700  0.137800  1.0  0.1158
  H  H147  1  0.163200  0.665200  0.068400  1.0  0.1172
  H  H148  1  0.966900  0.853800  0.337100  1.0  0.1226
  H  H149  1  0.890100  0.820700  0.267500  1.0  0.12
  H  H150  1  0.019100  0.787300  0.267300  1.0  0.1177
  H  H151  1  0.750900  0.531300  0.074400  1.0  0.1165
  H  H152  1  0.880100  0.536100  0.058800  1.0  0.1251
  H  H153  1  0.825700  0.612400  0.123700  1.0  0.1129
  H  H154  1  0.040700  0.756600  0.172600  1.0  0.1275
  H  H155  1  0.925200  0.692400  0.156700  1.0  0.122
  H  H156  1  0.033800  0.666667  0.103300  1.0  0.1292
  H  H157  1  0.338400  0.763000  0.629100  1.0  0.2772
  H  H158  1  0.401400  0.752600  0.641100  1.0  0.2955
  H  H159  1  0.581100  0.723900  0.729600  1.0  0.2876
  H  H160  1  0.570800  0.754100  0.691200  1.0  0.2865
  H  H161  1  0.529000  0.866800  0.594200  1.0  0.1744
  H  H162  1  0.579600  0.905800  0.578100  1.0  0.2809
  H  H163  1  0.208300  0.862700  0.573400  1.0  0.1185
  H  H164  1  0.262600  0.788300  0.637800  1.0  0.1155
  H  H165  1  0.336800  0.834800  0.568400  1.0  0.1171
  H  H166  1  0.533100  0.646200  0.837100  1.0  0.1225
  H  H167  1  0.609900  0.679300  0.767500  1.0  0.1202
  H  H168  1  0.480900  0.712700  0.767300  1.0  0.1176
  H  H169  1  0.749100  0.968700  0.574400  1.0  0.1167
  H  H170  1  0.619900  0.963900  0.558800  1.0  0.1252
  H  H171  1  0.674300  0.887600  0.623700  1.0  0.1132
  H  H172  1  0.459300  0.743400  0.672600  1.0  0.1275
  H  H173  1  0.574800  0.807600  0.656700  1.0  0.1223
  H  H174  1  0.466200  0.833300  0.603300  1.0  0.1295
  H  H175  1  0.838400  0.263000  0.129100  1.0  0.2772
  H  H176  1  0.901400  0.252600  0.141100  1.0  0.2956
  H  H177  1  0.081100  0.223900  0.229600  1.0  0.2876
  H  H178  1  0.070800  0.254100  0.191200  1.0  0.2865
  H  H179  1  0.029000  0.366800  0.094200  1.0  0.1744
  H  H180  1  0.079600  0.405800  0.078100  1.0  0.2809
  H  H181  1  0.708300  0.362700  0.073400  1.0  0.1185
  H  H182  1  0.762600  0.288300  0.137800  1.0  0.1155
  H  H183  1  0.836800  0.334800  0.068400  1.0  0.1171
  H  H184  1  0.033100  0.146200  0.337100  1.0  0.1225
  H  H185  1  0.109900  0.179300  0.267500  1.0  0.1202
  H  H186  1  0.980900  0.212700  0.267300  1.0  0.1176
  H  H187  1  0.249100  0.468700  0.074400  1.0  0.1167
  H  H188  1  0.119900  0.463900  0.058800  1.0  0.1252
  H  H189  1  0.174300  0.387600  0.123700  1.0  0.1132
  H  H190  1  0.959300  0.243400  0.172600  1.0  0.1275
  H  H191  1  0.074800  0.307600  0.156700  1.0  0.1223
  H  H192  1  0.966200  0.333333  0.103300  1.0  0.1288
  H  H193  1  0.763000  0.661600  0.370900  1.0  0.2768
  H  H194  1  0.752600  0.598600  0.358900  1.0  0.2944
  H  H195  1  0.723900  0.418900  0.270400  1.0  0.2863
  H  H196  1  0.754100  0.429200  0.308800  1.0  0.2863
  H  H197  1  0.866800  0.471000  0.405800  1.0  0.1732
  H  H198  1  0.905800  0.420400  0.421900  1.0  0.2814
  H  H199  1  0.862700  0.791700  0.426600  1.0  0.1187
  H  H200  1  0.788300  0.737400  0.362200  1.0  0.1156
  H  H201  1  0.834800  0.663200  0.431600  1.0  0.1168
  H  H202  1  0.646200  0.466900  0.162900  1.0  0.1224
  H  H203  1  0.679300  0.390100  0.232500  1.0  0.1193
  H  H204  1  0.712700  0.519100  0.232700  1.0  0.1178
  H  H205  1  0.968700  0.250900  0.425600  1.0  0.1176
  H  H206  1  0.963900  0.380100  0.441200  1.0  0.1254
  H  H207  1  0.887600  0.325700  0.376300  1.0  0.114
  H  H208  1  0.743400  0.540700  0.327400  1.0  0.1277
  H  H209  1  0.807600  0.425200  0.343300  1.0  0.1228
  H  H210  1  0.833300  0.533800  0.396700  1.0  0.1299
  H  H211  1  0.263000  0.161600  0.870900  1.0  0.2768
  H  H212  1  0.252600  0.098600  0.858900  1.0  0.2944
  H  H213  1  0.223900  0.918900  0.770400  1.0  0.2863
  H  H214  1  0.254100  0.929200  0.808800  1.0  0.2863
  H  H215  1  0.366800  0.971000  0.905800  1.0  0.1733
  H  H216  1  0.405800  0.920400  0.921900  1.0  0.2814
  H  H217  1  0.362700  0.291700  0.926600  1.0  0.1187
  H  H218  1  0.288300  0.237400  0.862200  1.0  0.1156
  H  H219  1  0.334800  0.163200  0.931600  1.0  0.1168
  H  H220  1  0.146200  0.966900  0.662900  1.0  0.1224
  H  H221  1  0.179300  0.890100  0.732500  1.0  0.1193
  H  H222  1  0.212700  0.019100  0.732700  1.0  0.1178
  H  H223  1  0.468700  0.750900  0.925600  1.0  0.1176
  H  H224  1  0.463900  0.880100  0.941200  1.0  0.1254
  H  H225  1  0.387600  0.825700  0.876300  1.0  0.114
  H  H226  1  0.243400  0.040700  0.827400  1.0  0.1277
  H  H227  1  0.307600  0.925200  0.843300  1.0  0.1228
  H  H228  1  0.333333  0.033800  0.896700  1.0  0.1292
  H  H229  1  0.237000  0.338400  0.370900  1.0  0.2771
  H  H230  1  0.247400  0.401400  0.358900  1.0  0.2956
  H  H231  1  0.276100  0.581100  0.270400  1.0  0.2848
  H  H232  1  0.245900  0.570800  0.308800  1.0  0.2851
  H  H233  1  0.133200  0.529000  0.405800  1.0  0.1738
  H  H234  1  0.094200  0.579600  0.421900  1.0  0.2817
  H  H235  1  0.137300  0.208300  0.426600  1.0  0.1187
  H  H236  1  0.211700  0.262600  0.362200  1.0  0.1159
  H  H237  1  0.165200  0.336800  0.431600  1.0  0.1172
  H  H238  1  0.353800  0.533100  0.162900  1.0  0.1225
  H  H239  1  0.320700  0.609900  0.232500  1.0  0.1196
  H  H240  1  0.287300  0.480900  0.232700  1.0  0.1179
  H  H241  1  0.031300  0.749100  0.425600  1.0  0.1171
  H  H242  1  0.036100  0.619900  0.441200  1.0  0.1249
  H  H243  1  0.112400  0.674300  0.376300  1.0  0.1142
  H  H244  1  0.256600  0.459300  0.327400  1.0  0.1271
  H  H245  1  0.192400  0.574800  0.343300  1.0  0.1223
  H  H246  1  0.166700  0.466200  0.396700  1.0  0.1299
  H  H247  1  0.737000  0.838400  0.870900  1.0  0.2771
  H  H248  1  0.747400  0.901400  0.858900  1.0  0.2956
  H  H249  1  0.776100  0.081100  0.770400  1.0  0.2848
  H  H250  1  0.745900  0.070800  0.808800  1.0  0.2851
  H  H251  1  0.633200  0.029000  0.905800  1.0  0.1738
  H  H252  1  0.594200  0.079600  0.921900  1.0  0.2817
  H  H253  1  0.637300  0.708300  0.926600  1.0  0.1187
  H  H254  1  0.711700  0.762600  0.862200  1.0  0.1159
  H  H255  1  0.665200  0.836800  0.931600  1.0  0.1172
  H  H256  1  0.853800  0.033100  0.662900  1.0  0.1225
  H  H257  1  0.820700  0.109900  0.732500  1.0  0.1196
  H  H258  1  0.787300  0.980900  0.732700  1.0  0.1179
  H  H259  1  0.531300  0.249100  0.925600  1.0  0.1171
  H  H260  1  0.536100  0.119900  0.941200  1.0  0.1249
  H  H261  1  0.612400  0.174300  0.876300  1.0  0.1142
  H  H262  1  0.756600  0.959300  0.827400  1.0  0.1271
  H  H263  1  0.692400  0.074800  0.843300  1.0  0.1223
  H  H264  1  0.666667  0.966200  0.896700  1.0  0.1292
  H  H265  1  0.338400  0.763000  0.370900  1.0  0.2769
  H  H266  1  0.401400  0.752600  0.358900  1.0  0.2949
  H  H267  1  0.581100  0.723900  0.270400  1.0  0.2871
  H  H268  1  0.570800  0.754100  0.308800  1.0  0.2862
  H  H269  1  0.529000  0.866800  0.405800  1.0  0.1741
  H  H270  1  0.579600  0.905800  0.421900  1.0  0.2818
  H  H271  1  0.208300  0.862700  0.426600  1.0  0.1184
  H  H272  1  0.262600  0.788300  0.362200  1.0  0.1161
  H  H273  1  0.336800  0.834800  0.431600  1.0  0.1176
  H  H274  1  0.533100  0.646200  0.162900  1.0  0.1222
  H  H275  1  0.609900  0.679300  0.232500  1.0  0.12
  H  H276  1  0.480900  0.712700  0.232700  1.0  0.1181
  H  H277  1  0.749100  0.968700  0.425600  1.0  0.1162
  H  H278  1  0.619900  0.963900  0.441200  1.0  0.1251
  H  H279  1  0.674300  0.887600  0.376300  1.0  0.1139
  H  H280  1  0.459300  0.743400  0.327400  1.0  0.1274
  H  H281  1  0.574800  0.807600  0.343300  1.0  0.1224
  H  H282  1  0.466200  0.833300  0.396700  1.0  0.1291
  H  H283  1  0.838400  0.263000  0.870900  1.0  0.2769
  H  H284  1  0.901400  0.252600  0.858900  1.0  0.295
  H  H285  1  0.081100  0.223900  0.770400  1.0  0.2871
  H  H286  1  0.070800  0.254100  0.808800  1.0  0.2862
  H  H287  1  0.029000  0.366800  0.905800  1.0  0.1741
  H  H288  1  0.079600  0.405800  0.921900  1.0  0.2818
  H  H289  1  0.708300  0.362700  0.926600  1.0  0.1184
  H  H290  1  0.762600  0.288300  0.862200  1.0  0.1161
  H  H291  1  0.836800  0.334800  0.931600  1.0  0.1176
  H  H292  1  0.033100  0.146200  0.662900  1.0  0.1222
  H  H293  1  0.109900  0.179300  0.732500  1.0  0.12
  H  H294  1  0.980900  0.212700  0.732700  1.0  0.1181
  H  H295  1  0.249100  0.468700  0.925600  1.0  0.1162
  H  H296  1  0.119900  0.463900  0.941200  1.0  0.1251
  H  H297  1  0.174300  0.387600  0.876300  1.0  0.1139
  H  H298  1  0.959300  0.243400  0.827400  1.0  0.1274
  H  H299  1  0.074800  0.307600  0.843300  1.0  0.1224
  H  H300  1  0.966200  0.333333  0.896700  1.0  0.1282
  H  H301  1  0.661600  0.237000  0.370900  1.0  0.2767
  H  H302  1  0.598600  0.247400  0.358900  1.0  0.2949
  H  H303  1  0.418900  0.276100  0.270400  1.0  0.2842
  H  H304  1  0.429200  0.245900  0.308800  1.0  0.2866
  H  H305  1  0.471000  0.133200  0.405800  1.0  0.1731
  H  H306  1  0.420400  0.094200  0.421900  1.0  0.282
  H  H307  1  0.791700  0.137300  0.426600  1.0  0.1183
  H  H308  1  0.737400  0.211700  0.362200  1.0  0.1162
  H  H309  1  0.663200  0.165200  0.431600  1.0  0.1176
  H  H310  1  0.466900  0.353800  0.162900  1.0  0.1221
  H  H311  1  0.390100  0.320700  0.232500  1.0  0.1198
  H  H312  1  0.519100  0.287300  0.232700  1.0  0.1187
  H  H313  1  0.250900  0.031300  0.425600  1.0  0.1164
  H  H314  1  0.380100  0.036100  0.441200  1.0  0.1252
  H  H315  1  0.325700  0.112400  0.376300  1.0  0.1135
  H  H316  1  0.540700  0.256600  0.327400  1.0  0.128
  H  H317  1  0.425200  0.192400  0.343300  1.0  0.122
  H  H318  1  0.533800  0.166700  0.396700  1.0  0.1297
  H  H319  1  0.161600  0.737000  0.870900  1.0  0.2767
  H  H320  1  0.098600  0.747400  0.858900  1.0  0.2949
  H  H321  1  0.918900  0.776100  0.770400  1.0  0.2842
  H  H322  1  0.929200  0.745900  0.808800  1.0  0.2866
  H  H323  1  0.971000  0.633200  0.905800  1.0  0.1731
  H  H324  1  0.920400  0.594200  0.921900  1.0  0.282
  H  H325  1  0.291700  0.637300  0.926600  1.0  0.1183
  H  H326  1  0.237400  0.711700  0.862200  1.0  0.1162
  H  H327  1  0.163200  0.665200  0.931600  1.0  0.1176
  H  H328  1  0.966900  0.853800  0.662900  1.0  0.1221
  H  H329  1  0.890100  0.820700  0.732500  1.0  0.1198
  H  H330  1  0.019100  0.787300  0.732700  1.0  0.1187
  H  H331  1  0.750900  0.531300  0.925600  1.0  0.1164
  H  H332  1  0.880100  0.536100  0.941200  1.0  0.1252
  H  H333  1  0.825700  0.612400  0.876300  1.0  0.1135
  H  H334  1  0.040700  0.756600  0.827400  1.0  0.128
  H  H335  1  0.925200  0.692400  0.843300  1.0  0.122
  H  H336  1  0.033800  0.666667  0.896700  1.0  0.1289
  C  C337  1  0.116700  0.278810  0.541580  1.0  0.7183
  C  C338  1  0.179700  0.187500  0.623670  1.0  0.6945
  C  C339  1  0.146500  0.273600  0.568220  1.0  -0.122
  C  C340  1  0.151400  0.233200  0.581610  1.0  0.0188
  C  C341  1  0.177300  0.229200  0.607550  1.0  -0.103
  C  C342  1  0.196300  0.264800  0.619480  1.0  -0.0986
  C  C343  1  0.193100  0.307200  0.604230  1.0  0.1815
  C  C344  1  0.167800  0.309800  0.578720  1.0  -0.102
  C  C345  1  0.319500  0.457200  0.820070  1.0  0.7273
  C  C346  1  0.355900  0.615700  0.820920  1.0  0.705
  C  C347  1  0.320100  0.500300  0.804750  1.0  -0.1738
  C  C348  1  0.339500  0.536100  0.818370  1.0  0.0094
  C  C349  1  0.337700  0.577300  0.803840  1.0  -0.1616
  C  C350  1  0.320100  0.582200  0.776990  1.0  -0.1528
  C  C351  1  0.300800  0.546700  0.762700  1.0  0.1976
  C  C352  1  0.300600  0.505200  0.776800  1.0  -0.0693
  C  C353  1  0.085100  0.754400  0.621180  1.0  0.7087
  C  C354  1  0.993800  0.691200  0.540500  1.0  0.6964
  C  C355  1  0.072900  0.716100  0.602490  1.0  -0.0936
  C  C356  1  0.042400  0.720900  0.579200  1.0  -0.0063
  C  C357  1  0.028900  0.685400  0.563750  1.0  -0.092
  C  C358  1  0.045700  0.644700  0.569800  1.0  -0.111
  C  C359  1  0.076700  0.640100  0.592100  1.0  0.0854
  C  C360  1  0.090800  0.677100  0.608600  1.0  -0.0921
  C  C361  1  0.199200  0.384300  0.614400  1.0  0.2454
  C  C362  1  0.271000  0.524000  0.712800  1.0  0.2022
  C  C363  1  0.130400  0.587600  0.613700  1.0  0.2664
  C  C364  1  0.212900  0.457100  0.637240  1.0  0.1454
  C  C365  1  0.236100  0.475700  0.661320  1.0  -0.1218
  C  C366  1  0.227100  0.520300  0.667720  1.0  0.1931
  C  C367  1  0.197700  0.545000  0.651850  1.0  -0.1167
  C  C368  1  0.175500  0.524300  0.628000  1.0  0.129
  C  C369  1  0.181900  0.479500  0.619400  1.0  -0.0923
  C  C370  1  0.616700  0.778810  0.041580  1.0  0.7183
  C  C371  1  0.679700  0.687500  0.123670  1.0  0.6945
  C  C372  1  0.646500  0.773600  0.068220  1.0  -0.122
  C  C373  1  0.651400  0.733200  0.081610  1.0  0.0188
  C  C374  1  0.677300  0.729200  0.107550  1.0  -0.103
  C  C375  1  0.696300  0.764800  0.119480  1.0  -0.0986
  C  C376  1  0.693100  0.807200  0.104230  1.0  0.1815
  C  C377  1  0.667800  0.809800  0.078720  1.0  -0.102
  C  C378  1  0.819500  0.957200  0.320070  1.0  0.7273
  C  C379  1  0.855900  0.115700  0.320920  1.0  0.705
  C  C380  1  0.820100  0.000300  0.304750  1.0  -0.1738
  C  C381  1  0.839500  0.036100  0.318370  1.0  0.0094
  C  C382  1  0.837700  0.077300  0.303840  1.0  -0.1616
  C  C383  1  0.820100  0.082200  0.276990  1.0  -0.1528
  C  C384  1  0.800800  0.046700  0.262700  1.0  0.1976
  C  C385  1  0.800600  0.005200  0.276800  1.0  -0.0693
  C  C386  1  0.585100  0.254400  0.121180  1.0  0.7087
  C  C387  1  0.493800  0.191200  0.040500  1.0  0.6964
  C  C388  1  0.572900  0.216100  0.102490  1.0  -0.0936
  C  C389  1  0.542400  0.220900  0.079200  1.0  -0.0063
  C  C390  1  0.528900  0.185400  0.063750  1.0  -0.092
  C  C391  1  0.545700  0.144700  0.069800  1.0  -0.111
  C  C392  1  0.576700  0.140100  0.092100  1.0  0.0854
  C  C393  1  0.590800  0.177100  0.108600  1.0  -0.0921
  C  C394  1  0.699200  0.884300  0.114400  1.0  0.2454
  C  C395  1  0.771000  0.024000  0.212800  1.0  0.2022
  C  C396  1  0.630400  0.087600  0.113700  1.0  0.2664
  C  C397  1  0.712900  0.957100  0.137240  1.0  0.1454
  C  C398  1  0.736100  0.975700  0.161320  1.0  -0.1218
  C  C399  1  0.727100  0.020300  0.167720  1.0  0.1931
  C  C400  1  0.697700  0.045000  0.151850  1.0  -0.1167
  C  C401  1  0.675500  0.024300  0.128000  1.0  0.1315
  C  C402  1  0.681900  0.979500  0.119400  1.0  -0.0841
  C  C403  1  0.883300  0.721190  0.541580  1.0  0.7168
  C  C404  1  0.820300  0.812500  0.623670  1.0  0.694
  C  C405  1  0.853500  0.726400  0.568220  1.0  -0.1206
  C  C406  1  0.848600  0.766800  0.581610  1.0  0.018
  C  C407  1  0.822700  0.770800  0.607550  1.0  -0.1031
  C  C408  1  0.803700  0.735200  0.619480  1.0  -0.099
  C  C409  1  0.806900  0.692800  0.604230  1.0  0.1804
  C  C410  1  0.832200  0.690200  0.578720  1.0  -0.1029
  C  C411  1  0.680500  0.542800  0.820070  1.0  0.7274
  C  C412  1  0.644100  0.384300  0.820920  1.0  0.7046
  C  C413  1  0.679900  0.499700  0.804750  1.0  -0.1733
  C  C414  1  0.660500  0.463900  0.818370  1.0  0.0083
  C  C415  1  0.662300  0.422700  0.803840  1.0  -0.1615
  C  C416  1  0.679900  0.417800  0.776990  1.0  -0.1516
  C  C417  1  0.699200  0.453300  0.762700  1.0  0.1974
  C  C418  1  0.699400  0.494800  0.776800  1.0  -0.0703
  C  C419  1  0.914900  0.245600  0.621180  1.0  0.7089
  C  C420  1  0.006200  0.308800  0.540500  1.0  0.6953
  C  C421  1  0.927100  0.283900  0.602490  1.0  -0.0941
  C  C422  1  0.957600  0.279100  0.579200  1.0  -0.0061
  C  C423  1  0.971100  0.314600  0.563750  1.0  -0.0924
  C  C424  1  0.954300  0.355300  0.569800  1.0  -0.112
  C  C425  1  0.923300  0.359900  0.592100  1.0  0.085
  C  C426  1  0.909200  0.322900  0.608600  1.0  -0.0916
  C  C427  1  0.800800  0.615700  0.614400  1.0  0.2477
  C  C428  1  0.729000  0.476000  0.712800  1.0  0.2005
  C  C429  1  0.869600  0.412400  0.613700  1.0  0.2661
  C  C430  1  0.787100  0.542900  0.637240  1.0  0.1457
  C  C431  1  0.763900  0.524300  0.661320  1.0  -0.1222
  C  C432  1  0.772900  0.479700  0.667720  1.0  0.1928
  C  C433  1  0.802300  0.455000  0.651850  1.0  -0.117
  C  C434  1  0.824500  0.475700  0.628000  1.0  0.1292
  C  C435  1  0.818100  0.520500  0.619400  1.0  -0.0916
  C  C436  1  0.383300  0.221190  0.041580  1.0  0.7168
  C  C437  1  0.320300  0.312500  0.123670  1.0  0.694
  C  C438  1  0.353500  0.226400  0.068220  1.0  -0.1206
  C  C439  1  0.348600  0.266800  0.081610  1.0  0.018
  C  C440  1  0.322700  0.270800  0.107550  1.0  -0.1031
  C  C441  1  0.303700  0.235200  0.119480  1.0  -0.099
  C  C442  1  0.306900  0.192800  0.104230  1.0  0.1804
  C  C443  1  0.332200  0.190200  0.078720  1.0  -0.1029
  C  C444  1  0.180500  0.042800  0.320070  1.0  0.7274
  C  C445  1  0.144100  0.884300  0.320920  1.0  0.7046
  C  C446  1  0.179900  0.999700  0.304750  1.0  -0.1733
  C  C447  1  0.160500  0.963900  0.318370  1.0  0.0083
  C  C448  1  0.162300  0.922700  0.303840  1.0  -0.1615
  C  C449  1  0.179900  0.917800  0.276990  1.0  -0.1516
  C  C450  1  0.199200  0.953300  0.262700  1.0  0.1974
  C  C451  1  0.199400  0.994800  0.276800  1.0  -0.0703
  C  C452  1  0.414900  0.745600  0.121180  1.0  0.7089
  C  C453  1  0.506200  0.808800  0.040500  1.0  0.6953
  C  C454  1  0.427100  0.783900  0.102490  1.0  -0.0941
  C  C455  1  0.457600  0.779100  0.079200  1.0  -0.0061
  C  C456  1  0.471100  0.814600  0.063750  1.0  -0.0924
  C  C457  1  0.454300  0.855300  0.069800  1.0  -0.112
  C  C458  1  0.423300  0.859900  0.092100  1.0  0.085
  C  C459  1  0.409200  0.822900  0.108600  1.0  -0.0916
  C  C460  1  0.300800  0.115700  0.114400  1.0  0.2477
  C  C461  1  0.229000  0.976000  0.212800  1.0  0.2005
  C  C462  1  0.369600  0.912400  0.113700  1.0  0.2661
  C  C463  1  0.287100  0.042900  0.137240  1.0  0.1458
  C  C464  1  0.263900  0.024300  0.161320  1.0  -0.1222
  C  C465  1  0.272900  0.979700  0.167720  1.0  0.1928
  C  C466  1  0.302300  0.955000  0.151850  1.0  -0.117
  C  C467  1  0.324500  0.975700  0.128000  1.0  0.1316
  C  C468  1  0.318100  0.020500  0.119400  1.0  -0.0833
  C  C469  1  0.721190  0.116700  0.541580  1.0  0.7185
  C  C470  1  0.812500  0.179700  0.623670  1.0  0.6938
  C  C471  1  0.726400  0.146500  0.568220  1.0  -0.1213
  C  C472  1  0.766800  0.151400  0.581610  1.0  0.0178
  C  C473  1  0.770800  0.177300  0.607550  1.0  -0.1043
  C  C474  1  0.735200  0.196300  0.619480  1.0  -0.0981
  C  C475  1  0.692800  0.193100  0.604230  1.0  0.1824
  C  C476  1  0.690200  0.167800  0.578720  1.0  -0.1049
  C  C477  1  0.542800  0.319500  0.820070  1.0  0.7272
  C  C478  1  0.384300  0.355900  0.820920  1.0  0.7054
  C  C479  1  0.499700  0.320100  0.804750  1.0  -0.1725
  C  C480  1  0.463900  0.339500  0.818370  1.0  0.009
  C  C481  1  0.422700  0.337700  0.803840  1.0  -0.1613
  C  C482  1  0.417800  0.320100  0.776990  1.0  -0.1534
  C  C483  1  0.453300  0.300800  0.762700  1.0  0.198
  C  C484  1  0.494800  0.300600  0.776800  1.0  -0.0697
  C  C485  1  0.245600  0.085100  0.621180  1.0  0.7084
  C  C486  1  0.308800  0.993800  0.540500  1.0  0.6967
  C  C487  1  0.283900  0.072900  0.602490  1.0  -0.0943
  C  C488  1  0.279100  0.042400  0.579200  1.0  -0.0072
  C  C489  1  0.314600  0.028900  0.563750  1.0  -0.0921
  C  C490  1  0.355300  0.045700  0.569800  1.0  -0.1103
  C  C491  1  0.359900  0.076700  0.592100  1.0  0.0833
  C  C492  1  0.322900  0.090800  0.608600  1.0  -0.091
  C  C493  1  0.615700  0.199200  0.614400  1.0  0.2452
  C  C494  1  0.476000  0.271000  0.712800  1.0  0.2032
  C  C495  1  0.412400  0.130400  0.613700  1.0  0.2661
  C  C496  1  0.542900  0.212900  0.637240  1.0  0.1446
  C  C497  1  0.524300  0.236100  0.661320  1.0  -0.1224
  C  C498  1  0.479700  0.227100  0.667720  1.0  0.1911
  C  C499  1  0.455000  0.197700  0.651850  1.0  -0.1192
  C  C500  1  0.475700  0.175500  0.628000  1.0  0.1297
  C  C501  1  0.520500  0.181900  0.619400  1.0  -0.0906
  C  C502  1  0.221190  0.616700  0.041580  1.0  0.7185
  C  C503  1  0.312500  0.679700  0.123670  1.0  0.6938
  C  C504  1  0.226400  0.646500  0.068220  1.0  -0.1213
  C  C505  1  0.266800  0.651400  0.081610  1.0  0.0178
  C  C506  1  0.270800  0.677300  0.107550  1.0  -0.1043
  C  C507  1  0.235200  0.696300  0.119480  1.0  -0.0981
  C  C508  1  0.192800  0.693100  0.104230  1.0  0.1824
  C  C509  1  0.190200  0.667800  0.078720  1.0  -0.1049
  C  C510  1  0.042800  0.819500  0.320070  1.0  0.7272
  C  C511  1  0.884300  0.855900  0.320920  1.0  0.7054
  C  C512  1  0.999700  0.820100  0.304750  1.0  -0.1725
  C  C513  1  0.963900  0.839500  0.318370  1.0  0.009
  C  C514  1  0.922700  0.837700  0.303840  1.0  -0.1613
  C  C515  1  0.917800  0.820100  0.276990  1.0  -0.1534
  C  C516  1  0.953300  0.800800  0.262700  1.0  0.198
  C  C517  1  0.994800  0.800600  0.276800  1.0  -0.0697
  C  C518  1  0.745600  0.585100  0.121180  1.0  0.7084
  C  C519  1  0.808800  0.493800  0.040500  1.0  0.6967
  C  C520  1  0.783900  0.572900  0.102490  1.0  -0.0943
  C  C521  1  0.779100  0.542400  0.079200  1.0  -0.0072
  C  C522  1  0.814600  0.528900  0.063750  1.0  -0.0921
  C  C523  1  0.855300  0.545700  0.069800  1.0  -0.1103
  C  C524  1  0.859900  0.576700  0.092100  1.0  0.0833
  C  C525  1  0.822900  0.590800  0.108600  1.0  -0.091
  C  C526  1  0.115700  0.699200  0.114400  1.0  0.2452
  C  C527  1  0.976000  0.771000  0.212800  1.0  0.2032
  C  C528  1  0.912400  0.630400  0.113700  1.0  0.2661
  C  C529  1  0.042900  0.712900  0.137240  1.0  0.1446
  C  C530  1  0.024300  0.736100  0.161320  1.0  -0.1224
  C  C531  1  0.979700  0.727100  0.167720  1.0  0.1911
  C  C532  1  0.955000  0.697700  0.151850  1.0  -0.1192
  C  C533  1  0.975700  0.675500  0.128000  1.0  0.1321
  C  C534  1  0.020500  0.681900  0.119400  1.0  -0.0824
  C  C535  1  0.278810  0.883300  0.541580  1.0  0.7193
  C  C536  1  0.187500  0.820300  0.623670  1.0  0.6941
  C  C537  1  0.273600  0.853500  0.568220  1.0  -0.1204
  C  C538  1  0.233200  0.848600  0.581610  1.0  0.017
  C  C539  1  0.229200  0.822700  0.607550  1.0  -0.1041
  C  C540  1  0.264800  0.803700  0.619480  1.0  -0.0982
  C  C541  1  0.307200  0.806900  0.604230  1.0  0.1818
  C  C542  1  0.309800  0.832200  0.578720  1.0  -0.1046
  C  C543  1  0.457200  0.680500  0.820070  1.0  0.7287
  C  C544  1  0.615700  0.644100  0.820920  1.0  0.705
  C  C545  1  0.500300  0.679900  0.804750  1.0  -0.1733
  C  C546  1  0.536100  0.660500  0.818370  1.0  0.0092
  C  C547  1  0.577300  0.662300  0.803840  1.0  -0.1614
  C  C548  1  0.582200  0.679900  0.776990  1.0  -0.1532
  C  C549  1  0.546700  0.699200  0.762700  1.0  0.1971
  C  C550  1  0.505200  0.699400  0.776800  1.0  -0.069
  C  C551  1  0.754400  0.914900  0.621180  1.0  0.7077
  C  C552  1  0.691200  0.006200  0.540500  1.0  0.6964
  C  C553  1  0.716100  0.927100  0.602490  1.0  -0.0945
  C  C554  1  0.720900  0.957600  0.579200  1.0  -0.0074
  C  C555  1  0.685400  0.971100  0.563750  1.0  -0.092
  C  C556  1  0.644700  0.954300  0.569800  1.0  -0.1108
  C  C557  1  0.640100  0.923300  0.592100  1.0  0.0845
  C  C558  1  0.677100  0.909200  0.608600  1.0  -0.0908
  C  C559  1  0.384300  0.800800  0.614400  1.0  0.2455
  C  C560  1  0.524000  0.729000  0.712800  1.0  0.2007
  C  C561  1  0.587600  0.869600  0.613700  1.0  0.266
  C  C562  1  0.457100  0.787100  0.637240  1.0  0.1456
  C  C563  1  0.475700  0.763900  0.661320  1.0  -0.1211
  C  C564  1  0.520300  0.772900  0.667720  1.0  0.1931
  C  C565  1  0.545000  0.802300  0.651850  1.0  -0.1148
  C  C566  1  0.524300  0.824500  0.628000  1.0  0.1301
  C  C567  1  0.479500  0.818100  0.619400  1.0  -0.0909
  C  C568  1  0.778810  0.383300  0.041580  1.0  0.7193
  C  C569  1  0.687500  0.320300  0.123670  1.0  0.6941
  C  C570  1  0.773600  0.353500  0.068220  1.0  -0.1204
  C  C571  1  0.733200  0.348600  0.081610  1.0  0.017
  C  C572  1  0.729200  0.322700  0.107550  1.0  -0.1041
  C  C573  1  0.764800  0.303700  0.119480  1.0  -0.0982
  C  C574  1  0.807200  0.306900  0.104230  1.0  0.1818
  C  C575  1  0.809800  0.332200  0.078720  1.0  -0.1046
  C  C576  1  0.957200  0.180500  0.320070  1.0  0.7287
  C  C577  1  0.115700  0.144100  0.320920  1.0  0.705
  C  C578  1  0.000300  0.179900  0.304750  1.0  -0.1733
  C  C579  1  0.036100  0.160500  0.318370  1.0  0.0092
  C  C580  1  0.077300  0.162300  0.303840  1.0  -0.1614
  C  C581  1  0.082200  0.179900  0.276990  1.0  -0.1532
  C  C582  1  0.046700  0.199200  0.262700  1.0  0.1971
  C  C583  1  0.005200  0.199400  0.276800  1.0  -0.069
  C  C584  1  0.254400  0.414900  0.121180  1.0  0.7077
  C  C585  1  0.191200  0.506200  0.040500  1.0  0.6964
  C  C586  1  0.216100  0.427100  0.102490  1.0  -0.0945
  C  C587  1  0.220900  0.457600  0.079200  1.0  -0.0074
  C  C588  1  0.185400  0.471100  0.063750  1.0  -0.092
  C  C589  1  0.144700  0.454300  0.069800  1.0  -0.1108
  C  C590  1  0.140100  0.423300  0.092100  1.0  0.0845
  C  C591  1  0.177100  0.409200  0.108600  1.0  -0.0908
  C  C592  1  0.884300  0.300800  0.114400  1.0  0.2455
  C  C593  1  0.024000  0.229000  0.212800  1.0  0.2007
  C  C594  1  0.087600  0.369600  0.113700  1.0  0.266
  C  C595  1  0.957100  0.287100  0.137240  1.0  0.1456
  C  C596  1  0.975700  0.263900  0.161320  1.0  -0.1211
  C  C597  1  0.020300  0.272900  0.167720  1.0  0.1931
  C  C598  1  0.045000  0.302300  0.151850  1.0  -0.1149
  C  C599  1  0.024300  0.324500  0.128000  1.0  0.1325
  C  C600  1  0.979500  0.318100  0.119400  1.0  -0.0825
  C  C601  1  0.883300  0.721190  0.458420  1.0  0.7168
  C  C602  1  0.820300  0.812500  0.376330  1.0  0.694
  C  C603  1  0.853500  0.726400  0.431780  1.0  -0.1224
  C  C604  1  0.848600  0.766800  0.418390  1.0  0.0179
  C  C605  1  0.822700  0.770800  0.392450  1.0  -0.1031
  C  C606  1  0.803700  0.735200  0.380520  1.0  -0.0996
  C  C607  1  0.806900  0.692800  0.395770  1.0  0.1806
  C  C608  1  0.832200  0.690200  0.421280  1.0  -0.1036
  C  C609  1  0.680500  0.542800  0.179930  1.0  0.7269
  C  C610  1  0.644100  0.384300  0.179080  1.0  0.7044
  C  C611  1  0.679900  0.499700  0.195250  1.0  -0.1732
  C  C612  1  0.660500  0.463900  0.181630  1.0  0.0089
  C  C613  1  0.662300  0.422700  0.196160  1.0  -0.1615
  C  C614  1  0.679900  0.417800  0.223010  1.0  -0.152
  C  C615  1  0.699200  0.453300  0.237300  1.0  0.1973
  C  C616  1  0.699400  0.494800  0.223200  1.0  -0.0705
  C  C617  1  0.914900  0.245600  0.378820  1.0  0.7088
  C  C618  1  0.006200  0.308800  0.459500  1.0  0.6959
  C  C619  1  0.927100  0.283900  0.397510  1.0  -0.0942
  C  C620  1  0.957600  0.279100  0.420800  1.0  -0.0061
  C  C621  1  0.971100  0.314600  0.436250  1.0  -0.092
  C  C622  1  0.954300  0.355300  0.430200  1.0  -0.1126
  C  C623  1  0.923300  0.359900  0.407900  1.0  0.085
  C  C624  1  0.909200  0.322900  0.391400  1.0  -0.091
  C  C625  1  0.800800  0.615700  0.385600  1.0  0.2468
  C  C626  1  0.729000  0.476000  0.287200  1.0  0.2
  C  C627  1  0.869600  0.412400  0.386300  1.0  0.2663
  C  C628  1  0.787100  0.542900  0.362760  1.0  0.1455
  C  C629  1  0.763900  0.524300  0.338680  1.0  -0.1214
  C  C630  1  0.772900  0.479700  0.332280  1.0  0.193
  C  C631  1  0.802300  0.455000  0.348150  1.0  -0.1167
  C  C632  1  0.824500  0.475700  0.372000  1.0  0.1285
  C  C633  1  0.818100  0.520500  0.380600  1.0  -0.0923
  C  C634  1  0.383300  0.221190  0.958420  1.0  0.7168
  C  C635  1  0.320300  0.312500  0.876330  1.0  0.694
  C  C636  1  0.353500  0.226400  0.931780  1.0  -0.1224
  C  C637  1  0.348600  0.266800  0.918390  1.0  0.0179
  C  C638  1  0.322700  0.270800  0.892450  1.0  -0.1031
  C  C639  1  0.303700  0.235200  0.880520  1.0  -0.0996
  C  C640  1  0.306900  0.192800  0.895770  1.0  0.1806
  C  C641  1  0.332200  0.190200  0.921280  1.0  -0.1036
  C  C642  1  0.180500  0.042800  0.679930  1.0  0.7269
  C  C643  1  0.144100  0.884300  0.679080  1.0  0.7044
  C  C644  1  0.179900  0.999700  0.695250  1.0  -0.1732
  C  C645  1  0.160500  0.963900  0.681630  1.0  0.0089
  C  C646  1  0.162300  0.922700  0.696160  1.0  -0.1615
  C  C647  1  0.179900  0.917800  0.723010  1.0  -0.152
  C  C648  1  0.199200  0.953300  0.737300  1.0  0.1973
  C  C649  1  0.199400  0.994800  0.723200  1.0  -0.0705
  C  C650  1  0.414900  0.745600  0.878820  1.0  0.7088
  C  C651  1  0.506200  0.808800  0.959500  1.0  0.6959
  C  C652  1  0.427100  0.783900  0.897510  1.0  -0.0942
  C  C653  1  0.457600  0.779100  0.920800  1.0  -0.0061
  C  C654  1  0.471100  0.814600  0.936250  1.0  -0.092
  C  C655  1  0.454300  0.855300  0.930200  1.0  -0.1126
  C  C656  1  0.423300  0.859900  0.907900  1.0  0.085
  C  C657  1  0.409200  0.822900  0.891400  1.0  -0.091
  C  C658  1  0.300800  0.115700  0.885600  1.0  0.2468
  C  C659  1  0.229000  0.976000  0.787200  1.0  0.2
  C  C660  1  0.369600  0.912400  0.886300  1.0  0.2663
  C  C661  1  0.287100  0.042900  0.862760  1.0  0.1455
  C  C662  1  0.263900  0.024300  0.838680  1.0  -0.1214
  C  C663  1  0.272900  0.979700  0.832280  1.0  0.193
  C  C664  1  0.302300  0.955000  0.848150  1.0  -0.1167
  C  C665  1  0.324500  0.975700  0.872000  1.0  0.1309
  C  C666  1  0.318100  0.020500  0.880600  1.0  -0.0845
  C  C667  1  0.116700  0.278810  0.458420  1.0  0.7182
  C  C668  1  0.179700  0.187500  0.376330  1.0  0.6944
  C  C669  1  0.146500  0.273600  0.431780  1.0  -0.1233
  C  C670  1  0.151400  0.233200  0.418390  1.0  0.0191
  C  C671  1  0.177300  0.229200  0.392450  1.0  -0.103
  C  C672  1  0.196300  0.264800  0.380520  1.0  -0.1
  C  C673  1  0.193100  0.307200  0.395770  1.0  0.1816
  C  C674  1  0.167800  0.309800  0.421280  1.0  -0.1026
  C  C675  1  0.319500  0.457200  0.179930  1.0  0.7268
  C  C676  1  0.355900  0.615700  0.179080  1.0  0.7048
  C  C677  1  0.320100  0.500300  0.195250  1.0  -0.1737
  C  C678  1  0.339500  0.536100  0.181630  1.0  0.0094
  C  C679  1  0.337700  0.577300  0.196160  1.0  -0.1616
  C  C680  1  0.320100  0.582200  0.223010  1.0  -0.1526
  C  C681  1  0.300800  0.546700  0.237300  1.0  0.1975
  C  C682  1  0.300600  0.505200  0.223200  1.0  -0.0696
  C  C683  1  0.085100  0.754400  0.378820  1.0  0.7086
  C  C684  1  0.993800  0.691200  0.459500  1.0  0.697
  C  C685  1  0.072900  0.716100  0.397510  1.0  -0.0935
  C  C686  1  0.042400  0.720900  0.420800  1.0  -0.0066
  C  C687  1  0.028900  0.685400  0.436250  1.0  -0.0914
  C  C688  1  0.045700  0.644700  0.430200  1.0  -0.1108
  C  C689  1  0.076700  0.640100  0.407900  1.0  0.085
  C  C690  1  0.090800  0.677100  0.391400  1.0  -0.0919
  C  C691  1  0.199200  0.384300  0.385600  1.0  0.2438
  C  C692  1  0.271000  0.524000  0.287200  1.0  0.2016
  C  C693  1  0.130400  0.587600  0.386300  1.0  0.2667
  C  C694  1  0.212900  0.457100  0.362760  1.0  0.1452
  C  C695  1  0.236100  0.475700  0.338680  1.0  -0.1214
  C  C696  1  0.227100  0.520300  0.332280  1.0  0.1933
  C  C697  1  0.197700  0.545000  0.348150  1.0  -0.1161
  C  C698  1  0.175500  0.524300  0.372000  1.0  0.1282
  C  C699  1  0.181900  0.479500  0.380600  1.0  -0.0929
  C  C700  1  0.616700  0.778810  0.958420  1.0  0.7182
  C  C701  1  0.679700  0.687500  0.876330  1.0  0.6944
  C  C702  1  0.646500  0.773600  0.931780  1.0  -0.1233
  C  C703  1  0.651400  0.733200  0.918390  1.0  0.0191
  C  C704  1  0.677300  0.729200  0.892450  1.0  -0.103
  C  C705  1  0.696300  0.764800  0.880520  1.0  -0.1
  C  C706  1  0.693100  0.807200  0.895770  1.0  0.1816
  C  C707  1  0.667800  0.809800  0.921280  1.0  -0.1026
  C  C708  1  0.819500  0.957200  0.679930  1.0  0.7268
  C  C709  1  0.855900  0.115700  0.679080  1.0  0.7048
  C  C710  1  0.820100  0.000300  0.695250  1.0  -0.1737
  C  C711  1  0.839500  0.036100  0.681630  1.0  0.0094
  C  C712  1  0.837700  0.077300  0.696160  1.0  -0.1616
  C  C713  1  0.820100  0.082200  0.723010  1.0  -0.1526
  C  C714  1  0.800800  0.046700  0.737300  1.0  0.1975
  C  C715  1  0.800600  0.005200  0.723200  1.0  -0.0696
  C  C716  1  0.585100  0.254400  0.878820  1.0  0.7086
  C  C717  1  0.493800  0.191200  0.959500  1.0  0.697
  C  C718  1  0.572900  0.216100  0.897510  1.0  -0.0935
  C  C719  1  0.542400  0.220900  0.920800  1.0  -0.0066
  C  C720  1  0.528900  0.185400  0.936250  1.0  -0.0914
  C  C721  1  0.545700  0.144700  0.930200  1.0  -0.1108
  C  C722  1  0.576700  0.140100  0.907900  1.0  0.085
  C  C723  1  0.590800  0.177100  0.891400  1.0  -0.0919
  C  C724  1  0.699200  0.884300  0.885600  1.0  0.2438
  C  C725  1  0.771000  0.024000  0.787200  1.0  0.2016
  C  C726  1  0.630400  0.087600  0.886300  1.0  0.2667
  C  C727  1  0.712900  0.957100  0.862760  1.0  0.1453
  C  C728  1  0.736100  0.975700  0.838680  1.0  -0.1214
  C  C729  1  0.727100  0.020300  0.832280  1.0  0.1933
  C  C730  1  0.697700  0.045000  0.848150  1.0  -0.1161
  C  C731  1  0.675500  0.024300  0.872000  1.0  0.1307
  C  C732  1  0.681900  0.979500  0.880600  1.0  -0.0854
  C  C733  1  0.278810  0.883300  0.458420  1.0  0.7193
  C  C734  1  0.187500  0.820300  0.376330  1.0  0.6939
  C  C735  1  0.273600  0.853500  0.431780  1.0  -0.1221
  C  C736  1  0.233200  0.848600  0.418390  1.0  0.0172
  C  C737  1  0.229200  0.822700  0.392450  1.0  -0.1042
  C  C738  1  0.264800  0.803700  0.380520  1.0  -0.0986
  C  C739  1  0.307200  0.806900  0.395770  1.0  0.182
  C  C740  1  0.309800  0.832200  0.421280  1.0  -0.1059
  C  C741  1  0.457200  0.680500  0.179930  1.0  0.7281
  C  C742  1  0.615700  0.644100  0.179080  1.0  0.7047
  C  C743  1  0.500300  0.679900  0.195250  1.0  -0.1731
  C  C744  1  0.536100  0.660500  0.181630  1.0  0.0097
  C  C745  1  0.577300  0.662300  0.196160  1.0  -0.1613
  C  C746  1  0.582200  0.679900  0.223010  1.0  -0.1534
  C  C747  1  0.546700  0.699200  0.237300  1.0  0.1969
  C  C748  1  0.505200  0.699400  0.223200  1.0  -0.0691
  C  C749  1  0.754400  0.914900  0.378820  1.0  0.7075
  C  C750  1  0.691200  0.006200  0.459500  1.0  0.6969
  C  C751  1  0.716100  0.927100  0.397510  1.0  -0.0943
  C  C752  1  0.720900  0.957600  0.420800  1.0  -0.0075
  C  C753  1  0.685400  0.971100  0.436250  1.0  -0.0915
  C  C754  1  0.644700  0.954300  0.430200  1.0  -0.1115
  C  C755  1  0.640100  0.923300  0.407900  1.0  0.0843
  C  C756  1  0.677100  0.909200  0.391400  1.0  -0.0906
  C  C757  1  0.384300  0.800800  0.385600  1.0  0.2444
  C  C758  1  0.524000  0.729000  0.287200  1.0  0.2001
  C  C759  1  0.587600  0.869600  0.386300  1.0  0.266
  C  C760  1  0.457100  0.787100  0.362760  1.0  0.1454
  C  C761  1  0.475700  0.763900  0.338680  1.0  -0.1206
  C  C762  1  0.520300  0.772900  0.332280  1.0  0.1934
  C  C763  1  0.545000  0.802300  0.348150  1.0  -0.1143
  C  C764  1  0.524300  0.824500  0.372000  1.0  0.1294
  C  C765  1  0.479500  0.818100  0.380600  1.0  -0.0917
  C  C766  1  0.778810  0.383300  0.958420  1.0  0.7193
  C  C767  1  0.687500  0.320300  0.876330  1.0  0.6939
  C  C768  1  0.773600  0.353500  0.931780  1.0  -0.1221
  C  C769  1  0.733200  0.348600  0.918390  1.0  0.0172
  C  C770  1  0.729200  0.322700  0.892450  1.0  -0.1042
  C  C771  1  0.764800  0.303700  0.880520  1.0  -0.0986
  C  C772  1  0.807200  0.306900  0.895770  1.0  0.182
  C  C773  1  0.809800  0.332200  0.921280  1.0  -0.1059
  C  C774  1  0.957200  0.180500  0.679930  1.0  0.7281
  C  C775  1  0.115700  0.144100  0.679080  1.0  0.7047
  C  C776  1  0.000300  0.179900  0.695250  1.0  -0.1731
  C  C777  1  0.036100  0.160500  0.681630  1.0  0.0097
  C  C778  1  0.077300  0.162300  0.696160  1.0  -0.1613
  C  C779  1  0.082200  0.179900  0.723010  1.0  -0.1534
  C  C780  1  0.046700  0.199200  0.737300  1.0  0.1969
  C  C781  1  0.005200  0.199400  0.723200  1.0  -0.0691
  C  C782  1  0.254400  0.414900  0.878820  1.0  0.7075
  C  C783  1  0.191200  0.506200  0.959500  1.0  0.6969
  C  C784  1  0.216100  0.427100  0.897510  1.0  -0.0943
  C  C785  1  0.220900  0.457600  0.920800  1.0  -0.0075
  C  C786  1  0.185400  0.471100  0.936250  1.0  -0.0915
  C  C787  1  0.144700  0.454300  0.930200  1.0  -0.1115
  C  C788  1  0.140100  0.423300  0.907900  1.0  0.0843
  C  C789  1  0.177100  0.409200  0.891400  1.0  -0.0906
  C  C790  1  0.884300  0.300800  0.885600  1.0  0.2444
  C  C791  1  0.024000  0.229000  0.787200  1.0  0.2001
  C  C792  1  0.087600  0.369600  0.886300  1.0  0.266
  C  C793  1  0.957100  0.287100  0.862760  1.0  0.1454
  C  C794  1  0.975700  0.263900  0.838680  1.0  -0.1206
  C  C795  1  0.020300  0.272900  0.832280  1.0  0.1934
  C  C796  1  0.045000  0.302300  0.848150  1.0  -0.1144
  C  C797  1  0.024300  0.324500  0.872000  1.0  0.1318
  C  C798  1  0.979500  0.318100  0.880600  1.0  -0.0839
  C  C799  1  0.721190  0.116700  0.458420  1.0  0.7185
  C  C800  1  0.812500  0.179700  0.376330  1.0  0.6937
  C  C801  1  0.726400  0.146500  0.431780  1.0  -0.1225
  C  C802  1  0.766800  0.151400  0.418390  1.0  0.018
  C  C803  1  0.770800  0.177300  0.392450  1.0  -0.1043
  C  C804  1  0.735200  0.196300  0.380520  1.0  -0.0991
  C  C805  1  0.692800  0.193100  0.395770  1.0  0.1826
  C  C806  1  0.690200  0.167800  0.421280  1.0  -0.1058
  C  C807  1  0.542800  0.319500  0.179930  1.0  0.7267
  C  C808  1  0.384300  0.355900  0.179080  1.0  0.7051
  C  C809  1  0.499700  0.320100  0.195250  1.0  -0.1725
  C  C810  1  0.463900  0.339500  0.181630  1.0  0.0092
  C  C811  1  0.422700  0.337700  0.196160  1.0  -0.1613
  C  C812  1  0.417800  0.320100  0.223010  1.0  -0.1539
  C  C813  1  0.453300  0.300800  0.237300  1.0  0.1979
  C  C814  1  0.494800  0.300600  0.223200  1.0  -0.0698
  C  C815  1  0.245600  0.085100  0.378820  1.0  0.7082
  C  C816  1  0.308800  0.993800  0.459500  1.0  0.6973
  C  C817  1  0.283900  0.072900  0.397510  1.0  -0.0943
  C  C818  1  0.279100  0.042400  0.420800  1.0  -0.0072
  C  C819  1  0.314600  0.028900  0.436250  1.0  -0.0914
  C  C820  1  0.355300  0.045700  0.430200  1.0  -0.1102
  C  C821  1  0.359900  0.076700  0.407900  1.0  0.0834
  C  C822  1  0.322900  0.090800  0.391400  1.0  -0.0905
  C  C823  1  0.615700  0.199200  0.385600  1.0  0.2445
  C  C824  1  0.476000  0.271000  0.287200  1.0  0.2027
  C  C825  1  0.412400  0.130400  0.386300  1.0  0.2662
  C  C826  1  0.542900  0.212900  0.362760  1.0  0.1444
  C  C827  1  0.524300  0.236100  0.338680  1.0  -0.122
  C  C828  1  0.479700  0.227100  0.332280  1.0  0.1912
  C  C829  1  0.455000  0.197700  0.348150  1.0  -0.1186
  C  C830  1  0.475700  0.175500  0.372000  1.0  0.1291
  C  C831  1  0.520500  0.181900  0.380600  1.0  -0.0912
  C  C832  1  0.221190  0.616700  0.958420  1.0  0.7185
  C  C833  1  0.312500  0.679700  0.876330  1.0  0.6937
  C  C834  1  0.226400  0.646500  0.931780  1.0  -0.1225
  C  C835  1  0.266800  0.651400  0.918390  1.0  0.018
  C  C836  1  0.270800  0.677300  0.892450  1.0  -0.1043
  C  C837  1  0.235200  0.696300  0.880520  1.0  -0.0991
  C  C838  1  0.192800  0.693100  0.895770  1.0  0.1826
  C  C839  1  0.190200  0.667800  0.921280  1.0  -0.1058
  C  C840  1  0.042800  0.819500  0.679930  1.0  0.7267
  C  C841  1  0.884300  0.855900  0.679080  1.0  0.7051
  C  C842  1  0.999700  0.820100  0.695250  1.0  -0.1725
  C  C843  1  0.963900  0.839500  0.681630  1.0  0.0092
  C  C844  1  0.922700  0.837700  0.696160  1.0  -0.1613
  C  C845  1  0.917800  0.820100  0.723010  1.0  -0.1539
  C  C846  1  0.953300  0.800800  0.737300  1.0  0.1979
  C  C847  1  0.994800  0.800600  0.723200  1.0  -0.0698
  C  C848  1  0.745600  0.585100  0.878820  1.0  0.7082
  C  C849  1  0.808800  0.493800  0.959500  1.0  0.6973
  C  C850  1  0.783900  0.572900  0.897510  1.0  -0.0943
  C  C851  1  0.779100  0.542400  0.920800  1.0  -0.0072
  C  C852  1  0.814600  0.528900  0.936250  1.0  -0.0914
  C  C853  1  0.855300  0.545700  0.930200  1.0  -0.1102
  C  C854  1  0.859900  0.576700  0.907900  1.0  0.0834
  C  C855  1  0.822900  0.590800  0.891400  1.0  -0.0905
  C  C856  1  0.115700  0.699200  0.885600  1.0  0.2445
  C  C857  1  0.976000  0.771000  0.787200  1.0  0.2027
  C  C858  1  0.912400  0.630400  0.886300  1.0  0.2662
  C  C859  1  0.042900  0.712900  0.862760  1.0  0.1445
  C  C860  1  0.024300  0.736100  0.838680  1.0  -0.122
  C  C861  1  0.979700  0.727100  0.832280  1.0  0.1912
  C  C862  1  0.955000  0.697700  0.848150  1.0  -0.1186
  C  C863  1  0.975700  0.675500  0.872000  1.0  0.1315
  C  C864  1  0.020500  0.681900  0.880600  1.0  -0.0833
  N  N865  1  0.213900  0.343000  0.617930  1.0  -0.4117
  N  N866  1  0.223900  0.412000  0.632300  1.0  -0.3469
  N  N867  1  0.281700  0.553700  0.734090  1.0  -0.3982
  N  N868  1  0.248100  0.542100  0.690970  1.0  -0.2942
  N  N869  1  0.144300  0.544100  0.609100  1.0  -0.2439
  N  N870  1  0.099900  0.598700  0.592300  1.0  -0.3835
  N  N871  1  0.713900  0.843000  0.117930  1.0  -0.4117
  N  N872  1  0.723900  0.912000  0.132300  1.0  -0.3468
  N  N873  1  0.781700  0.053700  0.234090  1.0  -0.3982
  N  N874  1  0.748100  0.042100  0.190970  1.0  -0.2942
  N  N875  1  0.644300  0.044100  0.109100  1.0  -0.2442
  N  N876  1  0.599900  0.098700  0.092300  1.0  -0.3834
  N  N877  1  0.786100  0.657000  0.617930  1.0  -0.4136
  N  N878  1  0.776100  0.588000  0.632300  1.0  -0.3471
  N  N879  1  0.718300  0.446300  0.734090  1.0  -0.398
  N  N880  1  0.751900  0.457900  0.690970  1.0  -0.2962
  N  N881  1  0.855700  0.455900  0.609100  1.0  -0.2445
  N  N882  1  0.900100  0.401300  0.592300  1.0  -0.3826
  N  N883  1  0.286100  0.157000  0.117930  1.0  -0.4136
  N  N884  1  0.276100  0.088000  0.132300  1.0  -0.3471
  N  N885  1  0.218300  0.946300  0.234090  1.0  -0.398
  N  N886  1  0.251900  0.957900  0.190970  1.0  -0.2962
  N  N887  1  0.355700  0.955900  0.109100  1.0  -0.2448
  N  N888  1  0.400100  0.901300  0.092300  1.0  -0.3824
  N  N889  1  0.657000  0.213900  0.617930  1.0  -0.4111
  N  N890  1  0.588000  0.223900  0.632300  1.0  -0.3465
  N  N891  1  0.446300  0.281700  0.734090  1.0  -0.4036
  N  N892  1  0.457900  0.248100  0.690970  1.0  -0.2985
  N  N893  1  0.455900  0.144300  0.609100  1.0  -0.2438
  N  N894  1  0.401300  0.099900  0.592300  1.0  -0.3831
  N  N895  1  0.157000  0.713900  0.117930  1.0  -0.4111
  N  N896  1  0.088000  0.723900  0.132300  1.0  -0.3465
  N  N897  1  0.946300  0.781700  0.234090  1.0  -0.4036
  N  N898  1  0.957900  0.748100  0.190970  1.0  -0.2985
  N  N899  1  0.955900  0.644300  0.109100  1.0  -0.2441
  N  N900  1  0.901300  0.599900  0.092300  1.0  -0.3829
  N  N901  1  0.343000  0.786100  0.617930  1.0  -0.41
  N  N902  1  0.412000  0.776100  0.632300  1.0  -0.3463
  N  N903  1  0.553700  0.718300  0.734090  1.0  -0.4013
  N  N904  1  0.542100  0.751900  0.690970  1.0  -0.2958
  N  N905  1  0.544100  0.855700  0.609100  1.0  -0.2443
  N  N906  1  0.598700  0.900100  0.592300  1.0  -0.3856
  N  N907  1  0.843000  0.286100  0.117930  1.0  -0.41
  N  N908  1  0.912000  0.276100  0.132300  1.0  -0.3463
  N  N909  1  0.053700  0.218300  0.234090  1.0  -0.4013
  N  N910  1  0.042100  0.251900  0.190970  1.0  -0.2958
  N  N911  1  0.044100  0.355700  0.109100  1.0  -0.2447
  N  N912  1  0.098700  0.400100  0.092300  1.0  -0.3855
  N  N913  1  0.786100  0.657000  0.382070  1.0  -0.4125
  N  N914  1  0.776100  0.588000  0.367700  1.0  -0.346
  N  N915  1  0.718300  0.446300  0.265910  1.0  -0.3986
  N  N916  1  0.751900  0.457900  0.309030  1.0  -0.2963
  N  N917  1  0.855700  0.455900  0.390900  1.0  -0.242
  N  N918  1  0.900100  0.401300  0.407700  1.0  -0.3825
  N  N919  1  0.286100  0.157000  0.882070  1.0  -0.4125
  N  N920  1  0.276100  0.088000  0.867700  1.0  -0.346
  N  N921  1  0.218300  0.946300  0.765910  1.0  -0.3986
  N  N922  1  0.251900  0.957900  0.809030  1.0  -0.2963
  N  N923  1  0.355700  0.955900  0.890900  1.0  -0.2423
  N  N924  1  0.400100  0.901300  0.907700  1.0  -0.3824
  N  N925  1  0.213900  0.343000  0.382070  1.0  -0.411
  N  N926  1  0.223900  0.412000  0.367700  1.0  -0.3456
  N  N927  1  0.281700  0.553700  0.265910  1.0  -0.3987
  N  N928  1  0.248100  0.542100  0.309030  1.0  -0.2945
  N  N929  1  0.144300  0.544100  0.390900  1.0  -0.2431
  N  N930  1  0.099900  0.598700  0.407700  1.0  -0.3835
  N  N931  1  0.713900  0.843000  0.882070  1.0  -0.411
  N  N932  1  0.723900  0.912000  0.867700  1.0  -0.3455
  N  N933  1  0.781700  0.053700  0.765910  1.0  -0.3987
  N  N934  1  0.748100  0.042100  0.809030  1.0  -0.2945
  N  N935  1  0.644300  0.044100  0.890900  1.0  -0.2434
  N  N936  1  0.599900  0.098700  0.907700  1.0  -0.3834
  N  N937  1  0.343000  0.786100  0.382070  1.0  -0.4102
  N  N938  1  0.412000  0.776100  0.367700  1.0  -0.3451
  N  N939  1  0.553700  0.718300  0.265910  1.0  -0.4019
  N  N940  1  0.542100  0.751900  0.309030  1.0  -0.2961
  N  N941  1  0.544100  0.855700  0.390900  1.0  -0.2421
  N  N942  1  0.598700  0.900100  0.407700  1.0  -0.3858
  N  N943  1  0.843000  0.286100  0.882070  1.0  -0.4102
  N  N944  1  0.912000  0.276100  0.867700  1.0  -0.3451
  N  N945  1  0.053700  0.218300  0.765910  1.0  -0.4019
  N  N946  1  0.042100  0.251900  0.809030  1.0  -0.2961
  N  N947  1  0.044100  0.355700  0.890900  1.0  -0.2424
  N  N948  1  0.098700  0.400100  0.907700  1.0  -0.3857
  N  N949  1  0.657000  0.213900  0.382070  1.0  -0.4108
  N  N950  1  0.588000  0.223900  0.367700  1.0  -0.3449
  N  N951  1  0.446300  0.281700  0.265910  1.0  -0.4039
  N  N952  1  0.457900  0.248100  0.309030  1.0  -0.2986
  N  N953  1  0.455900  0.144300  0.390900  1.0  -0.2422
  N  N954  1  0.401300  0.099900  0.407700  1.0  -0.3833
  N  N955  1  0.157000  0.713900  0.882070  1.0  -0.4108
  N  N956  1  0.088000  0.723900  0.867700  1.0  -0.3449
  N  N957  1  0.946300  0.781700  0.765910  1.0  -0.4039
  N  N958  1  0.957900  0.748100  0.809030  1.0  -0.2986
  N  N959  1  0.955900  0.644300  0.890900  1.0  -0.2425
  N  N960  1  0.901300  0.599900  0.907700  1.0  -0.3831
  O  O961  1  0.111160  0.315930  0.531740  1.0  -0.6208
  O  O962  1  0.100380  0.245310  0.531620  1.0  -0.5861
  O  O963  1  0.163650  0.154850  0.610410  1.0  -0.6057
  O  O964  1  0.201370  0.186440  0.647310  1.0  -0.6134
  O  O965  1  0.295430  0.427840  0.809850  1.0  -0.5991
  O  O966  1  0.344490  0.453760  0.841580  1.0  -0.6079
  O  O967  1  0.374380  0.608990  0.844620  1.0  -0.5926
  O  O968  1  0.352510  0.651850  0.807310  1.0  -0.5972
  O  O969  1  0.109710  0.746750  0.643050  1.0  -0.6259
  O  O970  1  0.074300  0.791510  0.611960  1.0  -0.5922
  O  O971  1  0.987490  0.728490  0.531030  1.0  -0.6196
  O  O972  1  0.976210  0.657250  0.530720  1.0  -0.5945
  O  O973  1  0.168000  0.395900  0.599800  1.0  -0.4566
  O  O974  1  0.274400  0.485100  0.717510  1.0  -0.4473
  O  O975  1  0.150400  0.612400  0.629400  1.0  -0.43
  O  O976  1  0.611160  0.815930  0.031740  1.0  -0.6208
  O  O977  1  0.600380  0.745310  0.031620  1.0  -0.5861
  O  O978  1  0.663650  0.654850  0.110410  1.0  -0.6057
  O  O979  1  0.701370  0.686440  0.147310  1.0  -0.6134
  O  O980  1  0.795430  0.927840  0.309850  1.0  -0.5991
  O  O981  1  0.844490  0.953760  0.341580  1.0  -0.6079
  O  O982  1  0.874380  0.108990  0.344620  1.0  -0.5926
  O  O983  1  0.852510  0.151850  0.307310  1.0  -0.5972
  O  O984  1  0.609710  0.246750  0.143050  1.0  -0.6259
  O  O985  1  0.574300  0.291510  0.111960  1.0  -0.5922
  O  O986  1  0.487490  0.228490  0.031030  1.0  -0.6196
  O  O987  1  0.476210  0.157250  0.030720  1.0  -0.5945
  O  O988  1  0.668000  0.895900  0.099800  1.0  -0.4566
  O  O989  1  0.774400  0.985100  0.217510  1.0  -0.4473
  O  O990  1  0.650400  0.112400  0.129400  1.0  -0.43
  O  O991  1  0.888840  0.684070  0.531740  1.0  -0.6238
  O  O992  1  0.899620  0.754690  0.531620  1.0  -0.5858
  O  O993  1  0.836350  0.845150  0.610410  1.0  -0.6062
  O  O994  1  0.798630  0.813560  0.647310  1.0  -0.6138
  O  O995  1  0.704570  0.572160  0.809850  1.0  -0.5993
  O  O996  1  0.655510  0.546240  0.841580  1.0  -0.6067
  O  O997  1  0.625620  0.391010  0.844620  1.0  -0.5929
  O  O998  1  0.647490  0.348150  0.807310  1.0  -0.5969
  O  O999  1  0.890290  0.253250  0.643050  1.0  -0.6259
  O  O1000  1  0.925700  0.208490  0.611960  1.0  -0.5927
  O  O1001  1  0.012510  0.271510  0.531030  1.0  -0.6215
  O  O1002  1  0.023790  0.342750  0.530720  1.0  -0.5931
  O  O1003  1  0.832000  0.604100  0.599800  1.0  -0.4592
  O  O1004  1  0.725600  0.514900  0.717510  1.0  -0.4469
  O  O1005  1  0.849600  0.387600  0.629400  1.0  -0.4305
  O  O1006  1  0.388840  0.184070  0.031740  1.0  -0.6238
  O  O1007  1  0.399620  0.254690  0.031620  1.0  -0.5858
  O  O1008  1  0.336350  0.345150  0.110410  1.0  -0.6062
  O  O1009  1  0.298630  0.313560  0.147310  1.0  -0.6138
  O  O1010  1  0.204570  0.072160  0.309850  1.0  -0.5993
  O  O1011  1  0.155510  0.046240  0.341580  1.0  -0.6067
  O  O1012  1  0.125620  0.891010  0.344620  1.0  -0.5929
  O  O1013  1  0.147490  0.848150  0.307310  1.0  -0.5969
  O  O1014  1  0.390290  0.753250  0.143050  1.0  -0.6259
  O  O1015  1  0.425700  0.708490  0.111960  1.0  -0.5927
  O  O1016  1  0.512510  0.771510  0.031030  1.0  -0.6215
  O  O1017  1  0.523790  0.842750  0.030720  1.0  -0.5931
  O  O1018  1  0.332000  0.104100  0.099800  1.0  -0.4592
  O  O1019  1  0.225600  0.014900  0.217510  1.0  -0.4469
  O  O1020  1  0.349600  0.887600  0.129400  1.0  -0.4305
  O  O1021  1  0.684070  0.111160  0.531740  1.0  -0.6221
  O  O1022  1  0.754690  0.100380  0.531620  1.0  -0.5847
  O  O1023  1  0.845150  0.163650  0.610410  1.0  -0.6057
  O  O1024  1  0.813560  0.201370  0.647310  1.0  -0.6153
  O  O1025  1  0.572160  0.295430  0.809850  1.0  -0.5989
  O  O1026  1  0.546240  0.344490  0.841580  1.0  -0.6081
  O  O1027  1  0.391010  0.374380  0.844620  1.0  -0.5927
  O  O1028  1  0.348150  0.352510  0.807310  1.0  -0.5954
  O  O1029  1  0.253250  0.109710  0.643050  1.0  -0.6261
  O  O1030  1  0.208490  0.074300  0.611960  1.0  -0.5916
  O  O1031  1  0.271510  0.987490  0.531030  1.0  -0.6206
  O  O1032  1  0.342750  0.976210  0.530720  1.0  -0.5944
  O  O1033  1  0.604100  0.168000  0.599800  1.0  -0.4566
  O  O1034  1  0.514900  0.274400  0.717510  1.0  -0.4475
  O  O1035  1  0.387600  0.150400  0.629400  1.0  -0.4303
  O  O1036  1  0.184070  0.611160  0.031740  1.0  -0.6221
  O  O1037  1  0.254690  0.600380  0.031620  1.0  -0.5847
  O  O1038  1  0.345150  0.663650  0.110410  1.0  -0.6057
  O  O1039  1  0.313560  0.701370  0.147310  1.0  -0.6153
  O  O1040  1  0.072160  0.795430  0.309850  1.0  -0.5989
  O  O1041  1  0.046240  0.844490  0.341580  1.0  -0.6081
  O  O1042  1  0.891010  0.874380  0.344620  1.0  -0.5927
  O  O1043  1  0.848150  0.852510  0.307310  1.0  -0.5954
  O  O1044  1  0.753250  0.609710  0.143050  1.0  -0.6261
  O  O1045  1  0.708490  0.574300  0.111960  1.0  -0.5916
  O  O1046  1  0.771510  0.487490  0.031030  1.0  -0.6206
  O  O1047  1  0.842750  0.476210  0.030720  1.0  -0.5944
  O  O1048  1  0.104100  0.668000  0.099800  1.0  -0.4566
  O  O1049  1  0.014900  0.774400  0.217510  1.0  -0.4475
  O  O1050  1  0.887600  0.650400  0.129400  1.0  -0.4303
  O  O1051  1  0.315930  0.888840  0.531740  1.0  -0.6232
  O  O1052  1  0.245310  0.899620  0.531620  1.0  -0.5847
  O  O1053  1  0.154850  0.836350  0.610410  1.0  -0.605
  O  O1054  1  0.186440  0.798630  0.647310  1.0  -0.6149
  O  O1055  1  0.427840  0.704570  0.809850  1.0  -0.6
  O  O1056  1  0.453760  0.655510  0.841580  1.0  -0.6074
  O  O1057  1  0.608990  0.625620  0.844620  1.0  -0.5909
  O  O1058  1  0.651850  0.647490  0.807310  1.0  -0.596
  O  O1059  1  0.746750  0.890290  0.643050  1.0  -0.6252
  O  O1060  1  0.791510  0.925700  0.611960  1.0  -0.5925
  O  O1061  1  0.728490  0.012510  0.531030  1.0  -0.6197
  O  O1062  1  0.657250  0.023790  0.530720  1.0  -0.5953
  O  O1063  1  0.395900  0.832000  0.599800  1.0  -0.4582
  O  O1064  1  0.485100  0.725600  0.717510  1.0  -0.4466
  O  O1065  1  0.612400  0.849600  0.629400  1.0  -0.4303
  O  O1066  1  0.815930  0.388840  0.031740  1.0  -0.6232
  O  O1067  1  0.745310  0.399620  0.031620  1.0  -0.5847
  O  O1068  1  0.654850  0.336350  0.110410  1.0  -0.605
  O  O1069  1  0.686440  0.298630  0.147310  1.0  -0.6149
  O  O1070  1  0.927840  0.204570  0.309850  1.0  -0.6
  O  O1071  1  0.953760  0.155510  0.341580  1.0  -0.6074
  O  O1072  1  0.108990  0.125620  0.344620  1.0  -0.5909
  O  O1073  1  0.151850  0.147490  0.307310  1.0  -0.596
  O  O1074  1  0.246750  0.390290  0.143050  1.0  -0.6252
  O  O1075  1  0.291510  0.425700  0.111960  1.0  -0.5925
  O  O1076  1  0.228490  0.512510  0.031030  1.0  -0.6197
  O  O1077  1  0.157250  0.523790  0.030720  1.0  -0.5953
  O  O1078  1  0.895900  0.332000  0.099800  1.0  -0.4582
  O  O1079  1  0.985100  0.225600  0.217510  1.0  -0.4466
  O  O1080  1  0.112400  0.349600  0.129400  1.0  -0.4303
  O  O1081  1  0.888840  0.684070  0.468260  1.0  -0.623
  O  O1082  1  0.899620  0.754690  0.468380  1.0  -0.5853
  O  O1083  1  0.836350  0.845150  0.389590  1.0  -0.6058
  O  O1084  1  0.798630  0.813560  0.352690  1.0  -0.614
  O  O1085  1  0.704570  0.572160  0.190150  1.0  -0.5996
  O  O1086  1  0.655510  0.546240  0.158420  1.0  -0.6072
  O  O1087  1  0.625620  0.391010  0.155380  1.0  -0.5917
  O  O1088  1  0.647490  0.348150  0.192690  1.0  -0.5969
  O  O1089  1  0.890290  0.253250  0.356950  1.0  -0.6254
  O  O1090  1  0.925700  0.208490  0.388040  1.0  -0.5938
  O  O1091  1  0.012510  0.271510  0.468970  1.0  -0.6217
  O  O1092  1  0.023790  0.342750  0.469280  1.0  -0.5927
  O  O1093  1  0.832000  0.604100  0.400200  1.0  -0.4583
  O  O1094  1  0.725600  0.514900  0.282490  1.0  -0.4469
  O  O1095  1  0.849600  0.387600  0.370600  1.0  -0.4318
  O  O1096  1  0.388840  0.184070  0.968260  1.0  -0.623
  O  O1097  1  0.399620  0.254690  0.968380  1.0  -0.5853
  O  O1098  1  0.336350  0.345150  0.889590  1.0  -0.6058
  O  O1099  1  0.298630  0.313560  0.852690  1.0  -0.614
  O  O1100  1  0.204570  0.072160  0.690150  1.0  -0.5996
  O  O1101  1  0.155510  0.046240  0.658420  1.0  -0.6072
  O  O1102  1  0.125620  0.891010  0.655380  1.0  -0.5917
  O  O1103  1  0.147490  0.848150  0.692690  1.0  -0.5969
  O  O1104  1  0.390290  0.753250  0.856950  1.0  -0.6254
  O  O1105  1  0.425700  0.708490  0.888040  1.0  -0.5938
  O  O1106  1  0.512510  0.771510  0.968970  1.0  -0.6217
  O  O1107  1  0.523790  0.842750  0.969280  1.0  -0.5927
  O  O1108  1  0.332000  0.104100  0.900200  1.0  -0.4583
  O  O1109  1  0.225600  0.014900  0.782490  1.0  -0.4469
  O  O1110  1  0.349600  0.887600  0.870600  1.0  -0.4318
  O  O1111  1  0.111160  0.315930  0.468260  1.0  -0.6209
  O  O1112  1  0.100380  0.245310  0.468380  1.0  -0.5861
  O  O1113  1  0.163650  0.154850  0.389590  1.0  -0.6065
  O  O1114  1  0.201370  0.186440  0.352690  1.0  -0.6134
  O  O1115  1  0.295430  0.427840  0.190150  1.0  -0.5992
  O  O1116  1  0.344490  0.453760  0.158420  1.0  -0.6077
  O  O1117  1  0.374380  0.608990  0.155380  1.0  -0.5922
  O  O1118  1  0.352510  0.651850  0.192690  1.0  -0.5974
  O  O1119  1  0.109710  0.746750  0.356950  1.0  -0.6253
  O  O1120  1  0.074300  0.791510  0.388040  1.0  -0.5931
  O  O1121  1  0.987490  0.728490  0.468970  1.0  -0.6196
  O  O1122  1  0.976210  0.657250  0.469280  1.0  -0.5944
  O  O1123  1  0.168000  0.395900  0.400200  1.0  -0.4567
  O  O1124  1  0.274400  0.485100  0.282490  1.0  -0.447
  O  O1125  1  0.150400  0.612400  0.370600  1.0  -0.4315
  O  O1126  1  0.611160  0.815930  0.968260  1.0  -0.6209
  O  O1127  1  0.600380  0.745310  0.968380  1.0  -0.5861
  O  O1128  1  0.663650  0.654850  0.889590  1.0  -0.6065
  O  O1129  1  0.701370  0.686440  0.852690  1.0  -0.6134
  O  O1130  1  0.795430  0.927840  0.690150  1.0  -0.5992
  O  O1131  1  0.844490  0.953760  0.658420  1.0  -0.6077
  O  O1132  1  0.874380  0.108990  0.655380  1.0  -0.5922
  O  O1133  1  0.852510  0.151850  0.692690  1.0  -0.5974
  O  O1134  1  0.609710  0.246750  0.856950  1.0  -0.6253
  O  O1135  1  0.574300  0.291510  0.888040  1.0  -0.5931
  O  O1136  1  0.487490  0.228490  0.968970  1.0  -0.6196
  O  O1137  1  0.476210  0.157250  0.969280  1.0  -0.5944
  O  O1138  1  0.668000  0.895900  0.900200  1.0  -0.4567
  O  O1139  1  0.774400  0.985100  0.782490  1.0  -0.447
  O  O1140  1  0.650400  0.112400  0.870600  1.0  -0.4315
  O  O1141  1  0.315930  0.888840  0.468260  1.0  -0.6226
  O  O1142  1  0.245310  0.899620  0.468380  1.0  -0.5847
  O  O1143  1  0.154850  0.836350  0.389590  1.0  -0.6058
  O  O1144  1  0.186440  0.798630  0.352690  1.0  -0.6151
  O  O1145  1  0.427840  0.704570  0.190150  1.0  -0.6004
  O  O1146  1  0.453760  0.655510  0.158420  1.0  -0.6073
  O  O1147  1  0.608990  0.625620  0.155380  1.0  -0.5911
  O  O1148  1  0.651850  0.647490  0.192690  1.0  -0.5955
  O  O1149  1  0.746750  0.890290  0.356950  1.0  -0.6239
  O  O1150  1  0.791510  0.925700  0.388040  1.0  -0.593
  O  O1151  1  0.728490  0.012510  0.468970  1.0  -0.6204
  O  O1152  1  0.657250  0.023790  0.469280  1.0  -0.5948
  O  O1153  1  0.395900  0.832000  0.400200  1.0  -0.4577
  O  O1154  1  0.485100  0.725600  0.282490  1.0  -0.4462
  O  O1155  1  0.612400  0.849600  0.370600  1.0  -0.4323
  O  O1156  1  0.815930  0.388840  0.968260  1.0  -0.6226
  O  O1157  1  0.745310  0.399620  0.968380  1.0  -0.5847
  O  O1158  1  0.654850  0.336350  0.889590  1.0  -0.6058
  O  O1159  1  0.686440  0.298630  0.852690  1.0  -0.6151
  O  O1160  1  0.927840  0.204570  0.690150  1.0  -0.6004
  O  O1161  1  0.953760  0.155510  0.658420  1.0  -0.6073
  O  O1162  1  0.108990  0.125620  0.655380  1.0  -0.5911
  O  O1163  1  0.151850  0.147490  0.692690  1.0  -0.5955
  O  O1164  1  0.246750  0.390290  0.856950  1.0  -0.6239
  O  O1165  1  0.291510  0.425700  0.888040  1.0  -0.593
  O  O1166  1  0.228490  0.512510  0.968970  1.0  -0.6204
  O  O1167  1  0.157250  0.523790  0.969280  1.0  -0.5948
  O  O1168  1  0.895900  0.332000  0.900200  1.0  -0.4577
  O  O1169  1  0.985100  0.225600  0.782490  1.0  -0.4462
  O  O1170  1  0.112400  0.349600  0.870600  1.0  -0.4323
  O  O1171  1  0.684070  0.111160  0.468260  1.0  -0.6218
  O  O1172  1  0.754690  0.100380  0.468380  1.0  -0.5847
  O  O1173  1  0.845150  0.163650  0.389590  1.0  -0.6055
  O  O1174  1  0.813560  0.201370  0.352690  1.0  -0.6152
  O  O1175  1  0.572160  0.295430  0.190150  1.0  -0.5996
  O  O1176  1  0.546240  0.344490  0.158420  1.0  -0.6082
  O  O1177  1  0.391010  0.374380  0.155380  1.0  -0.5916
  O  O1178  1  0.348150  0.352510  0.192690  1.0  -0.5959
  O  O1179  1  0.253250  0.109710  0.356950  1.0  -0.6251
  O  O1180  1  0.208490  0.074300  0.388040  1.0  -0.5926
  O  O1181  1  0.271510  0.987490  0.468970  1.0  -0.6204
  O  O1182  1  0.342750  0.976210  0.469280  1.0  -0.5942
  O  O1183  1  0.604100  0.168000  0.400200  1.0  -0.4574
  O  O1184  1  0.514900  0.274400  0.282490  1.0  -0.4474
  O  O1185  1  0.387600  0.150400  0.370600  1.0  -0.4314
  O  O1186  1  0.184070  0.611160  0.968260  1.0  -0.6218
  O  O1187  1  0.254690  0.600380  0.968380  1.0  -0.5847
  O  O1188  1  0.345150  0.663650  0.889590  1.0  -0.6055
  O  O1189  1  0.313560  0.701370  0.852690  1.0  -0.6152
  O  O1190  1  0.072160  0.795430  0.690150  1.0  -0.5996
  O  O1191  1  0.046240  0.844490  0.658420  1.0  -0.6082
  O  O1192  1  0.891010  0.874380  0.655380  1.0  -0.5916
  O  O1193  1  0.848150  0.852510  0.692690  1.0  -0.5959
  O  O1194  1  0.753250  0.609710  0.856950  1.0  -0.6251
  O  O1195  1  0.708490  0.574300  0.888040  1.0  -0.5926
  O  O1196  1  0.771510  0.487490  0.968970  1.0  -0.6204
  O  O1197  1  0.842750  0.476210  0.969280  1.0  -0.5942
  O  O1198  1  0.104100  0.668000  0.900200  1.0  -0.4574
  O  O1199  1  0.014900  0.774400  0.782490  1.0  -0.4474
  O  O1200  1  0.887600  0.650400  0.870600  1.0  -0.4314
