# generated using pymatgen
data_CuH6C11N2O5
_symmetry_space_group_name_H-M   'P 1'
_cell_length_a   30.46380000
_cell_length_b   30.46380000
_cell_length_c   44.27720000
_cell_angle_alpha   90.00000000
_cell_angle_beta   90.00000000
_cell_angle_gamma   90.00000000
_symmetry_Int_Tables_number   1
_chemical_formula_structural   CuH6C11N2O5
_chemical_formula_sum   'Cu48 H288 C528 N96 O240'
_cell_volume   41091.15040957
_cell_formula_units_Z   48
loop_
 _symmetry_equiv_pos_site_id
 _symmetry_equiv_pos_as_xyz
  1  'x, y, z'
loop_
 _atom_site_type_symbol
 _atom_site_label
 _atom_site_symmetry_multiplicity
 _atom_site_fract_x
 _atom_site_fract_y
 _atom_site_fract_z
 _atom_site_occupancy
 _atom_site_charge
  Cu  Cu1  1  0.097640  0.844060  0.627880  1.0  0.9212
  Cu  Cu2  1  0.131000  0.791930  0.669830  1.0  0.9129
  Cu  Cu3  1  0.597640  0.344060  0.127880  1.0  0.9212
  Cu  Cu4  1  0.631000  0.291930  0.169830  1.0  0.9129
  Cu  Cu5  1  0.902360  0.155940  0.627880  1.0  0.9188
  Cu  Cu6  1  0.869000  0.208070  0.669830  1.0  0.9134
  Cu  Cu7  1  0.402360  0.655940  0.127880  1.0  0.9188
  Cu  Cu8  1  0.369000  0.708070  0.169830  1.0  0.9134
  Cu  Cu9  1  0.155940  0.097640  0.627880  1.0  0.921
  Cu  Cu10  1  0.208070  0.131000  0.669830  1.0  0.9137
  Cu  Cu11  1  0.655940  0.597640  0.127880  1.0  0.921
  Cu  Cu12  1  0.708070  0.631000  0.169830  1.0  0.9137
  Cu  Cu13  1  0.844060  0.902360  0.627880  1.0  0.9198
  Cu  Cu14  1  0.791930  0.869000  0.669830  1.0  0.9131
  Cu  Cu15  1  0.344060  0.402360  0.127880  1.0  0.9198
  Cu  Cu16  1  0.291930  0.369000  0.169830  1.0  0.9131
  Cu  Cu17  1  0.902360  0.155940  0.372120  1.0  0.9206
  Cu  Cu18  1  0.869000  0.208070  0.330170  1.0  0.9133
  Cu  Cu19  1  0.402360  0.655940  0.872120  1.0  0.9206
  Cu  Cu20  1  0.369000  0.708070  0.830170  1.0  0.9133
  Cu  Cu21  1  0.097640  0.844060  0.372120  1.0  0.9217
  Cu  Cu22  1  0.131000  0.791930  0.330170  1.0  0.9113
  Cu  Cu23  1  0.597640  0.344060  0.872120  1.0  0.9217
  Cu  Cu24  1  0.631000  0.291930  0.830170  1.0  0.9113
  Cu  Cu25  1  0.844060  0.902360  0.372120  1.0  0.9214
  Cu  Cu26  1  0.791930  0.869000  0.330170  1.0  0.9127
  Cu  Cu27  1  0.344060  0.402360  0.872120  1.0  0.9214
  Cu  Cu28  1  0.291930  0.369000  0.830170  1.0  0.9127
  Cu  Cu29  1  0.155940  0.097640  0.372120  1.0  0.922
  Cu  Cu30  1  0.208070  0.131000  0.330170  1.0  0.9119
  Cu  Cu31  1  0.655940  0.597640  0.872120  1.0  0.922
  Cu  Cu32  1  0.708070  0.631000  0.830170  1.0  0.9119
  Cu  Cu33  1  0.073840  0.338190  0.500000  1.0  0.9069
  Cu  Cu34  1  0.055740  0.253090  0.500000  1.0  0.9119
  Cu  Cu35  1  0.573840  0.838190  0.000000  1.0  0.9069
  Cu  Cu36  1  0.555740  0.753090  0.000000  1.0  0.9098
  Cu  Cu37  1  0.926160  0.661810  0.500000  1.0  0.9089
  Cu  Cu38  1  0.944260  0.746910  0.500000  1.0  0.9088
  Cu  Cu39  1  0.426160  0.161810  0.000000  1.0  0.9089
  Cu  Cu40  1  0.444260  0.246910  0.000000  1.0  0.9061
  Cu  Cu41  1  0.661810  0.073840  0.500000  1.0  0.909
  Cu  Cu42  1  0.746910  0.055740  0.500000  1.0  0.9093
  Cu  Cu43  1  0.161810  0.573840  0.000000  1.0  0.909
  Cu  Cu44  1  0.246910  0.555740  0.000000  1.0  0.9097
  Cu  Cu45  1  0.338190  0.926160  0.500000  1.0  0.9089
  Cu  Cu46  1  0.253090  0.944260  0.500000  1.0  0.9099
  Cu  Cu47  1  0.838190  0.426160  0.000000  1.0  0.9089
  Cu  Cu48  1  0.753090  0.444260  0.000000  1.0  0.9092
  H  H49  1  0.243900  0.339300  0.626900  1.0  0.1888
  H  H50  1  0.250800  0.405700  0.638500  1.0  0.2573
  H  H51  1  0.268000  0.582100  0.735400  1.0  0.2622
  H  H52  1  0.240800  0.570600  0.694300  1.0  0.2525
  H  H53  1  0.121500  0.524500  0.601700  1.0  0.2608
  H  H54  1  0.076600  0.572300  0.587100  1.0  0.223
  H  H55  1  0.140300  0.208700  0.571900  1.0  0.1262
  H  H56  1  0.219900  0.262400  0.635000  1.0  0.1229
  H  H57  1  0.170700  0.338600  0.568100  1.0  0.1206
  H  H58  1  0.355800  0.532600  0.839600  1.0  0.1197
  H  H59  1  0.316200  0.610300  0.771200  1.0  0.1289
  H  H60  1  0.284400  0.481400  0.771700  1.0  0.1282
  H  H61  1  0.032000  0.748300  0.573800  1.0  0.1245
  H  H62  1  0.028100  0.616200  0.561200  1.0  0.1329
  H  H63  1  0.105300  0.669000  0.626500  1.0  0.1273
  H  H64  1  0.253500  0.461000  0.675400  1.0  0.1266
  H  H65  1  0.188400  0.571600  0.658600  1.0  0.1058
  H  H66  1  0.166800  0.466100  0.605700  1.0  0.1335
  H  H67  1  0.743900  0.839300  0.126900  1.0  0.1888
  H  H68  1  0.750800  0.905700  0.138500  1.0  0.2573
  H  H69  1  0.768000  0.082100  0.235400  1.0  0.2622
  H  H70  1  0.740800  0.070600  0.194300  1.0  0.2525
  H  H71  1  0.621500  0.024500  0.101700  1.0  0.2608
  H  H72  1  0.576600  0.072300  0.087100  1.0  0.223
  H  H73  1  0.640300  0.708700  0.071900  1.0  0.1262
  H  H74  1  0.719900  0.762400  0.135000  1.0  0.1229
  H  H75  1  0.670700  0.838600  0.068100  1.0  0.1206
  H  H76  1  0.855800  0.032600  0.339600  1.0  0.1197
  H  H77  1  0.816200  0.110300  0.271200  1.0  0.1289
  H  H78  1  0.784400  0.981400  0.271700  1.0  0.1282
  H  H79  1  0.532000  0.248300  0.073800  1.0  0.1245
  H  H80  1  0.528100  0.116200  0.061200  1.0  0.1329
  H  H81  1  0.605300  0.169000  0.126500  1.0  0.1273
  H  H82  1  0.753500  0.961000  0.175400  1.0  0.1266
  H  H83  1  0.688400  0.071600  0.158600  1.0  0.1058
  H  H84  1  0.666800  0.966100  0.105700  1.0  0.1335
  H  H85  1  0.756100  0.660700  0.626900  1.0  0.1891
  H  H86  1  0.749200  0.594300  0.638500  1.0  0.2582
  H  H87  1  0.732000  0.417900  0.735400  1.0  0.2638
  H  H88  1  0.759200  0.429400  0.694300  1.0  0.2534
  H  H89  1  0.878500  0.475500  0.601700  1.0  0.2594
  H  H90  1  0.923400  0.427700  0.587100  1.0  0.2226
  H  H91  1  0.859700  0.791300  0.571900  1.0  0.1262
  H  H92  1  0.780100  0.737600  0.635000  1.0  0.123
  H  H93  1  0.829300  0.661400  0.568100  1.0  0.121
  H  H94  1  0.644200  0.467400  0.839600  1.0  0.1195
  H  H95  1  0.683800  0.389700  0.771200  1.0  0.1287
  H  H96  1  0.715600  0.518600  0.771700  1.0  0.1281
  H  H97  1  0.968000  0.251700  0.573800  1.0  0.1246
  H  H98  1  0.971900  0.383800  0.561200  1.0  0.1332
  H  H99  1  0.894700  0.331000  0.626500  1.0  0.1272
  H  H100  1  0.746500  0.539000  0.675400  1.0  0.1263
  H  H101  1  0.811600  0.428400  0.658600  1.0  0.1065
  H  H102  1  0.833200  0.533900  0.605700  1.0  0.1337
  H  H103  1  0.256100  0.160700  0.126900  1.0  0.1891
  H  H104  1  0.249200  0.094300  0.138500  1.0  0.2582
  H  H105  1  0.232000  0.917900  0.235400  1.0  0.2638
  H  H106  1  0.259200  0.929400  0.194300  1.0  0.2534
  H  H107  1  0.378500  0.975500  0.101700  1.0  0.2594
  H  H108  1  0.423400  0.927700  0.087100  1.0  0.2226
  H  H109  1  0.359700  0.291300  0.071900  1.0  0.1262
  H  H110  1  0.280100  0.237600  0.135000  1.0  0.123
  H  H111  1  0.329300  0.161400  0.068100  1.0  0.121
  H  H112  1  0.144200  0.967400  0.339600  1.0  0.1195
  H  H113  1  0.183800  0.889700  0.271200  1.0  0.1287
  H  H114  1  0.215600  0.018600  0.271700  1.0  0.1281
  H  H115  1  0.468000  0.751700  0.073800  1.0  0.1246
  H  H116  1  0.471900  0.883800  0.061200  1.0  0.1332
  H  H117  1  0.394700  0.831000  0.126500  1.0  0.1272
  H  H118  1  0.246500  0.039000  0.175400  1.0  0.1263
  H  H119  1  0.311600  0.928400  0.158600  1.0  0.1065
  H  H120  1  0.333200  0.033900  0.105700  1.0  0.1337
  H  H121  1  0.660700  0.243900  0.626900  1.0  0.1859
  H  H122  1  0.594300  0.250800  0.638500  1.0  0.2543
  H  H123  1  0.417900  0.268000  0.735400  1.0  0.2632
  H  H124  1  0.429400  0.240800  0.694300  1.0  0.2549
  H  H125  1  0.475500  0.121500  0.601700  1.0  0.2604
  H  H126  1  0.427700  0.076600  0.587100  1.0  0.2227
  H  H127  1  0.791300  0.140300  0.571900  1.0  0.1257
  H  H128  1  0.737600  0.219900  0.635000  1.0  0.1231
  H  H129  1  0.661400  0.170700  0.568100  1.0  0.1206
  H  H130  1  0.467400  0.355800  0.839600  1.0  0.1199
  H  H131  1  0.389700  0.316200  0.771200  1.0  0.1279
  H  H132  1  0.518600  0.284400  0.771700  1.0  0.1287
  H  H133  1  0.251700  0.032000  0.573800  1.0  0.1237
  H  H134  1  0.383800  0.028100  0.561200  1.0  0.1319
  H  H135  1  0.331000  0.105300  0.626500  1.0  0.1269
  H  H136  1  0.539000  0.253500  0.675400  1.0  0.126
  H  H137  1  0.428400  0.188400  0.658600  1.0  0.1054
  H  H138  1  0.533900  0.166800  0.605700  1.0  0.1336
  H  H139  1  0.160700  0.743900  0.126900  1.0  0.1859
  H  H140  1  0.094300  0.750800  0.138500  1.0  0.2543
  H  H141  1  0.917900  0.768000  0.235400  1.0  0.2632
  H  H142  1  0.929400  0.740800  0.194300  1.0  0.2549
  H  H143  1  0.975500  0.621500  0.101700  1.0  0.2604
  H  H144  1  0.927700  0.576600  0.087100  1.0  0.2227
  H  H145  1  0.291300  0.640300  0.071900  1.0  0.1257
  H  H146  1  0.237600  0.719900  0.135000  1.0  0.1231
  H  H147  1  0.161400  0.670700  0.068100  1.0  0.1206
  H  H148  1  0.967400  0.855800  0.339600  1.0  0.1199
  H  H149  1  0.889700  0.816200  0.271200  1.0  0.1279
  H  H150  1  0.018600  0.784400  0.271700  1.0  0.1287
  H  H151  1  0.751700  0.532000  0.073800  1.0  0.1237
  H  H152  1  0.883800  0.528100  0.061200  1.0  0.1319
  H  H153  1  0.831000  0.605300  0.126500  1.0  0.1269
  H  H154  1  0.039000  0.753500  0.175400  1.0  0.126
  H  H155  1  0.928400  0.688400  0.158600  1.0  0.1054
  H  H156  1  0.033900  0.666800  0.105700  1.0  0.1336
  H  H157  1  0.339300  0.756100  0.626900  1.0  0.1887
  H  H158  1  0.405700  0.749200  0.638500  1.0  0.2574
  H  H159  1  0.582100  0.732000  0.735400  1.0  0.2626
  H  H160  1  0.570600  0.759200  0.694300  1.0  0.2555
  H  H161  1  0.524500  0.878500  0.601700  1.0  0.2601
  H  H162  1  0.572300  0.923400  0.587100  1.0  0.2235
  H  H163  1  0.208700  0.859700  0.571900  1.0  0.126
  H  H164  1  0.262400  0.780100  0.635000  1.0  0.123
  H  H165  1  0.338600  0.829300  0.568100  1.0  0.1207
  H  H166  1  0.532600  0.644200  0.839600  1.0  0.1198
  H  H167  1  0.610300  0.683800  0.771200  1.0  0.1281
  H  H168  1  0.481400  0.715600  0.771700  1.0  0.1293
  H  H169  1  0.748300  0.968000  0.573800  1.0  0.1238
  H  H170  1  0.616200  0.971900  0.561200  1.0  0.1319
  H  H171  1  0.669000  0.894700  0.626500  1.0  0.127
  H  H172  1  0.461000  0.746500  0.675400  1.0  0.1255
  H  H173  1  0.571600  0.811600  0.658600  1.0  0.106
  H  H174  1  0.466100  0.833200  0.605700  1.0  0.1335
  H  H175  1  0.839300  0.256100  0.126900  1.0  0.1887
  H  H176  1  0.905700  0.249200  0.138500  1.0  0.2574
  H  H177  1  0.082100  0.232000  0.235400  1.0  0.2626
  H  H178  1  0.070600  0.259200  0.194300  1.0  0.2555
  H  H179  1  0.024500  0.378500  0.101700  1.0  0.2601
  H  H180  1  0.072300  0.423400  0.087100  1.0  0.2235
  H  H181  1  0.708700  0.359700  0.071900  1.0  0.126
  H  H182  1  0.762400  0.280100  0.135000  1.0  0.123
  H  H183  1  0.838600  0.329300  0.068100  1.0  0.1207
  H  H184  1  0.032600  0.144200  0.339600  1.0  0.1198
  H  H185  1  0.110300  0.183800  0.271200  1.0  0.1281
  H  H186  1  0.981400  0.215600  0.271700  1.0  0.1293
  H  H187  1  0.248300  0.468000  0.073800  1.0  0.1238
  H  H188  1  0.116200  0.471900  0.061200  1.0  0.1319
  H  H189  1  0.169000  0.394700  0.126500  1.0  0.127
  H  H190  1  0.961000  0.246500  0.175400  1.0  0.1255
  H  H191  1  0.071600  0.311600  0.158600  1.0  0.106
  H  H192  1  0.966100  0.333200  0.105700  1.0  0.1335
  H  H193  1  0.756100  0.660700  0.373100  1.0  0.1887
  H  H194  1  0.749200  0.594300  0.361500  1.0  0.2586
  H  H195  1  0.732000  0.417900  0.264600  1.0  0.2642
  H  H196  1  0.759200  0.429400  0.305700  1.0  0.253
  H  H197  1  0.878500  0.475500  0.398300  1.0  0.2588
  H  H198  1  0.923400  0.427700  0.412900  1.0  0.2222
  H  H199  1  0.859700  0.791300  0.428100  1.0  0.1265
  H  H200  1  0.780100  0.737600  0.365000  1.0  0.1228
  H  H201  1  0.829300  0.661400  0.431900  1.0  0.121
  H  H202  1  0.644200  0.467400  0.160400  1.0  0.1193
  H  H203  1  0.683800  0.389700  0.228800  1.0  0.1291
  H  H204  1  0.715600  0.518600  0.228300  1.0  0.1279
  H  H205  1  0.968000  0.251700  0.426200  1.0  0.1247
  H  H206  1  0.971900  0.383800  0.438800  1.0  0.1333
  H  H207  1  0.894700  0.331000  0.373500  1.0  0.1266
  H  H208  1  0.746500  0.539000  0.324600  1.0  0.1262
  H  H209  1  0.811600  0.428400  0.341400  1.0  0.107
  H  H210  1  0.833200  0.533900  0.394300  1.0  0.1332
  H  H211  1  0.256100  0.160700  0.873100  1.0  0.1887
  H  H212  1  0.249200  0.094300  0.861500  1.0  0.2586
  H  H213  1  0.232000  0.917900  0.764600  1.0  0.2642
  H  H214  1  0.259200  0.929400  0.805700  1.0  0.253
  H  H215  1  0.378500  0.975500  0.898300  1.0  0.2588
  H  H216  1  0.423400  0.927700  0.912900  1.0  0.2222
  H  H217  1  0.359700  0.291300  0.928100  1.0  0.1265
  H  H218  1  0.280100  0.237600  0.865000  1.0  0.1228
  H  H219  1  0.329300  0.161400  0.931900  1.0  0.121
  H  H220  1  0.144200  0.967400  0.660400  1.0  0.1193
  H  H221  1  0.183800  0.889700  0.728800  1.0  0.1291
  H  H222  1  0.215600  0.018600  0.728300  1.0  0.1279
  H  H223  1  0.468000  0.751700  0.926200  1.0  0.1247
  H  H224  1  0.471900  0.883800  0.938800  1.0  0.1333
  H  H225  1  0.394700  0.831000  0.873500  1.0  0.1266
  H  H226  1  0.246500  0.039000  0.824600  1.0  0.1262
  H  H227  1  0.311600  0.928400  0.841400  1.0  0.107
  H  H228  1  0.333200  0.033900  0.894300  1.0  0.1332
  H  H229  1  0.243900  0.339300  0.373100  1.0  0.1887
  H  H230  1  0.250800  0.405700  0.361500  1.0  0.2575
  H  H231  1  0.268000  0.582100  0.264600  1.0  0.262
  H  H232  1  0.240800  0.570600  0.305700  1.0  0.2522
  H  H233  1  0.121500  0.524500  0.398300  1.0  0.2598
  H  H234  1  0.076600  0.572300  0.412900  1.0  0.2226
  H  H235  1  0.140300  0.208700  0.428100  1.0  0.1263
  H  H236  1  0.219900  0.262400  0.365000  1.0  0.1227
  H  H237  1  0.170700  0.338600  0.431900  1.0  0.1206
  H  H238  1  0.355800  0.532600  0.160400  1.0  0.1196
  H  H239  1  0.316200  0.610300  0.228800  1.0  0.1293
  H  H240  1  0.284400  0.481400  0.228300  1.0  0.1282
  H  H241  1  0.032000  0.748300  0.426200  1.0  0.1248
  H  H242  1  0.028100  0.616200  0.438800  1.0  0.133
  H  H243  1  0.105300  0.669000  0.373500  1.0  0.1267
  H  H244  1  0.253500  0.461000  0.324600  1.0  0.126
  H  H245  1  0.188400  0.571600  0.341400  1.0  0.1071
  H  H246  1  0.166800  0.466100  0.394300  1.0  0.1333
  H  H247  1  0.743900  0.839300  0.873100  1.0  0.1887
  H  H248  1  0.750800  0.905700  0.861500  1.0  0.2575
  H  H249  1  0.768000  0.082100  0.764600  1.0  0.262
  H  H250  1  0.740800  0.070600  0.805700  1.0  0.2522
  H  H251  1  0.621500  0.024500  0.898300  1.0  0.2598
  H  H252  1  0.576600  0.072300  0.912900  1.0  0.2226
  H  H253  1  0.640300  0.708700  0.928100  1.0  0.1263
  H  H254  1  0.719900  0.762400  0.865000  1.0  0.1227
  H  H255  1  0.670700  0.838600  0.931900  1.0  0.1206
  H  H256  1  0.855800  0.032600  0.660400  1.0  0.1196
  H  H257  1  0.816200  0.110300  0.728800  1.0  0.1293
  H  H258  1  0.784400  0.981400  0.728300  1.0  0.1282
  H  H259  1  0.532000  0.248300  0.926200  1.0  0.1248
  H  H260  1  0.528100  0.116200  0.938800  1.0  0.133
  H  H261  1  0.605300  0.169000  0.873500  1.0  0.1267
  H  H262  1  0.753500  0.961000  0.824600  1.0  0.126
  H  H263  1  0.688400  0.071600  0.841400  1.0  0.1071
  H  H264  1  0.666800  0.966100  0.894300  1.0  0.1333
  H  H265  1  0.339300  0.756100  0.373100  1.0  0.1879
  H  H266  1  0.405700  0.749200  0.361500  1.0  0.2573
  H  H267  1  0.582100  0.732000  0.264600  1.0  0.2621
  H  H268  1  0.570600  0.759200  0.305700  1.0  0.2546
  H  H269  1  0.524500  0.878500  0.398300  1.0  0.2595
  H  H270  1  0.572300  0.923400  0.412900  1.0  0.2232
  H  H271  1  0.208700  0.859700  0.428100  1.0  0.1259
  H  H272  1  0.262400  0.780100  0.365000  1.0  0.1229
  H  H273  1  0.338600  0.829300  0.431900  1.0  0.1207
  H  H274  1  0.532600  0.644200  0.160400  1.0  0.1196
  H  H275  1  0.610300  0.683800  0.228800  1.0  0.1286
  H  H276  1  0.481400  0.715600  0.228300  1.0  0.1289
  H  H277  1  0.748300  0.968000  0.426200  1.0  0.1238
  H  H278  1  0.616200  0.971900  0.438800  1.0  0.1318
  H  H279  1  0.669000  0.894700  0.373500  1.0  0.126
  H  H280  1  0.461000  0.746500  0.324600  1.0  0.125
  H  H281  1  0.571600  0.811600  0.341400  1.0  0.1068
  H  H282  1  0.466100  0.833200  0.394300  1.0  0.133
  H  H283  1  0.839300  0.256100  0.873100  1.0  0.1879
  H  H284  1  0.905700  0.249200  0.861500  1.0  0.2573
  H  H285  1  0.082100  0.232000  0.764600  1.0  0.2621
  H  H286  1  0.070600  0.259200  0.805700  1.0  0.2546
  H  H287  1  0.024500  0.378500  0.898300  1.0  0.2595
  H  H288  1  0.072300  0.423400  0.912900  1.0  0.2232
  H  H289  1  0.708700  0.359700  0.928100  1.0  0.1259
  H  H290  1  0.762400  0.280100  0.865000  1.0  0.1229
  H  H291  1  0.838600  0.329300  0.931900  1.0  0.1207
  H  H292  1  0.032600  0.144200  0.660400  1.0  0.1196
  H  H293  1  0.110300  0.183800  0.728800  1.0  0.1286
  H  H294  1  0.981400  0.215600  0.728300  1.0  0.1289
  H  H295  1  0.248300  0.468000  0.926200  1.0  0.1238
  H  H296  1  0.116200  0.471900  0.938800  1.0  0.1318
  H  H297  1  0.169000  0.394700  0.873500  1.0  0.126
  H  H298  1  0.961000  0.246500  0.824600  1.0  0.125
  H  H299  1  0.071600  0.311600  0.841400  1.0  0.1068
  H  H300  1  0.966100  0.333200  0.894300  1.0  0.133
  H  H301  1  0.660700  0.243900  0.373100  1.0  0.1852
  H  H302  1  0.594300  0.250800  0.361500  1.0  0.2546
  H  H303  1  0.417900  0.268000  0.264600  1.0  0.2631
  H  H304  1  0.429400  0.240800  0.305700  1.0  0.2545
  H  H305  1  0.475500  0.121500  0.398300  1.0  0.2598
  H  H306  1  0.427700  0.076600  0.412900  1.0  0.2229
  H  H307  1  0.791300  0.140300  0.428100  1.0  0.1257
  H  H308  1  0.737600  0.219900  0.365000  1.0  0.1228
  H  H309  1  0.661400  0.170700  0.431900  1.0  0.1205
  H  H310  1  0.467400  0.355800  0.160400  1.0  0.1195
  H  H311  1  0.389700  0.316200  0.228800  1.0  0.128
  H  H312  1  0.518600  0.284400  0.228300  1.0  0.1287
  H  H313  1  0.251700  0.032000  0.426200  1.0  0.1239
  H  H314  1  0.383800  0.028100  0.438800  1.0  0.1321
  H  H315  1  0.331000  0.105300  0.373500  1.0  0.1261
  H  H316  1  0.539000  0.253500  0.324600  1.0  0.126
  H  H317  1  0.428400  0.188400  0.341400  1.0  0.1062
  H  H318  1  0.533900  0.166800  0.394300  1.0  0.1332
  H  H319  1  0.160700  0.743900  0.873100  1.0  0.1852
  H  H320  1  0.094300  0.750800  0.861500  1.0  0.2546
  H  H321  1  0.917900  0.768000  0.764600  1.0  0.2631
  H  H322  1  0.929400  0.740800  0.805700  1.0  0.2545
  H  H323  1  0.975500  0.621500  0.898300  1.0  0.2598
  H  H324  1  0.927700  0.576600  0.912900  1.0  0.2229
  H  H325  1  0.291300  0.640300  0.928100  1.0  0.1257
  H  H326  1  0.237600  0.719900  0.865000  1.0  0.1228
  H  H327  1  0.161400  0.670700  0.931900  1.0  0.1205
  H  H328  1  0.967400  0.855800  0.660400  1.0  0.1195
  H  H329  1  0.889700  0.816200  0.728800  1.0  0.128
  H  H330  1  0.018600  0.784400  0.728300  1.0  0.1287
  H  H331  1  0.751700  0.532000  0.926200  1.0  0.1239
  H  H332  1  0.883800  0.528100  0.938800  1.0  0.1321
  H  H333  1  0.831000  0.605300  0.873500  1.0  0.1261
  H  H334  1  0.039000  0.753500  0.824600  1.0  0.126
  H  H335  1  0.928400  0.688400  0.841400  1.0  0.1062
  H  H336  1  0.033900  0.666800  0.894300  1.0  0.1332
  C  C337  1  0.119310  0.281560  0.541200  1.0  0.7016
  C  C338  1  0.183360  0.186110  0.621510  1.0  0.7022
  C  C339  1  0.149980  0.275020  0.566830  1.0  -0.1447
  C  C340  1  0.154700  0.233650  0.580180  1.0  0.0246
  C  C341  1  0.180890  0.229650  0.605910  1.0  -0.1037
  C  C342  1  0.202200  0.265540  0.617500  1.0  -0.0578
  C  C343  1  0.198200  0.307040  0.603790  1.0  0.2112
  C  C344  1  0.172710  0.311110  0.578080  1.0  -0.0891
  C  C345  1  0.320260  0.457170  0.823570  1.0  0.6907
  C  C346  1  0.357050  0.616730  0.823640  1.0  0.7024
  C  C347  1  0.320770  0.501000  0.807970  1.0  -0.126
  C  C348  1  0.340410  0.536170  0.821160  1.0  0.0288
  C  C349  1  0.338100  0.577250  0.807820  1.0  -0.145
  C  C350  1  0.317200  0.582280  0.780540  1.0  -0.0885
  C  C351  1  0.297700  0.547130  0.766860  1.0  0.233
  C  C352  1  0.298700  0.505830  0.780790  1.0  -0.0561
  C  C353  1  0.086220  0.752570  0.620120  1.0  0.6936
  C  C354  1  0.990920  0.689750  0.539940  1.0  0.6724
  C  C355  1  0.070640  0.713970  0.602930  1.0  -0.1203
  C  C356  1  0.040950  0.719530  0.579370  1.0  0.0167
  C  C357  1  0.024580  0.683950  0.564200  1.0  -0.1472
  C  C358  1  0.039600  0.641250  0.571260  1.0  -0.1301
  C  C359  1  0.071800  0.636900  0.593330  1.0  0.1758
  C  C360  1  0.085600  0.672880  0.610120  1.0  -0.062
  C  C361  1  0.201100  0.383600  0.617800  1.0  0.3155
  C  C362  1  0.266500  0.524400  0.717960  1.0  0.2857
  C  C363  1  0.122400  0.583400  0.615900  1.0  0.3435
  C  C364  1  0.211000  0.456400  0.640480  1.0  0.2372
  C  C365  1  0.231900  0.476300  0.664120  1.0  -0.1591
  C  C366  1  0.221200  0.518700  0.671250  1.0  0.2391
  C  C367  1  0.192500  0.541200  0.654720  1.0  -0.0844
  C  C368  1  0.169300  0.521800  0.632600  1.0  0.2292
  C  C369  1  0.179900  0.479000  0.623050  1.0  -0.1491
  C  C370  1  0.619310  0.781560  0.041200  1.0  0.7016
  C  C371  1  0.683360  0.686110  0.121510  1.0  0.7022
  C  C372  1  0.649980  0.775020  0.066830  1.0  -0.1447
  C  C373  1  0.654700  0.733650  0.080180  1.0  0.0246
  C  C374  1  0.680890  0.729650  0.105910  1.0  -0.1037
  C  C375  1  0.702200  0.765540  0.117500  1.0  -0.0578
  C  C376  1  0.698200  0.807040  0.103790  1.0  0.2112
  C  C377  1  0.672710  0.811110  0.078080  1.0  -0.0891
  C  C378  1  0.820260  0.957170  0.323570  1.0  0.6907
  C  C379  1  0.857050  0.116730  0.323640  1.0  0.7024
  C  C380  1  0.820770  0.001000  0.307970  1.0  -0.126
  C  C381  1  0.840410  0.036170  0.321160  1.0  0.0288
  C  C382  1  0.838100  0.077250  0.307820  1.0  -0.145
  C  C383  1  0.817200  0.082280  0.280540  1.0  -0.0885
  C  C384  1  0.797700  0.047130  0.266860  1.0  0.233
  C  C385  1  0.798700  0.005830  0.280790  1.0  -0.0561
  C  C386  1  0.586220  0.252570  0.120120  1.0  0.6936
  C  C387  1  0.490920  0.189750  0.039940  1.0  0.6724
  C  C388  1  0.570640  0.213970  0.102930  1.0  -0.1203
  C  C389  1  0.540950  0.219530  0.079370  1.0  0.0167
  C  C390  1  0.524580  0.183950  0.064200  1.0  -0.1472
  C  C391  1  0.539600  0.141250  0.071260  1.0  -0.1301
  C  C392  1  0.571800  0.136900  0.093330  1.0  0.1758
  C  C393  1  0.585600  0.172880  0.110120  1.0  -0.062
  C  C394  1  0.701100  0.883600  0.117800  1.0  0.3155
  C  C395  1  0.766500  0.024400  0.217960  1.0  0.2857
  C  C396  1  0.622400  0.083400  0.115900  1.0  0.3435
  C  C397  1  0.711000  0.956400  0.140480  1.0  0.2372
  C  C398  1  0.731900  0.976300  0.164120  1.0  -0.1591
  C  C399  1  0.721200  0.018700  0.171250  1.0  0.2391
  C  C400  1  0.692500  0.041200  0.154720  1.0  -0.0844
  C  C401  1  0.669300  0.021800  0.132600  1.0  0.2257
  C  C402  1  0.679900  0.979000  0.123050  1.0  -0.1491
  C  C403  1  0.880690  0.718440  0.541200  1.0  0.7016
  C  C404  1  0.816640  0.813890  0.621510  1.0  0.7019
  C  C405  1  0.850020  0.724980  0.566830  1.0  -0.1441
  C  C406  1  0.845300  0.766350  0.580180  1.0  0.0246
  C  C407  1  0.819110  0.770350  0.605910  1.0  -0.1038
  C  C408  1  0.797800  0.734460  0.617500  1.0  -0.0581
  C  C409  1  0.801800  0.692960  0.603790  1.0  0.2104
  C  C410  1  0.827290  0.688890  0.578080  1.0  -0.0885
  C  C411  1  0.679740  0.542830  0.823570  1.0  0.6909
  C  C412  1  0.642950  0.383270  0.823640  1.0  0.7018
  C  C413  1  0.679230  0.499000  0.807970  1.0  -0.1253
  C  C414  1  0.659590  0.463830  0.821160  1.0  0.0293
  C  C415  1  0.661900  0.422750  0.807820  1.0  -0.1444
  C  C416  1  0.682800  0.417720  0.780540  1.0  -0.0896
  C  C417  1  0.702300  0.452870  0.766860  1.0  0.2335
  C  C418  1  0.701300  0.494170  0.780790  1.0  -0.0551
  C  C419  1  0.913780  0.247430  0.620120  1.0  0.6942
  C  C420  1  0.009080  0.310250  0.539940  1.0  0.6724
  C  C421  1  0.929360  0.286030  0.602930  1.0  -0.1206
  C  C422  1  0.959050  0.280470  0.579370  1.0  0.0177
  C  C423  1  0.975420  0.316050  0.564200  1.0  -0.1471
  C  C424  1  0.960400  0.358750  0.571260  1.0  -0.1292
  C  C425  1  0.928200  0.363100  0.593330  1.0  0.1752
  C  C426  1  0.914400  0.327120  0.610120  1.0  -0.0638
  C  C427  1  0.798900  0.616400  0.617800  1.0  0.3184
  C  C428  1  0.733500  0.475600  0.717960  1.0  0.2862
  C  C429  1  0.877600  0.416600  0.615900  1.0  0.3451
  C  C430  1  0.789000  0.543600  0.640480  1.0  0.2363
  C  C431  1  0.768100  0.523700  0.664120  1.0  -0.1566
  C  C432  1  0.778800  0.481300  0.671250  1.0  0.238
  C  C433  1  0.807500  0.458800  0.654720  1.0  -0.0845
  C  C434  1  0.830700  0.478200  0.632600  1.0  0.2298
  C  C435  1  0.820100  0.521000  0.623050  1.0  -0.1503
  C  C436  1  0.380690  0.218440  0.041200  1.0  0.7016
  C  C437  1  0.316640  0.313890  0.121510  1.0  0.7019
  C  C438  1  0.350020  0.224980  0.066830  1.0  -0.1441
  C  C439  1  0.345300  0.266350  0.080180  1.0  0.0246
  C  C440  1  0.319110  0.270350  0.105910  1.0  -0.1038
  C  C441  1  0.297800  0.234460  0.117500  1.0  -0.0581
  C  C442  1  0.301800  0.192960  0.103790  1.0  0.2104
  C  C443  1  0.327290  0.188890  0.078080  1.0  -0.0885
  C  C444  1  0.179740  0.042830  0.323570  1.0  0.6909
  C  C445  1  0.142950  0.883270  0.323640  1.0  0.7018
  C  C446  1  0.179230  0.999000  0.307970  1.0  -0.1253
  C  C447  1  0.159590  0.963830  0.321160  1.0  0.0293
  C  C448  1  0.161900  0.922750  0.307820  1.0  -0.1444
  C  C449  1  0.182800  0.917720  0.280540  1.0  -0.0896
  C  C450  1  0.202300  0.952870  0.266860  1.0  0.2335
  C  C451  1  0.201300  0.994170  0.280790  1.0  -0.0551
  C  C452  1  0.413780  0.747430  0.120120  1.0  0.6942
  C  C453  1  0.509080  0.810250  0.039940  1.0  0.6724
  C  C454  1  0.429360  0.786030  0.102930  1.0  -0.1206
  C  C455  1  0.459050  0.780470  0.079370  1.0  0.0177
  C  C456  1  0.475420  0.816050  0.064200  1.0  -0.1471
  C  C457  1  0.460400  0.858750  0.071260  1.0  -0.1292
  C  C458  1  0.428200  0.863100  0.093330  1.0  0.1752
  C  C459  1  0.414400  0.827120  0.110120  1.0  -0.0638
  C  C460  1  0.298900  0.116400  0.117800  1.0  0.3184
  C  C461  1  0.233500  0.975600  0.217960  1.0  0.2862
  C  C462  1  0.377600  0.916600  0.115900  1.0  0.3451
  C  C463  1  0.289000  0.043600  0.140480  1.0  0.2363
  C  C464  1  0.268100  0.023700  0.164120  1.0  -0.1566
  C  C465  1  0.278800  0.981300  0.171250  1.0  0.238
  C  C466  1  0.307500  0.958800  0.154720  1.0  -0.0845
  C  C467  1  0.330700  0.978200  0.132600  1.0  0.2264
  C  C468  1  0.320100  0.021000  0.123050  1.0  -0.1503
  C  C469  1  0.718440  0.119310  0.541200  1.0  0.7018
  C  C470  1  0.813890  0.183360  0.621510  1.0  0.7017
  C  C471  1  0.724980  0.149980  0.566830  1.0  -0.1452
  C  C472  1  0.766350  0.154700  0.580180  1.0  0.0231
  C  C473  1  0.770350  0.180890  0.605910  1.0  -0.1031
  C  C474  1  0.734460  0.202200  0.617500  1.0  -0.0574
  C  C475  1  0.692960  0.198200  0.603790  1.0  0.2113
  C  C476  1  0.688890  0.172710  0.578080  1.0  -0.0909
  C  C477  1  0.542830  0.320260  0.823570  1.0  0.6902
  C  C478  1  0.383270  0.357050  0.823640  1.0  0.7024
  C  C479  1  0.499000  0.320770  0.807970  1.0  -0.1263
  C  C480  1  0.463830  0.340410  0.821160  1.0  0.0293
  C  C481  1  0.422750  0.338100  0.807820  1.0  -0.1439
  C  C482  1  0.417720  0.317200  0.780540  1.0  -0.0906
  C  C483  1  0.452870  0.297700  0.766860  1.0  0.2325
  C  C484  1  0.494170  0.298700  0.780790  1.0  -0.0543
  C  C485  1  0.247430  0.086220  0.620120  1.0  0.6945
  C  C486  1  0.310250  0.990920  0.539940  1.0  0.6723
  C  C487  1  0.286030  0.070640  0.602930  1.0  -0.1217
  C  C488  1  0.280470  0.040950  0.579370  1.0  0.0162
  C  C489  1  0.316050  0.024580  0.564200  1.0  -0.1472
  C  C490  1  0.358750  0.039600  0.571260  1.0  -0.1292
  C  C491  1  0.363100  0.071800  0.593330  1.0  0.1743
  C  C492  1  0.327120  0.085600  0.610120  1.0  -0.0619
  C  C493  1  0.616400  0.201100  0.617800  1.0  0.3194
  C  C494  1  0.475600  0.266500  0.717960  1.0  0.2871
  C  C495  1  0.416600  0.122400  0.615900  1.0  0.3431
  C  C496  1  0.543600  0.211000  0.640480  1.0  0.2363
  C  C497  1  0.523700  0.231900  0.664120  1.0  -0.1597
  C  C498  1  0.481300  0.221200  0.671250  1.0  0.2384
  C  C499  1  0.458800  0.192500  0.654720  1.0  -0.0882
  C  C500  1  0.478200  0.169300  0.632600  1.0  0.2302
  C  C501  1  0.521000  0.179900  0.623050  1.0  -0.1493
  C  C502  1  0.218440  0.619310  0.041200  1.0  0.7018
  C  C503  1  0.313890  0.683360  0.121510  1.0  0.7017
  C  C504  1  0.224980  0.649980  0.066830  1.0  -0.1452
  C  C505  1  0.266350  0.654700  0.080180  1.0  0.0231
  C  C506  1  0.270350  0.680890  0.105910  1.0  -0.1031
  C  C507  1  0.234460  0.702200  0.117500  1.0  -0.0574
  C  C508  1  0.192960  0.698200  0.103790  1.0  0.2113
  C  C509  1  0.188890  0.672710  0.078080  1.0  -0.0909
  C  C510  1  0.042830  0.820260  0.323570  1.0  0.6902
  C  C511  1  0.883270  0.857050  0.323640  1.0  0.7024
  C  C512  1  0.999000  0.820770  0.307970  1.0  -0.1263
  C  C513  1  0.963830  0.840410  0.321160  1.0  0.0293
  C  C514  1  0.922750  0.838100  0.307820  1.0  -0.1439
  C  C515  1  0.917720  0.817200  0.280540  1.0  -0.0906
  C  C516  1  0.952870  0.797700  0.266860  1.0  0.2325
  C  C517  1  0.994170  0.798700  0.280790  1.0  -0.0543
  C  C518  1  0.747430  0.586220  0.120120  1.0  0.6945
  C  C519  1  0.810250  0.490920  0.039940  1.0  0.6723
  C  C520  1  0.786030  0.570640  0.102930  1.0  -0.1217
  C  C521  1  0.780470  0.540950  0.079370  1.0  0.0162
  C  C522  1  0.816050  0.524580  0.064200  1.0  -0.1472
  C  C523  1  0.858750  0.539600  0.071260  1.0  -0.1292
  C  C524  1  0.863100  0.571800  0.093330  1.0  0.1743
  C  C525  1  0.827120  0.585600  0.110120  1.0  -0.0619
  C  C526  1  0.116400  0.701100  0.117800  1.0  0.3194
  C  C527  1  0.975600  0.766500  0.217960  1.0  0.2871
  C  C528  1  0.916600  0.622400  0.115900  1.0  0.3431
  C  C529  1  0.043600  0.711000  0.140480  1.0  0.2363
  C  C530  1  0.023700  0.731900  0.164120  1.0  -0.1597
  C  C531  1  0.981300  0.721200  0.171250  1.0  0.2384
  C  C532  1  0.958800  0.692500  0.154720  1.0  -0.0882
  C  C533  1  0.978200  0.669300  0.132600  1.0  0.2265
  C  C534  1  0.021000  0.679900  0.123050  1.0  -0.1493
  C  C535  1  0.281560  0.880690  0.541200  1.0  0.7027
  C  C536  1  0.186110  0.816640  0.621510  1.0  0.701
  C  C537  1  0.275020  0.850020  0.566830  1.0  -0.1437
  C  C538  1  0.233650  0.845300  0.580180  1.0  0.0231
  C  C539  1  0.229650  0.819110  0.605910  1.0  -0.1029
  C  C540  1  0.265540  0.797800  0.617500  1.0  -0.0572
  C  C541  1  0.307040  0.801800  0.603790  1.0  0.2101
  C  C542  1  0.311110  0.827290  0.578080  1.0  -0.0903
  C  C543  1  0.457170  0.679740  0.823570  1.0  0.6909
  C  C544  1  0.616730  0.642950  0.823640  1.0  0.7015
  C  C545  1  0.501000  0.679230  0.807970  1.0  -0.1268
  C  C546  1  0.536170  0.659590  0.821160  1.0  0.0293
  C  C547  1  0.577250  0.661900  0.807820  1.0  -0.1436
  C  C548  1  0.582280  0.682800  0.780540  1.0  -0.0901
  C  C549  1  0.547130  0.702300  0.766860  1.0  0.2325
  C  C550  1  0.505830  0.701300  0.780790  1.0  -0.0556
  C  C551  1  0.752570  0.913780  0.620120  1.0  0.6933
  C  C552  1  0.689750  0.009080  0.539940  1.0  0.6727
  C  C553  1  0.713970  0.929360  0.602930  1.0  -0.1208
  C  C554  1  0.719530  0.959050  0.579370  1.0  0.0162
  C  C555  1  0.683950  0.975420  0.564200  1.0  -0.1473
  C  C556  1  0.641250  0.960400  0.571260  1.0  -0.1307
  C  C557  1  0.636900  0.928200  0.593330  1.0  0.176
  C  C558  1  0.672880  0.914400  0.610120  1.0  -0.0615
  C  C559  1  0.383600  0.798900  0.617800  1.0  0.3156
  C  C560  1  0.524400  0.733500  0.717960  1.0  0.2846
  C  C561  1  0.583400  0.877600  0.615900  1.0  0.3446
  C  C562  1  0.456400  0.789000  0.640480  1.0  0.2354
  C  C563  1  0.476300  0.768100  0.664120  1.0  -0.1575
  C  C564  1  0.518700  0.778800  0.671250  1.0  0.2375
  C  C565  1  0.541200  0.807500  0.654720  1.0  -0.0879
  C  C566  1  0.521800  0.830700  0.632600  1.0  0.2299
  C  C567  1  0.479000  0.820100  0.623050  1.0  -0.1499
  C  C568  1  0.781560  0.380690  0.041200  1.0  0.7027
  C  C569  1  0.686110  0.316640  0.121510  1.0  0.701
  C  C570  1  0.775020  0.350020  0.066830  1.0  -0.1437
  C  C571  1  0.733650  0.345300  0.080180  1.0  0.0231
  C  C572  1  0.729650  0.319110  0.105910  1.0  -0.1029
  C  C573  1  0.765540  0.297800  0.117500  1.0  -0.0572
  C  C574  1  0.807040  0.301800  0.103790  1.0  0.2101
  C  C575  1  0.811110  0.327290  0.078080  1.0  -0.0903
  C  C576  1  0.957170  0.179740  0.323570  1.0  0.6909
  C  C577  1  0.116730  0.142950  0.323640  1.0  0.7015
  C  C578  1  0.001000  0.179230  0.307970  1.0  -0.1268
  C  C579  1  0.036170  0.159590  0.321160  1.0  0.0293
  C  C580  1  0.077250  0.161900  0.307820  1.0  -0.1436
  C  C581  1  0.082280  0.182800  0.280540  1.0  -0.0901
  C  C582  1  0.047130  0.202300  0.266860  1.0  0.2325
  C  C583  1  0.005830  0.201300  0.280790  1.0  -0.0556
  C  C584  1  0.252570  0.413780  0.120120  1.0  0.6933
  C  C585  1  0.189750  0.509080  0.039940  1.0  0.6727
  C  C586  1  0.213970  0.429360  0.102930  1.0  -0.1208
  C  C587  1  0.219530  0.459050  0.079370  1.0  0.0162
  C  C588  1  0.183950  0.475420  0.064200  1.0  -0.1473
  C  C589  1  0.141250  0.460400  0.071260  1.0  -0.1307
  C  C590  1  0.136900  0.428200  0.093330  1.0  0.176
  C  C591  1  0.172880  0.414400  0.110120  1.0  -0.0615
  C  C592  1  0.883600  0.298900  0.117800  1.0  0.3156
  C  C593  1  0.024400  0.233500  0.217960  1.0  0.2846
  C  C594  1  0.083400  0.377600  0.115900  1.0  0.3446
  C  C595  1  0.956400  0.289000  0.140480  1.0  0.2354
  C  C596  1  0.976300  0.268100  0.164120  1.0  -0.1575
  C  C597  1  0.018700  0.278800  0.171250  1.0  0.2375
  C  C598  1  0.041200  0.307500  0.154720  1.0  -0.0879
  C  C599  1  0.021800  0.330700  0.132600  1.0  0.2265
  C  C600  1  0.979000  0.320100  0.123050  1.0  -0.1499
  C  C601  1  0.880690  0.718440  0.458800  1.0  0.7018
  C  C602  1  0.816640  0.813890  0.378490  1.0  0.7016
  C  C603  1  0.850020  0.724980  0.433170  1.0  -0.1452
  C  C604  1  0.845300  0.766350  0.419820  1.0  0.0253
  C  C605  1  0.819110  0.770350  0.394090  1.0  -0.1039
  C  C606  1  0.797800  0.734460  0.382500  1.0  -0.0584
  C  C607  1  0.801800  0.692960  0.396210  1.0  0.2105
  C  C608  1  0.827290  0.688890  0.421920  1.0  -0.09
  C  C609  1  0.679740  0.542830  0.176430  1.0  0.6908
  C  C610  1  0.642950  0.383270  0.176360  1.0  0.7018
  C  C611  1  0.679230  0.499000  0.192030  1.0  -0.1254
  C  C612  1  0.659590  0.463830  0.178840  1.0  0.0295
  C  C613  1  0.661900  0.422750  0.192180  1.0  -0.1448
  C  C614  1  0.682800  0.417720  0.219460  1.0  -0.0903
  C  C615  1  0.702300  0.452870  0.233140  1.0  0.2335
  C  C616  1  0.701300  0.494170  0.219210  1.0  -0.0552
  C  C617  1  0.913780  0.247430  0.379880  1.0  0.694
  C  C618  1  0.009080  0.310250  0.460060  1.0  0.6726
  C  C619  1  0.929360  0.286030  0.397070  1.0  -0.1207
  C  C620  1  0.959050  0.280470  0.420630  1.0  0.0179
  C  C621  1  0.975420  0.316050  0.435800  1.0  -0.1471
  C  C622  1  0.960400  0.358750  0.428740  1.0  -0.1305
  C  C623  1  0.928200  0.363100  0.406670  1.0  0.1753
  C  C624  1  0.914400  0.327120  0.389880  1.0  -0.0627
  C  C625  1  0.798900  0.616400  0.382200  1.0  0.319
  C  C626  1  0.733500  0.475600  0.282040  1.0  0.2862
  C  C627  1  0.877600  0.416600  0.384100  1.0  0.3462
  C  C628  1  0.789000  0.543600  0.359520  1.0  0.2361
  C  C629  1  0.768100  0.523700  0.335880  1.0  -0.1561
  C  C630  1  0.778800  0.481300  0.328750  1.0  0.2387
  C  C631  1  0.807500  0.458800  0.345280  1.0  -0.0843
  C  C632  1  0.830700  0.478200  0.367400  1.0  0.2297
  C  C633  1  0.820100  0.521000  0.376950  1.0  -0.1505
  C  C634  1  0.380690  0.218440  0.958800  1.0  0.7018
  C  C635  1  0.316640  0.313890  0.878490  1.0  0.7016
  C  C636  1  0.350020  0.224980  0.933170  1.0  -0.1452
  C  C637  1  0.345300  0.266350  0.919820  1.0  0.0253
  C  C638  1  0.319110  0.270350  0.894090  1.0  -0.1039
  C  C639  1  0.297800  0.234460  0.882500  1.0  -0.0584
  C  C640  1  0.301800  0.192960  0.896210  1.0  0.2105
  C  C641  1  0.327290  0.188890  0.921920  1.0  -0.09
  C  C642  1  0.179740  0.042830  0.676430  1.0  0.6908
  C  C643  1  0.142950  0.883270  0.676360  1.0  0.7018
  C  C644  1  0.179230  0.999000  0.692030  1.0  -0.1254
  C  C645  1  0.159590  0.963830  0.678840  1.0  0.0295
  C  C646  1  0.161900  0.922750  0.692180  1.0  -0.1448
  C  C647  1  0.182800  0.917720  0.719460  1.0  -0.0903
  C  C648  1  0.202300  0.952870  0.733140  1.0  0.2335
  C  C649  1  0.201300  0.994170  0.719210  1.0  -0.0552
  C  C650  1  0.413780  0.747430  0.879880  1.0  0.694
  C  C651  1  0.509080  0.810250  0.960060  1.0  0.6726
  C  C652  1  0.429360  0.786030  0.897070  1.0  -0.1207
  C  C653  1  0.459050  0.780470  0.920630  1.0  0.0179
  C  C654  1  0.475420  0.816050  0.935800  1.0  -0.1471
  C  C655  1  0.460400  0.858750  0.928740  1.0  -0.1305
  C  C656  1  0.428200  0.863100  0.906670  1.0  0.1753
  C  C657  1  0.414400  0.827120  0.889880  1.0  -0.0627
  C  C658  1  0.298900  0.116400  0.882200  1.0  0.319
  C  C659  1  0.233500  0.975600  0.782040  1.0  0.2862
  C  C660  1  0.377600  0.916600  0.884100  1.0  0.3462
  C  C661  1  0.289000  0.043600  0.859520  1.0  0.2361
  C  C662  1  0.268100  0.023700  0.835880  1.0  -0.1561
  C  C663  1  0.278800  0.981300  0.828750  1.0  0.2387
  C  C664  1  0.307500  0.958800  0.845280  1.0  -0.0843
  C  C665  1  0.330700  0.978200  0.867400  1.0  0.2265
  C  C666  1  0.320100  0.021000  0.876950  1.0  -0.1505
  C  C667  1  0.119310  0.281560  0.458800  1.0  0.7018
  C  C668  1  0.183360  0.186110  0.378490  1.0  0.7019
  C  C669  1  0.149980  0.275020  0.433170  1.0  -0.1454
  C  C670  1  0.154700  0.233650  0.419820  1.0  0.0257
  C  C671  1  0.180890  0.229650  0.394090  1.0  -0.1036
  C  C672  1  0.202200  0.265540  0.382500  1.0  -0.0587
  C  C673  1  0.198200  0.307040  0.396210  1.0  0.2113
  C  C674  1  0.172710  0.311110  0.421920  1.0  -0.0904
  C  C675  1  0.320260  0.457170  0.176430  1.0  0.6906
  C  C676  1  0.357050  0.616730  0.176360  1.0  0.7021
  C  C677  1  0.320770  0.501000  0.192030  1.0  -0.1261
  C  C678  1  0.340410  0.536170  0.178840  1.0  0.0285
  C  C679  1  0.338100  0.577250  0.192180  1.0  -0.1451
  C  C680  1  0.317200  0.582280  0.219460  1.0  -0.0894
  C  C681  1  0.297700  0.547130  0.233140  1.0  0.2329
  C  C682  1  0.298700  0.505830  0.219210  1.0  -0.0567
  C  C683  1  0.086220  0.752570  0.379880  1.0  0.6936
  C  C684  1  0.990920  0.689750  0.460060  1.0  0.6728
  C  C685  1  0.070640  0.713970  0.397070  1.0  -0.1203
  C  C686  1  0.040950  0.719530  0.420630  1.0  0.0166
  C  C687  1  0.024580  0.683950  0.435800  1.0  -0.1471
  C  C688  1  0.039600  0.641250  0.428740  1.0  -0.131
  C  C689  1  0.071800  0.636900  0.406670  1.0  0.1759
  C  C690  1  0.085600  0.672880  0.389880  1.0  -0.0614
  C  C691  1  0.201100  0.383600  0.382200  1.0  0.3163
  C  C692  1  0.266500  0.524400  0.282040  1.0  0.2856
  C  C693  1  0.122400  0.583400  0.384100  1.0  0.3445
  C  C694  1  0.211000  0.456400  0.359520  1.0  0.2369
  C  C695  1  0.231900  0.476300  0.335880  1.0  -0.1588
  C  C696  1  0.221200  0.518700  0.328750  1.0  0.2395
  C  C697  1  0.192500  0.541200  0.345280  1.0  -0.0841
  C  C698  1  0.169300  0.521800  0.367400  1.0  0.2294
  C  C699  1  0.179900  0.479000  0.376950  1.0  -0.1508
  C  C700  1  0.619310  0.781560  0.958800  1.0  0.7018
  C  C701  1  0.683360  0.686110  0.878490  1.0  0.7019
  C  C702  1  0.649980  0.775020  0.933170  1.0  -0.1454
  C  C703  1  0.654700  0.733650  0.919820  1.0  0.0257
  C  C704  1  0.680890  0.729650  0.894090  1.0  -0.1036
  C  C705  1  0.702200  0.765540  0.882500  1.0  -0.0587
  C  C706  1  0.698200  0.807040  0.896210  1.0  0.2113
  C  C707  1  0.672710  0.811110  0.921920  1.0  -0.0904
  C  C708  1  0.820260  0.957170  0.676430  1.0  0.6906
  C  C709  1  0.857050  0.116730  0.676360  1.0  0.7021
  C  C710  1  0.820770  0.001000  0.692030  1.0  -0.1261
  C  C711  1  0.840410  0.036170  0.678840  1.0  0.0285
  C  C712  1  0.838100  0.077250  0.692180  1.0  -0.1451
  C  C713  1  0.817200  0.082280  0.719460  1.0  -0.0894
  C  C714  1  0.797700  0.047130  0.733140  1.0  0.2329
  C  C715  1  0.798700  0.005830  0.719210  1.0  -0.0567
  C  C716  1  0.586220  0.252570  0.879880  1.0  0.6936
  C  C717  1  0.490920  0.189750  0.960060  1.0  0.6728
  C  C718  1  0.570640  0.213970  0.897070  1.0  -0.1203
  C  C719  1  0.540950  0.219530  0.920630  1.0  0.0166
  C  C720  1  0.524580  0.183950  0.935800  1.0  -0.1471
  C  C721  1  0.539600  0.141250  0.928740  1.0  -0.131
  C  C722  1  0.571800  0.136900  0.906670  1.0  0.1759
  C  C723  1  0.585600  0.172880  0.889880  1.0  -0.0614
  C  C724  1  0.701100  0.883600  0.882200  1.0  0.3163
  C  C725  1  0.766500  0.024400  0.782040  1.0  0.2856
  C  C726  1  0.622400  0.083400  0.884100  1.0  0.3445
  C  C727  1  0.711000  0.956400  0.859520  1.0  0.2369
  C  C728  1  0.731900  0.976300  0.835880  1.0  -0.1588
  C  C729  1  0.721200  0.018700  0.828750  1.0  0.2395
  C  C730  1  0.692500  0.041200  0.845280  1.0  -0.0841
  C  C731  1  0.669300  0.021800  0.867400  1.0  0.2258
  C  C732  1  0.679900  0.979000  0.876950  1.0  -0.1508
  C  C733  1  0.281560  0.880690  0.458800  1.0  0.7029
  C  C734  1  0.186110  0.816640  0.378490  1.0  0.7006
  C  C735  1  0.275020  0.850020  0.433170  1.0  -0.1448
  C  C736  1  0.233650  0.845300  0.419820  1.0  0.024
  C  C737  1  0.229650  0.819110  0.394090  1.0  -0.1029
  C  C738  1  0.265540  0.797800  0.382500  1.0  -0.058
  C  C739  1  0.307040  0.801800  0.396210  1.0  0.2102
  C  C740  1  0.311110  0.827290  0.421920  1.0  -0.0916
  C  C741  1  0.457170  0.679740  0.176430  1.0  0.6906
  C  C742  1  0.616730  0.642950  0.176360  1.0  0.7012
  C  C743  1  0.501000  0.679230  0.192030  1.0  -0.1267
  C  C744  1  0.536170  0.659590  0.178840  1.0  0.0291
  C  C745  1  0.577250  0.661900  0.192180  1.0  -0.1438
  C  C746  1  0.582280  0.682800  0.219460  1.0  -0.0904
  C  C747  1  0.547130  0.702300  0.233140  1.0  0.2325
  C  C748  1  0.505830  0.701300  0.219210  1.0  -0.0561
  C  C749  1  0.752570  0.913780  0.379880  1.0  0.6932
  C  C750  1  0.689750  0.009080  0.460060  1.0  0.6731
  C  C751  1  0.713970  0.929360  0.397070  1.0  -0.1207
  C  C752  1  0.719530  0.959050  0.420630  1.0  0.0162
  C  C753  1  0.683950  0.975420  0.435800  1.0  -0.1472
  C  C754  1  0.641250  0.960400  0.428740  1.0  -0.1317
  C  C755  1  0.636900  0.928200  0.406670  1.0  0.1759
  C  C756  1  0.672880  0.914400  0.389880  1.0  -0.0608
  C  C757  1  0.383600  0.798900  0.382200  1.0  0.3164
  C  C758  1  0.524400  0.733500  0.282040  1.0  0.2845
  C  C759  1  0.583400  0.877600  0.384100  1.0  0.3458
  C  C760  1  0.456400  0.789000  0.359520  1.0  0.2352
  C  C761  1  0.476300  0.768100  0.335880  1.0  -0.1574
  C  C762  1  0.518700  0.778800  0.328750  1.0  0.2379
  C  C763  1  0.541200  0.807500  0.345280  1.0  -0.0879
  C  C764  1  0.521800  0.830700  0.367400  1.0  0.23
  C  C765  1  0.479000  0.820100  0.376950  1.0  -0.1514
  C  C766  1  0.781560  0.380690  0.958800  1.0  0.7029
  C  C767  1  0.686110  0.316640  0.878490  1.0  0.7006
  C  C768  1  0.775020  0.350020  0.933170  1.0  -0.1448
  C  C769  1  0.733650  0.345300  0.919820  1.0  0.024
  C  C770  1  0.729650  0.319110  0.894090  1.0  -0.1029
  C  C771  1  0.765540  0.297800  0.882500  1.0  -0.058
  C  C772  1  0.807040  0.301800  0.896210  1.0  0.2102
  C  C773  1  0.811110  0.327290  0.921920  1.0  -0.0916
  C  C774  1  0.957170  0.179740  0.676430  1.0  0.6906
  C  C775  1  0.116730  0.142950  0.676360  1.0  0.7012
  C  C776  1  0.001000  0.179230  0.692030  1.0  -0.1267
  C  C777  1  0.036170  0.159590  0.678840  1.0  0.0291
  C  C778  1  0.077250  0.161900  0.692180  1.0  -0.1438
  C  C779  1  0.082280  0.182800  0.719460  1.0  -0.0904
  C  C780  1  0.047130  0.202300  0.733140  1.0  0.2325
  C  C781  1  0.005830  0.201300  0.719210  1.0  -0.0561
  C  C782  1  0.252570  0.413780  0.879880  1.0  0.6932
  C  C783  1  0.189750  0.509080  0.960060  1.0  0.6731
  C  C784  1  0.213970  0.429360  0.897070  1.0  -0.1207
  C  C785  1  0.219530  0.459050  0.920630  1.0  0.0162
  C  C786  1  0.183950  0.475420  0.935800  1.0  -0.1472
  C  C787  1  0.141250  0.460400  0.928740  1.0  -0.1317
  C  C788  1  0.136900  0.428200  0.906670  1.0  0.1759
  C  C789  1  0.172880  0.414400  0.889880  1.0  -0.0608
  C  C790  1  0.883600  0.298900  0.882200  1.0  0.3164
  C  C791  1  0.024400  0.233500  0.782040  1.0  0.2845
  C  C792  1  0.083400  0.377600  0.884100  1.0  0.3458
  C  C793  1  0.956400  0.289000  0.859520  1.0  0.2352
  C  C794  1  0.976300  0.268100  0.835880  1.0  -0.1574
  C  C795  1  0.018700  0.278800  0.828750  1.0  0.2379
  C  C796  1  0.041200  0.307500  0.845280  1.0  -0.0879
  C  C797  1  0.021800  0.330700  0.867400  1.0  0.2264
  C  C798  1  0.979000  0.320100  0.876950  1.0  -0.1514
  C  C799  1  0.718440  0.119310  0.458800  1.0  0.7021
  C  C800  1  0.813890  0.183360  0.378490  1.0  0.7013
  C  C801  1  0.724980  0.149980  0.433170  1.0  -0.1457
  C  C802  1  0.766350  0.154700  0.419820  1.0  0.0239
  C  C803  1  0.770350  0.180890  0.394090  1.0  -0.103
  C  C804  1  0.734460  0.202200  0.382500  1.0  -0.0582
  C  C805  1  0.692960  0.198200  0.396210  1.0  0.2114
  C  C806  1  0.688890  0.172710  0.421920  1.0  -0.0925
  C  C807  1  0.542830  0.320260  0.176430  1.0  0.6901
  C  C808  1  0.383270  0.357050  0.176360  1.0  0.7022
  C  C809  1  0.499000  0.320770  0.192030  1.0  -0.1262
  C  C810  1  0.463830  0.340410  0.178840  1.0  0.0296
  C  C811  1  0.422750  0.338100  0.192180  1.0  -0.144
  C  C812  1  0.417720  0.317200  0.219460  1.0  -0.0911
  C  C813  1  0.452870  0.297700  0.233140  1.0  0.2325
  C  C814  1  0.494170  0.298700  0.219210  1.0  -0.0549
  C  C815  1  0.247430  0.086220  0.379880  1.0  0.6943
  C  C816  1  0.310250  0.990920  0.460060  1.0  0.6726
  C  C817  1  0.286030  0.070640  0.397070  1.0  -0.1217
  C  C818  1  0.280470  0.040950  0.420630  1.0  0.0163
  C  C819  1  0.316050  0.024580  0.435800  1.0  -0.1469
  C  C820  1  0.358750  0.039600  0.428740  1.0  -0.1298
  C  C821  1  0.363100  0.071800  0.406670  1.0  0.1744
  C  C822  1  0.327120  0.085600  0.389880  1.0  -0.0609
  C  C823  1  0.616400  0.201100  0.382200  1.0  0.3198
  C  C824  1  0.475600  0.266500  0.282040  1.0  0.287
  C  C825  1  0.416600  0.122400  0.384100  1.0  0.3442
  C  C826  1  0.543600  0.211000  0.359520  1.0  0.2361
  C  C827  1  0.523700  0.231900  0.335880  1.0  -0.1596
  C  C828  1  0.481300  0.221200  0.328750  1.0  0.239
  C  C829  1  0.458800  0.192500  0.345280  1.0  -0.0881
  C  C830  1  0.478200  0.169300  0.367400  1.0  0.2303
  C  C831  1  0.521000  0.179900  0.376950  1.0  -0.1495
  C  C832  1  0.218440  0.619310  0.958800  1.0  0.7021
  C  C833  1  0.313890  0.683360  0.878490  1.0  0.7013
  C  C834  1  0.224980  0.649980  0.933170  1.0  -0.1457
  C  C835  1  0.266350  0.654700  0.919820  1.0  0.0239
  C  C836  1  0.270350  0.680890  0.894090  1.0  -0.103
  C  C837  1  0.234460  0.702200  0.882500  1.0  -0.0582
  C  C838  1  0.192960  0.698200  0.896210  1.0  0.2114
  C  C839  1  0.188890  0.672710  0.921920  1.0  -0.0925
  C  C840  1  0.042830  0.820260  0.676430  1.0  0.6901
  C  C841  1  0.883270  0.857050  0.676360  1.0  0.7022
  C  C842  1  0.999000  0.820770  0.692030  1.0  -0.1262
  C  C843  1  0.963830  0.840410  0.678840  1.0  0.0296
  C  C844  1  0.922750  0.838100  0.692180  1.0  -0.144
  C  C845  1  0.917720  0.817200  0.719460  1.0  -0.0911
  C  C846  1  0.952870  0.797700  0.733140  1.0  0.2325
  C  C847  1  0.994170  0.798700  0.719210  1.0  -0.0549
  C  C848  1  0.747430  0.586220  0.879880  1.0  0.6943
  C  C849  1  0.810250  0.490920  0.960060  1.0  0.6726
  C  C850  1  0.786030  0.570640  0.897070  1.0  -0.1217
  C  C851  1  0.780470  0.540950  0.920630  1.0  0.0163
  C  C852  1  0.816050  0.524580  0.935800  1.0  -0.1469
  C  C853  1  0.858750  0.539600  0.928740  1.0  -0.1298
  C  C854  1  0.863100  0.571800  0.906670  1.0  0.1744
  C  C855  1  0.827120  0.585600  0.889880  1.0  -0.0609
  C  C856  1  0.116400  0.701100  0.882200  1.0  0.3198
  C  C857  1  0.975600  0.766500  0.782040  1.0  0.287
  C  C858  1  0.916600  0.622400  0.884100  1.0  0.3442
  C  C859  1  0.043600  0.711000  0.859520  1.0  0.2361
  C  C860  1  0.023700  0.731900  0.835880  1.0  -0.1596
  C  C861  1  0.981300  0.721200  0.828750  1.0  0.239
  C  C862  1  0.958800  0.692500  0.845280  1.0  -0.0881
  C  C863  1  0.978200  0.669300  0.867400  1.0  0.2266
  C  C864  1  0.021000  0.679900  0.876950  1.0  -0.1495
  N  N865  1  0.218530  0.343360  0.617760  1.0  -0.409
  N  N866  1  0.224300  0.413530  0.632790  1.0  -0.4134
  N  N867  1  0.276000  0.554920  0.739180  1.0  -0.3881
  N  N868  1  0.242800  0.541800  0.694780  1.0  -0.3715
  N  N869  1  0.135200  0.541600  0.614670  1.0  -0.3788
  N  N870  1  0.088900  0.593700  0.597410  1.0  -0.3986
  N  N871  1  0.718530  0.843360  0.117760  1.0  -0.409
  N  N872  1  0.724300  0.913530  0.132790  1.0  -0.4134
  N  N873  1  0.776000  0.054920  0.239180  1.0  -0.3881
  N  N874  1  0.742800  0.041800  0.194780  1.0  -0.3715
  N  N875  1  0.635200  0.041600  0.114670  1.0  -0.3788
  N  N876  1  0.588900  0.093700  0.097410  1.0  -0.3986
  N  N877  1  0.781470  0.656640  0.617760  1.0  -0.4094
  N  N878  1  0.775700  0.586470  0.632790  1.0  -0.4157
  N  N879  1  0.724000  0.445080  0.739180  1.0  -0.3896
  N  N880  1  0.757200  0.458200  0.694780  1.0  -0.3728
  N  N881  1  0.864800  0.458400  0.614670  1.0  -0.3793
  N  N882  1  0.911100  0.406300  0.597410  1.0  -0.4002
  N  N883  1  0.281470  0.156640  0.117760  1.0  -0.4094
  N  N884  1  0.275700  0.086470  0.132790  1.0  -0.4157
  N  N885  1  0.224000  0.945080  0.239180  1.0  -0.3896
  N  N886  1  0.257200  0.958200  0.194780  1.0  -0.3728
  N  N887  1  0.364800  0.958400  0.114670  1.0  -0.3793
  N  N888  1  0.411100  0.906300  0.097410  1.0  -0.4002
  N  N889  1  0.656640  0.218530  0.617760  1.0  -0.407
  N  N890  1  0.586470  0.224300  0.632790  1.0  -0.4138
  N  N891  1  0.445080  0.276000  0.739180  1.0  -0.3938
  N  N892  1  0.458200  0.242800  0.694780  1.0  -0.3772
  N  N893  1  0.458400  0.135200  0.614670  1.0  -0.3781
  N  N894  1  0.406300  0.088900  0.597410  1.0  -0.4
  N  N895  1  0.156640  0.718530  0.117760  1.0  -0.407
  N  N896  1  0.086470  0.724300  0.132790  1.0  -0.4138
  N  N897  1  0.945080  0.776000  0.239180  1.0  -0.3938
  N  N898  1  0.958200  0.742800  0.194780  1.0  -0.3772
  N  N899  1  0.958400  0.635200  0.114670  1.0  -0.3781
  N  N900  1  0.906300  0.588900  0.097410  1.0  -0.4
  N  N901  1  0.343360  0.781470  0.617760  1.0  -0.4091
  N  N902  1  0.413530  0.775700  0.632790  1.0  -0.4134
  N  N903  1  0.554920  0.724000  0.739180  1.0  -0.3912
  N  N904  1  0.541800  0.757200  0.694780  1.0  -0.373
  N  N905  1  0.541600  0.864800  0.614670  1.0  -0.3786
  N  N906  1  0.593700  0.911100  0.597410  1.0  -0.4017
  N  N907  1  0.843360  0.281470  0.117760  1.0  -0.4091
  N  N908  1  0.913530  0.275700  0.132790  1.0  -0.4134
  N  N909  1  0.054920  0.224000  0.239180  1.0  -0.3912
  N  N910  1  0.041800  0.257200  0.194780  1.0  -0.373
  N  N911  1  0.041600  0.364800  0.114670  1.0  -0.3786
  N  N912  1  0.093700  0.411100  0.097410  1.0  -0.4017
  N  N913  1  0.781470  0.656640  0.382240  1.0  -0.4084
  N  N914  1  0.775700  0.586470  0.367210  1.0  -0.4159
  N  N915  1  0.724000  0.445080  0.260820  1.0  -0.39
  N  N916  1  0.757200  0.458200  0.305220  1.0  -0.3734
  N  N917  1  0.864800  0.458400  0.385330  1.0  -0.377
  N  N918  1  0.911100  0.406300  0.402590  1.0  -0.4
  N  N919  1  0.281470  0.156640  0.882240  1.0  -0.4084
  N  N920  1  0.275700  0.086470  0.867210  1.0  -0.4159
  N  N921  1  0.224000  0.945080  0.760820  1.0  -0.39
  N  N922  1  0.257200  0.958200  0.805220  1.0  -0.3734
  N  N923  1  0.364800  0.958400  0.885330  1.0  -0.377
  N  N924  1  0.411100  0.906300  0.902590  1.0  -0.4
  N  N925  1  0.218530  0.343360  0.382240  1.0  -0.408
  N  N926  1  0.224300  0.413530  0.367210  1.0  -0.4137
  N  N927  1  0.276000  0.554920  0.260820  1.0  -0.3889
  N  N928  1  0.242800  0.541800  0.305220  1.0  -0.3715
  N  N929  1  0.135200  0.541600  0.385330  1.0  -0.3767
  N  N930  1  0.088900  0.593700  0.402590  1.0  -0.399
  N  N931  1  0.718530  0.843360  0.882240  1.0  -0.408
  N  N932  1  0.724300  0.913530  0.867210  1.0  -0.4137
  N  N933  1  0.776000  0.054920  0.760820  1.0  -0.3889
  N  N934  1  0.742800  0.041800  0.805220  1.0  -0.3715
  N  N935  1  0.635200  0.041600  0.885330  1.0  -0.3767
  N  N936  1  0.588900  0.093700  0.902590  1.0  -0.399
  N  N937  1  0.343360  0.781470  0.382240  1.0  -0.4087
  N  N938  1  0.413530  0.775700  0.367210  1.0  -0.4133
  N  N939  1  0.554920  0.724000  0.260820  1.0  -0.3919
  N  N940  1  0.541800  0.757200  0.305220  1.0  -0.3735
  N  N941  1  0.541600  0.864800  0.385330  1.0  -0.3767
  N  N942  1  0.593700  0.911100  0.402590  1.0  -0.4017
  N  N943  1  0.843360  0.281470  0.882240  1.0  -0.4087
  N  N944  1  0.913530  0.275700  0.867210  1.0  -0.4133
  N  N945  1  0.054920  0.224000  0.760820  1.0  -0.3919
  N  N946  1  0.041800  0.257200  0.805220  1.0  -0.3735
  N  N947  1  0.041600  0.364800  0.885330  1.0  -0.3767
  N  N948  1  0.093700  0.411100  0.902590  1.0  -0.4017
  N  N949  1  0.656640  0.218530  0.382240  1.0  -0.407
  N  N950  1  0.586470  0.224300  0.367210  1.0  -0.4138
  N  N951  1  0.445080  0.276000  0.260820  1.0  -0.3938
  N  N952  1  0.458200  0.242800  0.305220  1.0  -0.3775
  N  N953  1  0.458400  0.135200  0.385330  1.0  -0.3761
  N  N954  1  0.406300  0.088900  0.402590  1.0  -0.4002
  N  N955  1  0.156640  0.718530  0.882240  1.0  -0.407
  N  N956  1  0.086470  0.724300  0.867210  1.0  -0.4138
  N  N957  1  0.945080  0.776000  0.760820  1.0  -0.3938
  N  N958  1  0.958200  0.742800  0.805220  1.0  -0.3775
  N  N959  1  0.958400  0.635200  0.885330  1.0  -0.3761
  N  N960  1  0.906300  0.588900  0.902590  1.0  -0.4002
  O  O961  1  0.115030  0.319730  0.531310  1.0  -0.5725
  O  O962  1  0.100610  0.247710  0.530800  1.0  -0.564
  O  O963  1  0.164740  0.154950  0.608700  1.0  -0.5627
  O  O964  1  0.204370  0.184620  0.646020  1.0  -0.5623
  O  O965  1  0.296420  0.427720  0.812280  1.0  -0.5605
  O  O966  1  0.344820  0.453760  0.846010  1.0  -0.5585
  O  O967  1  0.376120  0.609160  0.847830  1.0  -0.5502
  O  O968  1  0.352140  0.653130  0.810720  1.0  -0.5563
  O  O969  1  0.109660  0.745010  0.643190  1.0  -0.5743
  O  O970  1  0.076410  0.789570  0.610130  1.0  -0.5641
  O  O971  1  0.986140  0.728390  0.531000  1.0  -0.5649
  O  O972  1  0.971740  0.656230  0.530630  1.0  -0.5499
  O  O973  1  0.165500  0.392770  0.605700  1.0  -0.4586
  O  O974  1  0.273930  0.485170  0.720330  1.0  -0.4821
  O  O975  1  0.137200  0.608800  0.635570  1.0  -0.4701
  O  O976  1  0.615030  0.819730  0.031310  1.0  -0.5725
  O  O977  1  0.600610  0.747710  0.030800  1.0  -0.564
  O  O978  1  0.664740  0.654950  0.108700  1.0  -0.5627
  O  O979  1  0.704370  0.684620  0.146020  1.0  -0.5623
  O  O980  1  0.796420  0.927720  0.312280  1.0  -0.5605
  O  O981  1  0.844820  0.953760  0.346010  1.0  -0.5585
  O  O982  1  0.876120  0.109160  0.347830  1.0  -0.5502
  O  O983  1  0.852140  0.153130  0.310720  1.0  -0.5563
  O  O984  1  0.609660  0.245010  0.143190  1.0  -0.5743
  O  O985  1  0.576410  0.289570  0.110130  1.0  -0.5641
  O  O986  1  0.486140  0.228390  0.031000  1.0  -0.5649
  O  O987  1  0.471740  0.156230  0.030630  1.0  -0.5499
  O  O988  1  0.665500  0.892770  0.105700  1.0  -0.4586
  O  O989  1  0.773930  0.985170  0.220330  1.0  -0.4821
  O  O990  1  0.637200  0.108800  0.135570  1.0  -0.4701
  O  O991  1  0.884970  0.680270  0.531310  1.0  -0.5726
  O  O992  1  0.899390  0.752290  0.530800  1.0  -0.5635
  O  O993  1  0.835260  0.845050  0.608700  1.0  -0.5627
  O  O994  1  0.795630  0.815380  0.646020  1.0  -0.5621
  O  O995  1  0.703580  0.572280  0.812280  1.0  -0.5599
  O  O996  1  0.655180  0.546240  0.846010  1.0  -0.5586
  O  O997  1  0.623880  0.390840  0.847830  1.0  -0.5504
  O  O998  1  0.647860  0.346870  0.810720  1.0  -0.5557
  O  O999  1  0.890340  0.254990  0.643190  1.0  -0.5737
  O  O1000  1  0.923590  0.210430  0.610130  1.0  -0.5648
  O  O1001  1  0.013860  0.271610  0.531000  1.0  -0.5662
  O  O1002  1  0.028260  0.343770  0.530630  1.0  -0.548
  O  O1003  1  0.834500  0.607230  0.605700  1.0  -0.4599
  O  O1004  1  0.726070  0.514830  0.720330  1.0  -0.48
  O  O1005  1  0.862800  0.391200  0.635570  1.0  -0.4715
  O  O1006  1  0.384970  0.180270  0.031310  1.0  -0.5726
  O  O1007  1  0.399390  0.252290  0.030800  1.0  -0.5635
  O  O1008  1  0.335260  0.345050  0.108700  1.0  -0.5627
  O  O1009  1  0.295630  0.315380  0.146020  1.0  -0.5621
  O  O1010  1  0.203580  0.072280  0.312280  1.0  -0.5599
  O  O1011  1  0.155180  0.046240  0.346010  1.0  -0.5586
  O  O1012  1  0.123880  0.890840  0.347830  1.0  -0.5504
  O  O1013  1  0.147860  0.846870  0.310720  1.0  -0.5557
  O  O1014  1  0.390340  0.754990  0.143190  1.0  -0.5737
  O  O1015  1  0.423590  0.710430  0.110130  1.0  -0.5648
  O  O1016  1  0.513860  0.771610  0.031000  1.0  -0.5662
  O  O1017  1  0.528260  0.843770  0.030630  1.0  -0.548
  O  O1018  1  0.334500  0.107230  0.105700  1.0  -0.4599
  O  O1019  1  0.226070  0.014830  0.220330  1.0  -0.48
  O  O1020  1  0.362800  0.891200  0.135570  1.0  -0.4715
  O  O1021  1  0.680270  0.115030  0.531310  1.0  -0.5728
  O  O1022  1  0.752290  0.100610  0.530800  1.0  -0.5641
  O  O1023  1  0.845050  0.164740  0.608700  1.0  -0.5628
  O  O1024  1  0.815380  0.204370  0.646020  1.0  -0.5624
  O  O1025  1  0.572280  0.296420  0.812280  1.0  -0.5604
  O  O1026  1  0.546240  0.344820  0.846010  1.0  -0.5589
  O  O1027  1  0.390840  0.376120  0.847830  1.0  -0.5506
  O  O1028  1  0.346870  0.352140  0.810720  1.0  -0.5554
  O  O1029  1  0.254990  0.109660  0.643190  1.0  -0.5743
  O  O1030  1  0.210430  0.076410  0.610130  1.0  -0.5641
  O  O1031  1  0.271610  0.986140  0.531000  1.0  -0.5642
  O  O1032  1  0.343770  0.971740  0.530630  1.0  -0.5505
  O  O1033  1  0.607230  0.165500  0.605700  1.0  -0.4595
  O  O1034  1  0.514830  0.273930  0.720330  1.0  -0.4824
  O  O1035  1  0.391200  0.137200  0.635570  1.0  -0.4718
  O  O1036  1  0.180270  0.615030  0.031310  1.0  -0.5728
  O  O1037  1  0.252290  0.600610  0.030800  1.0  -0.5641
  O  O1038  1  0.345050  0.664740  0.108700  1.0  -0.5628
  O  O1039  1  0.315380  0.704370  0.146020  1.0  -0.5624
  O  O1040  1  0.072280  0.796420  0.312280  1.0  -0.5604
  O  O1041  1  0.046240  0.844820  0.346010  1.0  -0.5589
  O  O1042  1  0.890840  0.876120  0.347830  1.0  -0.5506
  O  O1043  1  0.846870  0.852140  0.310720  1.0  -0.5554
  O  O1044  1  0.754990  0.609660  0.143190  1.0  -0.5743
  O  O1045  1  0.710430  0.576410  0.110130  1.0  -0.5641
  O  O1046  1  0.771610  0.486140  0.031000  1.0  -0.5642
  O  O1047  1  0.843770  0.471740  0.030630  1.0  -0.5505
  O  O1048  1  0.107230  0.665500  0.105700  1.0  -0.4595
  O  O1049  1  0.014830  0.773930  0.220330  1.0  -0.4824
  O  O1050  1  0.891200  0.637200  0.135570  1.0  -0.4718
  O  O1051  1  0.319730  0.884970  0.531310  1.0  -0.573
  O  O1052  1  0.247710  0.899390  0.530800  1.0  -0.5633
  O  O1053  1  0.154950  0.835260  0.608700  1.0  -0.5631
  O  O1054  1  0.184620  0.795630  0.646020  1.0  -0.5627
  O  O1055  1  0.427720  0.703580  0.812280  1.0  -0.5606
  O  O1056  1  0.453760  0.655180  0.846010  1.0  -0.5584
  O  O1057  1  0.609160  0.623880  0.847830  1.0  -0.5499
  O  O1058  1  0.653130  0.647860  0.810720  1.0  -0.5559
  O  O1059  1  0.745010  0.890340  0.643190  1.0  -0.5732
  O  O1060  1  0.789570  0.923590  0.610130  1.0  -0.5648
  O  O1061  1  0.728390  0.013860  0.531000  1.0  -0.5642
  O  O1062  1  0.656230  0.028260  0.530630  1.0  -0.5504
  O  O1063  1  0.392770  0.834500  0.605700  1.0  -0.4617
  O  O1064  1  0.485170  0.726070  0.720330  1.0  -0.4801
  O  O1065  1  0.608800  0.862800  0.635570  1.0  -0.4703
  O  O1066  1  0.819730  0.384970  0.031310  1.0  -0.573
  O  O1067  1  0.747710  0.399390  0.030800  1.0  -0.5633
  O  O1068  1  0.654950  0.335260  0.108700  1.0  -0.5631
  O  O1069  1  0.684620  0.295630  0.146020  1.0  -0.5627
  O  O1070  1  0.927720  0.203580  0.312280  1.0  -0.5606
  O  O1071  1  0.953760  0.155180  0.346010  1.0  -0.5584
  O  O1072  1  0.109160  0.123880  0.347830  1.0  -0.5499
  O  O1073  1  0.153130  0.147860  0.310720  1.0  -0.5559
  O  O1074  1  0.245010  0.390340  0.143190  1.0  -0.5732
  O  O1075  1  0.289570  0.423590  0.110130  1.0  -0.5648
  O  O1076  1  0.228390  0.513860  0.031000  1.0  -0.5642
  O  O1077  1  0.156230  0.528260  0.030630  1.0  -0.5504
  O  O1078  1  0.892770  0.334500  0.105700  1.0  -0.4617
  O  O1079  1  0.985170  0.226070  0.220330  1.0  -0.4801
  O  O1080  1  0.108800  0.362800  0.135570  1.0  -0.4703
  O  O1081  1  0.884970  0.680270  0.468690  1.0  -0.5726
  O  O1082  1  0.899390  0.752290  0.469200  1.0  -0.5636
  O  O1083  1  0.835260  0.845050  0.391300  1.0  -0.563
  O  O1084  1  0.795630  0.815380  0.353980  1.0  -0.5617
  O  O1085  1  0.703580  0.572280  0.187720  1.0  -0.5595
  O  O1086  1  0.655180  0.546240  0.153990  1.0  -0.5591
  O  O1087  1  0.623880  0.390840  0.152170  1.0  -0.5509
  O  O1088  1  0.647860  0.346870  0.189280  1.0  -0.5553
  O  O1089  1  0.890340  0.254990  0.356810  1.0  -0.5748
  O  O1090  1  0.923590  0.210430  0.389870  1.0  -0.5651
  O  O1091  1  0.013860  0.271610  0.469000  1.0  -0.5662
  O  O1092  1  0.028260  0.343770  0.469370  1.0  -0.5481
  O  O1093  1  0.834500  0.607230  0.394300  1.0  -0.4604
  O  O1094  1  0.726070  0.514830  0.279670  1.0  -0.4802
  O  O1095  1  0.862800  0.391200  0.364430  1.0  -0.4712
  O  O1096  1  0.384970  0.180270  0.968690  1.0  -0.5726
  O  O1097  1  0.399390  0.252290  0.969200  1.0  -0.5636
  O  O1098  1  0.335260  0.345050  0.891300  1.0  -0.563
  O  O1099  1  0.295630  0.315380  0.853980  1.0  -0.5617
  O  O1100  1  0.203580  0.072280  0.687720  1.0  -0.5595
  O  O1101  1  0.155180  0.046240  0.653990  1.0  -0.5591
  O  O1102  1  0.123880  0.890840  0.652170  1.0  -0.5509
  O  O1103  1  0.147860  0.846870  0.689280  1.0  -0.5553
  O  O1104  1  0.390340  0.754990  0.856810  1.0  -0.5748
  O  O1105  1  0.423590  0.710430  0.889870  1.0  -0.5651
  O  O1106  1  0.513860  0.771610  0.969000  1.0  -0.5662
  O  O1107  1  0.528260  0.843770  0.969370  1.0  -0.5481
  O  O1108  1  0.334500  0.107230  0.894300  1.0  -0.4604
  O  O1109  1  0.226070  0.014830  0.779670  1.0  -0.4802
  O  O1110  1  0.362800  0.891200  0.864430  1.0  -0.4712
  O  O1111  1  0.115030  0.319730  0.468690  1.0  -0.5721
  O  O1112  1  0.100610  0.247710  0.469200  1.0  -0.5641
  O  O1113  1  0.164740  0.154950  0.391300  1.0  -0.5627
  O  O1114  1  0.204370  0.184620  0.353980  1.0  -0.5622
  O  O1115  1  0.296420  0.427720  0.187720  1.0  -0.5599
  O  O1116  1  0.344820  0.453760  0.153990  1.0  -0.5588
  O  O1117  1  0.376120  0.609160  0.152170  1.0  -0.5504
  O  O1118  1  0.352140  0.653130  0.189280  1.0  -0.5562
  O  O1119  1  0.109660  0.745010  0.356810  1.0  -0.575
  O  O1120  1  0.076410  0.789570  0.389870  1.0  -0.565
  O  O1121  1  0.986140  0.728390  0.469000  1.0  -0.5647
  O  O1122  1  0.971740  0.656230  0.469370  1.0  -0.5499
  O  O1123  1  0.165500  0.392770  0.394300  1.0  -0.4596
  O  O1124  1  0.273930  0.485170  0.279670  1.0  -0.482
  O  O1125  1  0.137200  0.608800  0.364430  1.0  -0.4704
  O  O1126  1  0.615030  0.819730  0.968690  1.0  -0.5721
  O  O1127  1  0.600610  0.747710  0.969200  1.0  -0.5641
  O  O1128  1  0.664740  0.654950  0.891300  1.0  -0.5627
  O  O1129  1  0.704370  0.684620  0.853980  1.0  -0.5622
  O  O1130  1  0.796420  0.927720  0.687720  1.0  -0.5599
  O  O1131  1  0.844820  0.953760  0.653990  1.0  -0.5588
  O  O1132  1  0.876120  0.109160  0.652170  1.0  -0.5504
  O  O1133  1  0.852140  0.153130  0.689280  1.0  -0.5562
  O  O1134  1  0.609660  0.245010  0.856810  1.0  -0.575
  O  O1135  1  0.576410  0.289570  0.889870  1.0  -0.565
  O  O1136  1  0.486140  0.228390  0.969000  1.0  -0.5647
  O  O1137  1  0.471740  0.156230  0.969370  1.0  -0.5499
  O  O1138  1  0.665500  0.892770  0.894300  1.0  -0.4596
  O  O1139  1  0.773930  0.985170  0.779670  1.0  -0.482
  O  O1140  1  0.637200  0.108800  0.864430  1.0  -0.4704
  O  O1141  1  0.319730  0.884970  0.468690  1.0  -0.5735
  O  O1142  1  0.247710  0.899390  0.469200  1.0  -0.5634
  O  O1143  1  0.154950  0.835260  0.391300  1.0  -0.563
  O  O1144  1  0.184620  0.795630  0.353980  1.0  -0.5622
  O  O1145  1  0.427720  0.703580  0.187720  1.0  -0.5605
  O  O1146  1  0.453760  0.655180  0.153990  1.0  -0.5579
  O  O1147  1  0.609160  0.623880  0.152170  1.0  -0.5508
  O  O1148  1  0.653130  0.647860  0.189280  1.0  -0.5553
  O  O1149  1  0.745010  0.890340  0.356810  1.0  -0.5744
  O  O1150  1  0.789570  0.923590  0.389870  1.0  -0.5648
  O  O1151  1  0.728390  0.013860  0.469000  1.0  -0.5646
  O  O1152  1  0.656230  0.028260  0.469370  1.0  -0.5504
  O  O1153  1  0.392770  0.834500  0.394300  1.0  -0.4624
  O  O1154  1  0.485170  0.726070  0.279670  1.0  -0.4804
  O  O1155  1  0.608800  0.862800  0.364430  1.0  -0.4714
  O  O1156  1  0.819730  0.384970  0.968690  1.0  -0.5735
  O  O1157  1  0.747710  0.399390  0.969200  1.0  -0.5634
  O  O1158  1  0.654950  0.335260  0.891300  1.0  -0.563
  O  O1159  1  0.684620  0.295630  0.853980  1.0  -0.5622
  O  O1160  1  0.927720  0.203580  0.687720  1.0  -0.5605
  O  O1161  1  0.953760  0.155180  0.653990  1.0  -0.5579
  O  O1162  1  0.109160  0.123880  0.652170  1.0  -0.5508
  O  O1163  1  0.153130  0.147860  0.689280  1.0  -0.5553
  O  O1164  1  0.245010  0.390340  0.856810  1.0  -0.5744
  O  O1165  1  0.289570  0.423590  0.889870  1.0  -0.5648
  O  O1166  1  0.228390  0.513860  0.969000  1.0  -0.5646
  O  O1167  1  0.156230  0.528260  0.969370  1.0  -0.5504
  O  O1168  1  0.892770  0.334500  0.894300  1.0  -0.4624
  O  O1169  1  0.985170  0.226070  0.779670  1.0  -0.4804
  O  O1170  1  0.108800  0.362800  0.864430  1.0  -0.4714
  O  O1171  1  0.680270  0.115030  0.468690  1.0  -0.5724
  O  O1172  1  0.752290  0.100610  0.469200  1.0  -0.5643
  O  O1173  1  0.845050  0.164740  0.391300  1.0  -0.5629
  O  O1174  1  0.815380  0.204370  0.353980  1.0  -0.5627
  O  O1175  1  0.572280  0.296420  0.187720  1.0  -0.5603
  O  O1176  1  0.546240  0.344820  0.153990  1.0  -0.5589
  O  O1177  1  0.390840  0.376120  0.152170  1.0  -0.5508
  O  O1178  1  0.346870  0.352140  0.189280  1.0  -0.5553
  O  O1179  1  0.254990  0.109660  0.356810  1.0  -0.5749
  O  O1180  1  0.210430  0.076410  0.389870  1.0  -0.5645
  O  O1181  1  0.271610  0.986140  0.469000  1.0  -0.5639
  O  O1182  1  0.343770  0.971740  0.469370  1.0  -0.5507
  O  O1183  1  0.607230  0.165500  0.394300  1.0  -0.4602
  O  O1184  1  0.514830  0.273930  0.279670  1.0  -0.4821
  O  O1185  1  0.391200  0.137200  0.364430  1.0  -0.4709
  O  O1186  1  0.180270  0.615030  0.968690  1.0  -0.5724
  O  O1187  1  0.252290  0.600610  0.969200  1.0  -0.5643
  O  O1188  1  0.345050  0.664740  0.891300  1.0  -0.5629
  O  O1189  1  0.315380  0.704370  0.853980  1.0  -0.5627
  O  O1190  1  0.072280  0.796420  0.687720  1.0  -0.5603
  O  O1191  1  0.046240  0.844820  0.653990  1.0  -0.5589
  O  O1192  1  0.890840  0.876120  0.652170  1.0  -0.5508
  O  O1193  1  0.846870  0.852140  0.689280  1.0  -0.5553
  O  O1194  1  0.754990  0.609660  0.856810  1.0  -0.5749
  O  O1195  1  0.710430  0.576410  0.889870  1.0  -0.5645
  O  O1196  1  0.771610  0.486140  0.969000  1.0  -0.5639
  O  O1197  1  0.843770  0.471740  0.969370  1.0  -0.5507
  O  O1198  1  0.107230  0.665500  0.894300  1.0  -0.4602
  O  O1199  1  0.014830  0.773930  0.779670  1.0  -0.4821
  O  O1200  1  0.891200  0.637200  0.864430  1.0  -0.4709
