# generated using pymatgen
data_In3H38C68(NO6)4
_symmetry_space_group_name_H-M   'P 1'
_cell_length_a   27.29590000
_cell_length_b   27.29590000
_cell_length_c   28.08960000
_cell_angle_alpha   90.00000000
_cell_angle_beta   90.00000000
_cell_angle_gamma   120.00000000
_symmetry_Int_Tables_number   1
_chemical_formula_structural   In3H38C68(NO6)4
_chemical_formula_sum   'In18 H228 C408 N24 O144'
_cell_volume   18124.70820158
_cell_formula_units_Z   6
loop_
 _symmetry_equiv_pos_site_id
 _symmetry_equiv_pos_as_xyz
  1  'x, y, z'
loop_
 _atom_site_type_symbol
 _atom_site_label
 _atom_site_symmetry_multiplicity
 _atom_site_fract_x
 _atom_site_fract_y
 _atom_site_fract_z
 _atom_site_occupancy
 _atom_site_charge
  In  In1  1  0.210200  0.727800  0.428100  1.0  1.6112
  In  In2  1  0.848400  0.458200  0.426000  1.0  1.6507
  In  In3  1  0.942200  0.816130  0.526500  1.0  1.6389
  In  In4  1  0.727800  0.210200  0.928100  1.0  1.6101
  In  In5  1  0.458200  0.848400  0.926000  1.0  1.6488
  In  In6  1  0.816130  0.942200  0.026500  1.0  1.6385
  In  In7  1  0.517600  0.789800  0.428100  1.0  1.6105
  In  In8  1  0.609800  0.151600  0.426000  1.0  1.6504
  In  In9  1  0.873930  0.057800  0.526500  1.0  1.639
  In  In10  1  0.482400  0.272200  0.928100  1.0  1.6109
  In  In11  1  0.390200  0.541800  0.926000  1.0  1.6516
  In  In12  1  0.126070  0.183870  0.026500  1.0  1.6384
  In  In13  1  0.272200  0.482400  0.428100  1.0  1.6137
  In  In14  1  0.541800  0.390200  0.426000  1.0  1.6483
  In  In15  1  0.183870  0.126070  0.526500  1.0  1.6412
  In  In16  1  0.789800  0.517600  0.928100  1.0  1.6136
  In  In17  1  0.151600  0.609800  0.926000  1.0  1.6476
  In  In18  1  0.057800  0.873930  0.026500  1.0  1.6411
  H  H19  1  0.864000  0.623000  0.494000  1.0  0.1344
  H  H20  1  0.702700  0.515800  0.468300  1.0  0.143
  H  H21  1  0.750300  0.669300  0.523800  1.0  0.1518
  H  H22  1  0.042600  0.565100  0.429300  1.0  0.1474
  H  H23  1  0.159200  0.530800  0.482100  1.0  0.1422
  H  H24  1  0.005500  0.407600  0.450700  1.0  0.1445
  H  H25  1  0.088200  0.798000  0.472000  1.0  0.1633
  H  H26  1  0.151200  0.969000  0.496700  1.0  0.1334
  H  H27  1  0.931700  0.808200  0.349700  1.0  0.16
  H  H28  1  0.932500  0.845400  0.281600  1.0  0.0772
  H  H29  1  0.898700  0.955500  0.339700  1.0  0.1504
  H  H30  1  0.904500  0.917600  0.412600  1.0  0.0953
  H  H31  1  0.955400  0.911700  0.222900  1.0  0.1074
  H  H32  1  0.920800  0.902800  0.135500  1.0  0.2041
  H  H33  1  0.809400  0.951100  0.194900  1.0  0.1454
  H  H34  1  0.830700  0.927100  0.277300  1.0  0.2061
  H  H35  1  0.456900  0.853800  0.123300  1.0  0.138
  H  H36  1  0.415400  0.822100  0.197500  1.0  0.1678
  H  H37  1  0.273500  0.728500  0.121500  1.0  0.1375
  H  H38  1  0.317600  0.752600  0.047200  1.0  0.1488
  H  H39  1  0.389200  0.787000  0.246200  1.0  0.1888
  H  H40  1  0.354600  0.772000  0.322300  1.0  0.1461
  H  H41  1  0.203900  0.714100  0.267900  1.0  0.1221
  H  H42  1  0.233500  0.732100  0.190500  1.0  0.1575
  H  H43  1  0.320200  0.737900  0.824600  1.0  0.1555
  H  H44  1  0.283900  0.718700  0.746500  1.0  0.1323
  H  H45  1  0.432500  0.835200  0.692100  1.0  0.148
  H  H46  1  0.472600  0.856200  0.768900  1.0  0.1611
  H  H47  1  0.248700  0.735500  0.682400  1.0  0.139
  H  H48  1  0.211700  0.733800  0.608700  1.0  0.1523
  H  H49  1  0.358500  0.770300  0.546100  1.0  0.1481
  H  H50  1  0.384700  0.754100  0.619800  1.0  0.1172
  H  H51  1  0.623000  0.864000  0.994000  1.0  0.1341
  H  H52  1  0.515800  0.702700  0.968300  1.0  0.1426
  H  H53  1  0.669300  0.750300  0.023800  1.0  0.1508
  H  H54  1  0.565100  0.042600  0.929300  1.0  0.148
  H  H55  1  0.530800  0.159200  0.982100  1.0  0.1429
  H  H56  1  0.407600  0.005500  0.950700  1.0  0.1443
  H  H57  1  0.798000  0.088200  0.972000  1.0  0.1617
  H  H58  1  0.969000  0.151200  0.996700  1.0  0.1324
  H  H59  1  0.808200  0.931700  0.849700  1.0  0.1601
  H  H60  1  0.845400  0.932500  0.781600  1.0  0.0775
  H  H61  1  0.955500  0.898700  0.839700  1.0  0.152
  H  H62  1  0.917600  0.904500  0.912600  1.0  0.0951
  H  H63  1  0.911700  0.955400  0.722900  1.0  0.1078
  H  H64  1  0.902800  0.920800  0.635500  1.0  0.2026
  H  H65  1  0.951100  0.809400  0.694900  1.0  0.1459
  H  H66  1  0.927100  0.830700  0.777300  1.0  0.2086
  H  H67  1  0.853800  0.456900  0.623300  1.0  0.1383
  H  H68  1  0.822100  0.415400  0.697500  1.0  0.1677
  H  H69  1  0.728500  0.273500  0.621500  1.0  0.1386
  H  H70  1  0.752600  0.317600  0.547200  1.0  0.1491
  H  H71  1  0.787000  0.389200  0.746200  1.0  0.1886
  H  H72  1  0.772000  0.354600  0.822300  1.0  0.1458
  H  H73  1  0.714100  0.203900  0.767900  1.0  0.1199
  H  H74  1  0.732100  0.233500  0.690500  1.0  0.1597
  H  H75  1  0.737900  0.320200  0.324600  1.0  0.1542
  H  H76  1  0.718700  0.283900  0.246500  1.0  0.1335
  H  H77  1  0.835200  0.432500  0.192100  1.0  0.1458
  H  H78  1  0.856200  0.472600  0.268900  1.0  0.1596
  H  H79  1  0.735500  0.248700  0.182400  1.0  0.1391
  H  H80  1  0.733800  0.211700  0.108700  1.0  0.1512
  H  H81  1  0.770300  0.358500  0.046100  1.0  0.1479
  H  H82  1  0.754100  0.384700  0.119800  1.0  0.1154
  H  H83  1  0.759000  0.136000  0.494000  1.0  0.1345
  H  H84  1  0.813100  0.297300  0.468300  1.0  0.1428
  H  H85  1  0.919000  0.249700  0.523800  1.0  0.1511
  H  H86  1  0.522500  0.957400  0.429300  1.0  0.1479
  H  H87  1  0.371600  0.840800  0.482100  1.0  0.1443
  H  H88  1  0.402100  0.994500  0.450700  1.0  0.1441
  H  H89  1  0.709800  0.911800  0.472000  1.0  0.1619
  H  H90  1  0.817800  0.848800  0.496700  1.0  0.1324
  H  H91  1  0.876500  0.068300  0.349700  1.0  0.16
  H  H92  1  0.912900  0.067500  0.281600  1.0  0.077
  H  H93  1  0.056800  0.101300  0.339700  1.0  0.1515
  H  H94  1  0.013100  0.095500  0.412600  1.0  0.0949
  H  H95  1  0.956300  0.044600  0.222900  1.0  0.1076
  H  H96  1  0.982000  0.079200  0.135500  1.0  0.2031
  H  H97  1  0.141700  0.190600  0.194900  1.0  0.1459
  H  H98  1  0.096400  0.169300  0.277300  1.0  0.2083
  H  H99  1  0.396900  0.543100  0.123300  1.0  0.1379
  H  H100  1  0.406700  0.584600  0.197500  1.0  0.1671
  H  H101  1  0.455000  0.726500  0.121500  1.0  0.138
  H  H102  1  0.435000  0.682400  0.047200  1.0  0.1489
  H  H103  1  0.397800  0.610800  0.246200  1.0  0.1891
  H  H104  1  0.417400  0.645400  0.322300  1.0  0.1458
  H  H105  1  0.510200  0.796100  0.267900  1.0  0.1181
  H  H106  1  0.498600  0.766500  0.190500  1.0  0.1603
  H  H107  1  0.417700  0.679800  0.824600  1.0  0.1543
  H  H108  1  0.434800  0.716100  0.746500  1.0  0.1335
  H  H109  1  0.402700  0.567500  0.692100  1.0  0.1458
  H  H110  1  0.383600  0.527400  0.768900  1.0  0.1605
  H  H111  1  0.486800  0.751300  0.682400  1.0  0.1393
  H  H112  1  0.522100  0.788300  0.608700  1.0  0.1505
  H  H113  1  0.411800  0.641500  0.546100  1.0  0.1476
  H  H114  1  0.369400  0.615300  0.619800  1.0  0.1152
  H  H115  1  0.241000  0.377000  0.994000  1.0  0.1341
  H  H116  1  0.186900  0.484200  0.968300  1.0  0.1428
  H  H117  1  0.081000  0.330700  0.023800  1.0  0.1518
  H  H118  1  0.477500  0.434900  0.929300  1.0  0.1469
  H  H119  1  0.628400  0.469200  0.982100  1.0  0.1421
  H  H120  1  0.597900  0.592400  0.950700  1.0  0.1442
  H  H121  1  0.290200  0.202000  0.972000  1.0  0.1635
  H  H122  1  0.182200  0.031000  0.996700  1.0  0.1331
  H  H123  1  0.123500  0.191800  0.849700  1.0  0.1597
  H  H124  1  0.087100  0.154600  0.781600  1.0  0.0775
  H  H125  1  0.943200  0.044500  0.839700  1.0  0.1505
  H  H126  1  0.986900  0.082400  0.912600  1.0  0.095
  H  H127  1  0.043700  0.088300  0.722900  1.0  0.1076
  H  H128  1  0.018000  0.097200  0.635500  1.0  0.204
  H  H129  1  0.858300  0.048900  0.694900  1.0  0.1454
  H  H130  1  0.903600  0.072900  0.777300  1.0  0.2062
  H  H131  1  0.603100  0.146200  0.623300  1.0  0.1382
  H  H132  1  0.593300  0.177900  0.697500  1.0  0.168
  H  H133  1  0.545000  0.271500  0.621500  1.0  0.1374
  H  H134  1  0.565000  0.247400  0.547200  1.0  0.1488
  H  H135  1  0.602200  0.213000  0.746200  1.0  0.1904
  H  H136  1  0.582600  0.228000  0.822300  1.0  0.146
  H  H137  1  0.489800  0.285900  0.767900  1.0  0.122
  H  H138  1  0.501400  0.267900  0.690500  1.0  0.1576
  H  H139  1  0.582300  0.262100  0.324600  1.0  0.1549
  H  H140  1  0.565200  0.281300  0.246500  1.0  0.1324
  H  H141  1  0.597300  0.164800  0.192100  1.0  0.1473
  H  H142  1  0.616400  0.143800  0.268900  1.0  0.1612
  H  H143  1  0.513200  0.264500  0.182400  1.0  0.1389
  H  H144  1  0.477900  0.266200  0.108700  1.0  0.1522
  H  H145  1  0.588200  0.229700  0.046100  1.0  0.1481
  H  H146  1  0.630600  0.245900  0.119800  1.0  0.1188
  H  H147  1  0.377000  0.241000  0.494000  1.0  0.1333
  H  H148  1  0.484200  0.186900  0.468300  1.0  0.1429
  H  H149  1  0.330700  0.081000  0.523800  1.0  0.1519
  H  H150  1  0.434900  0.477500  0.429300  1.0  0.1479
  H  H151  1  0.469200  0.628400  0.482100  1.0  0.1438
  H  H152  1  0.592400  0.597900  0.450700  1.0  0.1441
  H  H153  1  0.202000  0.290200  0.472000  1.0  0.1602
  H  H154  1  0.031000  0.182200  0.496700  1.0  0.1326
  H  H155  1  0.191800  0.123500  0.349700  1.0  0.1597
  H  H156  1  0.154600  0.087100  0.281600  1.0  0.0774
  H  H157  1  0.044500  0.943200  0.339700  1.0  0.1502
  H  H158  1  0.082400  0.986900  0.412600  1.0  0.0942
  H  H159  1  0.088300  0.043700  0.222900  1.0  0.107
  H  H160  1  0.097200  0.018000  0.135500  1.0  0.2053
  H  H161  1  0.048900  0.858300  0.194900  1.0  0.1459
  H  H162  1  0.072900  0.903600  0.277300  1.0  0.2076
  H  H163  1  0.146200  0.603100  0.123300  1.0  0.1406
  H  H164  1  0.177900  0.593300  0.197500  1.0  0.1679
  H  H165  1  0.271500  0.545000  0.121500  1.0  0.1362
  H  H166  1  0.247400  0.565000  0.047200  1.0  0.149
  H  H167  1  0.213000  0.602200  0.246200  1.0  0.1883
  H  H168  1  0.228000  0.582600  0.322300  1.0  0.1463
  H  H169  1  0.285900  0.489800  0.267900  1.0  0.1205
  H  H170  1  0.267900  0.501400  0.190500  1.0  0.161
  H  H171  1  0.262100  0.582300  0.824600  1.0  0.1553
  H  H172  1  0.281300  0.565200  0.746500  1.0  0.1354
  H  H173  1  0.164800  0.597300  0.692100  1.0  0.1454
  H  H174  1  0.143800  0.616400  0.768900  1.0  0.1609
  H  H175  1  0.264500  0.513200  0.682400  1.0  0.1426
  H  H176  1  0.266200  0.477900  0.608700  1.0  0.151
  H  H177  1  0.229700  0.588200  0.546100  1.0  0.1478
  H  H178  1  0.245900  0.630600  0.619800  1.0  0.1161
  H  H179  1  0.136000  0.759000  0.994000  1.0  0.1327
  H  H180  1  0.297300  0.813100  0.968300  1.0  0.1428
  H  H181  1  0.249700  0.919000  0.023800  1.0  0.1518
  H  H182  1  0.957400  0.522500  0.929300  1.0  0.1478
  H  H183  1  0.840800  0.371600  0.982100  1.0  0.1439
  H  H184  1  0.994500  0.402100  0.950700  1.0  0.1438
  H  H185  1  0.911800  0.709800  0.972000  1.0  0.16
  H  H186  1  0.848800  0.817800  0.996700  1.0  0.1323
  H  H187  1  0.068300  0.876500  0.849700  1.0  0.1599
  H  H188  1  0.067500  0.912900  0.781600  1.0  0.0776
  H  H189  1  0.101300  0.056800  0.839700  1.0  0.1501
  H  H190  1  0.095500  0.013100  0.912600  1.0  0.0943
  H  H191  1  0.044600  0.956300  0.722900  1.0  0.1067
  H  H192  1  0.079200  0.982000  0.635500  1.0  0.2047
  H  H193  1  0.190600  0.141700  0.694900  1.0  0.1462
  H  H194  1  0.169300  0.096400  0.777300  1.0  0.2069
  H  H195  1  0.543100  0.396900  0.623300  1.0  0.1401
  H  H196  1  0.584600  0.406700  0.697500  1.0  0.1679
  H  H197  1  0.726500  0.455000  0.621500  1.0  0.1367
  H  H198  1  0.682400  0.435000  0.547200  1.0  0.1488
  H  H199  1  0.610800  0.397800  0.746200  1.0  0.1886
  H  H200  1  0.645400  0.417400  0.822300  1.0  0.1463
  H  H201  1  0.796100  0.510200  0.767900  1.0  0.1198
  H  H202  1  0.766500  0.498600  0.690500  1.0  0.1623
  H  H203  1  0.679800  0.417700  0.324600  1.0  0.1553
  H  H204  1  0.716100  0.434800  0.246500  1.0  0.1351
  H  H205  1  0.567500  0.402700  0.192100  1.0  0.1455
  H  H206  1  0.527400  0.383600  0.268900  1.0  0.1611
  H  H207  1  0.751300  0.486800  0.182400  1.0  0.1435
  H  H208  1  0.788300  0.522100  0.108700  1.0  0.1504
  H  H209  1  0.641500  0.411800  0.046100  1.0  0.1476
  H  H210  1  0.615300  0.369400  0.119800  1.0  0.1165
  H  H211  1  0.637700  0.078700  0.034800  1.0  0.1814
  H  H212  1  0.625100  0.088900  0.087200  1.0  0.1824
  H  H213  1  0.575000  0.054300  0.051800  1.0  0.1851
  H  H214  1  0.613300  0.944100  0.040200  1.0  0.187
  H  H215  1  0.551100  0.931300  0.048100  1.0  0.1827
  H  H216  1  0.584700  0.924300  0.090300  1.0  0.1796
  H  H217  1  0.441000  0.362300  0.034800  1.0  0.1825
  H  H218  1  0.463800  0.374900  0.087200  1.0  0.1841
  H  H219  1  0.479300  0.425000  0.051800  1.0  0.1867
  H  H220  1  0.330800  0.386700  0.040200  1.0  0.1885
  H  H221  1  0.380200  0.448900  0.048100  1.0  0.1834
  H  H222  1  0.339600  0.415300  0.090300  1.0  0.1787
  H  H223  1  0.921300  0.559000  0.034800  1.0  0.1825
  H  H224  1  0.911100  0.536200  0.087200  1.0  0.1821
  H  H225  1  0.945700  0.520700  0.051800  1.0  0.1851
  H  H226  1  0.055900  0.669200  0.040200  1.0  0.1868
  H  H227  1  0.068700  0.619800  0.048100  1.0  0.1829
  H  H228  1  0.075700  0.660400  0.090300  1.0  0.179
  H  H229  1  0.559000  0.921300  0.534800  1.0  0.1822
  H  H230  1  0.536200  0.911100  0.587200  1.0  0.1821
  H  H231  1  0.520700  0.945700  0.551800  1.0  0.1849
  H  H232  1  0.669200  0.055900  0.540200  1.0  0.1872
  H  H233  1  0.619800  0.068700  0.548100  1.0  0.1822
  H  H234  1  0.660400  0.075700  0.590300  1.0  0.1794
  H  H235  1  0.078700  0.637700  0.534800  1.0  0.1827
  H  H236  1  0.088900  0.625100  0.587200  1.0  0.1838
  H  H237  1  0.054300  0.575000  0.551800  1.0  0.1868
  H  H238  1  0.944100  0.613300  0.540200  1.0  0.1887
  H  H239  1  0.931300  0.551100  0.548100  1.0  0.1833
  H  H240  1  0.924300  0.584700  0.590300  1.0  0.1785
  H  H241  1  0.362300  0.441000  0.534800  1.0  0.1829
  H  H242  1  0.374900  0.463800  0.587200  1.0  0.1827
  H  H243  1  0.425000  0.479300  0.551800  1.0  0.1849
  H  H244  1  0.386700  0.330800  0.540200  1.0  0.1872
  H  H245  1  0.448900  0.380200  0.548100  1.0  0.1825
  H  H246  1  0.415300  0.339600  0.590300  1.0  0.1795
  C  C247  1  0.858600  0.714900  0.523500  1.0  0.7399
  C  C248  1  0.816300  0.657500  0.508400  1.0  -0.0618
  C  C249  1  0.827000  0.615900  0.491500  1.0  -0.0044
  C  C250  1  0.787700  0.564700  0.471100  1.0  -0.0078
  C  C251  1  0.803200  0.528800  0.449600  1.0  0.5857
  C  C252  1  0.731800  0.551400  0.477200  1.0  -0.0581
  C  C253  1  0.718700  0.590400  0.496400  1.0  0.1805
  C  C254  1  0.760000  0.643600  0.511700  1.0  -0.0458
  C  C255  1  0.956100  0.473900  0.434600  1.0  0.5553
  C  C256  1  0.009200  0.483200  0.448000  1.0  0.0275
  C  C257  1  0.051600  0.539200  0.442200  1.0  -0.0348
  C  C258  1  0.107000  0.557000  0.455200  1.0  -0.1249
  C  C259  1  0.148000  0.618500  0.443400  1.0  0.4019
  C  C260  1  0.121800  0.519200  0.474400  1.0  -0.0145
  C  C261  1  0.079300  0.463600  0.481700  1.0  0.0447
  C  C262  1  0.027900  0.445600  0.458900  1.0  0.0055
  C  C263  1  0.191500  0.817200  0.449800  1.0  0.6101
  C  C264  1  0.173800  0.851100  0.455000  1.0  0.0723
  C  C265  1  0.117600  0.835300  0.473200  1.0  -0.0057
  C  C266  1  0.108400  0.883000  0.494600  1.0  -0.0372
  C  C267  1  0.054400  0.870400  0.502400  1.0  0.6489
  C  C268  1  0.154300  0.938800  0.484900  1.0  -0.0519
  C  C269  1  0.203000  0.951700  0.459500  1.0  0.1513
  C  C270  1  0.229100  0.919500  0.454900  1.0  -0.0118
  C  C271  1  0.924300  0.843800  0.432900  1.0  0.4557
  C  C272  1  0.920200  0.863000  0.390000  1.0  0.2878
  C  C273  1  0.925700  0.838900  0.348400  1.0  -0.139
  C  C274  1  0.922500  0.858800  0.308200  1.0  -0.062
  C  C275  1  0.906600  0.897000  0.300400  1.0  0.1266
  C  C276  1  0.903900  0.924300  0.341100  1.0  -0.1808
  C  C277  1  0.909400  0.901800  0.385000  1.0  -0.0891
  C  C278  1  0.893500  0.910400  0.251100  1.0  0.2193
  C  C279  1  0.921800  0.911400  0.216400  1.0  -0.0527
  C  C280  1  0.906700  0.912500  0.161800  1.0  -0.0965
  C  C281  1  0.864000  0.933200  0.162400  1.0  -0.0916
  C  C282  1  0.835700  0.939300  0.199500  1.0  -0.0368
  C  C283  1  0.849200  0.925600  0.250000  1.0  -0.0733
  C  C284  1  0.847200  0.936800  0.111300  1.0  0.6236
  C  C285  1  0.413200  0.822100  0.033100  1.0  0.3239
  C  C286  1  0.392800  0.810200  0.079600  1.0  -0.018
  C  C287  1  0.418700  0.826800  0.123900  1.0  -0.023
  C  C288  1  0.395700  0.808800  0.169000  1.0  -0.1355
  C  C289  1  0.338700  0.767900  0.165200  1.0  0.0358
  C  C290  1  0.312500  0.752500  0.120900  1.0  -0.0531
  C  C291  1  0.336500  0.768100  0.075700  1.0  -0.0519
  C  C292  1  0.316200  0.760800  0.210900  1.0  0.0908
  C  C293  1  0.350600  0.772500  0.250700  1.0  -0.1445
  C  C294  1  0.329800  0.763500  0.296900  1.0  -0.0807
  C  C295  1  0.272500  0.742000  0.306000  1.0  0.008
  C  C296  1  0.242800  0.731000  0.263500  1.0  -0.0798
  C  C297  1  0.258300  0.739500  0.215700  1.0  -0.1028
  C  C298  1  0.247400  0.733800  0.350600  1.0  0.4964
  C  C299  1  0.424000  0.812000  0.845500  1.0  0.2676
  C  C300  1  0.399000  0.797700  0.800700  1.0  0.0661
  C  C301  1  0.342300  0.755900  0.798000  1.0  -0.0521
  C  C302  1  0.322100  0.744000  0.751600  1.0  -0.0683
  C  C303  1  0.357300  0.768800  0.712500  1.0  -0.0362
  C  C304  1  0.411900  0.814400  0.718300  1.0  0.0138
  C  C305  1  0.435300  0.828300  0.763600  1.0  -0.0728
  C  C306  1  0.325100  0.749300  0.662000  1.0  -0.0344
  C  C307  1  0.270700  0.740200  0.655600  1.0  -0.1181
  C  C308  1  0.247500  0.737800  0.611000  1.0  -0.1377
  C  C309  1  0.277000  0.741200  0.569600  1.0  0.0532
  C  C310  1  0.334200  0.758000  0.572100  1.0  -0.0544
  C  C311  1  0.350500  0.753800  0.618100  1.0  -0.0282
  C  C312  1  0.254200  0.742700  0.525800  1.0  0.4442
  C  C313  1  0.714900  0.858600  0.023500  1.0  0.7391
  C  C314  1  0.657500  0.816300  0.008400  1.0  -0.0628
  C  C315  1  0.615900  0.827000  0.991500  1.0  -0.0044
  C  C316  1  0.564700  0.787700  0.971100  1.0  -0.0093
  C  C317  1  0.528800  0.803200  0.949600  1.0  0.5813
  C  C318  1  0.551400  0.731800  0.977200  1.0  -0.0584
  C  C319  1  0.590400  0.718700  0.996400  1.0  0.1838
  C  C320  1  0.643600  0.760000  0.011700  1.0  -0.0469
  C  C321  1  0.473900  0.956100  0.934600  1.0  0.5571
  C  C322  1  0.483200  0.009200  0.948000  1.0  0.0279
  C  C323  1  0.539200  0.051600  0.942200  1.0  -0.0327
  C  C324  1  0.557000  0.107000  0.955200  1.0  -0.1244
  C  C325  1  0.618500  0.148000  0.943400  1.0  0.4033
  C  C326  1  0.519200  0.121800  0.974400  1.0  -0.016
  C  C327  1  0.463600  0.079300  0.981700  1.0  0.0485
  C  C328  1  0.445600  0.027900  0.958900  1.0  0.0055
  C  C329  1  0.817200  0.191500  0.949800  1.0  0.6086
  C  C330  1  0.851100  0.173800  0.955000  1.0  0.072
  C  C331  1  0.835300  0.117600  0.973200  1.0  -0.0032
  C  C332  1  0.883000  0.108400  0.994600  1.0  -0.0376
  C  C333  1  0.870400  0.054400  0.002400  1.0  0.6462
  C  C334  1  0.938800  0.154300  0.984900  1.0  -0.054
  C  C335  1  0.951700  0.203000  0.959500  1.0  0.1496
  C  C336  1  0.919500  0.229100  0.954900  1.0  -0.015
  C  C337  1  0.843800  0.924300  0.932900  1.0  0.4536
  C  C338  1  0.863000  0.920200  0.890000  1.0  0.2781
  C  C339  1  0.838900  0.925700  0.848400  1.0  -0.1372
  C  C340  1  0.858800  0.922500  0.808200  1.0  -0.0577
  C  C341  1  0.897000  0.906600  0.800400  1.0  0.1277
  C  C342  1  0.924300  0.903900  0.841100  1.0  -0.1824
  C  C343  1  0.901800  0.909400  0.885000  1.0  -0.0861
  C  C344  1  0.910400  0.893500  0.751100  1.0  0.2217
  C  C345  1  0.911400  0.921800  0.716400  1.0  -0.0505
  C  C346  1  0.912500  0.906700  0.661800  1.0  -0.0937
  C  C347  1  0.933200  0.864000  0.662400  1.0  -0.0904
  C  C348  1  0.939300  0.835700  0.699500  1.0  -0.0414
  C  C349  1  0.925600  0.849200  0.750000  1.0  -0.0728
  C  C350  1  0.936800  0.847200  0.611300  1.0  0.6234
  C  C351  1  0.822100  0.413200  0.533100  1.0  0.3238
  C  C352  1  0.810200  0.392800  0.579600  1.0  -0.0202
  C  C353  1  0.826800  0.418700  0.623900  1.0  -0.0249
  C  C354  1  0.808800  0.395700  0.669000  1.0  -0.1347
  C  C355  1  0.767900  0.338700  0.665200  1.0  0.0352
  C  C356  1  0.752500  0.312500  0.620900  1.0  -0.0532
  C  C357  1  0.768100  0.336500  0.575700  1.0  -0.05
  C  C358  1  0.760800  0.316200  0.710900  1.0  0.0921
  C  C359  1  0.772500  0.350600  0.750700  1.0  -0.1421
  C  C360  1  0.763500  0.329800  0.796900  1.0  -0.082
  C  C361  1  0.742000  0.272500  0.806000  1.0  0.0084
  C  C362  1  0.731000  0.242800  0.763500  1.0  -0.0828
  C  C363  1  0.739500  0.258300  0.715700  1.0  -0.1045
  C  C364  1  0.733800  0.247400  0.850600  1.0  0.4955
  C  C365  1  0.812000  0.424000  0.345500  1.0  0.2675
  C  C366  1  0.797700  0.399000  0.300700  1.0  0.0637
  C  C367  1  0.755900  0.342300  0.298000  1.0  -0.0498
  C  C368  1  0.744000  0.322100  0.251600  1.0  -0.0673
  C  C369  1  0.768800  0.357300  0.212500  1.0  -0.0375
  C  C370  1  0.814400  0.411900  0.218300  1.0  0.0142
  C  C371  1  0.828300  0.435300  0.263600  1.0  -0.0745
  C  C372  1  0.749300  0.325100  0.162000  1.0  -0.0367
  C  C373  1  0.740200  0.270700  0.155600  1.0  -0.1147
  C  C374  1  0.737800  0.247500  0.111000  1.0  -0.1425
  C  C375  1  0.741200  0.277000  0.069600  1.0  0.0525
  C  C376  1  0.758000  0.334200  0.072100  1.0  -0.0542
  C  C377  1  0.753800  0.350500  0.118100  1.0  -0.0269
  C  C378  1  0.742700  0.254200  0.025800  1.0  0.4441
  C  C379  1  0.856300  0.141400  0.523500  1.0  0.7392
  C  C380  1  0.841200  0.183700  0.508400  1.0  -0.0633
  C  C381  1  0.788900  0.173000  0.491500  1.0  -0.0029
  C  C382  1  0.777000  0.212300  0.471100  1.0  -0.0094
  C  C383  1  0.725600  0.196800  0.449600  1.0  0.58
  C  C384  1  0.819600  0.268200  0.477200  1.0  -0.0597
  C  C385  1  0.871700  0.281300  0.496400  1.0  0.1807
  C  C386  1  0.883600  0.240000  0.511700  1.0  -0.0471
  C  C387  1  0.517800  0.043900  0.434600  1.0  0.5582
  C  C388  1  0.474000  0.990800  0.448000  1.0  0.0288
  C  C389  1  0.487600  0.948400  0.442200  1.0  -0.033
  C  C390  1  0.450000  0.893000  0.455200  1.0  -0.1253
  C  C391  1  0.470500  0.852000  0.443400  1.0  0.4058
  C  C392  1  0.397400  0.878200  0.474400  1.0  -0.0151
  C  C393  1  0.384300  0.920700  0.481700  1.0  0.049
  C  C394  1  0.417700  0.972100  0.458900  1.0  0.0048
  C  C395  1  0.625700  0.808500  0.449800  1.0  0.6085
  C  C396  1  0.677300  0.826200  0.455000  1.0  0.072
  C  C397  1  0.717700  0.882400  0.473200  1.0  -0.005
  C  C398  1  0.774600  0.891600  0.494600  1.0  -0.038
  C  C399  1  0.816000  0.945600  0.502400  1.0  0.6462
  C  C400  1  0.784500  0.845700  0.484900  1.0  -0.0541
  C  C401  1  0.748700  0.797000  0.459500  1.0  0.1503
  C  C402  1  0.690400  0.770900  0.454900  1.0  -0.0151
  C  C403  1  0.919500  0.075700  0.432900  1.0  0.4533
  C  C404  1  0.942800  0.079800  0.390000  1.0  0.2786
  C  C405  1  0.913200  0.074300  0.348400  1.0  -0.1369
  C  C406  1  0.936300  0.077500  0.308200  1.0  -0.0567
  C  C407  1  0.990400  0.093400  0.300400  1.0  0.127
  C  C408  1  0.020400  0.096100  0.341100  1.0  -0.1815
  C  C409  1  0.992400  0.090600  0.385000  1.0  -0.0858
  C  C410  1  0.016900  0.106500  0.251100  1.0  0.2223
  C  C411  1  0.989600  0.078200  0.216400  1.0  -0.0503
  C  C412  1  0.005800  0.093300  0.161800  1.0  -0.0942
  C  C413  1  0.069200  0.136000  0.162400  1.0  -0.0901
  C  C414  1  0.103600  0.164300  0.199500  1.0  -0.0396
  C  C415  1  0.076400  0.150800  0.250000  1.0  -0.0742
  C  C416  1  0.089600  0.152800  0.111300  1.0  0.6232
  C  C417  1  0.408900  0.586800  0.033100  1.0  0.3237
  C  C418  1  0.417400  0.607200  0.079600  1.0  -0.0202
  C  C419  1  0.408100  0.581300  0.123900  1.0  -0.0229
  C  C420  1  0.413100  0.604300  0.169000  1.0  -0.1347
  C  C421  1  0.429200  0.661300  0.165200  1.0  0.0352
  C  C422  1  0.440000  0.687500  0.120900  1.0  -0.0546
  C  C423  1  0.431600  0.663500  0.075700  1.0  -0.0503
  C  C424  1  0.444600  0.683800  0.210900  1.0  0.0918
  C  C425  1  0.421900  0.649400  0.250700  1.0  -0.1424
  C  C426  1  0.433700  0.670200  0.296900  1.0  -0.0807
  C  C427  1  0.469500  0.727500  0.306000  1.0  0.0081
  C  C428  1  0.488200  0.757200  0.263500  1.0  -0.0832
  C  C429  1  0.481200  0.741700  0.215700  1.0  -0.1037
  C  C430  1  0.486400  0.752600  0.350600  1.0  0.4953
  C  C431  1  0.388000  0.576000  0.845500  1.0  0.2682
  C  C432  1  0.398700  0.601000  0.800700  1.0  0.0645
  C  C433  1  0.413600  0.657700  0.798000  1.0  -0.048
  C  C434  1  0.421900  0.677900  0.751600  1.0  -0.0674
  C  C435  1  0.411500  0.642700  0.712500  1.0  -0.0372
  C  C436  1  0.402500  0.588100  0.718300  1.0  0.0143
  C  C437  1  0.393000  0.564700  0.763600  1.0  -0.0747
  C  C438  1  0.424200  0.674900  0.662000  1.0  -0.0365
  C  C439  1  0.469500  0.729300  0.655600  1.0  -0.1144
  C  C440  1  0.490300  0.752500  0.611000  1.0  -0.1435
  C  C441  1  0.464200  0.723000  0.569600  1.0  0.0539
  C  C442  1  0.423800  0.665800  0.572100  1.0  -0.054
  C  C443  1  0.403300  0.649500  0.618100  1.0  -0.0251
  C  C444  1  0.488500  0.745800  0.525800  1.0  0.4446
  C  C445  1  0.143700  0.285100  0.023500  1.0  0.7393
  C  C446  1  0.158800  0.342500  0.008400  1.0  -0.0622
  C  C447  1  0.211100  0.384100  0.991500  1.0  -0.0041
  C  C448  1  0.223000  0.435300  0.971100  1.0  -0.008
  C  C449  1  0.274400  0.471200  0.949600  1.0  0.5867
  C  C450  1  0.180400  0.448600  0.977200  1.0  -0.0584
  C  C451  1  0.128300  0.409600  0.996400  1.0  0.1809
  C  C452  1  0.116400  0.356400  0.011700  1.0  -0.0454
  C  C453  1  0.482200  0.526100  0.934600  1.0  0.5551
  C  C454  1  0.526000  0.516800  0.948000  1.0  0.0288
  C  C455  1  0.512400  0.460800  0.942200  1.0  -0.0342
  C  C456  1  0.550000  0.443000  0.955200  1.0  -0.1262
  C  C457  1  0.529500  0.381500  0.943400  1.0  0.4025
  C  C458  1  0.602600  0.480800  0.974400  1.0  -0.0149
  C  C459  1  0.615700  0.536400  0.981700  1.0  0.0476
  C  C460  1  0.582300  0.554400  0.958900  1.0  0.0061
  C  C461  1  0.374300  0.182800  0.949800  1.0  0.6089
  C  C462  1  0.322700  0.148900  0.955000  1.0  0.0716
  C  C463  1  0.282300  0.164700  0.973200  1.0  -0.0059
  C  C464  1  0.225400  0.117000  0.994600  1.0  -0.037
  C  C465  1  0.184000  0.129600  0.002400  1.0  0.649
  C  C466  1  0.215500  0.061200  0.984900  1.0  -0.0509
  C  C467  1  0.251300  0.048300  0.959500  1.0  0.1519
  C  C468  1  0.309600  0.080500  0.954900  1.0  -0.0109
  C  C469  1  0.080500  0.156200  0.932900  1.0  0.4552
  C  C470  1  0.057200  0.137000  0.890000  1.0  0.2867
  C  C471  1  0.086800  0.161100  0.848400  1.0  -0.1372
  C  C472  1  0.063700  0.141200  0.808200  1.0  -0.0602
  C  C473  1  0.009600  0.103000  0.800400  1.0  0.1247
  C  C474  1  0.979600  0.075700  0.841100  1.0  -0.18
  C  C475  1  0.007600  0.098200  0.885000  1.0  -0.0889
  C  C476  1  0.983100  0.089600  0.751100  1.0  0.2203
  C  C477  1  0.010400  0.088600  0.716400  1.0  -0.0545
  C  C478  1  0.994200  0.087500  0.661800  1.0  -0.0959
  C  C479  1  0.930800  0.066800  0.662400  1.0  -0.0918
  C  C480  1  0.896400  0.060700  0.699500  1.0  -0.0367
  C  C481  1  0.923600  0.074400  0.750000  1.0  -0.0727
  C  C482  1  0.910400  0.063200  0.611300  1.0  0.6235
  C  C483  1  0.591100  0.177900  0.533100  1.0  0.3237
  C  C484  1  0.582600  0.189800  0.579600  1.0  -0.0195
  C  C485  1  0.591900  0.173200  0.623900  1.0  -0.0227
  C  C486  1  0.586900  0.191200  0.669000  1.0  -0.138
  C  C487  1  0.570800  0.232100  0.665200  1.0  0.0357
  C  C488  1  0.560000  0.247500  0.620900  1.0  -0.0522
  C  C489  1  0.568400  0.231900  0.575700  1.0  -0.0528
  C  C490  1  0.555400  0.239200  0.710900  1.0  0.0923
  C  C491  1  0.578100  0.227500  0.750700  1.0  -0.1439
  C  C492  1  0.566300  0.236500  0.796900  1.0  -0.0809
  C  C493  1  0.530500  0.258000  0.806000  1.0  0.0087
  C  C494  1  0.511800  0.269000  0.763500  1.0  -0.0795
  C  C495  1  0.518800  0.260500  0.715700  1.0  -0.103
  C  C496  1  0.513600  0.266200  0.850600  1.0  0.4958
  C  C497  1  0.612000  0.188000  0.345500  1.0  0.268
  C  C498  1  0.601300  0.202300  0.300700  1.0  0.0659
  C  C499  1  0.586400  0.244100  0.298000  1.0  -0.051
  C  C500  1  0.578100  0.256000  0.251600  1.0  -0.0669
  C  C501  1  0.588500  0.231200  0.212500  1.0  -0.0367
  C  C502  1  0.597500  0.185600  0.218300  1.0  0.0138
  C  C503  1  0.607000  0.171700  0.263600  1.0  -0.0752
  C  C504  1  0.575800  0.250700  0.162000  1.0  -0.0357
  C  C505  1  0.530500  0.259800  0.155600  1.0  -0.1182
  C  C506  1  0.509700  0.262200  0.111000  1.0  -0.1369
  C  C507  1  0.535800  0.258800  0.069600  1.0  0.0537
  C  C508  1  0.576200  0.242000  0.072100  1.0  -0.0548
  C  C509  1  0.596700  0.246200  0.118100  1.0  -0.0294
  C  C510  1  0.511500  0.257300  0.025800  1.0  0.4441
  C  C511  1  0.285100  0.143700  0.523500  1.0  0.7399
  C  C512  1  0.342500  0.158800  0.508400  1.0  -0.0616
  C  C513  1  0.384100  0.211100  0.491500  1.0  -0.0043
  C  C514  1  0.435300  0.223000  0.471100  1.0  -0.0085
  C  C515  1  0.471200  0.274400  0.449600  1.0  0.5874
  C  C516  1  0.448600  0.180400  0.477200  1.0  -0.0572
  C  C517  1  0.409600  0.128300  0.496400  1.0  0.1839
  C  C518  1  0.356400  0.116400  0.511700  1.0  -0.0468
  C  C519  1  0.526100  0.482200  0.434600  1.0  0.5594
  C  C520  1  0.516800  0.526000  0.448000  1.0  0.0292
  C  C521  1  0.460800  0.512400  0.442200  1.0  -0.0334
  C  C522  1  0.443000  0.550000  0.455200  1.0  -0.1265
  C  C523  1  0.381500  0.529500  0.443400  1.0  0.403
  C  C524  1  0.480800  0.602600  0.474400  1.0  -0.0144
  C  C525  1  0.536400  0.615700  0.481700  1.0  0.0468
  C  C526  1  0.554400  0.582300  0.458900  1.0  0.0052
  C  C527  1  0.182800  0.374300  0.449800  1.0  0.6107
  C  C528  1  0.148900  0.322700  0.455000  1.0  0.0721
  C  C529  1  0.164700  0.282300  0.473200  1.0  -0.0063
  C  C530  1  0.117000  0.225400  0.494600  1.0  -0.0378
  C  C531  1  0.129600  0.184000  0.502400  1.0  0.6503
  C  C532  1  0.061200  0.215500  0.484900  1.0  -0.0525
  C  C533  1  0.048300  0.251300  0.459500  1.0  0.1519
  C  C534  1  0.080500  0.309600  0.454900  1.0  -0.014
  C  C535  1  0.156200  0.080500  0.432900  1.0  0.4546
  C  C536  1  0.137000  0.057200  0.390000  1.0  0.2838
  C  C537  1  0.161100  0.086800  0.348400  1.0  -0.1411
  C  C538  1  0.141200  0.063700  0.308200  1.0  -0.0587
  C  C539  1  0.103000  0.009600  0.300400  1.0  0.1266
  C  C540  1  0.075700  0.979600  0.341100  1.0  -0.1815
  C  C541  1  0.098200  0.007600  0.385000  1.0  -0.0887
  C  C542  1  0.089600  0.983100  0.251100  1.0  0.2223
  C  C543  1  0.088600  0.010400  0.216400  1.0  -0.0488
  C  C544  1  0.087500  0.994200  0.161800  1.0  -0.0956
  C  C545  1  0.066800  0.930800  0.162400  1.0  -0.0917
  C  C546  1  0.060700  0.896400  0.199500  1.0  -0.0385
  C  C547  1  0.074400  0.923600  0.250000  1.0  -0.0724
  C  C548  1  0.063200  0.910400  0.111300  1.0  0.6245
  C  C549  1  0.177900  0.591100  0.033100  1.0  0.3245
  C  C550  1  0.189800  0.582600  0.079600  1.0  -0.0205
  C  C551  1  0.173200  0.591900  0.123900  1.0  -0.0259
  C  C552  1  0.191200  0.586900  0.169000  1.0  -0.1364
  C  C553  1  0.232100  0.570800  0.165200  1.0  0.0378
  C  C554  1  0.247500  0.560000  0.120900  1.0  -0.0531
  C  C555  1  0.231900  0.568400  0.075700  1.0  -0.0495
  C  C556  1  0.239200  0.555400  0.210900  1.0  0.0908
  C  C557  1  0.227500  0.578100  0.250700  1.0  -0.1433
  C  C558  1  0.236500  0.566300  0.296900  1.0  -0.0812
  C  C559  1  0.258000  0.530500  0.306000  1.0  0.0094
  C  C560  1  0.269000  0.511800  0.263500  1.0  -0.087
  C  C561  1  0.260500  0.518800  0.215700  1.0  -0.105
  C  C562  1  0.266200  0.513600  0.350600  1.0  0.4981
  C  C563  1  0.188000  0.612000  0.845500  1.0  0.2671
  C  C564  1  0.202300  0.601300  0.800700  1.0  0.0648
  C  C565  1  0.244100  0.586400  0.798000  1.0  -0.0526
  C  C566  1  0.256000  0.578100  0.751600  1.0  -0.0685
  C  C567  1  0.231200  0.588500  0.712500  1.0  -0.0376
  C  C568  1  0.185600  0.597500  0.718300  1.0  0.0124
  C  C569  1  0.171700  0.607000  0.763600  1.0  -0.0768
  C  C570  1  0.250700  0.575800  0.662000  1.0  -0.0338
  C  C571  1  0.259800  0.530500  0.655600  1.0  -0.118
  C  C572  1  0.262200  0.509700  0.611000  1.0  -0.1367
  C  C573  1  0.258800  0.535800  0.569600  1.0  0.0563
  C  C574  1  0.242000  0.576200  0.572100  1.0  -0.0551
  C  C575  1  0.246200  0.596700  0.618100  1.0  -0.0267
  C  C576  1  0.257300  0.511500  0.525800  1.0  0.4458
  C  C577  1  0.141400  0.856300  0.023500  1.0  0.7398
  C  C578  1  0.183700  0.841200  0.008400  1.0  -0.0614
  C  C579  1  0.173000  0.788900  0.991500  1.0  -0.0039
  C  C580  1  0.212300  0.777000  0.971100  1.0  -0.0085
  C  C581  1  0.196800  0.725600  0.949600  1.0  0.5821
  C  C582  1  0.268200  0.819600  0.977200  1.0  -0.0575
  C  C583  1  0.281300  0.871700  0.996400  1.0  0.1832
  C  C584  1  0.240000  0.883600  0.011700  1.0  -0.0464
  C  C585  1  0.043900  0.517800  0.934600  1.0  0.5599
  C  C586  1  0.990800  0.474000  0.948000  1.0  0.0296
  C  C587  1  0.948400  0.487600  0.942200  1.0  -0.0333
  C  C588  1  0.893000  0.450000  0.955200  1.0  -0.1273
  C  C589  1  0.852000  0.470500  0.943400  1.0  0.4032
  C  C590  1  0.878200  0.397400  0.974400  1.0  -0.0128
  C  C591  1  0.920700  0.384300  0.981700  1.0  0.0448
  C  C592  1  0.972100  0.417700  0.958900  1.0  0.005
  C  C593  1  0.808500  0.625700  0.949800  1.0  0.6107
  C  C594  1  0.826200  0.677300  0.955000  1.0  0.0731
  C  C595  1  0.882400  0.717700  0.973200  1.0  -0.0063
  C  C596  1  0.891600  0.774600  0.994600  1.0  -0.0377
  C  C597  1  0.945600  0.816000  0.002400  1.0  0.6513
  C  C598  1  0.845700  0.784500  0.984900  1.0  -0.0526
  C  C599  1  0.797000  0.748700  0.959500  1.0  0.1515
  C  C600  1  0.770900  0.690400  0.954900  1.0  -0.014
  C  C601  1  0.075700  0.919500  0.932900  1.0  0.4555
  C  C602  1  0.079800  0.942800  0.890000  1.0  0.2849
  C  C603  1  0.074300  0.913200  0.848400  1.0  -0.1405
  C  C604  1  0.077500  0.936300  0.808200  1.0  -0.0591
  C  C605  1  0.093400  0.990400  0.800400  1.0  0.1263
  C  C606  1  0.096100  0.020400  0.841100  1.0  -0.1817
  C  C607  1  0.090600  0.992400  0.885000  1.0  -0.0889
  C  C608  1  0.106500  0.016900  0.751100  1.0  0.2215
  C  C609  1  0.078200  0.989600  0.716400  1.0  -0.0483
  C  C610  1  0.093300  0.005800  0.661800  1.0  -0.0945
  C  C611  1  0.136000  0.069200  0.662400  1.0  -0.0913
  C  C612  1  0.164300  0.103600  0.699500  1.0  -0.0417
  C  C613  1  0.150800  0.076400  0.750000  1.0  -0.0743
  C  C614  1  0.152800  0.089600  0.611300  1.0  0.6243
  C  C615  1  0.586800  0.408900  0.533100  1.0  0.3246
  C  C616  1  0.607200  0.417400  0.579600  1.0  -0.0201
  C  C617  1  0.581300  0.408100  0.623900  1.0  -0.0266
  C  C618  1  0.604300  0.413100  0.669000  1.0  -0.1369
  C  C619  1  0.661300  0.429200  0.665200  1.0  0.0373
  C  C620  1  0.687500  0.440000  0.620900  1.0  -0.0527
  C  C621  1  0.663500  0.431600  0.575700  1.0  -0.0495
  C  C622  1  0.683800  0.444600  0.710900  1.0  0.0897
  C  C623  1  0.649400  0.421900  0.750700  1.0  -0.144
  C  C624  1  0.670200  0.433700  0.796900  1.0  -0.0814
  C  C625  1  0.727500  0.469500  0.806000  1.0  0.0093
  C  C626  1  0.757200  0.488200  0.763500  1.0  -0.0846
  C  C627  1  0.741700  0.481200  0.715700  1.0  -0.1037
  C  C628  1  0.752600  0.486400  0.850600  1.0  0.4972
  C  C629  1  0.576000  0.388000  0.345500  1.0  0.2674
  C  C630  1  0.601000  0.398700  0.300700  1.0  0.0643
  C  C631  1  0.657700  0.413600  0.298000  1.0  -0.0514
  C  C632  1  0.677900  0.421900  0.251600  1.0  -0.0675
  C  C633  1  0.642700  0.411500  0.212500  1.0  -0.0369
  C  C634  1  0.588100  0.402500  0.218300  1.0  0.0132
  C  C635  1  0.564700  0.393000  0.263600  1.0  -0.0756
  C  C636  1  0.674900  0.424200  0.162000  1.0  -0.0319
  C  C637  1  0.729300  0.469500  0.155600  1.0  -0.117
  C  C638  1  0.752500  0.490300  0.111000  1.0  -0.1351
  C  C639  1  0.723000  0.464200  0.069600  1.0  0.0561
  C  C640  1  0.665800  0.423800  0.072100  1.0  -0.0553
  C  C641  1  0.649500  0.403300  0.118100  1.0  -0.027
  C  C642  1  0.745800  0.488500  0.025800  1.0  0.4458
  C  C643  1  0.612200  0.062500  0.061200  1.0  -0.2701
  C  C644  1  0.587700  0.946100  0.062500  1.0  -0.2656
  C  C645  1  0.450300  0.387800  0.061200  1.0  -0.2705
  C  C646  1  0.358400  0.412300  0.062500  1.0  -0.2662
  C  C647  1  0.937500  0.549700  0.061200  1.0  -0.2701
  C  C648  1  0.053900  0.641600  0.062500  1.0  -0.2667
  C  C649  1  0.549700  0.937500  0.561200  1.0  -0.2705
  C  C650  1  0.641600  0.053900  0.562500  1.0  -0.2665
  C  C651  1  0.062500  0.612200  0.561200  1.0  -0.2705
  C  C652  1  0.946100  0.587700  0.562500  1.0  -0.266
  C  C653  1  0.387800  0.450300  0.561200  1.0  -0.2697
  C  C654  1  0.412300  0.358400  0.562500  1.0  -0.2673
  N  N655  1  0.242100  0.017800  0.460400  1.0  -0.21
  N  N656  1  0.654400  0.570000  0.503900  1.0  -0.2197
  N  N657  1  0.090000  0.418300  0.503300  1.0  -0.1992
  N  N658  1  0.017800  0.242100  0.960400  1.0  -0.2126
  N  N659  1  0.570000  0.654400  0.003900  1.0  -0.2224
  N  N660  1  0.418300  0.090000  0.003300  1.0  -0.1961
  N  N661  1  0.775700  0.757900  0.460400  1.0  -0.2117
  N  N662  1  0.915600  0.345600  0.503900  1.0  -0.2217
  N  N663  1  0.328300  0.910000  0.503300  1.0  -0.1957
  N  N664  1  0.224300  0.982200  0.960400  1.0  -0.2112
  N  N665  1  0.084400  0.430000  0.003900  1.0  -0.2201
  N  N666  1  0.671700  0.581700  0.003300  1.0  -0.1981
  N  N667  1  0.982200  0.224300  0.460400  1.0  -0.2076
  N  N668  1  0.430000  0.084400  0.503900  1.0  -0.2237
  N  N669  1  0.581700  0.671700  0.503300  1.0  -0.1973
  N  N670  1  0.757900  0.775700  0.960400  1.0  -0.2076
  N  N671  1  0.345600  0.915600  0.003900  1.0  -0.2238
  N  N672  1  0.910000  0.328300  0.003300  1.0  -0.1983
  N  N673  1  0.610200  0.007900  0.076800  1.0  -0.4329
  N  N674  1  0.397700  0.389800  0.076800  1.0  -0.4346
  N  N675  1  0.992100  0.602300  0.076800  1.0  -0.4328
  N  N676  1  0.602300  0.992100  0.576800  1.0  -0.4339
  N  N677  1  0.007900  0.610200  0.576800  1.0  -0.4353
  N  N678  1  0.389800  0.397700  0.576800  1.0  -0.4341
  O  O679  1  0.145600  0.756900  0.441500  1.0  -0.725
  O  O680  1  0.239300  0.823700  0.433500  1.0  -0.5713
  O  O681  1  0.941600  0.811900  0.450300  1.0  -0.6017
  O  O682  1  0.804100  0.947700  0.110100  1.0  -0.5725
  O  O683  1  0.923800  0.867600  0.476400  1.0  -0.6176
  O  O684  1  0.909500  0.426600  0.432900  1.0  -0.5875
  O  O685  1  0.905500  0.722200  0.524300  1.0  -0.5787
  O  O686  1  0.850400  0.541600  0.449400  1.0  -0.599
  O  O687  1  0.458500  0.855500  0.005900  1.0  -0.6021
  O  O688  1  0.866400  0.926700  0.074200  1.0  -0.5306
  O  O689  1  0.846600  0.752300  0.528700  1.0  -0.5069
  O  O690  1  0.032600  0.899000  0.509600  1.0  -0.5499
  O  O691  1  0.020700  0.815700  0.522200  1.0  -0.6009
  O  O692  1  0.393300  0.802700  0.989000  1.0  -0.6583
  O  O693  1  0.192500  0.631700  0.449000  1.0  -0.5207
  O  O694  1  0.134300  0.647600  0.444300  1.0  -0.5716
  O  O695  1  0.770600  0.474300  0.450600  1.0  -0.6316
  O  O696  1  0.942500  0.513200  0.441900  1.0  -0.6278
  O  O697  1  0.402700  0.803600  0.881800  1.0  -0.5598
  O  O698  1  0.474700  0.852500  0.857700  1.0  -0.5991
  O  O699  1  0.279400  0.745800  0.483800  1.0  -0.6112
  O  O700  1  0.200900  0.716700  0.508500  1.0  -0.6021
  O  O701  1  0.279900  0.752300  0.389900  1.0  -0.4924
  O  O702  1  0.196500  0.730200  0.355600  1.0  -0.5156
  O  O703  1  0.756900  0.145600  0.941500  1.0  -0.725
  O  O704  1  0.823700  0.239300  0.933500  1.0  -0.5753
  O  O705  1  0.811900  0.941600  0.950300  1.0  -0.6014
  O  O706  1  0.947700  0.804100  0.610100  1.0  -0.5751
  O  O707  1  0.867600  0.923800  0.976400  1.0  -0.6193
  O  O708  1  0.426600  0.909500  0.932900  1.0  -0.5868
  O  O709  1  0.722200  0.905500  0.024300  1.0  -0.5796
  O  O710  1  0.541600  0.850400  0.949400  1.0  -0.6015
  O  O711  1  0.855500  0.458500  0.505900  1.0  -0.603
  O  O712  1  0.926700  0.866400  0.574200  1.0  -0.5302
  O  O713  1  0.752300  0.846600  0.028700  1.0  -0.5052
  O  O714  1  0.899000  0.032600  0.009600  1.0  -0.5547
  O  O715  1  0.815700  0.020700  0.022200  1.0  -0.6012
  O  O716  1  0.802700  0.393300  0.489000  1.0  -0.6583
  O  O717  1  0.631700  0.192500  0.949000  1.0  -0.5203
  O  O718  1  0.647600  0.134300  0.944300  1.0  -0.5727
  O  O719  1  0.474300  0.770600  0.950600  1.0  -0.6269
  O  O720  1  0.513200  0.942500  0.941900  1.0  -0.6268
  O  O721  1  0.803600  0.402700  0.381800  1.0  -0.5607
  O  O722  1  0.852500  0.474700  0.357700  1.0  -0.5955
  O  O723  1  0.745800  0.279400  0.983800  1.0  -0.6109
  O  O724  1  0.716700  0.200900  0.008500  1.0  -0.6032
  O  O725  1  0.752300  0.279900  0.889900  1.0  -0.4933
  O  O726  1  0.730200  0.196500  0.855600  1.0  -0.5155
  O  O727  1  0.611300  0.854400  0.441500  1.0  -0.7247
  O  O728  1  0.584400  0.760700  0.433500  1.0  -0.5754
  O  O729  1  0.870300  0.058400  0.450300  1.0  -0.6023
  O  O730  1  0.143600  0.195900  0.110100  1.0  -0.5755
  O  O731  1  0.943800  0.076200  0.476400  1.0  -0.6187
  O  O732  1  0.517100  0.090500  0.432900  1.0  -0.5847
  O  O733  1  0.816700  0.094500  0.524300  1.0  -0.5789
  O  O734  1  0.691200  0.149600  0.449400  1.0  -0.6008
  O  O735  1  0.397000  0.541500  0.005900  1.0  -0.6026
  O  O736  1  0.060300  0.133600  0.074200  1.0  -0.529
  O  O737  1  0.905700  0.153400  0.528700  1.0  -0.506
  O  O738  1  0.866400  0.967400  0.509600  1.0  -0.5549
  O  O739  1  0.795000  0.979300  0.522200  1.0  -0.6015
  O  O740  1  0.409400  0.606700  0.989000  1.0  -0.6579
  O  O741  1  0.439200  0.807500  0.449000  1.0  -0.5192
  O  O742  1  0.513300  0.865700  0.444300  1.0  -0.5734
  O  O743  1  0.703700  0.229400  0.450600  1.0  -0.626
  O  O744  1  0.570700  0.057500  0.441900  1.0  -0.6265
  O  O745  1  0.400900  0.597300  0.881800  1.0  -0.5592
  O  O746  1  0.377800  0.525300  0.857700  1.0  -0.5974
  O  O747  1  0.466400  0.720600  0.483800  1.0  -0.6107
  O  O748  1  0.515800  0.799100  0.508500  1.0  -0.6038
  O  O749  1  0.472400  0.720100  0.389900  1.0  -0.4934
  O  O750  1  0.533700  0.803500  0.355600  1.0  -0.5141
  O  O751  1  0.388700  0.243100  0.941500  1.0  -0.7248
  O  O752  1  0.415600  0.176300  0.933500  1.0  -0.5706
  O  O753  1  0.129700  0.188100  0.950300  1.0  -0.6015
  O  O754  1  0.856400  0.052300  0.610100  1.0  -0.5723
  O  O755  1  0.056200  0.132400  0.976400  1.0  -0.6174
  O  O756  1  0.482900  0.573400  0.932900  1.0  -0.5848
  O  O757  1  0.183300  0.277800  0.024300  1.0  -0.5787
  O  O758  1  0.308800  0.458400  0.949400  1.0  -0.5989
  O  O759  1  0.603000  0.144500  0.505900  1.0  -0.6017
  O  O760  1  0.939700  0.073300  0.574200  1.0  -0.5321
  O  O761  1  0.094300  0.247700  0.028700  1.0  -0.5067
  O  O762  1  0.133600  0.101000  0.009600  1.0  -0.5497
  O  O763  1  0.205000  0.184300  0.022200  1.0  -0.6004
  O  O764  1  0.590600  0.197300  0.489000  1.0  -0.6585
  O  O765  1  0.560800  0.368300  0.949000  1.0  -0.521
  O  O766  1  0.486700  0.352400  0.944300  1.0  -0.5716
  O  O767  1  0.296300  0.525700  0.950600  1.0  -0.6283
  O  O768  1  0.429300  0.486800  0.941900  1.0  -0.6278
  O  O769  1  0.599100  0.196400  0.381800  1.0  -0.5631
  O  O770  1  0.622200  0.147500  0.357700  1.0  -0.6002
  O  O771  1  0.533600  0.254200  0.983800  1.0  -0.6116
  O  O772  1  0.484200  0.283300  0.008500  1.0  -0.602
  O  O773  1  0.527600  0.247700  0.889900  1.0  -0.4921
  O  O774  1  0.466300  0.269800  0.855600  1.0  -0.5158
  O  O775  1  0.243100  0.388700  0.441500  1.0  -0.7193
  O  O776  1  0.176300  0.415600  0.433500  1.0  -0.5728
  O  O777  1  0.188100  0.129700  0.450300  1.0  -0.5997
  O  O778  1  0.052300  0.856400  0.110100  1.0  -0.5675
  O  O779  1  0.132400  0.056200  0.476400  1.0  -0.6148
  O  O780  1  0.573400  0.482900  0.432900  1.0  -0.5859
  O  O781  1  0.277800  0.183300  0.524300  1.0  -0.5779
  O  O782  1  0.458400  0.308800  0.449400  1.0  -0.6017
  O  O783  1  0.144500  0.603000  0.005900  1.0  -0.6024
  O  O784  1  0.073300  0.939700  0.074200  1.0  -0.5257
  O  O785  1  0.247700  0.094300  0.528700  1.0  -0.5074
  O  O786  1  0.101000  0.133600  0.509600  1.0  -0.5509
  O  O787  1  0.184300  0.205000  0.522200  1.0  -0.5985
  O  O788  1  0.197300  0.590600  0.989000  1.0  -0.6576
  O  O789  1  0.368300  0.560800  0.449000  1.0  -0.5217
  O  O790  1  0.352400  0.486700  0.444300  1.0  -0.569
  O  O791  1  0.525700  0.296300  0.450600  1.0  -0.6282
  O  O792  1  0.486800  0.429300  0.441900  1.0  -0.6275
  O  O793  1  0.196400  0.599100  0.881800  1.0  -0.5598
  O  O794  1  0.147500  0.622200  0.857700  1.0  -0.5965
  O  O795  1  0.254200  0.533600  0.483800  1.0  -0.6122
  O  O796  1  0.283300  0.484200  0.508500  1.0  -0.6025
  O  O797  1  0.247700  0.527600  0.389900  1.0  -0.4931
  O  O798  1  0.269800  0.466300  0.355600  1.0  -0.5154
  O  O799  1  0.854400  0.611300  0.941500  1.0  -0.7195
  O  O800  1  0.760700  0.584400  0.933500  1.0  -0.5724
  O  O801  1  0.058400  0.870300  0.950300  1.0  -0.5995
  O  O802  1  0.195900  0.143600  0.610100  1.0  -0.5728
  O  O803  1  0.076200  0.943800  0.976400  1.0  -0.6169
  O  O804  1  0.090500  0.517100  0.932900  1.0  -0.5865
  O  O805  1  0.094500  0.816700  0.024300  1.0  -0.5775
  O  O806  1  0.149600  0.691200  0.949400  1.0  -0.6014
  O  O807  1  0.541500  0.397000  0.505900  1.0  -0.6022
  O  O808  1  0.133600  0.060300  0.574200  1.0  -0.5286
  O  O809  1  0.153400  0.905700  0.028700  1.0  -0.5071
  O  O810  1  0.967400  0.866400  0.009600  1.0  -0.5512
  O  O811  1  0.979300  0.795000  0.022200  1.0  -0.5989
  O  O812  1  0.606700  0.409400  0.489000  1.0  -0.6573
  O  O813  1  0.807500  0.439200  0.949000  1.0  -0.5203
  O  O814  1  0.865700  0.513300  0.944300  1.0  -0.5679
  O  O815  1  0.229400  0.703700  0.950600  1.0  -0.6277
  O  O816  1  0.057500  0.570700  0.941900  1.0  -0.6285
  O  O817  1  0.597300  0.400900  0.381800  1.0  -0.5623
  O  O818  1  0.525300  0.377800  0.357700  1.0  -0.5975
  O  O819  1  0.720600  0.466400  0.983800  1.0  -0.6129
  O  O820  1  0.799100  0.515800  0.008500  1.0  -0.6042
  O  O821  1  0.720100  0.472400  0.889900  1.0  -0.4926
  O  O822  1  0.803500  0.533700  0.855600  1.0  -0.5158
