# generated using pymatgen
data_In3H72C82N5O27
_symmetry_space_group_name_H-M   'P 1'
_cell_length_a   27.23400000
_cell_length_b   27.23400000
_cell_length_c   32.87060000
_cell_angle_alpha   90.00000000
_cell_angle_beta   90.00000000
_cell_angle_gamma   120.00000000
_symmetry_Int_Tables_number   1
_chemical_formula_structural   In3H72C82N5O27
_chemical_formula_sum   'In18 H432 C492 N30 O162'
_cell_volume   21113.54360187
_cell_formula_units_Z   6
loop_
 _symmetry_equiv_pos_site_id
 _symmetry_equiv_pos_as_xyz
  1  'x, y, z'
loop_
 _atom_site_type_symbol
 _atom_site_label
 _atom_site_symmetry_multiplicity
 _atom_site_fract_x
 _atom_site_fract_y
 _atom_site_fract_z
 _atom_site_occupancy
 _atom_site_charge
  In  In1  1  0.126180  0.943490  0.550600  1.0  1.5247
  In  In2  1  0.385840  0.846070  0.627700  1.0  1.5384
  In  In3  1  0.483310  0.206810  0.627600  1.0  1.57
  In  In4  1  0.873820  0.817310  0.050600  1.0  1.526
  In  In5  1  0.614160  0.460230  0.127700  1.0  1.5407
  In  In6  1  0.516690  0.723500  0.127600  1.0  1.5706
  In  In7  1  0.817310  0.873820  0.550600  1.0  1.5248
  In  In8  1  0.460230  0.614160  0.627700  1.0  1.5382
  In  In9  1  0.723500  0.516690  0.627600  1.0  1.5712
  In  In10  1  0.943490  0.126180  0.050600  1.0  1.5248
  In  In11  1  0.846070  0.385840  0.127700  1.0  1.5379
  In  In12  1  0.206810  0.483310  0.127600  1.0  1.5713
  In  In13  1  0.056510  0.182690  0.550600  1.0  1.526
  In  In14  1  0.153930  0.539770  0.627700  1.0  1.5405
  In  In15  1  0.793190  0.276500  0.627600  1.0  1.5706
  In  In16  1  0.182690  0.056510  0.050600  1.0  1.5242
  In  In17  1  0.539770  0.153930  0.127700  1.0  1.5383
  In  In18  1  0.276500  0.793190  0.127600  1.0  1.5701
  H  H19  1  0.214900  0.241800  0.588900  1.0  0.4258
  H  H20  1  0.701300  0.119900  0.650700  1.0  0.2414
  H  H21  1  0.087900  0.635400  0.591200  1.0  0.4191
  H  H22  1  0.868200  0.808500  0.196500  1.0  0.1538
  H  H23  1  0.907900  0.838400  0.260700  1.0  0.1163
  H  H24  1  0.059500  0.944000  0.212100  1.0  0.1376
  H  H25  1  0.019800  0.918200  0.147500  1.0  0.1223
  H  H26  1  0.065200  0.942300  0.272100  1.0  0.1557
  H  H27  1  0.958100  0.894200  0.315600  1.0  0.1618
  H  H28  1  0.951900  0.898900  0.384900  1.0  0.1429
  H  H29  1  0.994200  0.915300  0.447600  1.0  0.1082
  H  H30  1  0.147200  0.956400  0.405700  1.0  0.1432
  H  H31  1  0.108600  0.952000  0.340900  1.0  0.1268
  H  H32  1  0.175500  0.143600  0.575100  1.0  0.154
  H  H33  1  0.290100  0.096400  0.598900  1.0  0.1051
  H  H34  1  0.332800  0.258100  0.617300  1.0  0.1864
  H  H35  1  0.639100  0.157700  0.653700  1.0  0.1505
  H  H36  1  0.476800  0.039300  0.633900  1.0  0.1264
  H  H37  1  0.590100  0.990600  0.651300  1.0  0.1479
  H  H38  1  0.585400  0.333200  0.232700  1.0  0.144
  H  H39  1  0.572000  0.303100  0.300700  1.0  0.1108
  H  H40  1  0.639700  0.463300  0.341800  1.0  0.156
  H  H41  1  0.636900  0.491800  0.274500  1.0  0.1479
  H  H42  1  0.639300  0.404400  0.383500  1.0  0.1312
  H  H43  1  0.548000  0.295400  0.373700  1.0  0.1366
  H  H44  1  0.515000  0.230300  0.414600  1.0  0.1443
  H  H45  1  0.488600  0.192500  0.478800  1.0  0.1261
  H  H46  1  0.584300  0.343500  0.530200  1.0  0.133
  H  H47  1  0.604700  0.383300  0.466200  1.0  0.1159
  H  H48  1  0.185400  0.697700  0.607300  1.0  0.1456
  H  H49  1  0.237900  0.861100  0.575200  1.0  0.1355
  H  H50  1  0.076200  0.739900  0.557400  1.0  0.1161
  H  H51  1  0.522500  0.710200  0.273600  1.0  0.1551
  H  H52  1  0.487100  0.713800  0.340500  1.0  0.1531
  H  H53  1  0.389500  0.780500  0.285700  1.0  0.1542
  H  H54  1  0.421300  0.773000  0.227300  1.0  0.1355
  H  H55  1  0.408500  0.791000  0.363000  1.0  0.1654
  H  H56  1  0.447600  0.722100  0.390000  1.0  0.173
  H  H57  1  0.451300  0.725000  0.466400  1.0  0.1122
  H  H58  1  0.440400  0.749500  0.531700  1.0  0.1438
  H  H59  1  0.377500  0.842200  0.482800  1.0  0.1311
  H  H60  1  0.394800  0.821200  0.417900  1.0  0.1319
  H  H61  1  0.785100  0.026900  0.088900  1.0  0.4231
  H  H62  1  0.298700  0.418600  0.150700  1.0  0.2418
  H  H63  1  0.912100  0.547500  0.091200  1.0  0.4184
  H  H64  1  0.131800  0.940300  0.696500  1.0  0.1538
  H  H65  1  0.092100  0.930500  0.760700  1.0  0.1166
  H  H66  1  0.940500  0.884500  0.712100  1.0  0.1366
  H  H67  1  0.980200  0.898400  0.647500  1.0  0.1218
  H  H68  1  0.934800  0.877100  0.772100  1.0  0.154
  H  H69  1  0.041900  0.936100  0.815600  1.0  0.1619
  H  H70  1  0.048100  0.947000  0.884900  1.0  0.1398
  H  H71  1  0.005800  0.921100  0.947600  1.0  0.1087
  H  H72  1  0.852800  0.809200  0.905700  1.0  0.1448
  H  H73  1  0.891400  0.843400  0.840900  1.0  0.1285
  H  H74  1  0.824500  0.968100  0.075100  1.0  0.1533
  H  H75  1  0.709900  0.806300  0.098900  1.0  0.106
  H  H76  1  0.667200  0.925300  0.117300  1.0  0.1843
  H  H77  1  0.360900  0.518600  0.153700  1.0  0.1495
  H  H78  1  0.523200  0.562500  0.133900  1.0  0.1259
  H  H79  1  0.409900  0.400500  0.151300  1.0  0.1482
  H  H80  1  0.414600  0.747800  0.732700  1.0  0.1439
  H  H81  1  0.428000  0.731100  0.800700  1.0  0.1101
  H  H82  1  0.360300  0.823600  0.841800  1.0  0.1566
  H  H83  1  0.363100  0.854900  0.774500  1.0  0.149
  H  H84  1  0.360700  0.765100  0.883500  1.0  0.1318
  H  H85  1  0.452000  0.747400  0.873700  1.0  0.1354
  H  H86  1  0.485000  0.715300  0.914600  1.0  0.1441
  H  H87  1  0.511400  0.703900  0.978800  1.0  0.126
  H  H88  1  0.415700  0.759200  0.030200  1.0  0.1329
  H  H89  1  0.395300  0.778600  0.966200  1.0  0.1162
  H  H90  1  0.814600  0.512300  0.107300  1.0  0.1456
  H  H91  1  0.762100  0.623200  0.075200  1.0  0.1344
  H  H92  1  0.923800  0.663700  0.057400  1.0  0.1153
  H  H93  1  0.477500  0.187700  0.773600  1.0  0.156
  H  H94  1  0.512900  0.226700  0.840500  1.0  0.1556
  H  H95  1  0.610500  0.391000  0.785700  1.0  0.1533
  H  H96  1  0.578700  0.351700  0.727300  1.0  0.1355
  H  H97  1  0.591500  0.382500  0.863000  1.0  0.1676
  H  H98  1  0.552400  0.274500  0.890000  1.0  0.1728
  H  H99  1  0.548700  0.273700  0.966400  1.0  0.111
  H  H100  1  0.559600  0.309100  0.031700  1.0  0.1425
  H  H101  1  0.622500  0.464700  0.982800  1.0  0.1294
  H  H102  1  0.605200  0.426400  0.917900  1.0  0.1315
  H  H103  1  0.026900  0.785100  0.588900  1.0  0.4238
  H  H104  1  0.418600  0.298700  0.650700  1.0  0.2427
  H  H105  1  0.547500  0.912100  0.591200  1.0  0.4177
  H  H106  1  0.940300  0.131800  0.196500  1.0  0.1531
  H  H107  1  0.930500  0.092100  0.260700  1.0  0.1161
  H  H108  1  0.884500  0.940500  0.212100  1.0  0.1378
  H  H109  1  0.898400  0.980200  0.147500  1.0  0.1225
  H  H110  1  0.877100  0.934800  0.272100  1.0  0.1552
  H  H111  1  0.936100  0.041900  0.315600  1.0  0.1631
  H  H112  1  0.947000  0.048100  0.384900  1.0  0.1409
  H  H113  1  0.921100  0.005800  0.447600  1.0  0.1088
  H  H114  1  0.809200  0.852800  0.405700  1.0  0.144
  H  H115  1  0.843400  0.891400  0.340900  1.0  0.1279
  H  H116  1  0.968100  0.824500  0.575100  1.0  0.1543
  H  H117  1  0.806300  0.709900  0.598900  1.0  0.1067
  H  H118  1  0.925300  0.667200  0.617300  1.0  0.1855
  H  H119  1  0.518600  0.360900  0.653700  1.0  0.1506
  H  H120  1  0.562500  0.523200  0.633900  1.0  0.1259
  H  H121  1  0.400500  0.409900  0.651300  1.0  0.1501
  H  H122  1  0.747800  0.414600  0.232700  1.0  0.1437
  H  H123  1  0.731100  0.428000  0.300700  1.0  0.1107
  H  H124  1  0.823600  0.360300  0.341800  1.0  0.1538
  H  H125  1  0.854900  0.363100  0.274500  1.0  0.1482
  H  H126  1  0.765100  0.360700  0.383500  1.0  0.1325
  H  H127  1  0.747400  0.452000  0.373700  1.0  0.1363
  H  H128  1  0.715300  0.485000  0.414600  1.0  0.1453
  H  H129  1  0.703900  0.511400  0.478800  1.0  0.1263
  H  H130  1  0.759200  0.415700  0.530200  1.0  0.1333
  H  H131  1  0.778600  0.395300  0.466200  1.0  0.1179
  H  H132  1  0.512300  0.814600  0.607300  1.0  0.1453
  H  H133  1  0.623200  0.762100  0.575200  1.0  0.135
  H  H134  1  0.663700  0.923800  0.557400  1.0  0.1153
  H  H135  1  0.187700  0.477500  0.273600  1.0  0.1563
  H  H136  1  0.226700  0.512900  0.340500  1.0  0.1565
  H  H137  1  0.391000  0.610500  0.285700  1.0  0.1527
  H  H138  1  0.351700  0.578700  0.227300  1.0  0.1351
  H  H139  1  0.382500  0.591500  0.363000  1.0  0.1656
  H  H140  1  0.274500  0.552400  0.390000  1.0  0.172
  H  H141  1  0.273700  0.548700  0.466400  1.0  0.112
  H  H142  1  0.309100  0.559600  0.531700  1.0  0.1425
  H  H143  1  0.464700  0.622500  0.482800  1.0  0.1308
  H  H144  1  0.426400  0.605200  0.417900  1.0  0.1312
  H  H145  1  0.241800  0.214900  0.088900  1.0  0.424
  H  H146  1  0.119900  0.701300  0.150700  1.0  0.242
  H  H147  1  0.635400  0.087900  0.091200  1.0  0.4179
  H  H148  1  0.808500  0.868200  0.696500  1.0  0.1533
  H  H149  1  0.838400  0.907900  0.760700  1.0  0.1164
  H  H150  1  0.944000  0.059500  0.712100  1.0  0.1375
  H  H151  1  0.918200  0.019800  0.647500  1.0  0.1224
  H  H152  1  0.942300  0.065200  0.772100  1.0  0.1558
  H  H153  1  0.894200  0.958100  0.815600  1.0  0.1628
  H  H154  1  0.898900  0.951900  0.884900  1.0  0.1407
  H  H155  1  0.915300  0.994200  0.947600  1.0  0.109
  H  H156  1  0.956400  0.147200  0.905700  1.0  0.1443
  H  H157  1  0.952000  0.108600  0.840900  1.0  0.1282
  H  H158  1  0.143600  0.175500  0.075100  1.0  0.1538
  H  H159  1  0.096400  0.290100  0.098900  1.0  0.1065
  H  H160  1  0.258100  0.332800  0.117300  1.0  0.186
  H  H161  1  0.157700  0.639100  0.153700  1.0  0.1502
  H  H162  1  0.039300  0.476800  0.133900  1.0  0.1254
  H  H163  1  0.990600  0.590100  0.151300  1.0  0.1501
  H  H164  1  0.333200  0.585400  0.732700  1.0  0.1437
  H  H165  1  0.303100  0.572000  0.800700  1.0  0.1105
  H  H166  1  0.463300  0.639700  0.841800  1.0  0.1537
  H  H167  1  0.491800  0.636900  0.774500  1.0  0.1485
  H  H168  1  0.404400  0.639300  0.883500  1.0  0.1318
  H  H169  1  0.295400  0.548000  0.873700  1.0  0.1356
  H  H170  1  0.230300  0.515000  0.914600  1.0  0.1444
  H  H171  1  0.192500  0.488600  0.978800  1.0  0.1262
  H  H172  1  0.343500  0.584300  0.030200  1.0  0.1332
  H  H173  1  0.383300  0.604700  0.966200  1.0  0.1175
  H  H174  1  0.697700  0.185400  0.107300  1.0  0.1451
  H  H175  1  0.861100  0.237900  0.075200  1.0  0.135
  H  H176  1  0.739900  0.076200  0.057400  1.0  0.1165
  H  H177  1  0.710200  0.522500  0.773600  1.0  0.1572
  H  H178  1  0.713800  0.487100  0.840500  1.0  0.1566
  H  H179  1  0.780500  0.389500  0.785700  1.0  0.153
  H  H180  1  0.773000  0.421300  0.727300  1.0  0.1362
  H  H181  1  0.791000  0.408500  0.863000  1.0  0.1654
  H  H182  1  0.722100  0.447600  0.890000  1.0  0.1723
  H  H183  1  0.725000  0.451300  0.966400  1.0  0.1116
  H  H184  1  0.749500  0.440400  0.031700  1.0  0.1424
  H  H185  1  0.842200  0.377500  0.982800  1.0  0.1306
  H  H186  1  0.821200  0.394800  0.917900  1.0  0.1315
  H  H187  1  0.758200  0.973100  0.588900  1.0  0.423
  H  H188  1  0.880100  0.581400  0.650700  1.0  0.2417
  H  H189  1  0.364600  0.452500  0.591200  1.0  0.4189
  H  H190  1  0.191500  0.059700  0.196500  1.0  0.154
  H  H191  1  0.161600  0.069500  0.260700  1.0  0.1168
  H  H192  1  0.056000  0.115500  0.212100  1.0  0.1374
  H  H193  1  0.081800  0.101600  0.147500  1.0  0.1217
  H  H194  1  0.057700  0.122900  0.272100  1.0  0.1545
  H  H195  1  0.105800  0.063900  0.315600  1.0  0.1614
  H  H196  1  0.101100  0.053000  0.384900  1.0  0.1397
  H  H197  1  0.084700  0.078900  0.447600  1.0  0.1089
  H  H198  1  0.043600  0.190800  0.405700  1.0  0.1449
  H  H199  1  0.048000  0.156600  0.340900  1.0  0.1307
  H  H200  1  0.856400  0.031900  0.575100  1.0  0.1536
  H  H201  1  0.903600  0.193700  0.598900  1.0  0.1054
  H  H202  1  0.741900  0.074700  0.617300  1.0  0.1841
  H  H203  1  0.842300  0.481400  0.653700  1.0  0.1495
  H  H204  1  0.960700  0.437500  0.633900  1.0  0.1258
  H  H205  1  0.009400  0.599500  0.651300  1.0  0.148
  H  H206  1  0.666800  0.252200  0.232700  1.0  0.1434
  H  H207  1  0.696900  0.268900  0.300700  1.0  0.1098
  H  H208  1  0.536700  0.176400  0.341800  1.0  0.1559
  H  H209  1  0.508200  0.145100  0.274500  1.0  0.1479
  H  H210  1  0.595600  0.234900  0.383500  1.0  0.132
  H  H211  1  0.704600  0.252600  0.373700  1.0  0.1354
  H  H212  1  0.769700  0.284700  0.414600  1.0  0.1437
  H  H213  1  0.807500  0.296100  0.478800  1.0  0.1262
  H  H214  1  0.656500  0.240800  0.530200  1.0  0.1328
  H  H215  1  0.616700  0.221400  0.466200  1.0  0.1177
  H  H216  1  0.302300  0.487700  0.607300  1.0  0.146
  H  H217  1  0.138900  0.376800  0.575200  1.0  0.1345
  H  H218  1  0.260100  0.336300  0.557400  1.0  0.1154
  H  H219  1  0.289800  0.812300  0.273600  1.0  0.1567
  H  H220  1  0.286200  0.773300  0.340500  1.0  0.155
  H  H221  1  0.219500  0.609000  0.285700  1.0  0.1527
  H  H222  1  0.227000  0.648300  0.227300  1.0  0.1344
  H  H223  1  0.209000  0.617500  0.363000  1.0  0.1672
  H  H224  1  0.277900  0.725500  0.390000  1.0  0.1727
  H  H225  1  0.275000  0.726300  0.466400  1.0  0.112
  H  H226  1  0.250500  0.690900  0.531700  1.0  0.1421
  H  H227  1  0.157800  0.535300  0.482800  1.0  0.1297
  H  H228  1  0.178800  0.573600  0.417900  1.0  0.1322
  H  H229  1  0.973100  0.758200  0.088900  1.0  0.4257
  H  H230  1  0.581400  0.880100  0.150700  1.0  0.242
  H  H231  1  0.452500  0.364600  0.091200  1.0  0.4188
  H  H232  1  0.059700  0.191500  0.696500  1.0  0.1546
  H  H233  1  0.069500  0.161600  0.760700  1.0  0.1158
  H  H234  1  0.115500  0.056000  0.712100  1.0  0.1373
  H  H235  1  0.101600  0.081800  0.647500  1.0  0.1226
  H  H236  1  0.122900  0.057700  0.772100  1.0  0.1547
  H  H237  1  0.063900  0.105800  0.815600  1.0  0.1627
  H  H238  1  0.053000  0.101100  0.884900  1.0  0.1427
  H  H239  1  0.078900  0.084700  0.947600  1.0  0.1083
  H  H240  1  0.190800  0.043600  0.905700  1.0  0.1428
  H  H241  1  0.156600  0.048000  0.840900  1.0  0.1274
  H  H242  1  0.031900  0.856400  0.075100  1.0  0.1544
  H  H243  1  0.193700  0.903600  0.098900  1.0  0.105
  H  H244  1  0.074700  0.741900  0.117300  1.0  0.1864
  H  H245  1  0.481400  0.842300  0.153700  1.0  0.1507
  H  H246  1  0.437500  0.960700  0.133900  1.0  0.1261
  H  H247  1  0.599500  0.009400  0.151300  1.0  0.1478
  H  H248  1  0.252200  0.666800  0.732700  1.0  0.1437
  H  H249  1  0.268900  0.696900  0.800700  1.0  0.1105
  H  H250  1  0.176400  0.536700  0.841800  1.0  0.1556
  H  H251  1  0.145100  0.508200  0.774500  1.0  0.1481
  H  H252  1  0.234900  0.595600  0.883500  1.0  0.1323
  H  H253  1  0.252600  0.704600  0.873700  1.0  0.137
  H  H254  1  0.284700  0.769700  0.914600  1.0  0.1443
  H  H255  1  0.296100  0.807500  0.978800  1.0  0.1252
  H  H256  1  0.240800  0.656500  0.030200  1.0  0.133
  H  H257  1  0.221400  0.616700  0.966200  1.0  0.1166
  H  H258  1  0.487700  0.302300  0.107300  1.0  0.1454
  H  H259  1  0.376800  0.138900  0.075200  1.0  0.1358
  H  H260  1  0.336300  0.260100  0.057400  1.0  0.1163
  H  H261  1  0.812300  0.289800  0.773600  1.0  0.1554
  H  H262  1  0.773300  0.286200  0.840500  1.0  0.1534
  H  H263  1  0.609000  0.219500  0.785700  1.0  0.1545
  H  H264  1  0.648300  0.227000  0.727300  1.0  0.1344
  H  H265  1  0.617500  0.209000  0.863000  1.0  0.165
  H  H266  1  0.725500  0.277900  0.890000  1.0  0.1733
  H  H267  1  0.726300  0.275000  0.966400  1.0  0.1121
  H  H268  1  0.690900  0.250500  0.031700  1.0  0.1432
  H  H269  1  0.535300  0.157800  0.982800  1.0  0.1307
  H  H270  1  0.573600  0.178800  0.917900  1.0  0.1323
  H  H271  1  0.192700  0.339600  0.675000  1.0  0.1619
  H  H272  1  0.168000  0.277700  0.658300  1.0  0.1333
  H  H273  1  0.229500  0.324700  0.646400  1.0  0.1291
  H  H274  1  0.252800  0.237600  0.706100  1.0  0.1627
  H  H275  1  0.258300  0.263900  0.662800  1.0  0.1594
  H  H276  1  0.198800  0.217400  0.678900  1.0  0.1298
  H  H277  1  0.423700  0.270600  0.291900  1.0  0.1612
  H  H278  1  0.470400  0.254000  0.284600  1.0  0.1356
  H  H279  1  0.408000  0.213400  0.270200  1.0  0.1515
  H  H280  1  0.488500  0.264800  0.184500  1.0  0.1646
  H  H281  1  0.452600  0.211700  0.212100  1.0  0.1327
  H  H282  1  0.512200  0.259600  0.226700  1.0  0.1554
  H  H283  1  0.631600  0.028500  0.508800  1.0  0.1665
  H  H284  1  0.605500  0.010600  0.552500  1.0  0.1346
  H  H285  1  0.667300  0.023000  0.544100  1.0  0.1345
  H  H286  1  0.687100  0.132700  0.605200  1.0  0.1526
  H  H287  1  0.709300  0.090700  0.595900  1.0  0.2338
  H  H288  1  0.645500  0.067100  0.607500  1.0  0.1792
  H  H289  1  0.776500  0.769000  0.302600  1.0  0.1594
  H  H290  1  0.784600  0.718000  0.315300  1.0  0.1661
  H  H291  1  0.833700  0.770600  0.293100  1.0  0.1143
  H  H292  1  0.914100  0.834400  0.352600  1.0  0.0847
  H  H293  1  0.891200  0.775700  0.330900  1.0  0.1042
  H  H294  1  0.891800  0.778900  0.378500  1.0  0.1595
  H  H295  1  0.439000  0.863800  0.300000  1.0  0.1394
  H  H296  1  0.479500  0.903600  0.334200  1.0  0.1401
  H  H297  1  0.457400  0.928300  0.300300  1.0  0.1389
  H  H298  1  0.383300  0.935500  0.381000  1.0  0.1577
  H  H299  1  0.420000  0.967300  0.342800  1.0  0.1515
  H  H300  1  0.447300  0.952000  0.379100  1.0  0.141
  H  H301  1  0.146900  0.807300  0.675000  1.0  0.1605
  H  H302  1  0.109700  0.832000  0.658300  1.0  0.1347
  H  H303  1  0.095200  0.770500  0.646400  1.0  0.1297
  H  H304  1  0.984800  0.747200  0.706100  1.0  0.1634
  H  H305  1  0.005600  0.741700  0.662800  1.0  0.1596
  H  H306  1  0.018600  0.801200  0.678900  1.0  0.1292
  H  H307  1  0.846900  0.576300  0.291900  1.0  0.1603
  H  H308  1  0.783600  0.529600  0.284600  1.0  0.1335
  H  H309  1  0.805400  0.592000  0.270200  1.0  0.1511
  H  H310  1  0.776300  0.511500  0.184500  1.0  0.1634
  H  H311  1  0.759100  0.547400  0.212100  1.0  0.1343
  H  H312  1  0.747400  0.487800  0.226700  1.0  0.1521
  H  H313  1  0.396900  0.368400  0.508800  1.0  0.166
  H  H314  1  0.405100  0.394500  0.552500  1.0  0.1319
  H  H315  1  0.355700  0.332700  0.544100  1.0  0.1367
  H  H316  1  0.445600  0.312900  0.605200  1.0  0.1587
  H  H317  1  0.381400  0.290700  0.595900  1.0  0.2324
  H  H318  1  0.421600  0.354500  0.607500  1.0  0.1807
  H  H319  1  0.992500  0.223500  0.302600  1.0  0.1608
  H  H320  1  0.933400  0.215400  0.315300  1.0  0.1663
  H  H321  1  0.936900  0.166300  0.293100  1.0  0.1141
  H  H322  1  0.920300  0.085900  0.352600  1.0  0.084
  H  H323  1  0.884500  0.108800  0.330900  1.0  0.1038
  H  H324  1  0.887100  0.108200  0.378500  1.0  0.1595
  H  H325  1  0.424800  0.561000  0.300000  1.0  0.1418
  H  H326  1  0.424100  0.520500  0.334200  1.0  0.1393
  H  H327  1  0.470900  0.542600  0.300300  1.0  0.1378
  H  H328  1  0.552200  0.616700  0.381000  1.0  0.1618
  H  H329  1  0.547300  0.580000  0.342800  1.0  0.1528
  H  H330  1  0.504700  0.552700  0.379100  1.0  0.1416
  H  H331  1  0.660400  0.853100  0.675000  1.0  0.1614
  H  H332  1  0.722300  0.890300  0.658300  1.0  0.1296
  H  H333  1  0.675300  0.904800  0.646400  1.0  0.1291
  H  H334  1  0.762400  0.015200  0.706100  1.0  0.164
  H  H335  1  0.736100  0.994400  0.662800  1.0  0.1594
  H  H336  1  0.782600  0.981400  0.678900  1.0  0.1267
  H  H337  1  0.729400  0.153100  0.291900  1.0  0.1599
  H  H338  1  0.746000  0.216400  0.284600  1.0  0.135
  H  H339  1  0.786600  0.194600  0.270200  1.0  0.1513
  H  H340  1  0.735200  0.223700  0.184500  1.0  0.1631
  H  H341  1  0.788300  0.240900  0.212100  1.0  0.1356
  H  H342  1  0.740400  0.252600  0.226700  1.0  0.1526
  H  H343  1  0.971500  0.603100  0.508800  1.0  0.1664
  H  H344  1  0.989400  0.594900  0.552500  1.0  0.1326
  H  H345  1  0.977000  0.644300  0.544100  1.0  0.1378
  H  H346  1  0.867300  0.554400  0.605200  1.0  0.1512
  H  H347  1  0.909300  0.618600  0.595900  1.0  0.2327
  H  H348  1  0.932900  0.578400  0.607500  1.0  0.186
  H  H349  1  0.231000  0.007500  0.302600  1.0  0.1628
  H  H350  1  0.282000  0.066600  0.315300  1.0  0.1708
  H  H351  1  0.229400  0.063100  0.293100  1.0  0.1151
  H  H352  1  0.165600  0.079700  0.352600  1.0  0.0879
  H  H353  1  0.224300  0.115500  0.330900  1.0  0.1039
  H  H354  1  0.221100  0.112900  0.378500  1.0  0.159
  H  H355  1  0.136200  0.575200  0.300000  1.0  0.1398
  H  H356  1  0.096400  0.575900  0.334200  1.0  0.1426
  H  H357  1  0.071700  0.529100  0.300300  1.0  0.1383
  H  H358  1  0.064500  0.447800  0.381000  1.0  0.1636
  H  H359  1  0.032700  0.452700  0.342800  1.0  0.1522
  H  H360  1  0.048000  0.495300  0.379100  1.0  0.1407
  H  H361  1  0.853100  0.660400  0.175000  1.0  0.1618
  H  H362  1  0.890300  0.722300  0.158300  1.0  0.1335
  H  H363  1  0.904800  0.675300  0.146400  1.0  0.1282
  H  H364  1  0.015200  0.762400  0.206100  1.0  0.1625
  H  H365  1  0.994400  0.736100  0.162800  1.0  0.1595
  H  H366  1  0.981400  0.782600  0.178900  1.0  0.1299
  H  H367  1  0.153100  0.729400  0.791900  1.0  0.1615
  H  H368  1  0.216400  0.746000  0.784600  1.0  0.1349
  H  H369  1  0.194600  0.786600  0.770200  1.0  0.1516
  H  H370  1  0.223700  0.735200  0.684500  1.0  0.1644
  H  H371  1  0.240900  0.788300  0.712100  1.0  0.1344
  H  H372  1  0.252600  0.740400  0.726700  1.0  0.1547
  H  H373  1  0.603100  0.971500  0.008800  1.0  0.1666
  H  H374  1  0.594900  0.989400  0.052500  1.0  0.135
  H  H375  1  0.644300  0.977000  0.044100  1.0  0.1349
  H  H376  1  0.554400  0.867300  0.105200  1.0  0.1509
  H  H377  1  0.618600  0.909300  0.095900  1.0  0.2343
  H  H378  1  0.578400  0.932900  0.107500  1.0  0.1798
  H  H379  1  0.007500  0.231000  0.802600  1.0  0.1585
  H  H380  1  0.066600  0.282000  0.815300  1.0  0.1655
  H  H381  1  0.063100  0.229400  0.793100  1.0  0.1145
  H  H382  1  0.079700  0.165600  0.852600  1.0  0.0824
  H  H383  1  0.115500  0.224300  0.830900  1.0  0.1034
  H  H384  1  0.112900  0.221100  0.878500  1.0  0.1602
  H  H385  1  0.575200  0.136200  0.800000  1.0  0.1414
  H  H386  1  0.575900  0.096400  0.834200  1.0  0.1393
  H  H387  1  0.529100  0.071700  0.800300  1.0  0.1373
  H  H388  1  0.447800  0.064500  0.881000  1.0  0.158
  H  H389  1  0.452700  0.032700  0.842800  1.0  0.1528
  H  H390  1  0.495300  0.048000  0.879100  1.0  0.1407
  H  H391  1  0.339600  0.192700  0.175000  1.0  0.1607
  H  H392  1  0.277700  0.168000  0.158300  1.0  0.1347
  H  H393  1  0.324700  0.229500  0.146400  1.0  0.1299
  H  H394  1  0.237600  0.252800  0.206100  1.0  0.1633
  H  H395  1  0.263900  0.258300  0.162800  1.0  0.1592
  H  H396  1  0.217400  0.198800  0.178900  1.0  0.1282
  H  H397  1  0.270600  0.423700  0.791900  1.0  0.1604
  H  H398  1  0.254000  0.470400  0.784600  1.0  0.135
  H  H399  1  0.213400  0.408000  0.770200  1.0  0.1513
  H  H400  1  0.264800  0.488500  0.684500  1.0  0.1634
  H  H401  1  0.211700  0.452600  0.712100  1.0  0.1334
  H  H402  1  0.259600  0.512200  0.726700  1.0  0.1526
  H  H403  1  0.028500  0.631600  0.008800  1.0  0.1655
  H  H404  1  0.010600  0.605500  0.052500  1.0  0.1296
  H  H405  1  0.023000  0.667300  0.044100  1.0  0.137
  H  H406  1  0.132700  0.687100  0.105200  1.0  0.1592
  H  H407  1  0.090700  0.709300  0.095900  1.0  0.2339
  H  H408  1  0.067100  0.645500  0.107500  1.0  0.1799
  H  H409  1  0.769000  0.776500  0.802600  1.0  0.1615
  H  H410  1  0.718000  0.784600  0.815300  1.0  0.1656
  H  H411  1  0.770600  0.833700  0.793100  1.0  0.1162
  H  H412  1  0.834400  0.914100  0.852600  1.0  0.0822
  H  H413  1  0.775700  0.891200  0.830900  1.0  0.1039
  H  H414  1  0.778900  0.891800  0.878500  1.0  0.1593
  H  H415  1  0.863800  0.439000  0.800000  1.0  0.142
  H  H416  1  0.903600  0.479500  0.834200  1.0  0.1404
  H  H417  1  0.928300  0.457400  0.800300  1.0  0.1391
  H  H418  1  0.935500  0.383300  0.881000  1.0  0.1631
  H  H419  1  0.967300  0.420000  0.842800  1.0  0.1531
  H  H420  1  0.952000  0.447300  0.879100  1.0  0.1421
  H  H421  1  0.807300  0.146900  0.175000  1.0  0.1614
  H  H422  1  0.832000  0.109700  0.158300  1.0  0.1305
  H  H423  1  0.770500  0.095200  0.146400  1.0  0.1294
  H  H424  1  0.747200  0.984800  0.206100  1.0  0.1639
  H  H425  1  0.741700  0.005600  0.162800  1.0  0.1596
  H  H426  1  0.801200  0.018600  0.178900  1.0  0.1268
  H  H427  1  0.576300  0.846900  0.791900  1.0  0.1592
  H  H428  1  0.529600  0.783600  0.784600  1.0  0.134
  H  H429  1  0.592000  0.805400  0.770200  1.0  0.1507
  H  H430  1  0.511500  0.776300  0.684500  1.0  0.1632
  H  H431  1  0.547400  0.759100  0.712100  1.0  0.1354
  H  H432  1  0.487800  0.747400  0.726700  1.0  0.1526
  H  H433  1  0.368400  0.396900  0.008800  1.0  0.1665
  H  H434  1  0.394500  0.405100  0.052500  1.0  0.1336
  H  H435  1  0.332700  0.355700  0.044100  1.0  0.1362
  H  H436  1  0.312900  0.445600  0.105200  1.0  0.1533
  H  H437  1  0.290700  0.381400  0.095900  1.0  0.2295
  H  H438  1  0.354500  0.421600  0.107500  1.0  0.1859
  H  H439  1  0.223500  0.992500  0.802600  1.0  0.1615
  H  H440  1  0.215400  0.933400  0.815300  1.0  0.169
  H  H441  1  0.166300  0.936900  0.793100  1.0  0.1157
  H  H442  1  0.085900  0.920300  0.852600  1.0  0.0875
  H  H443  1  0.108800  0.884500  0.830900  1.0  0.1035
  H  H444  1  0.108200  0.887100  0.878500  1.0  0.1582
  H  H445  1  0.561000  0.424800  0.800000  1.0  0.1398
  H  H446  1  0.520500  0.424100  0.834200  1.0  0.1426
  H  H447  1  0.542600  0.470900  0.800300  1.0  0.1391
  H  H448  1  0.616700  0.552200  0.881000  1.0  0.1623
  H  H449  1  0.580000  0.547300  0.842800  1.0  0.1509
  H  H450  1  0.552700  0.504700  0.879100  1.0  0.1407
  C  C451  1  0.911300  0.842400  0.125100  1.0  0.6394
  C  C452  1  0.940500  0.861700  0.165800  1.0  -0.1163
  C  C453  1  0.905900  0.836700  0.199500  1.0  -0.142
  C  C454  1  0.929800  0.855500  0.237700  1.0  -0.0784
  C  C455  1  0.985400  0.899000  0.242600  1.0  0.0244
  C  C456  1  0.020800  0.919400  0.208900  1.0  -0.1893
  C  C457  1  0.997300  0.902300  0.170400  1.0  -0.0243
  C  C458  1  0.026100  0.922300  0.275500  1.0  -0.0732
  C  C459  1  0.997300  0.910200  0.315400  1.0  -0.0822
  C  C460  1  0.026000  0.921400  0.354300  1.0  0.1135
  C  C461  1  0.990300  0.911200  0.387600  1.0  -0.1589
  C  C462  1  0.017000  0.920800  0.425100  1.0  0.0006
  C  C463  1  0.071100  0.937000  0.433100  1.0  -0.1471
  C  C464  1  0.109800  0.947200  0.401700  1.0  -0.0556
  C  C465  1  0.084400  0.941500  0.363200  1.0  -0.0467
  C  C466  1  0.092800  0.936100  0.475600  1.0  0.6825
  C  C467  1  0.250700  0.203300  0.601400  1.0  0.3134
  C  C468  1  0.211700  0.151800  0.582800  1.0  -0.0857
  C  C469  1  0.232000  0.112700  0.576700  1.0  -0.1219
  C  C470  1  0.282100  0.125600  0.595700  1.0  -0.0551
  C  C471  1  0.320000  0.176500  0.610100  1.0  0.0039
  C  C472  1  0.306500  0.220800  0.610900  1.0  -0.0928
  C  C473  1  0.376800  0.188400  0.620400  1.0  0.6492
  C  C474  1  0.189300  0.050400  0.565600  1.0  0.7357
  C  C475  1  0.621400  0.075400  0.652500  1.0  0.1957
  C  C476  1  0.610800  0.120100  0.649900  1.0  -0.1421
  C  C477  1  0.555200  0.105100  0.641200  1.0  -0.1358
  C  C478  1  0.514400  0.048300  0.636600  1.0  -0.047
  C  C479  1  0.526000  0.004100  0.635800  1.0  0.0346
  C  C480  1  0.580700  0.018600  0.647200  1.0  -0.1323
  C  C481  1  0.480800  0.946300  0.631600  1.0  0.7322
  C  C482  1  0.537700  0.149200  0.635100  1.0  0.6763
  C  C483  1  0.620300  0.437800  0.206300  1.0  0.3682
  C  C484  1  0.617200  0.416300  0.249100  1.0  -0.0593
  C  C485  1  0.594600  0.358400  0.254300  1.0  -0.159
  C  C486  1  0.586900  0.341400  0.294800  1.0  -0.0722
  C  C487  1  0.600700  0.379400  0.326800  1.0  0.0139
  C  C488  1  0.625500  0.437400  0.320400  1.0  -0.1439
  C  C489  1  0.628100  0.454900  0.280300  1.0  -0.0489
  C  C490  1  0.609000  0.374000  0.369800  1.0  -0.0802
  C  C491  1  0.572400  0.325200  0.390500  1.0  -0.0801
  C  C492  1  0.565000  0.311600  0.433500  1.0  0.0762
  C  C493  1  0.528500  0.253500  0.437400  1.0  -0.2095
  C  C494  1  0.512900  0.231400  0.476400  1.0  -0.0473
  C  C495  1  0.530700  0.262800  0.512100  1.0  0.0119
  C  C496  1  0.568500  0.320700  0.507400  1.0  -0.086
  C  C497  1  0.582600  0.344200  0.468700  1.0  -0.055
  C  C498  1  0.510300  0.234700  0.550900  1.0  0.1833
  C  C499  1  0.123500  0.711300  0.580500  1.0  0.2493
  C  C500  1  0.177800  0.725300  0.597700  1.0  -0.0689
  C  C501  1  0.219200  0.784400  0.599100  1.0  -0.0689
  C  C502  1  0.208200  0.824500  0.579500  1.0  -0.0547
  C  C503  1  0.152000  0.809400  0.566200  1.0  0.0627
  C  C504  1  0.112500  0.751500  0.566900  1.0  -0.1098
  C  C505  1  0.141800  0.854900  0.555900  1.0  0.6452
  C  C506  1  0.278300  0.803300  0.612000  1.0  0.6847
  C  C507  1  0.491300  0.734600  0.202200  1.0  0.5199
  C  C508  1  0.472400  0.736100  0.243200  1.0  -0.0667
  C  C509  1  0.495800  0.721700  0.277100  1.0  -0.098
  C  C510  1  0.475000  0.725900  0.318200  1.0  -0.0428
  C  C511  1  0.438500  0.747500  0.324900  1.0  -0.0909
  C  C512  1  0.414400  0.766600  0.283500  1.0  -0.1252
  C  C513  1  0.432500  0.761100  0.250200  1.0  -0.022
  C  C514  1  0.423700  0.767100  0.362300  1.0  -0.0739
  C  C515  1  0.434200  0.747400  0.391900  1.0  -0.0077
  C  C516  1  0.423500  0.768700  0.434600  1.0  -0.0277
  C  C517  1  0.437300  0.749700  0.469700  1.0  -0.0279
  C  C518  1  0.431800  0.764500  0.509200  1.0  -0.0934
  C  C519  1  0.412700  0.802900  0.513100  1.0  -0.1141
  C  C520  1  0.394900  0.820500  0.479300  1.0  -0.0247
  C  C521  1  0.403100  0.806000  0.440400  1.0  -0.0875
  C  C522  1  0.402600  0.820400  0.554800  1.0  0.6487
  C  C523  1  0.088700  0.931100  0.625100  1.0  0.6404
  C  C524  1  0.059500  0.921200  0.665800  1.0  -0.1149
  C  C525  1  0.094100  0.930800  0.699500  1.0  -0.1438
  C  C526  1  0.070200  0.925700  0.737700  1.0  -0.0772
  C  C527  1  0.014600  0.913600  0.742600  1.0  0.0259
  C  C528  1  0.979200  0.898600  0.708900  1.0  -0.1942
  C  C529  1  0.002700  0.905000  0.670400  1.0  -0.0211
  C  C530  1  0.973900  0.896200  0.775500  1.0  -0.0732
  C  C531  1  0.002700  0.912900  0.815400  1.0  -0.0805
  C  C532  1  0.974000  0.895400  0.854300  1.0  0.1152
  C  C533  1  0.009700  0.920900  0.887600  1.0  -0.1569
  C  C534  1  0.983000  0.903800  0.925100  1.0  -0.0011
  C  C535  1  0.928900  0.865900  0.933100  1.0  -0.1453
  C  C536  1  0.890200  0.837400  0.901700  1.0  -0.0603
  C  C537  1  0.915600  0.857100  0.863200  1.0  -0.0478
  C  C538  1  0.907200  0.843300  0.975600  1.0  0.6808
  C  C539  1  0.749300  0.952600  0.101400  1.0  0.3121
  C  C540  1  0.788300  0.940100  0.082800  1.0  -0.0853
  C  C541  1  0.768000  0.880700  0.076700  1.0  -0.1226
  C  C542  1  0.717900  0.843500  0.095700  1.0  -0.0532
  C  C543  1  0.680000  0.856500  0.110100  1.0  0.0023
  C  C544  1  0.693500  0.914300  0.110900  1.0  -0.0929
  C  C545  1  0.623200  0.811600  0.120400  1.0  0.6507
  C  C546  1  0.810700  0.861100  0.065600  1.0  0.7355
  C  C547  1  0.378600  0.454000  0.152500  1.0  0.1988
  C  C548  1  0.389200  0.509300  0.149900  1.0  -0.14
  C  C549  1  0.444800  0.549900  0.141200  1.0  -0.1354
  C  C550  1  0.485600  0.533900  0.136600  1.0  -0.0498
  C  C551  1  0.474000  0.478100  0.135800  1.0  0.0323
  C  C552  1  0.419300  0.437900  0.147200  1.0  -0.1307
  C  C553  1  0.519200  0.465500  0.131600  1.0  0.7298
  C  C554  1  0.462300  0.611500  0.135100  1.0  0.6761
  C  C555  1  0.379700  0.817500  0.706300  1.0  0.3688
  C  C556  1  0.382800  0.799100  0.749100  1.0  -0.0556
  C  C557  1  0.405400  0.763800  0.754300  1.0  -0.1585
  C  C558  1  0.413100  0.754500  0.794800  1.0  -0.0716
  C  C559  1  0.399300  0.778700  0.826800  1.0  0.017
  C  C560  1  0.374500  0.811900  0.820400  1.0  -0.1401
  C  C561  1  0.371900  0.826800  0.780300  1.0  -0.0459
  C  C562  1  0.391000  0.765000  0.869800  1.0  -0.081
  C  C563  1  0.427600  0.752800  0.890500  1.0  -0.0792
  C  C564  1  0.435000  0.746600  0.933500  1.0  0.0763
  C  C565  1  0.471500  0.725000  0.937400  1.0  -0.2072
  C  C566  1  0.487100  0.718500  0.976400  1.0  -0.0447
  C  C567  1  0.469300  0.732100  0.012100  1.0  0.012
  C  C568  1  0.431500  0.752200  0.007400  1.0  -0.0845
  C  C569  1  0.417400  0.761600  0.968700  1.0  -0.0566
  C  C570  1  0.489700  0.724400  0.050900  1.0  0.1834
  C  C571  1  0.876500  0.587800  0.080500  1.0  0.2491
  C  C572  1  0.822200  0.547500  0.097700  1.0  -0.0697
  C  C573  1  0.780800  0.565200  0.099100  1.0  -0.0695
  C  C574  1  0.791800  0.616300  0.079500  1.0  -0.0553
  C  C575  1  0.848000  0.657400  0.066200  1.0  0.0627
  C  C576  1  0.887500  0.639000  0.066900  1.0  -0.1091
  C  C577  1  0.858200  0.713100  0.055900  1.0  0.6464
  C  C578  1  0.721700  0.525000  0.112000  1.0  0.6837
  C  C579  1  0.508700  0.243300  0.702200  1.0  0.5209
  C  C580  1  0.527600  0.263700  0.743200  1.0  -0.0672
  C  C581  1  0.504200  0.225900  0.777100  1.0  -0.1029
  C  C582  1  0.525000  0.250900  0.818200  1.0  -0.0435
  C  C583  1  0.561500  0.309000  0.824900  1.0  -0.0927
  C  C584  1  0.585600  0.352200  0.783500  1.0  -0.1298
  C  C585  1  0.567500  0.328600  0.750200  1.0  -0.0236
  C  C586  1  0.576300  0.343400  0.862300  1.0  -0.073
  C  C587  1  0.565800  0.313200  0.891900  1.0  -0.0087
  C  C588  1  0.576500  0.345200  0.934600  1.0  -0.0262
  C  C589  1  0.562700  0.312400  0.969700  1.0  -0.0327
  C  C590  1  0.568200  0.332700  0.009200  1.0  -0.0939
  C  C591  1  0.587300  0.390200  0.013100  1.0  -0.1156
  C  C592  1  0.605100  0.425600  0.979300  1.0  -0.0264
  C  C593  1  0.596900  0.402900  0.940400  1.0  -0.0889
  C  C594  1  0.597400  0.417800  0.054800  1.0  0.6478
  C  C595  1  0.931100  0.088700  0.125100  1.0  0.6417
  C  C596  1  0.921200  0.059500  0.165800  1.0  -0.1166
  C  C597  1  0.930800  0.094100  0.199500  1.0  -0.1403
  C  C598  1  0.925700  0.070200  0.237700  1.0  -0.0781
  C  C599  1  0.913600  0.014600  0.242600  1.0  0.023
  C  C600  1  0.898600  0.979200  0.208900  1.0  -0.1896
  C  C601  1  0.905000  0.002700  0.170400  1.0  -0.0241
  C  C602  1  0.896200  0.973900  0.275500  1.0  -0.0746
  C  C603  1  0.912900  0.002700  0.315400  1.0  -0.0796
  C  C604  1  0.895400  0.974000  0.354300  1.0  0.1141
  C  C605  1  0.920900  0.009700  0.387600  1.0  -0.1583
  C  C606  1  0.903800  0.983000  0.425100  1.0  -0.0003
  C  C607  1  0.865900  0.928900  0.433100  1.0  -0.1441
  C  C608  1  0.837400  0.890200  0.401700  1.0  -0.065
  C  C609  1  0.857100  0.915600  0.363200  1.0  -0.0498
  C  C610  1  0.843300  0.907200  0.475600  1.0  0.6842
  C  C611  1  0.952600  0.749300  0.601400  1.0  0.3107
  C  C612  1  0.940100  0.788300  0.582800  1.0  -0.085
  C  C613  1  0.880700  0.768000  0.576700  1.0  -0.1207
  C  C614  1  0.843500  0.717900  0.595700  1.0  -0.057
  C  C615  1  0.856500  0.680000  0.610100  1.0  0.0054
  C  C616  1  0.914300  0.693500  0.610900  1.0  -0.0931
  C  C617  1  0.811600  0.623200  0.620400  1.0  0.6486
  C  C618  1  0.861100  0.810700  0.565600  1.0  0.7341
  C  C619  1  0.454000  0.378600  0.652500  1.0  0.1977
  C  C620  1  0.509300  0.389200  0.649900  1.0  -0.1394
  C  C621  1  0.549900  0.444800  0.641200  1.0  -0.137
  C  C622  1  0.533900  0.485600  0.636600  1.0  -0.0522
  C  C623  1  0.478100  0.474000  0.635800  1.0  0.0371
  C  C624  1  0.437900  0.419300  0.647200  1.0  -0.1346
  C  C625  1  0.465500  0.519200  0.631600  1.0  0.7287
  C  C626  1  0.611500  0.462300  0.635100  1.0  0.6774
  C  C627  1  0.817500  0.379700  0.206300  1.0  0.3678
  C  C628  1  0.799100  0.382800  0.249100  1.0  -0.058
  C  C629  1  0.763800  0.405400  0.254300  1.0  -0.1586
  C  C630  1  0.754500  0.413100  0.294800  1.0  -0.0734
  C  C631  1  0.778700  0.399300  0.326800  1.0  0.0176
  C  C632  1  0.811900  0.374500  0.320400  1.0  -0.1448
  C  C633  1  0.826800  0.371900  0.280300  1.0  -0.0473
  C  C634  1  0.765000  0.391000  0.369800  1.0  -0.0819
  C  C635  1  0.752800  0.427600  0.390500  1.0  -0.0779
  C  C636  1  0.746600  0.435000  0.433500  1.0  0.0763
  C  C637  1  0.725000  0.471500  0.437400  1.0  -0.2021
  C  C638  1  0.718500  0.487100  0.476400  1.0  -0.0477
  C  C639  1  0.732100  0.469300  0.512100  1.0  0.0133
  C  C640  1  0.752200  0.431500  0.507400  1.0  -0.0848
  C  C641  1  0.761600  0.417400  0.468700  1.0  -0.052
  C  C642  1  0.724400  0.489700  0.550900  1.0  0.1855
  C  C643  1  0.587800  0.876500  0.580500  1.0  0.2484
  C  C644  1  0.547500  0.822200  0.597700  1.0  -0.0698
  C  C645  1  0.565200  0.780800  0.599100  1.0  -0.0689
  C  C646  1  0.616300  0.791800  0.579500  1.0  -0.0537
  C  C647  1  0.657400  0.848000  0.566200  1.0  0.0619
  C  C648  1  0.639000  0.887500  0.566900  1.0  -0.1111
  C  C649  1  0.713100  0.858200  0.555900  1.0  0.6437
  C  C650  1  0.525000  0.721700  0.612000  1.0  0.6871
  C  C651  1  0.243300  0.508700  0.202200  1.0  0.5201
  C  C652  1  0.263700  0.527600  0.243200  1.0  -0.0658
  C  C653  1  0.225900  0.504200  0.277100  1.0  -0.0959
  C  C654  1  0.250900  0.525000  0.318200  1.0  -0.0469
  C  C655  1  0.309000  0.561500  0.324900  1.0  -0.0899
  C  C656  1  0.352200  0.585600  0.283500  1.0  -0.1275
  C  C657  1  0.328600  0.567500  0.250200  1.0  -0.0222
  C  C658  1  0.343400  0.576300  0.362300  1.0  -0.0742
  C  C659  1  0.313200  0.565800  0.391900  1.0  -0.0084
  C  C660  1  0.345200  0.576500  0.434600  1.0  -0.0237
  C  C661  1  0.312400  0.562700  0.469700  1.0  -0.0307
  C  C662  1  0.332700  0.568200  0.509200  1.0  -0.0922
  C  C663  1  0.390200  0.587300  0.513100  1.0  -0.1165
  C  C664  1  0.425600  0.605100  0.479300  1.0  -0.0216
  C  C665  1  0.402900  0.596900  0.440400  1.0  -0.0886
  C  C666  1  0.417800  0.597400  0.554800  1.0  0.6471
  C  C667  1  0.842400  0.911300  0.625100  1.0  0.6417
  C  C668  1  0.861700  0.940500  0.665800  1.0  -0.1173
  C  C669  1  0.836700  0.905900  0.699500  1.0  -0.1393
  C  C670  1  0.855500  0.929800  0.737700  1.0  -0.0784
  C  C671  1  0.899000  0.985400  0.742600  1.0  0.0233
  C  C672  1  0.919400  0.020800  0.708900  1.0  -0.1894
  C  C673  1  0.902300  0.997300  0.670400  1.0  -0.0245
  C  C674  1  0.922300  0.026100  0.775500  1.0  -0.0741
  C  C675  1  0.910200  0.997300  0.815400  1.0  -0.0799
  C  C676  1  0.921400  0.026000  0.854300  1.0  0.1146
  C  C677  1  0.911200  0.990300  0.887600  1.0  -0.1578
  C  C678  1  0.920800  0.017000  0.925100  1.0  -0.0004
  C  C679  1  0.937000  0.071100  0.933100  1.0  -0.1458
  C  C680  1  0.947200  0.109800  0.901700  1.0  -0.0674
  C  C681  1  0.941500  0.084400  0.863200  1.0  -0.0495
  C  C682  1  0.936100  0.092800  0.975600  1.0  0.6836
  C  C683  1  0.203300  0.250700  0.101400  1.0  0.311
  C  C684  1  0.151800  0.211700  0.082800  1.0  -0.0843
  C  C685  1  0.112700  0.232000  0.076700  1.0  -0.1212
  C  C686  1  0.125600  0.282100  0.095700  1.0  -0.0573
  C  C687  1  0.176500  0.320000  0.110100  1.0  0.0054
  C  C688  1  0.220800  0.306500  0.110900  1.0  -0.094
  C  C689  1  0.188400  0.376800  0.120400  1.0  0.6482
  C  C690  1  0.050400  0.189300  0.065600  1.0  0.735
  C  C691  1  0.075400  0.621400  0.152500  1.0  0.1993
  C  C692  1  0.120100  0.610800  0.149900  1.0  -0.1396
  C  C693  1  0.105100  0.555200  0.141200  1.0  -0.1359
  C  C694  1  0.048300  0.514400  0.136600  1.0  -0.0513
  C  C695  1  0.004100  0.526000  0.135800  1.0  0.0345
  C  C696  1  0.018600  0.580700  0.147200  1.0  -0.1336
  C  C697  1  0.946300  0.480800  0.131600  1.0  0.7287
  C  C698  1  0.149200  0.537700  0.135100  1.0  0.677
  C  C699  1  0.437800  0.620300  0.706300  1.0  0.3681
  C  C700  1  0.416300  0.617200  0.749100  1.0  -0.0575
  C  C701  1  0.358400  0.594600  0.754300  1.0  -0.1579
  C  C702  1  0.341400  0.586900  0.794800  1.0  -0.0737
  C  C703  1  0.379400  0.600700  0.826800  1.0  0.0171
  C  C704  1  0.437400  0.625500  0.820400  1.0  -0.1442
  C  C705  1  0.454900  0.628100  0.780300  1.0  -0.0477
  C  C706  1  0.374000  0.609000  0.869800  1.0  -0.0818
  C  C707  1  0.325200  0.572400  0.890500  1.0  -0.0777
  C  C708  1  0.311600  0.565000  0.933500  1.0  0.0754
  C  C709  1  0.253500  0.528500  0.937400  1.0  -0.2044
  C  C710  1  0.231400  0.512900  0.976400  1.0  -0.0486
  C  C711  1  0.262800  0.530700  0.012100  1.0  0.0133
  C  C712  1  0.320700  0.568500  0.007400  1.0  -0.0842
  C  C713  1  0.344200  0.582600  0.968700  1.0  -0.0507
  C  C714  1  0.234700  0.510300  0.050900  1.0  0.1858
  C  C715  1  0.711300  0.123500  0.080500  1.0  0.2489
  C  C716  1  0.725300  0.177800  0.097700  1.0  -0.0699
  C  C717  1  0.784400  0.219200  0.099100  1.0  -0.0677
  C  C718  1  0.824500  0.208200  0.079500  1.0  -0.0539
  C  C719  1  0.809400  0.152000  0.066200  1.0  0.062
  C  C720  1  0.751500  0.112500  0.066900  1.0  -0.1104
  C  C721  1  0.854900  0.141800  0.055900  1.0  0.6441
  C  C722  1  0.803300  0.278300  0.112000  1.0  0.6857
  C  C723  1  0.734600  0.491300  0.702200  1.0  0.5194
  C  C724  1  0.736100  0.472400  0.743200  1.0  -0.0646
  C  C725  1  0.721700  0.495800  0.777100  1.0  -0.0963
  C  C726  1  0.725900  0.475000  0.818200  1.0  -0.0472
  C  C727  1  0.747500  0.438500  0.824900  1.0  -0.0896
  C  C728  1  0.766600  0.414400  0.783500  1.0  -0.1278
  C  C729  1  0.761100  0.432500  0.750200  1.0  -0.0224
  C  C730  1  0.767100  0.423700  0.862300  1.0  -0.0747
  C  C731  1  0.747400  0.434200  0.891900  1.0  -0.0089
  C  C732  1  0.768700  0.423500  0.934600  1.0  -0.0242
  C  C733  1  0.749700  0.437300  0.969700  1.0  -0.0311
  C  C734  1  0.764500  0.431800  0.009200  1.0  -0.093
  C  C735  1  0.802900  0.412700  0.013100  1.0  -0.1162
  C  C736  1  0.820500  0.394900  0.979300  1.0  -0.0212
  C  C737  1  0.806000  0.403100  0.940400  1.0  -0.089
  C  C738  1  0.820400  0.402600  0.054800  1.0  0.6465
  C  C739  1  0.157600  0.068900  0.125100  1.0  0.6395
  C  C740  1  0.138300  0.078800  0.165800  1.0  -0.1156
  C  C741  1  0.163300  0.069200  0.199500  1.0  -0.1428
  C  C742  1  0.144500  0.074300  0.237700  1.0  -0.0769
  C  C743  1  0.101000  0.086400  0.242600  1.0  0.0265
  C  C744  1  0.080600  0.101400  0.208900  1.0  -0.1938
  C  C745  1  0.097700  0.095000  0.170400  1.0  -0.0208
  C  C746  1  0.077700  0.103800  0.275500  1.0  -0.0747
  C  C747  1  0.089800  0.087100  0.315400  1.0  -0.0787
  C  C748  1  0.078600  0.104600  0.354300  1.0  0.1153
  C  C749  1  0.088800  0.079100  0.387600  1.0  -0.1574
  C  C750  1  0.079200  0.096200  0.425100  1.0  -0.0007
  C  C751  1  0.063000  0.134100  0.433100  1.0  -0.1464
  C  C752  1  0.052800  0.162600  0.401700  1.0  -0.0582
  C  C753  1  0.058500  0.142900  0.363200  1.0  -0.0505
  C  C754  1  0.063900  0.156700  0.475600  1.0  0.6804
  C  C755  1  0.796700  0.047400  0.601400  1.0  0.3119
  C  C756  1  0.848200  0.059900  0.582800  1.0  -0.0834
  C  C757  1  0.887300  0.119300  0.576700  1.0  -0.1215
  C  C758  1  0.874400  0.156500  0.595700  1.0  -0.0533
  C  C759  1  0.823500  0.143500  0.610100  1.0  0.0034
  C  C760  1  0.779200  0.085700  0.610900  1.0  -0.0931
  C  C761  1  0.811600  0.188400  0.620400  1.0  0.6509
  C  C762  1  0.949600  0.138900  0.565600  1.0  0.736
  C  C763  1  0.924600  0.546000  0.652500  1.0  0.2002
  C  C764  1  0.879900  0.490700  0.649900  1.0  -0.1396
  C  C765  1  0.894900  0.450100  0.641200  1.0  -0.1348
  C  C766  1  0.951700  0.466100  0.636600  1.0  -0.0504
  C  C767  1  0.995900  0.521900  0.635800  1.0  0.0321
  C  C768  1  0.981400  0.562100  0.647200  1.0  -0.1325
  C  C769  1  0.053700  0.534500  0.631600  1.0  0.7299
  C  C770  1  0.850800  0.388500  0.635100  1.0  0.6762
  C  C771  1  0.562200  0.182500  0.206300  1.0  0.368
  C  C772  1  0.583700  0.200900  0.249100  1.0  -0.0555
  C  C773  1  0.641600  0.236200  0.254300  1.0  -0.1589
  C  C774  1  0.658600  0.245500  0.294800  1.0  -0.0725
  C  C775  1  0.620600  0.221300  0.326800  1.0  0.017
  C  C776  1  0.562600  0.188100  0.320400  1.0  -0.1413
  C  C777  1  0.545100  0.173200  0.280300  1.0  -0.0459
  C  C778  1  0.626000  0.235000  0.369800  1.0  -0.081
  C  C779  1  0.674800  0.247200  0.390500  1.0  -0.078
  C  C780  1  0.688400  0.253400  0.433500  1.0  0.0758
  C  C781  1  0.746500  0.275000  0.437400  1.0  -0.2062
  C  C782  1  0.768600  0.281500  0.476400  1.0  -0.045
  C  C783  1  0.737200  0.267900  0.512100  1.0  0.0123
  C  C784  1  0.679300  0.247800  0.507400  1.0  -0.0843
  C  C785  1  0.655800  0.238400  0.468700  1.0  -0.0563
  C  C786  1  0.765300  0.275600  0.550900  1.0  0.1837
  C  C787  1  0.288700  0.412200  0.580500  1.0  0.2504
  C  C788  1  0.274700  0.452500  0.597700  1.0  -0.0703
  C  C789  1  0.215600  0.434800  0.599100  1.0  -0.0692
  C  C790  1  0.175500  0.383700  0.579500  1.0  -0.0552
  C  C791  1  0.190600  0.342600  0.566200  1.0  0.0617
  C  C792  1  0.248500  0.361000  0.566900  1.0  -0.1088
  C  C793  1  0.145100  0.286900  0.555900  1.0  0.6457
  C  C794  1  0.196700  0.475000  0.612000  1.0  0.6835
  C  C795  1  0.265400  0.756700  0.202200  1.0  0.5203
  C  C796  1  0.263900  0.736300  0.243200  1.0  -0.0669
  C  C797  1  0.278300  0.774100  0.277100  1.0  -0.1035
  C  C798  1  0.274100  0.749100  0.318200  1.0  -0.0442
  C  C799  1  0.252500  0.691000  0.324900  1.0  -0.0934
  C  C800  1  0.233400  0.647800  0.283500  1.0  -0.1296
  C  C801  1  0.238900  0.671400  0.250200  1.0  -0.0238
  C  C802  1  0.232900  0.656600  0.362300  1.0  -0.0743
  C  C803  1  0.252600  0.686800  0.391900  1.0  -0.0073
  C  C804  1  0.231300  0.654800  0.434600  1.0  -0.0262
  C  C805  1  0.250300  0.687600  0.469700  1.0  -0.0333
  C  C806  1  0.235500  0.667300  0.509200  1.0  -0.0947
  C  C807  1  0.197100  0.609800  0.513100  1.0  -0.1159
  C  C808  1  0.179500  0.574400  0.479300  1.0  -0.0245
  C  C809  1  0.194000  0.597100  0.440400  1.0  -0.0891
  C  C810  1  0.179600  0.582200  0.554800  1.0  0.6483
  C  C811  1  0.068900  0.157600  0.625100  1.0  0.6399
  C  C812  1  0.078800  0.138300  0.665800  1.0  -0.1163
  C  C813  1  0.069200  0.163300  0.699500  1.0  -0.1423
  C  C814  1  0.074300  0.144500  0.737700  1.0  -0.0785
  C  C815  1  0.086400  0.101000  0.742600  1.0  0.024
  C  C816  1  0.101400  0.080600  0.708900  1.0  -0.1891
  C  C817  1  0.095000  0.097700  0.670400  1.0  -0.0241
  C  C818  1  0.103800  0.077700  0.775500  1.0  -0.0736
  C  C819  1  0.087100  0.089800  0.815400  1.0  -0.0813
  C  C820  1  0.104600  0.078600  0.854300  1.0  0.1134
  C  C821  1  0.079100  0.088800  0.887600  1.0  -0.1589
  C  C822  1  0.096200  0.079200  0.925100  1.0  0.0007
  C  C823  1  0.134100  0.063000  0.933100  1.0  -0.1464
  C  C824  1  0.162600  0.052800  0.901700  1.0  -0.0548
  C  C825  1  0.142900  0.058500  0.863200  1.0  -0.049
  C  C826  1  0.156700  0.063900  0.975600  1.0  0.6826
  C  C827  1  0.047400  0.796700  0.101400  1.0  0.3137
  C  C828  1  0.059900  0.848200  0.082800  1.0  -0.0845
  C  C829  1  0.119300  0.887300  0.076700  1.0  -0.1204
  C  C830  1  0.156500  0.874400  0.095700  1.0  -0.0543
  C  C831  1  0.143500  0.823500  0.110100  1.0  0.0036
  C  C832  1  0.085700  0.779200  0.110900  1.0  -0.0939
  C  C833  1  0.188400  0.811600  0.120400  1.0  0.6473
  C  C834  1  0.138900  0.949600  0.065600  1.0  0.7353
  C  C835  1  0.546000  0.924600  0.152500  1.0  0.1947
  C  C836  1  0.490700  0.879900  0.149900  1.0  -0.1415
  C  C837  1  0.450100  0.894900  0.141200  1.0  -0.1359
  C  C838  1  0.466100  0.951700  0.136600  1.0  -0.0471
  C  C839  1  0.521900  0.995900  0.135800  1.0  0.0363
  C  C840  1  0.562100  0.981400  0.147200  1.0  -0.1315
  C  C841  1  0.534500  0.053700  0.131600  1.0  0.7325
  C  C842  1  0.388500  0.850800  0.135100  1.0  0.6767
  C  C843  1  0.182500  0.562200  0.706300  1.0  0.3675
  C  C844  1  0.200900  0.583700  0.749100  1.0  -0.0599
  C  C845  1  0.236200  0.641600  0.754300  1.0  -0.1597
  C  C846  1  0.245500  0.658600  0.794800  1.0  -0.0727
  C  C847  1  0.221300  0.620600  0.826800  1.0  0.0141
  C  C848  1  0.188100  0.562600  0.820400  1.0  -0.1446
  C  C849  1  0.173200  0.545100  0.780300  1.0  -0.0487
  C  C850  1  0.235000  0.626000  0.869800  1.0  -0.0807
  C  C851  1  0.247200  0.674800  0.890500  1.0  -0.0801
  C  C852  1  0.253400  0.688400  0.933500  1.0  0.0757
  C  C853  1  0.275000  0.746500  0.937400  1.0  -0.2077
  C  C854  1  0.281500  0.768600  0.976400  1.0  -0.0452
  C  C855  1  0.267900  0.737200  0.012100  1.0  0.0114
  C  C856  1  0.247800  0.679300  0.007400  1.0  -0.0842
  C  C857  1  0.238400  0.655800  0.968700  1.0  -0.0539
  C  C858  1  0.275600  0.765300  0.050900  1.0  0.1837
  C  C859  1  0.412200  0.288700  0.080500  1.0  0.2492
  C  C860  1  0.452500  0.274700  0.097700  1.0  -0.07
  C  C861  1  0.434800  0.215600  0.099100  1.0  -0.0692
  C  C862  1  0.383700  0.175500  0.079500  1.0  -0.0533
  C  C863  1  0.342600  0.190600  0.066200  1.0  0.0614
  C  C864  1  0.361000  0.248500  0.066900  1.0  -0.1101
  C  C865  1  0.286900  0.145100  0.055900  1.0  0.6443
  C  C866  1  0.475000  0.196700  0.112000  1.0  0.6856
  C  C867  1  0.756700  0.265400  0.702200  1.0  0.5204
  C  C868  1  0.736300  0.263900  0.743200  1.0  -0.0669
  C  C869  1  0.774100  0.278300  0.777100  1.0  -0.0983
  C  C870  1  0.749100  0.274100  0.818200  1.0  -0.0436
  C  C871  1  0.691000  0.252500  0.824900  1.0  -0.0908
  C  C872  1  0.647800  0.233400  0.783500  1.0  -0.1254
  C  C873  1  0.671400  0.238900  0.750200  1.0  -0.022
  C  C874  1  0.656600  0.232900  0.862300  1.0  -0.0747
  C  C875  1  0.686800  0.252600  0.891900  1.0  -0.0075
  C  C876  1  0.654800  0.231300  0.934600  1.0  -0.0273
  C  C877  1  0.687600  0.250300  0.969700  1.0  -0.0274
  C  C878  1  0.667300  0.235500  0.009200  1.0  -0.0935
  C  C879  1  0.609800  0.197100  0.013100  1.0  -0.1142
  C  C880  1  0.574400  0.179500  0.979300  1.0  -0.0232
  C  C881  1  0.597100  0.194000  0.940400  1.0  -0.0861
  C  C882  1  0.582200  0.179600  0.054800  1.0  0.6498
  C  C883  1  0.202000  0.311000  0.667700  1.0  -0.1755
  C  C884  1  0.235000  0.249700  0.686400  1.0  -0.2295
  C  C885  1  0.437000  0.252000  0.273600  1.0  -0.2387
  C  C886  1  0.479000  0.252100  0.212000  1.0  -0.2024
  C  C887  1  0.640000  0.034000  0.537000  1.0  -0.1851
  C  C888  1  0.677600  0.096800  0.593500  1.0  -0.2536
  C  C889  1  0.803000  0.758000  0.312200  1.0  -0.2389
  C  C890  1  0.887000  0.795000  0.354000  1.0  -0.2844
  C  C891  1  0.448000  0.896000  0.317000  1.0  -0.1968
  C  C892  1  0.413000  0.939000  0.363000  1.0  -0.1563
  C  C893  1  0.109000  0.798000  0.667700  1.0  -0.1763
  C  C894  1  0.014700  0.765000  0.686400  1.0  -0.2292
  C  C895  1  0.815000  0.563000  0.273600  1.0  -0.2341
  C  C896  1  0.773100  0.521000  0.212000  1.0  -0.1997
  C  C897  1  0.394000  0.360000  0.537000  1.0  -0.1819
  C  C898  1  0.419200  0.322400  0.593500  1.0  -0.2549
  C  C899  1  0.955000  0.197000  0.312200  1.0  -0.2373
  C  C900  1  0.908000  0.113000  0.354000  1.0  -0.2902
  C  C901  1  0.448000  0.552000  0.317000  1.0  -0.1936
  C  C902  1  0.526000  0.587000  0.363000  1.0  -0.1589
  C  C903  1  0.689000  0.891000  0.667700  1.0  -0.173
  C  C904  1  0.750300  0.985300  0.686400  1.0  -0.2306
  C  C905  1  0.748000  0.185000  0.273600  1.0  -0.2332
  C  C906  1  0.747900  0.226900  0.212000  1.0  -0.2021
  C  C907  1  0.966000  0.606000  0.537000  1.0  -0.1821
  C  C908  1  0.903200  0.580800  0.593500  1.0  -0.2535
  C  C909  1  0.242000  0.045000  0.312200  1.0  -0.2421
  C  C910  1  0.205000  0.092000  0.354000  1.0  -0.2863
  C  C911  1  0.104000  0.552000  0.317000  1.0  -0.1954
  C  C912  1  0.061000  0.474000  0.363000  1.0  -0.1563
  C  C913  1  0.891000  0.689000  0.167700  1.0  -0.1767
  C  C914  1  0.985300  0.750300  0.186400  1.0  -0.2291
  C  C915  1  0.185000  0.748000  0.773600  1.0  -0.2378
  C  C916  1  0.226900  0.747900  0.712000  1.0  -0.2018
  C  C917  1  0.606000  0.966000  0.037000  1.0  -0.1843
  C  C918  1  0.580800  0.903200  0.093500  1.0  -0.254
  C  C919  1  0.045000  0.242000  0.812200  1.0  -0.2407
  C  C920  1  0.092000  0.205000  0.854000  1.0  -0.2849
  C  C921  1  0.552000  0.104000  0.817000  1.0  -0.1959
  C  C922  1  0.474000  0.061000  0.863000  1.0  -0.1592
  C  C923  1  0.311000  0.202000  0.167700  1.0  -0.1763
  C  C924  1  0.249700  0.235000  0.186400  1.0  -0.2309
  C  C925  1  0.252000  0.437000  0.773600  1.0  -0.2338
  C  C926  1  0.252100  0.479000  0.712000  1.0  -0.2004
  C  C927  1  0.034000  0.640000  0.037000  1.0  -0.1815
  C  C928  1  0.096800  0.677600  0.093500  1.0  -0.2551
  C  C929  1  0.758000  0.803000  0.812200  1.0  -0.2375
  C  C930  1  0.795000  0.887000  0.854000  1.0  -0.2879
  C  C931  1  0.896000  0.448000  0.817000  1.0  -0.1958
  C  C932  1  0.939000  0.413000  0.863000  1.0  -0.1599
  C  C933  1  0.798000  0.109000  0.167700  1.0  -0.1696
  C  C934  1  0.765000  0.014700  0.186400  1.0  -0.23
  C  C935  1  0.563000  0.815000  0.773600  1.0  -0.2335
  C  C936  1  0.521000  0.773100  0.712000  1.0  -0.2031
  C  C937  1  0.360000  0.394000  0.037000  1.0  -0.1818
  C  C938  1  0.322400  0.419200  0.093500  1.0  -0.252
  C  C939  1  0.197000  0.955000  0.812200  1.0  -0.2417
  C  C940  1  0.113000  0.908000  0.854000  1.0  -0.2853
  C  C941  1  0.552000  0.448000  0.817000  1.0  -0.196
  C  C942  1  0.587000  0.526000  0.863000  1.0  -0.1541
  N  N943  1  0.225000  0.295400  0.704900  1.0  -0.4352
  N  N944  1  0.450900  0.282400  0.232300  1.0  -0.412
  N  N945  1  0.663000  0.096000  0.548500  1.0  -0.4644
  N  N946  1  0.827000  0.787000  0.353000  1.0  -0.4348
  N  N947  1  0.396000  0.882000  0.343000  1.0  -0.3562
  N  N948  1  0.070400  0.775000  0.704900  1.0  -0.4341
  N  N949  1  0.831500  0.549100  0.232300  1.0  -0.411
  N  N950  1  0.433000  0.337000  0.548500  1.0  -0.4647
  N  N951  1  0.960000  0.173000  0.353000  1.0  -0.4343
  N  N952  1  0.486000  0.604000  0.343000  1.0  -0.3503
  N  N953  1  0.704600  0.929600  0.704900  1.0  -0.4325
  N  N954  1  0.717600  0.168500  0.232300  1.0  -0.4193
  N  N955  1  0.904000  0.567000  0.548500  1.0  -0.4636
  N  N956  1  0.213000  0.040000  0.353000  1.0  -0.4331
  N  N957  1  0.118000  0.514000  0.343000  1.0  -0.3554
  N  N958  1  0.929600  0.704600  0.204900  1.0  -0.4355
  N  N959  1  0.168500  0.717600  0.732300  1.0  -0.4131
  N  N960  1  0.567000  0.904000  0.048500  1.0  -0.465
  N  N961  1  0.040000  0.213000  0.853000  1.0  -0.4337
  N  N962  1  0.514000  0.118000  0.843000  1.0  -0.3568
  N  N963  1  0.295400  0.225000  0.204900  1.0  -0.4342
  N  N964  1  0.282400  0.450900  0.732300  1.0  -0.4126
  N  N965  1  0.096000  0.663000  0.048500  1.0  -0.4654
  N  N966  1  0.787000  0.827000  0.853000  1.0  -0.4348
  N  N967  1  0.882000  0.396000  0.843000  1.0  -0.3556
  N  N968  1  0.775000  0.070400  0.204900  1.0  -0.4316
  N  N969  1  0.549100  0.831500  0.732300  1.0  -0.419
  N  N970  1  0.337000  0.433000  0.048500  1.0  -0.4634
  N  N971  1  0.173000  0.960000  0.853000  1.0  -0.4304
  N  N972  1  0.604000  0.486000  0.843000  1.0  -0.3566
  O  O973  1  0.060800  0.927400  0.506700  1.0  -0.5568
  O  O974  1  0.944900  0.867600  0.093100  1.0  -0.5886
  O  O975  1  0.087000  0.842900  0.551700  1.0  -0.5811
  O  O976  1  0.180500  0.903000  0.551700  1.0  -0.5735
  O  O977  1  0.210400  0.020900  0.558000  1.0  -0.5464
  O  O978  1  0.139000  0.034000  0.560000  1.0  -0.5489
  O  O979  1  0.865200  0.808100  0.116900  1.0  -0.5246
  O  O980  1  0.142600  0.953600  0.479800  1.0  -0.6154
  O  O981  1  0.484300  0.129200  0.627700  1.0  -0.5931
  O  O982  1  0.387000  0.147400  0.624500  1.0  -0.6165
  O  O983  1  0.568400  0.199400  0.631800  1.0  -0.5635
  O  O984  1  0.418000  0.240300  0.626100  1.0  -0.6203
  O  O985  1  0.484400  0.195800  0.554500  1.0  -0.6853
  O  O986  1  0.409500  0.795900  0.583800  1.0  -0.5699
  O  O987  1  0.430700  0.938800  0.632600  1.0  -0.5448
  O  O988  1  0.309500  0.855000  0.618500  1.0  -0.5647
  O  O989  1  0.489000  0.907500  0.628500  1.0  -0.5539
  O  O990  1  0.531900  0.274900  0.583500  1.0  -0.6159
  O  O991  1  0.602000  0.396300  0.175500  1.0  -0.6235
  O  O992  1  0.469900  0.746400  0.171600  1.0  -0.5956
  O  O993  1  0.525200  0.725200  0.194300  1.0  -0.5297
  O  O994  1  0.627000  0.476900  0.191500  1.0  -0.5701
  O  O995  1  0.296200  0.768400  0.616000  1.0  -0.5519
  O  O996  1  0.396300  0.859200  0.557600  1.0  -0.554
  O  O997  1  0.238800  0.245600  0.605700  1.0  -0.5018
  O  O998  1  0.679100  0.092200  0.664100  1.0  -0.5259
  O  O999  1  0.083200  0.655100  0.574600  1.0  -0.5152
  O  O1000  1  0.939200  0.866600  0.006700  1.0  -0.5572
  O  O1001  1  0.055100  0.922700  0.593100  1.0  -0.5859
  O  O1002  1  0.913000  0.755900  0.051700  1.0  -0.582
  O  O1003  1  0.819500  0.722500  0.051700  1.0  -0.5705
  O  O1004  1  0.789600  0.810500  0.058000  1.0  -0.5494
  O  O1005  1  0.861000  0.895000  0.060000  1.0  -0.5459
  O  O1006  1  0.134800  0.942900  0.616900  1.0  -0.5274
  O  O1007  1  0.857400  0.811000  0.979800  1.0  -0.6108
  O  O1008  1  0.515700  0.644900  0.127700  1.0  -0.5949
  O  O1009  1  0.613000  0.760400  0.124500  1.0  -0.6199
  O  O1010  1  0.431600  0.631000  0.131800  1.0  -0.5716
  O  O1011  1  0.582000  0.822300  0.126100  1.0  -0.6205
  O  O1012  1  0.515600  0.711400  0.054500  1.0  -0.6902
  O  O1013  1  0.590500  0.386400  0.083800  1.0  -0.5699
  O  O1014  1  0.569300  0.508100  0.132600  1.0  -0.5483
  O  O1015  1  0.690500  0.545500  0.118500  1.0  -0.5642
  O  O1016  1  0.511000  0.418500  0.128500  1.0  -0.5525
  O  O1017  1  0.468100  0.743000  0.083500  1.0  -0.6122
  O  O1018  1  0.398000  0.794300  0.675500  1.0  -0.6233
  O  O1019  1  0.530100  0.276500  0.671600  1.0  -0.5982
  O  O1020  1  0.474800  0.200000  0.694300  1.0  -0.5278
  O  O1021  1  0.373000  0.849900  0.691500  1.0  -0.5673
  O  O1022  1  0.703800  0.472200  0.116000  1.0  -0.5514
  O  O1023  1  0.603700  0.462900  0.057600  1.0  -0.5524
  O  O1024  1  0.761200  0.006800  0.105700  1.0  -0.5035
  O  O1025  1  0.320900  0.413100  0.164100  1.0  -0.5247
  O  O1026  1  0.916800  0.571900  0.074600  1.0  -0.5141
  O  O1027  1  0.866600  0.939200  0.506700  1.0  -0.5564
  O  O1028  1  0.922700  0.055100  0.093100  1.0  -0.5867
  O  O1029  1  0.755900  0.913000  0.551700  1.0  -0.5812
  O  O1030  1  0.722500  0.819500  0.551700  1.0  -0.5719
  O  O1031  1  0.810500  0.789600  0.558000  1.0  -0.5487
  O  O1032  1  0.895000  0.861000  0.560000  1.0  -0.5448
  O  O1033  1  0.942900  0.134800  0.116900  1.0  -0.5235
  O  O1034  1  0.811000  0.857400  0.479800  1.0  -0.6063
  O  O1035  1  0.644900  0.515700  0.627700  1.0  -0.5928
  O  O1036  1  0.760400  0.613000  0.624500  1.0  -0.6079
  O  O1037  1  0.631000  0.431600  0.631800  1.0  -0.5682
  O  O1038  1  0.822300  0.582000  0.626100  1.0  -0.6185
  O  O1039  1  0.711400  0.515600  0.554500  1.0  -0.6941
  O  O1040  1  0.386400  0.590500  0.583800  1.0  -0.5712
  O  O1041  1  0.508100  0.569300  0.632600  1.0  -0.5484
  O  O1042  1  0.545500  0.690500  0.618500  1.0  -0.5631
  O  O1043  1  0.418500  0.511000  0.628500  1.0  -0.5525
  O  O1044  1  0.743000  0.468100  0.583500  1.0  -0.6163
  O  O1045  1  0.794300  0.398000  0.175500  1.0  -0.6222
  O  O1046  1  0.276500  0.530100  0.171600  1.0  -0.5991
  O  O1047  1  0.200000  0.474800  0.194300  1.0  -0.5296
  O  O1048  1  0.849900  0.373000  0.191500  1.0  -0.5681
  O  O1049  1  0.472200  0.703800  0.616000  1.0  -0.556
  O  O1050  1  0.462900  0.603700  0.557600  1.0  -0.5554
  O  O1051  1  0.006800  0.761200  0.605700  1.0  -0.5027
  O  O1052  1  0.413100  0.320900  0.664100  1.0  -0.5261
  O  O1053  1  0.571900  0.916800  0.574600  1.0  -0.5153
  O  O1054  1  0.927400  0.060800  0.006700  1.0  -0.5566
  O  O1055  1  0.867600  0.944900  0.593100  1.0  -0.5871
  O  O1056  1  0.842900  0.087000  0.051700  1.0  -0.5816
  O  O1057  1  0.903000  0.180500  0.051700  1.0  -0.5711
  O  O1058  1  0.020900  0.210400  0.058000  1.0  -0.5494
  O  O1059  1  0.034000  0.139000  0.060000  1.0  -0.5452
  O  O1060  1  0.808100  0.865200  0.616900  1.0  -0.523
  O  O1061  1  0.953600  0.142600  0.979800  1.0  -0.6072
  O  O1062  1  0.129200  0.484300  0.127700  1.0  -0.5938
  O  O1063  1  0.147400  0.387000  0.124500  1.0  -0.6072
  O  O1064  1  0.199400  0.568400  0.131800  1.0  -0.5677
  O  O1065  1  0.240300  0.418000  0.126100  1.0  -0.619
  O  O1066  1  0.195800  0.484400  0.054500  1.0  -0.6936
  O  O1067  1  0.795900  0.409500  0.083800  1.0  -0.5705
  O  O1068  1  0.938800  0.430700  0.132600  1.0  -0.5515
  O  O1069  1  0.855000  0.309500  0.118500  1.0  -0.5639
  O  O1070  1  0.907500  0.489000  0.128500  1.0  -0.5524
  O  O1071  1  0.274900  0.531900  0.083500  1.0  -0.6168
  O  O1072  1  0.396300  0.602000  0.675500  1.0  -0.623
  O  O1073  1  0.746400  0.469900  0.671600  1.0  -0.5983
  O  O1074  1  0.725200  0.525200  0.694300  1.0  -0.5301
  O  O1075  1  0.476900  0.627000  0.691500  1.0  -0.568
  O  O1076  1  0.768400  0.296200  0.116000  1.0  -0.5562
  O  O1077  1  0.859200  0.396300  0.057600  1.0  -0.5553
  O  O1078  1  0.245600  0.238800  0.105700  1.0  -0.5028
  O  O1079  1  0.092200  0.679100  0.164100  1.0  -0.5252
  O  O1080  1  0.655100  0.083200  0.074600  1.0  -0.5153
  O  O1081  1  0.072600  0.133400  0.506700  1.0  -0.5574
  O  O1082  1  0.132400  0.077300  0.093100  1.0  -0.5862
  O  O1083  1  0.157100  0.244100  0.551700  1.0  -0.5816
  O  O1084  1  0.097000  0.277500  0.551700  1.0  -0.5714
  O  O1085  1  0.979100  0.189500  0.558000  1.0  -0.5506
  O  O1086  1  0.966000  0.105000  0.560000  1.0  -0.5461
  O  O1087  1  0.191900  0.057100  0.116900  1.0  -0.5269
  O  O1088  1  0.046400  0.189000  0.479800  1.0  -0.6107
  O  O1089  1  0.870800  0.355100  0.627700  1.0  -0.5953
  O  O1090  1  0.852600  0.239600  0.624500  1.0  -0.616
  O  O1091  1  0.800600  0.369000  0.631800  1.0  -0.5718
  O  O1092  1  0.759700  0.177700  0.626100  1.0  -0.6204
  O  O1093  1  0.804200  0.288600  0.554500  1.0  -0.6893
  O  O1094  1  0.204100  0.613600  0.583800  1.0  -0.5704
  O  O1095  1  0.061200  0.491900  0.632600  1.0  -0.5489
  O  O1096  1  0.145000  0.454500  0.618500  1.0  -0.5627
  O  O1097  1  0.092500  0.581500  0.628500  1.0  -0.5539
  O  O1098  1  0.725100  0.257000  0.583500  1.0  -0.6128
  O  O1099  1  0.603700  0.205700  0.175500  1.0  -0.6228
  O  O1100  1  0.253600  0.723500  0.171600  1.0  -0.5974
  O  O1101  1  0.274800  0.800000  0.194300  1.0  -0.5274
  O  O1102  1  0.523100  0.150100  0.191500  1.0  -0.5673
  O  O1103  1  0.231600  0.527800  0.616000  1.0  -0.5525
  O  O1104  1  0.140800  0.537100  0.557600  1.0  -0.5537
  O  O1105  1  0.754400  0.993200  0.605700  1.0  -0.5027
  O  O1106  1  0.907800  0.586900  0.664100  1.0  -0.5236
  O  O1107  1  0.344900  0.428100  0.574600  1.0  -0.5136
  O  O1108  1  0.133400  0.072600  0.006700  1.0  -0.5566
  O  O1109  1  0.077300  0.132400  0.593100  1.0  -0.5881
  O  O1110  1  0.244100  0.157100  0.051700  1.0  -0.5809
  O  O1111  1  0.277500  0.097000  0.051700  1.0  -0.5747
  O  O1112  1  0.189500  0.979100  0.058000  1.0  -0.546
  O  O1113  1  0.105000  0.966000  0.060000  1.0  -0.5494
  O  O1114  1  0.057100  0.191900  0.616900  1.0  -0.5245
  O  O1115  1  0.189000  0.046400  0.979800  1.0  -0.6156
  O  O1116  1  0.355100  0.870800  0.127700  1.0  -0.592
  O  O1117  1  0.239600  0.852600  0.124500  1.0  -0.6157
  O  O1118  1  0.369000  0.800600  0.131800  1.0  -0.566
  O  O1119  1  0.177700  0.759700  0.126100  1.0  -0.6213
  O  O1120  1  0.288600  0.804200  0.054500  1.0  -0.6841
  O  O1121  1  0.613600  0.204100  0.083800  1.0  -0.571
  O  O1122  1  0.491900  0.061200  0.132600  1.0  -0.5439
  O  O1123  1  0.454500  0.145000  0.118500  1.0  -0.5637
  O  O1124  1  0.581500  0.092500  0.128500  1.0  -0.5554
  O  O1125  1  0.257000  0.725100  0.083500  1.0  -0.6141
  O  O1126  1  0.205700  0.603700  0.675500  1.0  -0.6236
  O  O1127  1  0.723500  0.253600  0.671600  1.0  -0.5963
  O  O1128  1  0.800000  0.274800  0.694300  1.0  -0.5297
  O  O1129  1  0.150100  0.523100  0.691500  1.0  -0.5696
  O  O1130  1  0.527800  0.231600  0.116000  1.0  -0.5518
  O  O1131  1  0.537100  0.140800  0.057600  1.0  -0.5541
  O  O1132  1  0.993200  0.754400  0.105700  1.0  -0.5016
  O  O1133  1  0.586900  0.907800  0.164100  1.0  -0.5256
  O  O1134  1  0.428100  0.344900  0.074600  1.0  -0.5141
