# generated using pymatgen
data_CsIn3H31C66(NO8)3
_symmetry_space_group_name_H-M   'P 1'
_cell_length_a   27.34490000
_cell_length_b   27.34490000
_cell_length_c   28.25540000
_cell_angle_alpha   90.00000000
_cell_angle_beta   90.00000000
_cell_angle_gamma   120.00000000
_symmetry_Int_Tables_number   1
_chemical_formula_structural   CsIn3H31C66(NO8)3
_chemical_formula_sum   'Cs6 In18 H186 C396 N18 O144'
_cell_volume   18297.20569988
_cell_formula_units_Z   6
loop_
 _symmetry_equiv_pos_site_id
 _symmetry_equiv_pos_as_xyz
  1  'x, y, z'
loop_
 _atom_site_type_symbol
 _atom_site_label
 _atom_site_symmetry_multiplicity
 _atom_site_fract_x
 _atom_site_fract_y
 _atom_site_fract_z
 _atom_site_occupancy
 _atom_site_charge
  Cs  Cs1  1  0.000000  0.000000  0.996170  1.0  0.9259
  Cs  Cs2  1  0.000000  0.000000  0.496170  1.0  0.9259
  Cs  Cs3  1  0.333333  0.666667  0.549720  1.0  0.9368
  Cs  Cs4  1  0.333333  0.666667  0.055790  1.0  0.9488
  Cs  Cs5  1  0.666667  0.333333  0.049720  1.0  0.9368
  Cs  Cs6  1  0.666667  0.333333  0.555790  1.0  0.9488
  In  In7  1  0.177500  0.055670  0.995320  1.0  1.5157
  In  In8  1  0.511300  0.724020  0.054110  1.0  1.5191
  In  In9  1  0.611910  0.455680  0.054400  1.0  1.4962
  In  In10  1  0.878170  0.822500  0.995320  1.0  1.5163
  In  In11  1  0.212720  0.488700  0.054110  1.0  1.5201
  In  In12  1  0.843770  0.388090  0.054400  1.0  1.4946
  In  In13  1  0.944330  0.121830  0.995320  1.0  1.5175
  In  In14  1  0.275980  0.787280  0.054110  1.0  1.5213
  In  In15  1  0.544320  0.156230  0.054400  1.0  1.495
  In  In16  1  0.121830  0.944330  0.495320  1.0  1.5158
  In  In17  1  0.787280  0.275980  0.554110  1.0  1.5191
  In  In18  1  0.156230  0.544320  0.554400  1.0  1.4971
  In  In19  1  0.055670  0.177500  0.495320  1.0  1.5164
  In  In20  1  0.724020  0.511300  0.554110  1.0  1.52
  In  In21  1  0.455680  0.611910  0.554400  1.0  1.4949
  In  In22  1  0.822500  0.878170  0.495320  1.0  1.5176
  In  In23  1  0.488700  0.212720  0.554110  1.0  1.5214
  In  In24  1  0.388090  0.843770  0.554400  1.0  1.4943
  H  H25  1  0.523700  0.565100  0.050000  1.0  0.1265
  H  H26  1  0.367300  0.517200  0.085000  1.0  0.0814
  H  H27  1  0.421400  0.410100  0.090900  1.0  0.0966
  H  H28  1  0.435400  0.710300  0.365300  1.0  0.1145
  H  H29  1  0.400700  0.825500  0.311500  1.0  0.1338
  H  H30  1  0.403300  0.857300  0.387900  1.0  0.1093
  H  H31  1  0.499900  0.739900  0.297300  1.0  0.1271
  H  H32  1  0.519900  0.724900  0.219200  1.0  0.1075
  H  H33  1  0.401200  0.752400  0.168600  1.0  0.1366
  H  H34  1  0.377900  0.764100  0.245600  1.0  0.1265
  H  H35  1  0.371800  0.138900  0.021000  1.0  0.1252
  H  H36  1  0.328600  0.253800  0.988800  1.0  0.1238
  H  H37  1  0.486700  0.301500  0.020700  1.0  0.116
  H  H38  1  0.388100  0.851600  0.722200  1.0  0.1176
  H  H39  1  0.399900  0.830000  0.800300  1.0  0.1525
  H  H40  1  0.428900  0.710400  0.744800  1.0  0.128
  H  H41  1  0.415500  0.736800  0.670300  1.0  0.0984
  H  H42  1  0.372900  0.761900  0.864200  1.0  0.0906
  H  H43  1  0.522900  0.733800  0.885900  1.0  0.129
  H  H44  1  0.493100  0.738700  0.811900  1.0  0.1092
  H  H45  1  0.186700  0.052100  0.824500  1.0  0.1282
  H  H46  1  0.167200  0.072900  0.749200  1.0  0.1441
  H  H47  1  0.046300  0.100700  0.804500  1.0  0.1313
  H  H48  1  0.067500  0.080400  0.878400  1.0  0.105
  H  H49  1  0.099000  0.042900  0.686000  1.0  0.0869
  H  H50  1  0.083500  0.062300  0.609800  1.0  0.1481
  H  H51  1  0.063300  0.188800  0.666000  1.0  0.138
  H  H52  1  0.081800  0.164300  0.744700  1.0  0.1553
  H  H53  1  0.709200  0.807700  0.035500  1.0  0.1234
  H  H54  1  0.824800  0.970100  0.030500  1.0  0.1131
  H  H55  1  0.664000  0.923900  0.062900  1.0  0.1199
  H  H56  1  0.041400  0.476300  0.050000  1.0  0.127
  H  H57  1  0.149900  0.632700  0.085000  1.0  0.081
  H  H58  1  0.988700  0.578600  0.090900  1.0  0.0954
  H  H59  1  0.274900  0.564600  0.365300  1.0  0.1158
  H  H60  1  0.424800  0.599300  0.311500  1.0  0.1315
  H  H61  1  0.454000  0.596700  0.387900  1.0  0.1096
  H  H62  1  0.240000  0.500100  0.297300  1.0  0.13
  H  H63  1  0.205000  0.480100  0.219200  1.0  0.1076
  H  H64  1  0.351200  0.598800  0.168600  1.0  0.1371
  H  H65  1  0.386200  0.622100  0.245600  1.0  0.1242
  H  H66  1  0.767100  0.628200  0.021000  1.0  0.1243
  H  H67  1  0.925200  0.671400  0.988800  1.0  0.123
  H  H68  1  0.814800  0.513300  0.020700  1.0  0.1165
  H  H69  1  0.463500  0.611900  0.722200  1.0  0.1196
  H  H70  1  0.430100  0.600100  0.800300  1.0  0.1496
  H  H71  1  0.281500  0.571100  0.744800  1.0  0.1286
  H  H72  1  0.321300  0.584500  0.670300  1.0  0.0982
  H  H73  1  0.389000  0.627100  0.864200  1.0  0.0906
  H  H74  1  0.210900  0.477100  0.885900  1.0  0.1284
  H  H75  1  0.245600  0.506900  0.811900  1.0  0.1098
  H  H76  1  0.865400  0.813300  0.824500  1.0  0.1283
  H  H77  1  0.905700  0.832800  0.749200  1.0  0.1452
  H  H78  1  0.054400  0.953700  0.804500  1.0  0.1298
  H  H79  1  0.012900  0.932500  0.878400  1.0  0.1049
  H  H80  1  0.943900  0.901000  0.686000  1.0  0.0876
  H  H81  1  0.978800  0.916500  0.609800  1.0  0.1471
  H  H82  1  0.125500  0.936700  0.666000  1.0  0.1358
  H  H83  1  0.082500  0.918200  0.744700  1.0  0.1535
  H  H84  1  0.098500  0.290800  0.035500  1.0  0.1223
  H  H85  1  0.145300  0.175200  0.030500  1.0  0.1143
  H  H86  1  0.259900  0.336000  0.062900  1.0  0.12
  H  H87  1  0.434900  0.958600  0.050000  1.0  0.1275
  H  H88  1  0.482800  0.850100  0.085000  1.0  0.0823
  H  H89  1  0.589900  0.011300  0.090900  1.0  0.0948
  H  H90  1  0.289700  0.725100  0.365300  1.0  0.1143
  H  H91  1  0.174500  0.575200  0.311500  1.0  0.1321
  H  H92  1  0.142700  0.546000  0.387900  1.0  0.1088
  H  H93  1  0.260100  0.760000  0.297300  1.0  0.1284
  H  H94  1  0.275100  0.795000  0.219200  1.0  0.1076
  H  H95  1  0.247600  0.648800  0.168600  1.0  0.1372
  H  H96  1  0.235900  0.613800  0.245600  1.0  0.1237
  H  H97  1  0.861100  0.232900  0.021000  1.0  0.1245
  H  H98  1  0.746200  0.074800  0.988800  1.0  0.1243
  H  H99  1  0.698500  0.185200  0.020700  1.0  0.1157
  H  H100  1  0.148400  0.536500  0.722200  1.0  0.118
  H  H101  1  0.170000  0.569900  0.800300  1.0  0.1508
  H  H102  1  0.289600  0.718500  0.744800  1.0  0.1269
  H  H103  1  0.263200  0.678700  0.670300  1.0  0.0971
  H  H104  1  0.238100  0.611000  0.864200  1.0  0.0906
  H  H105  1  0.266200  0.789100  0.885900  1.0  0.1283
  H  H106  1  0.261300  0.754400  0.811900  1.0  0.1103
  H  H107  1  0.947900  0.134600  0.824500  1.0  0.1282
  H  H108  1  0.927100  0.094300  0.749200  1.0  0.145
  H  H109  1  0.899300  0.945600  0.804500  1.0  0.1312
  H  H110  1  0.919600  0.987100  0.878400  1.0  0.1054
  H  H111  1  0.957100  0.056100  0.686000  1.0  0.0858
  H  H112  1  0.937700  0.021200  0.609800  1.0  0.1477
  H  H113  1  0.811200  0.874500  0.666000  1.0  0.1366
  H  H114  1  0.835700  0.917500  0.744700  1.0  0.1554
  H  H115  1  0.192300  0.901500  0.035500  1.0  0.1219
  H  H116  1  0.029900  0.854700  0.030500  1.0  0.114
  H  H117  1  0.076100  0.740100  0.062900  1.0  0.1205
  H  H118  1  0.958600  0.434900  0.550000  1.0  0.1262
  H  H119  1  0.850100  0.482800  0.585000  1.0  0.0818
  H  H120  1  0.011300  0.589900  0.590900  1.0  0.0966
  H  H121  1  0.725100  0.289700  0.865300  1.0  0.114
  H  H122  1  0.575200  0.174500  0.811500  1.0  0.133
  H  H123  1  0.546000  0.142700  0.887900  1.0  0.1084
  H  H124  1  0.760000  0.260100  0.797300  1.0  0.1275
  H  H125  1  0.795000  0.275100  0.719200  1.0  0.1079
  H  H126  1  0.648800  0.247600  0.668600  1.0  0.1364
  H  H127  1  0.613800  0.235900  0.745600  1.0  0.1254
  H  H128  1  0.232900  0.861100  0.521000  1.0  0.1252
  H  H129  1  0.074800  0.746200  0.488800  1.0  0.1245
  H  H130  1  0.185200  0.698500  0.520700  1.0  0.1165
  H  H131  1  0.536500  0.148400  0.222200  1.0  0.1178
  H  H132  1  0.569900  0.170000  0.300300  1.0  0.1518
  H  H133  1  0.718500  0.289600  0.244800  1.0  0.1275
  H  H134  1  0.678700  0.263200  0.170300  1.0  0.0981
  H  H135  1  0.611000  0.238100  0.364200  1.0  0.0911
  H  H136  1  0.789100  0.266200  0.385900  1.0  0.1287
  H  H137  1  0.754400  0.261300  0.311900  1.0  0.1093
  H  H138  1  0.134600  0.947900  0.324500  1.0  0.128
  H  H139  1  0.094300  0.927100  0.249200  1.0  0.1441
  H  H140  1  0.945600  0.899300  0.304500  1.0  0.1313
  H  H141  1  0.987100  0.919600  0.378400  1.0  0.1048
  H  H142  1  0.056100  0.957100  0.186000  1.0  0.0861
  H  H143  1  0.021200  0.937700  0.109800  1.0  0.148
  H  H144  1  0.874500  0.811200  0.166000  1.0  0.1366
  H  H145  1  0.917500  0.835700  0.244700  1.0  0.156
  H  H146  1  0.901500  0.192300  0.535500  1.0  0.1229
  H  H147  1  0.854700  0.029900  0.530500  1.0  0.1142
  H  H148  1  0.740100  0.076100  0.562900  1.0  0.1202
  H  H149  1  0.565100  0.523700  0.550000  1.0  0.1268
  H  H150  1  0.517200  0.367300  0.585000  1.0  0.082
  H  H151  1  0.410100  0.421400  0.590900  1.0  0.0959
  H  H152  1  0.710300  0.435400  0.865300  1.0  0.1158
  H  H153  1  0.825500  0.400700  0.811500  1.0  0.1315
  H  H154  1  0.857300  0.403300  0.887900  1.0  0.1093
  H  H155  1  0.739900  0.499900  0.797300  1.0  0.1285
  H  H156  1  0.724900  0.519900  0.719200  1.0  0.1088
  H  H157  1  0.752400  0.401200  0.668600  1.0  0.1375
  H  H158  1  0.764100  0.377900  0.745600  1.0  0.1247
  H  H159  1  0.138900  0.371800  0.521000  1.0  0.1241
  H  H160  1  0.253800  0.328600  0.488800  1.0  0.1229
  H  H161  1  0.301500  0.486700  0.520700  1.0  0.1155
  H  H162  1  0.851600  0.388100  0.222200  1.0  0.1196
  H  H163  1  0.830000  0.399900  0.300300  1.0  0.1497
  H  H164  1  0.710400  0.428900  0.244800  1.0  0.1286
  H  H165  1  0.736800  0.415500  0.170300  1.0  0.0983
  H  H166  1  0.761900  0.372900  0.364200  1.0  0.0905
  H  H167  1  0.733800  0.522900  0.385900  1.0  0.1284
  H  H168  1  0.738700  0.493100  0.311900  1.0  0.1114
  H  H169  1  0.052100  0.186700  0.324500  1.0  0.1292
  H  H170  1  0.072900  0.167200  0.249200  1.0  0.147
  H  H171  1  0.100700  0.046300  0.304500  1.0  0.13
  H  H172  1  0.080400  0.067500  0.378400  1.0  0.1047
  H  H173  1  0.042900  0.099000  0.186000  1.0  0.0879
  H  H174  1  0.062300  0.083500  0.109800  1.0  0.1471
  H  H175  1  0.188800  0.063300  0.166000  1.0  0.1357
  H  H176  1  0.164300  0.081800  0.244700  1.0  0.1537
  H  H177  1  0.807700  0.709200  0.535500  1.0  0.1222
  H  H178  1  0.970100  0.824800  0.530500  1.0  0.1132
  H  H179  1  0.923900  0.664000  0.562900  1.0  0.1207
  H  H180  1  0.476300  0.041400  0.550000  1.0  0.1273
  H  H181  1  0.632700  0.149900  0.585000  1.0  0.0807
  H  H182  1  0.578600  0.988700  0.590900  1.0  0.0951
  H  H183  1  0.564600  0.274900  0.865300  1.0  0.1144
  H  H184  1  0.599300  0.424800  0.811500  1.0  0.1326
  H  H185  1  0.596700  0.454000  0.887900  1.0  0.1102
  H  H186  1  0.500100  0.240000  0.797300  1.0  0.1286
  H  H187  1  0.480100  0.205000  0.719200  1.0  0.1073
  H  H188  1  0.598800  0.351200  0.668600  1.0  0.1368
  H  H189  1  0.622100  0.386200  0.745600  1.0  0.1241
  H  H190  1  0.628200  0.767100  0.521000  1.0  0.1245
  H  H191  1  0.671400  0.925200  0.488800  1.0  0.1243
  H  H192  1  0.513300  0.814800  0.520700  1.0  0.1156
  H  H193  1  0.611900  0.463500  0.222200  1.0  0.1173
  H  H194  1  0.600100  0.430100  0.300300  1.0  0.1517
  H  H195  1  0.571100  0.281500  0.244800  1.0  0.1267
  H  H196  1  0.584500  0.321300  0.170300  1.0  0.0975
  H  H197  1  0.627100  0.389000  0.364200  1.0  0.0898
  H  H198  1  0.477100  0.210900  0.385900  1.0  0.1285
  H  H199  1  0.506900  0.245600  0.311900  1.0  0.1089
  H  H200  1  0.813300  0.865400  0.324500  1.0  0.1279
  H  H201  1  0.832800  0.905700  0.249200  1.0  0.1443
  H  H202  1  0.953700  0.054400  0.304500  1.0  0.1308
  H  H203  1  0.932500  0.012900  0.378400  1.0  0.1055
  H  H204  1  0.901000  0.943900  0.186000  1.0  0.0855
  H  H205  1  0.916500  0.978800  0.109800  1.0  0.1478
  H  H206  1  0.936700  0.125500  0.166000  1.0  0.1367
  H  H207  1  0.918200  0.082500  0.244700  1.0  0.1553
  H  H208  1  0.290800  0.098500  0.535500  1.0  0.1219
  H  H209  1  0.175200  0.145300  0.530500  1.0  0.1139
  H  H210  1  0.336000  0.259900  0.562900  1.0  0.1204
  C  C211  1  0.526300  0.474800  0.055500  1.0  0.6175
  C  C212  1  0.477600  0.483800  0.065200  1.0  -0.066
  C  C213  1  0.488200  0.537100  0.059800  1.0  0.0158
  C  C214  1  0.447500  0.550300  0.068700  1.0  -0.0717
  C  C215  1  0.395900  0.508500  0.081400  1.0  -0.0192
  C  C216  1  0.383000  0.454600  0.089300  1.0  0.0627
  C  C217  1  0.426800  0.445400  0.082700  1.0  -0.017
  C  C218  1  0.458500  0.612300  0.040200  1.0  0.4671
  C  C219  1  0.402600  0.816600  0.464500  1.0  0.4826
  C  C220  1  0.410700  0.798800  0.422400  1.0  0.4018
  C  C221  1  0.419500  0.755700  0.412800  1.0  0.1366
  C  C222  1  0.428600  0.740200  0.368200  1.0  -0.0253
  C  C223  1  0.427600  0.769000  0.327900  1.0  0.1536
  C  C224  1  0.410100  0.809800  0.336600  1.0  -0.1337
  C  C225  1  0.407500  0.825900  0.383400  1.0  -0.1047
  C  C226  1  0.434900  0.753400  0.283000  1.0  0.0944
  C  C227  1  0.478500  0.741900  0.272600  1.0  -0.1307
  C  C228  1  0.491100  0.733000  0.224400  1.0  -0.1028
  C  C229  1  0.464200  0.736000  0.190000  1.0  0.0175
  C  C230  1  0.420100  0.749000  0.194600  1.0  -0.1055
  C  C231  1  0.407200  0.756500  0.241500  1.0  -0.1234
  C  C232  1  0.482900  0.732900  0.141100  1.0  0.6961
  C  C233  1  0.483800  0.208800  0.037900  1.0  0.3837
  C  C234  1  0.435300  0.218900  0.021400  1.0  -0.1036
  C  C235  1  0.382000  0.176500  0.016600  1.0  0.0544
  C  C236  1  0.344700  0.192500  0.005200  1.0  -0.0482
  C  C237  1  0.356700  0.245600  0.997000  1.0  -0.0552
  C  C238  1  0.410900  0.286400  0.001200  1.0  0.221
  C  C239  1  0.449700  0.273000  0.015200  1.0  -0.0393
  C  C240  1  0.283600  0.143100  0.996100  1.0  0.6793
  C  C241  1  0.391800  0.813000  0.641800  1.0  0.7021
  C  C242  1  0.400000  0.794400  0.690200  1.0  -0.0049
  C  C243  1  0.396200  0.822900  0.727600  1.0  -0.053
  C  C244  1  0.404100  0.811000  0.774700  1.0  -0.1412
  C  C245  1  0.418600  0.768700  0.780900  1.0  0.0778
  C  C246  1  0.421300  0.739800  0.741400  1.0  -0.1665
  C  C247  1  0.412300  0.755400  0.696700  1.0  -0.0297
  C  C248  1  0.431900  0.756400  0.827100  1.0  0.0847
  C  C249  1  0.403900  0.756900  0.867900  1.0  -0.0016
  C  C250  1  0.417800  0.750600  0.913100  1.0  0.0617
  C  C251  1  0.461800  0.737000  0.916300  1.0  0.0617
  C  C252  1  0.491100  0.737400  0.881600  1.0  -0.0869
  C  C253  1  0.474500  0.743500  0.837500  1.0  -0.0783
  C  C254  1  0.479600  0.733400  0.967100  1.0  0.6303
  C  C255  1  0.145800  0.059800  0.909400  1.0  0.717
  C  C256  1  0.128700  0.065500  0.859800  1.0  -0.1305
  C  C257  1  0.158900  0.061800  0.820200  1.0  -0.024
  C  C258  1  0.146600  0.072800  0.775400  1.0  -0.0965
  C  C259  1  0.099500  0.084300  0.770800  1.0  0.0037
  C  C260  1  0.073300  0.089800  0.807900  1.0  -0.1937
  C  C261  1  0.087300  0.078700  0.852300  1.0  0.0212
  C  C262  1  0.092000  0.099100  0.719900  1.0  0.0173
  C  C263  1  0.092500  0.072900  0.681800  1.0  -0.0758
  C  C264  1  0.084500  0.084600  0.635000  1.0  -0.0991
  C  C265  1  0.078000  0.132000  0.628600  1.0  -0.1078
  C  C266  1  0.072700  0.160700  0.669700  1.0  -0.0265
  C  C267  1  0.082200  0.145000  0.717700  1.0  -0.1002
  C  C268  1  0.071000  0.148200  0.579600  1.0  0.6195
  C  C269  1  0.617300  0.809400  0.048900  1.0  0.6646
  C  C270  1  0.674500  0.857200  0.044300  1.0  -0.0724
  C  C271  1  0.717500  0.845000  0.034900  1.0  -0.0161
  C  C272  1  0.771400  0.886600  0.025000  1.0  -0.0996
  C  C273  1  0.787100  0.942100  0.033900  1.0  0.0054
  C  C274  1  0.746900  0.957300  0.048200  1.0  0.0715
  C  C275  1  0.691000  0.914800  0.053400  1.0  -0.0009
  C  C276  1  0.813300  0.872700  0.996400  1.0  0.4678
  C  C277  1  0.948500  0.473700  0.055500  1.0  0.6185
  C  C278  1  0.006200  0.522400  0.065200  1.0  -0.0669
  C  C279  1  0.048900  0.511800  0.059800  1.0  0.0167
  C  C280  1  0.102800  0.552500  0.068700  1.0  -0.0734
  C  C281  1  0.112600  0.604100  0.081400  1.0  -0.0197
  C  C282  1  0.071600  0.617000  0.089300  1.0  0.0614
  C  C283  1  0.018600  0.573200  0.082700  1.0  -0.018
  C  C284  1  0.153800  0.541500  0.040200  1.0  0.4641
  C  C285  1  0.414000  0.597400  0.464500  1.0  0.4814
  C  C286  1  0.388100  0.589300  0.422400  1.0  0.4024
  C  C287  1  0.336200  0.580500  0.412800  1.0  0.1403
  C  C288  1  0.311600  0.571400  0.368200  1.0  -0.0293
  C  C289  1  0.341400  0.572400  0.327900  1.0  0.1534
  C  C290  1  0.399700  0.589900  0.336600  1.0  -0.1332
  C  C291  1  0.418400  0.592500  0.383400  1.0  -0.1057
  C  C292  1  0.318500  0.565100  0.283000  1.0  0.096
  C  C293  1  0.263400  0.521500  0.272600  1.0  -0.1359
  C  C294  1  0.241900  0.508900  0.224400  1.0  -0.1078
  C  C295  1  0.271800  0.535800  0.190000  1.0  0.0253
  C  C296  1  0.328900  0.579900  0.194600  1.0  -0.1056
  C  C297  1  0.349300  0.592800  0.241500  1.0  -0.1224
  C  C298  1  0.250000  0.517100  0.141100  1.0  0.6966
  C  C299  1  0.725000  0.516200  0.037900  1.0  0.3843
  C  C300  1  0.783600  0.564700  0.021400  1.0  -0.1026
  C  C301  1  0.794500  0.618000  0.016600  1.0  0.0569
  C  C302  1  0.847800  0.655300  0.005200  1.0  -0.0487
  C  C303  1  0.888900  0.643300  0.997000  1.0  -0.0535
  C  C304  1  0.875500  0.589100  0.001200  1.0  0.223
  C  C305  1  0.823300  0.550300  0.015200  1.0  -0.0379
  C  C306  1  0.859500  0.716400  0.996100  1.0  0.6795
  C  C307  1  0.421200  0.608200  0.641800  1.0  0.7021
  C  C308  1  0.394400  0.600000  0.690200  1.0  -0.006
  C  C309  1  0.426700  0.603800  0.727600  1.0  -0.058
  C  C310  1  0.406900  0.595900  0.774700  1.0  -0.1371
  C  C311  1  0.350100  0.581400  0.780900  1.0  0.0787
  C  C312  1  0.318500  0.578700  0.741400  1.0  -0.1701
  C  C313  1  0.343100  0.587700  0.696700  1.0  -0.034
  C  C314  1  0.324500  0.568100  0.827100  1.0  0.0844
  C  C315  1  0.353000  0.596100  0.867900  1.0  -0.0006
  C  C316  1  0.332800  0.582200  0.913100  1.0  0.0597
  C  C317  1  0.275200  0.538200  0.916300  1.0  0.0598
  C  C318  1  0.246300  0.508900  0.881600  1.0  -0.0882
  C  C319  1  0.269000  0.525500  0.837500  1.0  -0.0815
  C  C320  1  0.253800  0.520400  0.967100  1.0  0.6313
  C  C321  1  0.914000  0.854200  0.909400  1.0  0.7158
  C  C322  1  0.936800  0.871300  0.859800  1.0  -0.128
  C  C323  1  0.902900  0.841100  0.820200  1.0  -0.0237
  C  C324  1  0.926200  0.853400  0.775400  1.0  -0.0946
  C  C325  1  0.984800  0.900500  0.770800  1.0  0.0028
  C  C326  1  0.016500  0.926700  0.807900  1.0  -0.1865
  C  C327  1  0.991400  0.912700  0.852300  1.0  0.021
  C  C328  1  0.007100  0.908000  0.719900  1.0  0.0157
  C  C329  1  0.980400  0.907500  0.681800  1.0  -0.0788
  C  C330  1  0.000100  0.915500  0.635000  1.0  -0.0982
  C  C331  1  0.054000  0.922000  0.628600  1.0  -0.1152
  C  C332  1  0.088000  0.927300  0.669700  1.0  -0.0331
  C  C333  1  0.062800  0.917800  0.717700  1.0  -0.0991
  C  C334  1  0.077200  0.929000  0.579600  1.0  0.621
  C  C335  1  0.192100  0.382700  0.048900  1.0  0.6641
  C  C336  1  0.182700  0.325500  0.044300  1.0  -0.0707
  C  C337  1  0.127500  0.282500  0.034900  1.0  -0.0191
  C  C338  1  0.115200  0.228600  0.025000  1.0  -0.1014
  C  C339  1  0.155000  0.212900  0.033900  1.0  0.0079
  C  C340  1  0.210400  0.253100  0.048200  1.0  0.0692
  C  C341  1  0.223800  0.309000  0.053400  1.0  0.0008
  C  C342  1  0.059400  0.186700  0.996400  1.0  0.4672
  C  C343  1  0.525200  0.051500  0.055500  1.0  0.618
  C  C344  1  0.516200  0.993800  0.065200  1.0  -0.0665
  C  C345  1  0.462900  0.951100  0.059800  1.0  0.019
  C  C346  1  0.449700  0.897200  0.068700  1.0  -0.0747
  C  C347  1  0.491500  0.887400  0.081400  1.0  -0.0174
  C  C348  1  0.545400  0.928400  0.089300  1.0  0.0579
  C  C349  1  0.554600  0.981400  0.082700  1.0  -0.0158
  C  C350  1  0.387700  0.846200  0.040200  1.0  0.466
  C  C351  1  0.183400  0.586000  0.464500  1.0  0.4846
  C  C352  1  0.201200  0.611900  0.422400  1.0  0.4039
  C  C353  1  0.244300  0.663800  0.412800  1.0  0.1338
  C  C354  1  0.259800  0.688400  0.368200  1.0  -0.0285
  C  C355  1  0.231000  0.658600  0.327900  1.0  0.1521
  C  C356  1  0.190200  0.600300  0.336600  1.0  -0.1355
  C  C357  1  0.174100  0.581600  0.383400  1.0  -0.1109
  C  C358  1  0.246600  0.681500  0.283000  1.0  0.0975
  C  C359  1  0.258100  0.736600  0.272600  1.0  -0.1381
  C  C360  1  0.267000  0.758100  0.224400  1.0  -0.1073
  C  C361  1  0.264000  0.728200  0.190000  1.0  0.0234
  C  C362  1  0.251000  0.671100  0.194600  1.0  -0.1066
  C  C363  1  0.243500  0.650700  0.241500  1.0  -0.1228
  C  C364  1  0.267100  0.750000  0.141100  1.0  0.6955
  C  C365  1  0.791200  0.275000  0.037900  1.0  0.3849
  C  C366  1  0.781100  0.216400  0.021400  1.0  -0.1045
  C  C367  1  0.823500  0.205500  0.016600  1.0  0.055
  C  C368  1  0.807500  0.152200  0.005200  1.0  -0.0479
  C  C369  1  0.754400  0.111100  0.997000  1.0  -0.0545
  C  C370  1  0.713600  0.124500  0.001200  1.0  0.2222
  C  C371  1  0.727000  0.176700  0.015200  1.0  -0.039
  C  C372  1  0.856900  0.140500  0.996100  1.0  0.6782
  C  C373  1  0.187000  0.578800  0.641800  1.0  0.701
  C  C374  1  0.205600  0.605600  0.690200  1.0  -0.0041
  C  C375  1  0.177100  0.573300  0.727600  1.0  -0.0597
  C  C376  1  0.189000  0.593100  0.774700  1.0  -0.1434
  C  C377  1  0.231300  0.649900  0.780900  1.0  0.0779
  C  C378  1  0.260200  0.681500  0.741400  1.0  -0.1673
  C  C379  1  0.244600  0.656900  0.696700  1.0  -0.0303
  C  C380  1  0.243600  0.675500  0.827100  1.0  0.085
  C  C381  1  0.243100  0.647000  0.867900  1.0  -1e-04
  C  C382  1  0.249400  0.667200  0.913100  1.0  0.0591
  C  C383  1  0.263000  0.724800  0.916300  1.0  0.0619
  C  C384  1  0.262600  0.753700  0.881600  1.0  -0.0926
  C  C385  1  0.256500  0.731000  0.837500  1.0  -0.0795
  C  C386  1  0.266600  0.746200  0.967100  1.0  0.6311
  C  C387  1  0.940200  0.086000  0.909400  1.0  0.715
  C  C388  1  0.934500  0.063200  0.859800  1.0  -0.1297
  C  C389  1  0.938200  0.097100  0.820200  1.0  -0.029
  C  C390  1  0.927200  0.073800  0.775400  1.0  -0.0991
  C  C391  1  0.915700  0.015200  0.770800  1.0  0.0018
  C  C392  1  0.910200  0.983500  0.807900  1.0  -0.1885
  C  C393  1  0.921300  0.008600  0.852300  1.0  0.0217
  C  C394  1  0.900900  0.992900  0.719900  1.0  0.016
  C  C395  1  0.927100  0.019600  0.681800  1.0  -0.0805
  C  C396  1  0.915400  0.999900  0.635000  1.0  -0.0984
  C  C397  1  0.868000  0.946000  0.628600  1.0  -0.1142
  C  C398  1  0.839300  0.912000  0.669700  1.0  -0.0319
  C  C399  1  0.855000  0.937200  0.717700  1.0  -0.1009
  C  C400  1  0.851800  0.922800  0.579600  1.0  0.6214
  C  C401  1  0.190600  0.807900  0.048900  1.0  0.6631
  C  C402  1  0.142800  0.817300  0.044300  1.0  -0.0727
  C  C403  1  0.155000  0.872500  0.034900  1.0  -0.0168
  C  C404  1  0.113400  0.884800  0.025000  1.0  -0.1013
  C  C405  1  0.057900  0.845000  0.033900  1.0  0.0059
  C  C406  1  0.042700  0.789600  0.048200  1.0  0.0726
  C  C407  1  0.085200  0.776200  0.053400  1.0  0.0007
  C  C408  1  0.127300  0.940600  0.996400  1.0  0.4674
  C  C409  1  0.051500  0.525200  0.555500  1.0  0.6175
  C  C410  1  0.993800  0.516200  0.565200  1.0  -0.066
  C  C411  1  0.951100  0.462900  0.559800  1.0  0.0165
  C  C412  1  0.897200  0.449700  0.568700  1.0  -0.0719
  C  C413  1  0.887400  0.491500  0.581400  1.0  -0.0191
  C  C414  1  0.928400  0.545400  0.589300  1.0  0.0624
  C  C415  1  0.981400  0.554600  0.582700  1.0  -0.0182
  C  C416  1  0.846200  0.387700  0.540200  1.0  0.4635
  C  C417  1  0.586000  0.183400  0.964500  1.0  0.4843
  C  C418  1  0.611900  0.201200  0.922400  1.0  0.4028
  C  C419  1  0.663800  0.244300  0.912800  1.0  0.1342
  C  C420  1  0.688400  0.259800  0.868200  1.0  -0.0247
  C  C421  1  0.658600  0.231000  0.827900  1.0  0.1535
  C  C422  1  0.600300  0.190200  0.836600  1.0  -0.1309
  C  C423  1  0.581600  0.174100  0.883400  1.0  -0.1041
  C  C424  1  0.681500  0.246600  0.783000  1.0  0.0951
  C  C425  1  0.736600  0.258100  0.772600  1.0  -0.1309
  C  C426  1  0.758100  0.267000  0.724400  1.0  -0.1031
  C  C427  1  0.728200  0.264000  0.690000  1.0  0.018
  C  C428  1  0.671100  0.251000  0.694600  1.0  -0.1058
  C  C429  1  0.650700  0.243500  0.741500  1.0  -0.1226
  C  C430  1  0.750000  0.267100  0.641100  1.0  0.6956
  C  C431  1  0.275000  0.791200  0.537900  1.0  0.3834
  C  C432  1  0.216400  0.781100  0.521400  1.0  -0.1038
  C  C433  1  0.205500  0.823500  0.516600  1.0  0.0545
  C  C434  1  0.152200  0.807500  0.505200  1.0  -0.0474
  C  C435  1  0.111100  0.754400  0.497000  1.0  -0.0543
  C  C436  1  0.124500  0.713600  0.501200  1.0  0.2239
  C  C437  1  0.176700  0.727000  0.515200  1.0  -0.0393
  C  C438  1  0.140500  0.856900  0.496100  1.0  0.6789
  C  C439  1  0.578800  0.187000  0.141800  1.0  0.7022
  C  C440  1  0.605600  0.205600  0.190200  1.0  -0.0045
  C  C441  1  0.573300  0.177100  0.227600  1.0  -0.0582
  C  C442  1  0.593100  0.189000  0.274700  1.0  -0.1392
  C  C443  1  0.649900  0.231300  0.280900  1.0  0.0778
  C  C444  1  0.681500  0.260200  0.241400  1.0  -0.166
  C  C445  1  0.656900  0.244600  0.196700  1.0  -0.0295
  C  C446  1  0.675500  0.243600  0.327100  1.0  0.0852
  C  C447  1  0.647000  0.243100  0.367900  1.0  -0.0017
  C  C448  1  0.667200  0.249400  0.413100  1.0  0.0609
  C  C449  1  0.724800  0.263000  0.416300  1.0  0.0607
  C  C450  1  0.753700  0.262600  0.381600  1.0  -0.0874
  C  C451  1  0.731000  0.256500  0.337500  1.0  -0.0789
  C  C452  1  0.746200  0.266600  0.467100  1.0  0.6307
  C  C453  1  0.086000  0.940200  0.409400  1.0  0.7173
  C  C454  1  0.063200  0.934500  0.359800  1.0  -0.1306
  C  C455  1  0.097100  0.938200  0.320200  1.0  -0.0241
  C  C456  1  0.073800  0.927200  0.275400  1.0  -0.0969
  C  C457  1  0.015200  0.915700  0.270800  1.0  0.0036
  C  C458  1  0.983500  0.910200  0.307900  1.0  -0.1934
  C  C459  1  0.008600  0.921300  0.352300  1.0  0.0206
  C  C460  1  0.992900  0.900900  0.219900  1.0  0.0154
  C  C461  1  0.019600  0.927100  0.181800  1.0  -0.0755
  C  C462  1  0.999900  0.915400  0.135000  1.0  -0.0993
  C  C463  1  0.946000  0.868000  0.128600  1.0  -0.1104
  C  C464  1  0.912000  0.839300  0.169700  1.0  -0.0263
  C  C465  1  0.937200  0.855000  0.217700  1.0  -0.0995
  C  C466  1  0.922800  0.851800  0.079600  1.0  0.6202
  C  C467  1  0.807900  0.190600  0.548900  1.0  0.6635
  C  C468  1  0.817300  0.142800  0.544300  1.0  -0.0719
  C  C469  1  0.872500  0.155000  0.534900  1.0  -0.0165
  C  C470  1  0.884800  0.113400  0.525000  1.0  -0.1002
  C  C471  1  0.845000  0.057900  0.533900  1.0  0.0069
  C  C472  1  0.789600  0.042700  0.548200  1.0  0.0709
  C  C473  1  0.776200  0.085200  0.553400  1.0  -0.0009
  C  C474  1  0.940600  0.127300  0.496400  1.0  0.4669
  C  C475  1  0.474800  0.526300  0.555500  1.0  0.6188
  C  C476  1  0.483800  0.477600  0.565200  1.0  -0.0661
  C  C477  1  0.537100  0.488200  0.559800  1.0  0.0168
  C  C478  1  0.550300  0.447500  0.568700  1.0  -0.074
  C  C479  1  0.508500  0.395900  0.581400  1.0  -0.0184
  C  C480  1  0.454600  0.383000  0.589300  1.0  0.0619
  C  C481  1  0.445400  0.426800  0.582700  1.0  -0.0176
  C  C482  1  0.612300  0.458500  0.540200  1.0  0.4631
  C  C483  1  0.816600  0.402600  0.964500  1.0  0.4814
  C  C484  1  0.798800  0.410700  0.922400  1.0  0.4023
  C  C485  1  0.755700  0.419500  0.912800  1.0  0.1401
  C  C486  1  0.740200  0.428600  0.868200  1.0  -0.0302
  C  C487  1  0.769000  0.427600  0.827900  1.0  0.1538
  C  C488  1  0.809800  0.410100  0.836600  1.0  -0.1332
  C  C489  1  0.825900  0.407500  0.883400  1.0  -0.1049
  C  C490  1  0.753400  0.434900  0.783000  1.0  0.0967
  C  C491  1  0.741900  0.478500  0.772600  1.0  -0.136
  C  C492  1  0.733000  0.491100  0.724400  1.0  -0.1034
  C  C493  1  0.736000  0.464200  0.690000  1.0  0.0247
  C  C494  1  0.749000  0.420100  0.694600  1.0  -0.106
  C  C495  1  0.756500  0.407200  0.741500  1.0  -0.1214
  C  C496  1  0.732900  0.482900  0.641100  1.0  0.6965
  C  C497  1  0.208800  0.483800  0.537900  1.0  0.3864
  C  C498  1  0.218900  0.435300  0.521400  1.0  -0.1025
  C  C499  1  0.176500  0.382000  0.516600  1.0  0.0573
  C  C500  1  0.192500  0.344700  0.505200  1.0  -0.0485
  C  C501  1  0.245600  0.356700  0.497000  1.0  -0.0532
  C  C502  1  0.286400  0.410900  0.501200  1.0  0.2232
  C  C503  1  0.273000  0.449700  0.515200  1.0  -0.0373
  C  C504  1  0.143100  0.283600  0.496100  1.0  0.6799
  C  C505  1  0.813000  0.391800  0.141800  1.0  0.7021
  C  C506  1  0.794400  0.400000  0.190200  1.0  -0.0059
  C  C507  1  0.822900  0.396200  0.227600  1.0  -0.0577
  C  C508  1  0.811000  0.404100  0.274700  1.0  -0.1383
  C  C509  1  0.768700  0.418600  0.280900  1.0  0.0787
  C  C510  1  0.739800  0.421300  0.241400  1.0  -0.1679
  C  C511  1  0.755400  0.412300  0.196700  1.0  -0.034
  C  C512  1  0.756400  0.431900  0.327100  1.0  0.0828
  C  C513  1  0.756900  0.403900  0.367900  1.0  -0.0006
  C  C514  1  0.750600  0.417800  0.413100  1.0  0.06
  C  C515  1  0.737000  0.461800  0.416300  1.0  0.0616
  C  C516  1  0.737400  0.491100  0.381600  1.0  -0.0891
  C  C517  1  0.743500  0.474500  0.337500  1.0  -0.0803
  C  C518  1  0.733400  0.479600  0.467100  1.0  0.6308
  C  C519  1  0.059800  0.145800  0.409400  1.0  0.7156
  C  C520  1  0.065500  0.128700  0.359800  1.0  -0.1283
  C  C521  1  0.061800  0.158900  0.320200  1.0  -0.0235
  C  C522  1  0.072800  0.146600  0.275400  1.0  -0.0962
  C  C523  1  0.084300  0.099500  0.270800  1.0  0.0027
  C  C524  1  0.089800  0.073300  0.307900  1.0  -0.1876
  C  C525  1  0.078700  0.087300  0.352300  1.0  0.0201
  C  C526  1  0.099100  0.092000  0.219900  1.0  0.0175
  C  C527  1  0.072900  0.092500  0.181800  1.0  -0.0791
  C  C528  1  0.084600  0.084500  0.135000  1.0  -0.0979
  C  C529  1  0.132000  0.078000  0.128600  1.0  -0.1142
  C  C530  1  0.160700  0.072700  0.169700  1.0  -0.0329
  C  C531  1  0.145000  0.082200  0.217700  1.0  -0.0986
  C  C532  1  0.148200  0.071000  0.079600  1.0  0.6209
  C  C533  1  0.809400  0.617300  0.548900  1.0  0.6637
  C  C534  1  0.857200  0.674500  0.544300  1.0  -0.0715
  C  C535  1  0.845000  0.717500  0.534900  1.0  -0.0193
  C  C536  1  0.886600  0.771400  0.525000  1.0  -0.1002
  C  C537  1  0.942100  0.787100  0.533900  1.0  0.007
  C  C538  1  0.957300  0.746900  0.548200  1.0  0.0695
  C  C539  1  0.914800  0.691000  0.553400  1.0  0.0018
  C  C540  1  0.872700  0.813300  0.496400  1.0  0.4689
  C  C541  1  0.473700  0.948500  0.555500  1.0  0.6179
  C  C542  1  0.522400  0.006200  0.565200  1.0  -0.0664
  C  C543  1  0.511800  0.048900  0.559800  1.0  0.0191
  C  C544  1  0.552500  0.102800  0.568700  1.0  -0.0734
  C  C545  1  0.604100  0.112600  0.581400  1.0  -0.018
  C  C546  1  0.617000  0.071600  0.589300  1.0  0.0582
  C  C547  1  0.573200  0.018600  0.582700  1.0  -0.0144
  C  C548  1  0.541500  0.153800  0.540200  1.0  0.47
  C  C549  1  0.597400  0.414000  0.964500  1.0  0.4834
  C  C550  1  0.589300  0.388100  0.922400  1.0  0.4029
  C  C551  1  0.580500  0.336200  0.912800  1.0  0.1362
  C  C552  1  0.571400  0.311600  0.868200  1.0  -0.0277
  C  C553  1  0.572400  0.341400  0.827900  1.0  0.152
  C  C554  1  0.589900  0.399700  0.836600  1.0  -0.1361
  C  C555  1  0.592500  0.418400  0.883400  1.0  -0.1118
  C  C556  1  0.565100  0.318500  0.783000  1.0  0.0974
  C  C557  1  0.521500  0.263400  0.772600  1.0  -0.1363
  C  C558  1  0.508900  0.241900  0.724400  1.0  -0.1095
  C  C559  1  0.535800  0.271800  0.690000  1.0  0.0245
  C  C560  1  0.579900  0.328900  0.694600  1.0  -0.1066
  C  C561  1  0.592800  0.349300  0.741500  1.0  -0.124
  C  C562  1  0.517100  0.250000  0.641100  1.0  0.6951
  C  C563  1  0.516200  0.725000  0.537900  1.0  0.3837
  C  C564  1  0.564700  0.783600  0.521400  1.0  -0.1065
  C  C565  1  0.618000  0.794500  0.516600  1.0  0.0566
  C  C566  1  0.655300  0.847800  0.505200  1.0  -0.048
  C  C567  1  0.643300  0.888900  0.497000  1.0  -0.0534
  C  C568  1  0.589100  0.875500  0.501200  1.0  0.2218
  C  C569  1  0.550300  0.823300  0.515200  1.0  -0.0391
  C  C570  1  0.716400  0.859500  0.496100  1.0  0.6783
  C  C571  1  0.608200  0.421200  0.141800  1.0  0.7015
  C  C572  1  0.600000  0.394400  0.190200  1.0  -0.0032
  C  C573  1  0.603800  0.426700  0.227600  1.0  -0.0576
  C  C574  1  0.595900  0.406900  0.274700  1.0  -0.1451
  C  C575  1  0.581400  0.350100  0.280900  1.0  0.0779
  C  C576  1  0.578700  0.318500  0.241400  1.0  -0.1658
  C  C577  1  0.587700  0.343100  0.196700  1.0  -0.0294
  C  C578  1  0.568100  0.324500  0.327100  1.0  0.0849
  C  C579  1  0.596100  0.353000  0.367900  1.0  -0.0016
  C  C580  1  0.582200  0.332800  0.413100  1.0  0.0569
  C  C581  1  0.538200  0.275200  0.416300  1.0  0.061
  C  C582  1  0.508900  0.246300  0.381600  1.0  -0.092
  C  C583  1  0.525500  0.269000  0.337500  1.0  -0.079
  C  C584  1  0.520400  0.253800  0.467100  1.0  0.6313
  C  C585  1  0.854200  0.914000  0.409400  1.0  0.7152
  C  C586  1  0.871300  0.936800  0.359800  1.0  -0.1298
  C  C587  1  0.841100  0.902900  0.320200  1.0  -0.0277
  C  C588  1  0.853400  0.926200  0.275400  1.0  -0.0982
  C  C589  1  0.900500  0.984800  0.270800  1.0  0.002
  C  C590  1  0.926700  0.016500  0.307900  1.0  -0.1889
  C  C591  1  0.912700  0.991400  0.352300  1.0  0.0219
  C  C592  1  0.908000  0.007100  0.219900  1.0  0.0163
  C  C593  1  0.907500  0.980400  0.181800  1.0  -0.0804
  C  C594  1  0.915500  0.000100  0.135000  1.0  -0.0993
  C  C595  1  0.922000  0.054000  0.128600  1.0  -0.1124
  C  C596  1  0.927300  0.088000  0.169700  1.0  -0.0329
  C  C597  1  0.917800  0.062800  0.217700  1.0  -0.1016
  C  C598  1  0.929000  0.077200  0.079600  1.0  0.6207
  C  C599  1  0.382700  0.192100  0.548900  1.0  0.6631
  C  C600  1  0.325500  0.182700  0.544300  1.0  -0.0725
  C  C601  1  0.282500  0.127500  0.534900  1.0  -0.0158
  C  C602  1  0.228600  0.115200  0.525000  1.0  -0.1017
  C  C603  1  0.212900  0.155000  0.533900  1.0  0.0056
  C  C604  1  0.253100  0.210400  0.548200  1.0  0.0727
  C  C605  1  0.309000  0.223800  0.553400  1.0  0.0
  C  C606  1  0.186700  0.059400  0.496400  1.0  0.466
  N  N607  1  0.430700  0.345200  0.983600  1.0  -0.2225
  N  N608  1  0.764800  0.018100  0.056100  1.0  -0.2372
  N  N609  1  0.327200  0.425300  0.060900  1.0  -0.3228
  N  N610  1  0.914500  0.569300  0.983600  1.0  -0.2189
  N  N611  1  0.253300  0.235200  0.056100  1.0  -0.235
  N  N612  1  0.098100  0.672800  0.060900  1.0  -0.3231
  N  N613  1  0.654800  0.085500  0.983600  1.0  -0.2203
  N  N614  1  0.981900  0.746700  0.056100  1.0  -0.2361
  N  N615  1  0.574700  0.901900  0.060900  1.0  -0.3221
  N  N616  1  0.085500  0.654800  0.483600  1.0  -0.2223
  N  N617  1  0.746700  0.981900  0.556100  1.0  -0.237
  N  N618  1  0.901900  0.574700  0.560900  1.0  -0.3216
  N  N619  1  0.345200  0.430700  0.483600  1.0  -0.2192
  N  N620  1  0.018100  0.764800  0.556100  1.0  -0.2351
  N  N621  1  0.425300  0.327200  0.560900  1.0  -0.3229
  N  N622  1  0.569300  0.914500  0.483600  1.0  -0.2203
  N  N623  1  0.235200  0.253300  0.556100  1.0  -0.2372
  N  N624  1  0.672800  0.098100  0.560900  1.0  -0.3225
  O  O625  1  0.573600  0.511600  0.057500  1.0  -0.5438
  O  O626  1  0.518200  0.423900  0.059700  1.0  -0.5916
  O  O627  1  0.404000  0.789900  0.504600  1.0  -0.6684
  O  O628  1  0.395100  0.854300  0.475800  1.0  -0.5641
  O  O629  1  0.530900  0.234400  0.039300  1.0  -0.5655
  O  O630  1  0.463800  0.153300  0.048500  1.0  -0.6002
  O  O631  1  0.382300  0.852400  0.633700  1.0  -0.6149
  O  O632  1  0.394200  0.785000  0.607900  1.0  -0.6434
  O  O633  1  0.429500  0.628000  0.052200  1.0  -0.5666
  O  O634  1  0.512700  0.645800  0.050500  1.0  -0.5867
  O  O635  1  0.456700  0.737800  0.105100  1.0  -0.639
  O  O636  1  0.524900  0.724700  0.134700  1.0  -0.5984
  O  O637  1  0.241700  0.152200  0.993500  1.0  -0.5913
  O  O638  1  0.272600  0.092900  0.996400  1.0  -0.6195
  O  O639  1  0.516500  0.720200  0.975900  1.0  -0.5809
  O  O640  1  0.456600  0.737000  0.005100  1.0  -0.668
  O  O641  1  0.120500  0.065600  0.943100  1.0  -0.5997
  O  O642  1  0.186000  0.051600  0.914300  1.0  -0.5342
  O  O643  1  0.069700  0.122000  0.545900  1.0  -0.5606
  O  O644  1  0.065300  0.194100  0.580400  1.0  -0.633
  O  O645  1  0.604700  0.758600  0.052800  1.0  -0.5439
  O  O646  1  0.575900  0.821600  0.054300  1.0  -0.677
  O  O647  1  0.862600  0.904000  0.001800  1.0  -0.5833
  O  O648  1  0.799000  0.820900  0.001600  1.0  -0.5857
  O  O649  1  0.938000  0.426400  0.057500  1.0  -0.5456
  O  O650  1  0.905700  0.481800  0.059700  1.0  -0.5892
  O  O651  1  0.385900  0.596000  0.504600  1.0  -0.6695
  O  O652  1  0.459200  0.604900  0.475800  1.0  -0.5641
  O  O653  1  0.703500  0.469100  0.039300  1.0  -0.5613
  O  O654  1  0.689500  0.536200  0.048500  1.0  -0.601
  O  O655  1  0.470100  0.617700  0.633700  1.0  -0.6131
  O  O656  1  0.390800  0.605800  0.607900  1.0  -0.6414
  O  O657  1  0.198500  0.570500  0.052200  1.0  -0.5655
  O  O658  1  0.133100  0.487300  0.050500  1.0  -0.5885
  O  O659  1  0.281100  0.543300  0.105100  1.0  -0.6398
  O  O660  1  0.199800  0.475100  0.134700  1.0  -0.5973
  O  O661  1  0.910500  0.758300  0.993500  1.0  -0.5912
  O  O662  1  0.820300  0.727400  0.996400  1.0  -0.6144
  O  O663  1  0.203700  0.483500  0.975900  1.0  -0.5801
  O  O664  1  0.280400  0.543400  0.005100  1.0  -0.6689
  O  O665  1  0.945100  0.879500  0.943100  1.0  -0.603
  O  O666  1  0.865600  0.814000  0.914300  1.0  -0.5311
  O  O667  1  0.052300  0.930300  0.545900  1.0  -0.5606
  O  O668  1  0.128800  0.934700  0.580400  1.0  -0.6343
  O  O669  1  0.153900  0.395300  0.052800  1.0  -0.5389
  O  O670  1  0.245700  0.424100  0.054300  1.0  -0.6779
  O  O671  1  0.041400  0.137400  0.001800  1.0  -0.5835
  O  O672  1  0.021900  0.201000  0.001600  1.0  -0.5859
  O  O673  1  0.488400  0.062000  0.057500  1.0  -0.5421
  O  O674  1  0.576100  0.094300  0.059700  1.0  -0.588
  O  O675  1  0.210100  0.614100  0.504600  1.0  -0.6698
  O  O676  1  0.145700  0.540800  0.475800  1.0  -0.5606
  O  O677  1  0.765600  0.296500  0.039300  1.0  -0.566
  O  O678  1  0.846700  0.310500  0.048500  1.0  -0.5988
  O  O679  1  0.147600  0.529900  0.633700  1.0  -0.6105
  O  O680  1  0.215000  0.609200  0.607900  1.0  -0.6419
  O  O681  1  0.372000  0.801500  0.052200  1.0  -0.5645
  O  O682  1  0.354200  0.866900  0.050500  1.0  -0.5836
  O  O683  1  0.262200  0.718900  0.105100  1.0  -0.6409
  O  O684  1  0.275300  0.800200  0.134700  1.0  -0.5977
  O  O685  1  0.847800  0.089500  0.993500  1.0  -0.5931
  O  O686  1  0.907100  0.179700  0.996400  1.0  -0.6138
  O  O687  1  0.279800  0.796300  0.975900  1.0  -0.58
  O  O688  1  0.263000  0.719600  0.005100  1.0  -0.6634
  O  O689  1  0.934400  0.054900  0.943100  1.0  -0.603
  O  O690  1  0.948400  0.134400  0.914300  1.0  -0.5279
  O  O691  1  0.878000  0.947700  0.545900  1.0  -0.562
  O  O692  1  0.805900  0.871200  0.580400  1.0  -0.6309
  O  O693  1  0.241400  0.846100  0.052800  1.0  -0.539
  O  O694  1  0.178400  0.754300  0.054300  1.0  -0.6791
  O  O695  1  0.096000  0.958600  0.001800  1.0  -0.5823
  O  O696  1  0.179100  0.978100  0.001600  1.0  -0.5823
  O  O697  1  0.062000  0.488400  0.557500  1.0  -0.543
  O  O698  1  0.094300  0.576100  0.559700  1.0  -0.5929
  O  O699  1  0.614100  0.210100  0.004600  1.0  -0.6695
  O  O700  1  0.540800  0.145700  0.975800  1.0  -0.5636
  O  O701  1  0.296500  0.765600  0.539300  1.0  -0.5643
  O  O702  1  0.310500  0.846700  0.548500  1.0  -0.6016
  O  O703  1  0.529900  0.147600  0.133700  1.0  -0.6145
  O  O704  1  0.609200  0.215000  0.107900  1.0  -0.6439
  O  O705  1  0.801500  0.372000  0.552200  1.0  -0.5671
  O  O706  1  0.866900  0.354200  0.550500  1.0  -0.5859
  O  O707  1  0.718900  0.262200  0.605100  1.0  -0.6394
  O  O708  1  0.800200  0.275300  0.634700  1.0  -0.5987
  O  O709  1  0.089500  0.847800  0.493500  1.0  -0.5913
  O  O710  1  0.179700  0.907100  0.496400  1.0  -0.6177
  O  O711  1  0.796300  0.279800  0.475900  1.0  -0.5806
  O  O712  1  0.719600  0.263000  0.505100  1.0  -0.6682
  O  O713  1  0.054900  0.934400  0.443100  1.0  -0.6
  O  O714  1  0.134400  0.948400  0.414300  1.0  -0.5338
  O  O715  1  0.947700  0.878000  0.045900  1.0  -0.5618
  O  O716  1  0.871200  0.805900  0.080400  1.0  -0.6331
  O  O717  1  0.846100  0.241400  0.552800  1.0  -0.5414
  O  O718  1  0.754300  0.178400  0.554300  1.0  -0.6771
  O  O719  1  0.958600  0.096000  0.501800  1.0  -0.582
  O  O720  1  0.978100  0.179100  0.501600  1.0  -0.5875
  O  O721  1  0.511600  0.573600  0.557500  1.0  -0.5451
  O  O722  1  0.423900  0.518200  0.559700  1.0  -0.5894
  O  O723  1  0.789900  0.404000  0.004600  1.0  -0.6689
  O  O724  1  0.854300  0.395100  0.975800  1.0  -0.5643
  O  O725  1  0.234400  0.530900  0.539300  1.0  -0.5624
  O  O726  1  0.153300  0.463800  0.548500  1.0  -0.5998
  O  O727  1  0.852400  0.382300  0.133700  1.0  -0.6133
  O  O728  1  0.785000  0.394200  0.107900  1.0  -0.6413
  O  O729  1  0.628000  0.429500  0.552200  1.0  -0.5646
  O  O730  1  0.645800  0.512700  0.550500  1.0  -0.5863
  O  O731  1  0.737800  0.456700  0.605100  1.0  -0.64
  O  O732  1  0.724700  0.524900  0.634700  1.0  -0.5993
  O  O733  1  0.152200  0.241700  0.493500  1.0  -0.5916
  O  O734  1  0.092900  0.272600  0.496400  1.0  -0.6149
  O  O735  1  0.720200  0.516500  0.475900  1.0  -0.5803
  O  O736  1  0.737000  0.456600  0.505100  1.0  -0.6674
  O  O737  1  0.065600  0.120500  0.443100  1.0  -0.6048
  O  O738  1  0.051600  0.186000  0.414300  1.0  -0.5304
  O  O739  1  0.122000  0.069700  0.045900  1.0  -0.5609
  O  O740  1  0.194100  0.065300  0.080400  1.0  -0.6339
  O  O741  1  0.758600  0.604700  0.552800  1.0  -0.5399
  O  O742  1  0.821600  0.575900  0.554300  1.0  -0.6778
  O  O743  1  0.904000  0.862600  0.501800  1.0  -0.5823
  O  O744  1  0.820900  0.799000  0.501600  1.0  -0.5848
  O  O745  1  0.426400  0.938000  0.557500  1.0  -0.5427
  O  O746  1  0.481800  0.905700  0.559700  1.0  -0.5893
  O  O747  1  0.596000  0.385900  0.004600  1.0  -0.6674
  O  O748  1  0.604900  0.459200  0.975800  1.0  -0.561
  O  O749  1  0.469100  0.703500  0.539300  1.0  -0.5668
  O  O750  1  0.536200  0.689500  0.548500  1.0  -0.599
  O  O751  1  0.617700  0.470100  0.133700  1.0  -0.6123
  O  O752  1  0.605800  0.390800  0.107900  1.0  -0.6424
  O  O753  1  0.570500  0.198500  0.552200  1.0  -0.5648
  O  O754  1  0.487300  0.133100  0.550500  1.0  -0.5844
  O  O755  1  0.543300  0.281100  0.605100  1.0  -0.6398
  O  O756  1  0.475100  0.199800  0.634700  1.0  -0.5946
  O  O757  1  0.758300  0.910500  0.493500  1.0  -0.5935
  O  O758  1  0.727400  0.820300  0.496400  1.0  -0.6151
  O  O759  1  0.483500  0.203700  0.475900  1.0  -0.5796
  O  O760  1  0.543400  0.280400  0.505100  1.0  -0.6657
  O  O761  1  0.879500  0.945100  0.443100  1.0  -0.6066
  O  O762  1  0.814000  0.865600  0.414300  1.0  -0.528
  O  O763  1  0.930300  0.052300  0.045900  1.0  -0.5611
  O  O764  1  0.934700  0.128800  0.080400  1.0  -0.6316
  O  O765  1  0.395300  0.153900  0.552800  1.0  -0.5399
  O  O766  1  0.424100  0.245700  0.554300  1.0  -0.6795
  O  O767  1  0.137400  0.041400  0.501800  1.0  -0.5824
  O  O768  1  0.201000  0.021900  0.501600  1.0  -0.5831
