# generated using pymatgen
data_MnNb6H14C20N8(Cl6O)2
_symmetry_space_group_name_H-M   'P 1'
_cell_length_a   30.58500000
_cell_length_b   30.58500000
_cell_length_c   27.34800000
_cell_angle_alpha   90.00000000
_cell_angle_beta   90.00000000
_cell_angle_gamma   90.00000000
_symmetry_Int_Tables_number   1
_chemical_formula_structural   MnNb6H14C20N8(Cl6O)2
_chemical_formula_sum   'Mn16 Nb96 H224 C320 N128 Cl192 O32'
_cell_volume   25582.47396930
_cell_formula_units_Z   16
loop_
 _symmetry_equiv_pos_site_id
 _symmetry_equiv_pos_as_xyz
  1  'x, y, z'
loop_
 _atom_site_type_symbol
 _atom_site_label
 _atom_site_symmetry_multiplicity
 _atom_site_fract_x
 _atom_site_fract_y
 _atom_site_fract_z
 _atom_site_occupancy
 _atom_site_charge
  Mn  Mn1  1  0.000000  0.250000  0.750680  1.0  1.0289
  Mn  Mn2  1  0.500000  0.750000  0.250680  1.0  1.0289
  Mn  Mn3  1  0.500000  0.250000  0.000680  1.0  1.0289
  Mn  Mn4  1  0.000000  0.750000  0.500680  1.0  1.0289
  Mn  Mn5  1  0.000000  0.750000  0.750400  1.0  0.9938
  Mn  Mn6  1  0.500000  0.250000  0.250400  1.0  0.9938
  Mn  Mn7  1  0.000000  0.250000  0.000400  1.0  0.995
  Mn  Mn8  1  0.500000  0.750000  0.500400  1.0  0.995
  Mn  Mn9  1  0.000000  0.750000  0.249320  1.0  1.0265
  Mn  Mn10  1  0.500000  0.250000  0.749320  1.0  1.0265
  Mn  Mn11  1  0.500000  0.750000  0.999320  1.0  1.0265
  Mn  Mn12  1  0.000000  0.250000  0.499320  1.0  1.0265
  Mn  Mn13  1  0.000000  0.250000  0.249600  1.0  0.9938
  Mn  Mn14  1  0.500000  0.750000  0.749600  1.0  0.9938
  Mn  Mn15  1  0.000000  0.750000  0.999600  1.0  0.995
  Mn  Mn16  1  0.500000  0.250000  0.499600  1.0  0.995
  Nb  Nb17  1  0.040540  0.990100  0.806460  1.0  0.8105
  Nb  Nb18  1  0.041130  0.990120  0.699300  1.0  0.8122
  Nb  Nb19  1  0.980690  0.932780  0.752510  1.0  0.7938
  Nb  Nb20  1  0.947000  0.009160  0.805880  1.0  0.8267
  Nb  Nb21  1  0.947390  0.009010  0.698700  1.0  0.7999
  Nb  Nb22  1  0.007430  0.066330  0.752540  1.0  0.83
  Nb  Nb23  1  0.540540  0.490100  0.306460  1.0  0.8105
  Nb  Nb24  1  0.541130  0.490120  0.199300  1.0  0.8122
  Nb  Nb25  1  0.480690  0.432780  0.252510  1.0  0.7938
  Nb  Nb26  1  0.447000  0.509160  0.305880  1.0  0.8267
  Nb  Nb27  1  0.447390  0.509010  0.198700  1.0  0.7999
  Nb  Nb28  1  0.507430  0.566330  0.252540  1.0  0.83
  Nb  Nb29  1  0.459460  0.009900  0.306460  1.0  0.8098
  Nb  Nb30  1  0.458870  0.009880  0.199300  1.0  0.8115
  Nb  Nb31  1  0.519310  0.067220  0.252510  1.0  0.7921
  Nb  Nb32  1  0.553000  0.990840  0.305880  1.0  0.8277
  Nb  Nb33  1  0.552610  0.990990  0.198700  1.0  0.801
  Nb  Nb34  1  0.492570  0.933670  0.252540  1.0  0.8318
  Nb  Nb35  1  0.959460  0.509900  0.806460  1.0  0.8098
  Nb  Nb36  1  0.958870  0.509880  0.699300  1.0  0.8115
  Nb  Nb37  1  0.019310  0.567220  0.752510  1.0  0.7921
  Nb  Nb38  1  0.053000  0.490840  0.805880  1.0  0.8277
  Nb  Nb39  1  0.052610  0.490990  0.698700  1.0  0.801
  Nb  Nb40  1  0.992570  0.433670  0.752540  1.0  0.8318
  Nb  Nb41  1  0.759900  0.290540  0.056460  1.0  0.8096
  Nb  Nb42  1  0.759880  0.291130  0.949300  1.0  0.8116
  Nb  Nb43  1  0.817220  0.230690  0.002510  1.0  0.7933
  Nb  Nb44  1  0.740840  0.197000  0.055880  1.0  0.8276
  Nb  Nb45  1  0.740990  0.197390  0.948700  1.0  0.7996
  Nb  Nb46  1  0.683670  0.257430  0.002540  1.0  0.8279
  Nb  Nb47  1  0.259900  0.790540  0.556460  1.0  0.8096
  Nb  Nb48  1  0.259880  0.791130  0.449300  1.0  0.8116
  Nb  Nb49  1  0.317220  0.730690  0.502510  1.0  0.7933
  Nb  Nb50  1  0.240840  0.697000  0.555880  1.0  0.8276
  Nb  Nb51  1  0.240990  0.697390  0.448700  1.0  0.7996
  Nb  Nb52  1  0.183670  0.757430  0.502540  1.0  0.8279
  Nb  Nb53  1  0.740100  0.709460  0.556460  1.0  0.8111
  Nb  Nb54  1  0.740120  0.708870  0.449300  1.0  0.8126
  Nb  Nb55  1  0.682780  0.769310  0.502510  1.0  0.793
  Nb  Nb56  1  0.759160  0.803000  0.555880  1.0  0.8271
  Nb  Nb57  1  0.759010  0.802610  0.448700  1.0  0.7995
  Nb  Nb58  1  0.816330  0.742570  0.502540  1.0  0.83
  Nb  Nb59  1  0.240100  0.209460  0.056460  1.0  0.8111
  Nb  Nb60  1  0.240120  0.208870  0.949300  1.0  0.8126
  Nb  Nb61  1  0.182780  0.269310  0.002510  1.0  0.793
  Nb  Nb62  1  0.259160  0.303000  0.055880  1.0  0.8271
  Nb  Nb63  1  0.259010  0.302610  0.948700  1.0  0.7995
  Nb  Nb64  1  0.316330  0.242570  0.002540  1.0  0.83
  Nb  Nb65  1  0.959460  0.009900  0.193540  1.0  0.81
  Nb  Nb66  1  0.958870  0.009880  0.300700  1.0  0.8112
  Nb  Nb67  1  0.019310  0.067220  0.247490  1.0  0.792
  Nb  Nb68  1  0.053000  0.990840  0.194120  1.0  0.8275
  Nb  Nb69  1  0.052610  0.990990  0.301300  1.0  0.8004
  Nb  Nb70  1  0.992570  0.933670  0.247460  1.0  0.8321
  Nb  Nb71  1  0.459460  0.509900  0.693540  1.0  0.81
  Nb  Nb72  1  0.458870  0.509880  0.800700  1.0  0.8112
  Nb  Nb73  1  0.519310  0.567220  0.747490  1.0  0.792
  Nb  Nb74  1  0.553000  0.490840  0.694120  1.0  0.8275
  Nb  Nb75  1  0.552610  0.490990  0.801300  1.0  0.8004
  Nb  Nb76  1  0.492570  0.433670  0.747460  1.0  0.8321
  Nb  Nb77  1  0.540540  0.990100  0.693540  1.0  0.8108
  Nb  Nb78  1  0.541130  0.990120  0.800700  1.0  0.8116
  Nb  Nb79  1  0.480690  0.932780  0.747490  1.0  0.7937
  Nb  Nb80  1  0.447000  0.009160  0.694120  1.0  0.8266
  Nb  Nb81  1  0.447390  0.009010  0.801300  1.0  0.7997
  Nb  Nb82  1  0.507430  0.066330  0.747460  1.0  0.8304
  Nb  Nb83  1  0.040540  0.490100  0.193540  1.0  0.8108
  Nb  Nb84  1  0.041130  0.490120  0.300700  1.0  0.8116
  Nb  Nb85  1  0.980690  0.432780  0.247490  1.0  0.7937
  Nb  Nb86  1  0.947000  0.509160  0.194120  1.0  0.8266
  Nb  Nb87  1  0.947390  0.509010  0.301300  1.0  0.7997
  Nb  Nb88  1  0.007430  0.566330  0.247460  1.0  0.8304
  Nb  Nb89  1  0.240100  0.709460  0.943540  1.0  0.8112
  Nb  Nb90  1  0.240120  0.708870  0.050700  1.0  0.8122
  Nb  Nb91  1  0.182780  0.769310  0.997490  1.0  0.7928
  Nb  Nb92  1  0.259160  0.803000  0.944120  1.0  0.8271
  Nb  Nb93  1  0.259010  0.802610  0.051300  1.0  0.799
  Nb  Nb94  1  0.316330  0.742570  0.997460  1.0  0.8303
  Nb  Nb95  1  0.740100  0.209460  0.443540  1.0  0.8112
  Nb  Nb96  1  0.740120  0.208870  0.550700  1.0  0.8122
  Nb  Nb97  1  0.682780  0.269310  0.497490  1.0  0.7928
  Nb  Nb98  1  0.759160  0.303000  0.444120  1.0  0.8271
  Nb  Nb99  1  0.759010  0.302610  0.551300  1.0  0.799
  Nb  Nb100  1  0.816330  0.242570  0.497460  1.0  0.8303
  Nb  Nb101  1  0.259900  0.290540  0.443540  1.0  0.8099
  Nb  Nb102  1  0.259880  0.291130  0.550700  1.0  0.811
  Nb  Nb103  1  0.317220  0.230690  0.497490  1.0  0.7932
  Nb  Nb104  1  0.240840  0.197000  0.444120  1.0  0.8273
  Nb  Nb105  1  0.240990  0.197390  0.551300  1.0  0.7992
  Nb  Nb106  1  0.183670  0.257430  0.497460  1.0  0.8282
  Nb  Nb107  1  0.759900  0.790540  0.943540  1.0  0.8099
  Nb  Nb108  1  0.759880  0.791130  0.050700  1.0  0.811
  Nb  Nb109  1  0.817220  0.730690  0.997490  1.0  0.7932
  Nb  Nb110  1  0.740840  0.697000  0.944120  1.0  0.8273
  Nb  Nb111  1  0.740990  0.697390  0.051300  1.0  0.7992
  Nb  Nb112  1  0.683670  0.757430  0.997460  1.0  0.8282
  H  H113  1  0.912000  0.215600  0.631400  1.0  0.1916
  H  H114  1  0.867400  0.226600  0.659500  1.0  0.2017
  H  H115  1  0.886300  0.177800  0.660000  1.0  0.204
  H  H116  1  0.871500  0.201700  0.751400  1.0  0.1545
  H  H117  1  0.866900  0.193400  0.832600  1.0  0.19
  H  H118  1  0.891400  0.231200  0.862400  1.0  0.1982
  H  H119  1  0.912100  0.183200  0.859800  1.0  0.1985
  H  H120  1  0.080500  0.802000  0.630900  1.0  0.19
  H  H121  1  0.124700  0.807100  0.661700  1.0  0.1945
  H  H122  1  0.091100  0.847100  0.658100  1.0  0.2074
  H  H123  1  0.105800  0.836500  0.751000  1.0  0.1625
  H  H124  1  0.117000  0.834100  0.833200  1.0  0.2024
  H  H125  1  0.106900  0.787800  0.858100  1.0  0.1973
  H  H126  1  0.072800  0.827100  0.863600  1.0  0.1955
  H  H127  1  0.412000  0.715600  0.131400  1.0  0.1916
  H  H128  1  0.367400  0.726600  0.159500  1.0  0.2017
  H  H129  1  0.386300  0.677800  0.160000  1.0  0.204
  H  H130  1  0.371500  0.701700  0.251400  1.0  0.1545
  H  H131  1  0.366900  0.693400  0.332600  1.0  0.19
  H  H132  1  0.391400  0.731200  0.362400  1.0  0.1982
  H  H133  1  0.412100  0.683200  0.359800  1.0  0.1985
  H  H134  1  0.580500  0.302000  0.130900  1.0  0.19
  H  H135  1  0.624700  0.307100  0.161700  1.0  0.1945
  H  H136  1  0.591100  0.347100  0.158100  1.0  0.2074
  H  H137  1  0.605800  0.336500  0.251000  1.0  0.1625
  H  H138  1  0.617000  0.334100  0.333200  1.0  0.2024
  H  H139  1  0.606900  0.287800  0.358100  1.0  0.1973
  H  H140  1  0.572800  0.327100  0.363600  1.0  0.1955
  H  H141  1  0.588000  0.784400  0.131400  1.0  0.1939
  H  H142  1  0.632600  0.773400  0.159500  1.0  0.203
  H  H143  1  0.613700  0.822200  0.160000  1.0  0.2059
  H  H144  1  0.628500  0.798300  0.251400  1.0  0.1548
  H  H145  1  0.633100  0.806600  0.332600  1.0  0.1947
  H  H146  1  0.608600  0.768800  0.362400  1.0  0.1996
  H  H147  1  0.587900  0.816800  0.359800  1.0  0.1994
  H  H148  1  0.419500  0.198000  0.130900  1.0  0.1884
  H  H149  1  0.375300  0.192900  0.161700  1.0  0.1916
  H  H150  1  0.408900  0.152900  0.158100  1.0  0.2061
  H  H151  1  0.394200  0.163500  0.251000  1.0  0.1614
  H  H152  1  0.383000  0.165900  0.333200  1.0  0.1986
  H  H153  1  0.393100  0.212200  0.358100  1.0  0.1982
  H  H154  1  0.427200  0.172900  0.363600  1.0  0.1948
  H  H155  1  0.088000  0.284400  0.631400  1.0  0.1939
  H  H156  1  0.132600  0.273400  0.659500  1.0  0.203
  H  H157  1  0.113700  0.322200  0.660000  1.0  0.2059
  H  H158  1  0.128500  0.298300  0.751400  1.0  0.1548
  H  H159  1  0.133100  0.306600  0.832600  1.0  0.1947
  H  H160  1  0.108600  0.268800  0.862400  1.0  0.1996
  H  H161  1  0.087900  0.316800  0.859800  1.0  0.1994
  H  H162  1  0.919500  0.698000  0.630900  1.0  0.1884
  H  H163  1  0.875300  0.692900  0.661700  1.0  0.1916
  H  H164  1  0.908900  0.652900  0.658100  1.0  0.2061
  H  H165  1  0.894200  0.663500  0.751000  1.0  0.1614
  H  H166  1  0.883000  0.665900  0.833200  1.0  0.1986
  H  H167  1  0.893100  0.712200  0.858100  1.0  0.1982
  H  H168  1  0.927200  0.672900  0.863600  1.0  0.1948
  H  H169  1  0.534400  0.162000  0.881400  1.0  0.1904
  H  H170  1  0.523400  0.117400  0.909500  1.0  0.201
  H  H171  1  0.572200  0.136300  0.910000  1.0  0.2063
  H  H172  1  0.548300  0.121500  0.001400  1.0  0.1526
  H  H173  1  0.556600  0.116900  0.082600  1.0  0.1912
  H  H174  1  0.518800  0.141400  0.112400  1.0  0.1981
  H  H175  1  0.566800  0.162100  0.109800  1.0  0.1967
  H  H176  1  0.948000  0.330500  0.880900  1.0  0.1868
  H  H177  1  0.942900  0.374700  0.911700  1.0  0.1938
  H  H178  1  0.902900  0.341100  0.908100  1.0  0.204
  H  H179  1  0.913500  0.355800  0.001000  1.0  0.1619
  H  H180  1  0.915900  0.367000  0.083200  1.0  0.198
  H  H181  1  0.962200  0.356900  0.108100  1.0  0.1971
  H  H182  1  0.922900  0.322800  0.113600  1.0  0.1936
  H  H183  1  0.034400  0.662000  0.381400  1.0  0.1904
  H  H184  1  0.023400  0.617400  0.409500  1.0  0.201
  H  H185  1  0.072200  0.636300  0.410000  1.0  0.2063
  H  H186  1  0.048300  0.621500  0.501400  1.0  0.1526
  H  H187  1  0.056600  0.616900  0.582600  1.0  0.1912
  H  H188  1  0.018800  0.641400  0.612400  1.0  0.1981
  H  H189  1  0.066800  0.662100  0.609800  1.0  0.1967
  H  H190  1  0.448000  0.830500  0.380900  1.0  0.1868
  H  H191  1  0.442900  0.874700  0.411700  1.0  0.1938
  H  H192  1  0.402900  0.841100  0.408100  1.0  0.204
  H  H193  1  0.413500  0.855800  0.501000  1.0  0.1619
  H  H194  1  0.415900  0.867000  0.583200  1.0  0.198
  H  H195  1  0.462200  0.856900  0.608100  1.0  0.1971
  H  H196  1  0.422900  0.822800  0.613600  1.0  0.1936
  H  H197  1  0.965600  0.838000  0.381400  1.0  0.1895
  H  H198  1  0.976600  0.882600  0.409500  1.0  0.2015
  H  H199  1  0.927800  0.863700  0.410000  1.0  0.203
  H  H200  1  0.951700  0.878500  0.501400  1.0  0.153
  H  H201  1  0.943400  0.883100  0.582600  1.0  0.1942
  H  H202  1  0.981200  0.858600  0.612400  1.0  0.1979
  H  H203  1  0.933200  0.837900  0.609800  1.0  0.1964
  H  H204  1  0.552000  0.669500  0.380900  1.0  0.1874
  H  H205  1  0.557100  0.625300  0.411700  1.0  0.1914
  H  H206  1  0.597100  0.658900  0.408100  1.0  0.2045
  H  H207  1  0.586500  0.644200  0.501000  1.0  0.161
  H  H208  1  0.584100  0.633000  0.583200  1.0  0.1992
  H  H209  1  0.537800  0.643100  0.608100  1.0  0.1983
  H  H210  1  0.577100  0.677200  0.613600  1.0  0.1928
  H  H211  1  0.465600  0.338000  0.881400  1.0  0.1895
  H  H212  1  0.476600  0.382600  0.909500  1.0  0.2015
  H  H213  1  0.427800  0.363700  0.910000  1.0  0.203
  H  H214  1  0.451700  0.378500  0.001400  1.0  0.153
  H  H215  1  0.443400  0.383100  0.082600  1.0  0.1942
  H  H216  1  0.481200  0.358600  0.112400  1.0  0.1979
  H  H217  1  0.433200  0.337900  0.109800  1.0  0.1964
  H  H218  1  0.052000  0.169500  0.880900  1.0  0.1874
  H  H219  1  0.057100  0.125300  0.911700  1.0  0.1914
  H  H220  1  0.097100  0.158900  0.908100  1.0  0.2045
  H  H221  1  0.086500  0.144200  0.001000  1.0  0.161
  H  H222  1  0.084100  0.133000  0.083200  1.0  0.1992
  H  H223  1  0.037800  0.143100  0.108100  1.0  0.1983
  H  H224  1  0.077100  0.177200  0.113600  1.0  0.1928
  H  H225  1  0.088000  0.784400  0.368600  1.0  0.1939
  H  H226  1  0.132600  0.773400  0.340500  1.0  0.2026
  H  H227  1  0.113700  0.822200  0.340000  1.0  0.2055
  H  H228  1  0.128500  0.798300  0.248600  1.0  0.1546
  H  H229  1  0.133100  0.806600  0.167400  1.0  0.195
  H  H230  1  0.108600  0.768800  0.137600  1.0  0.2
  H  H231  1  0.087900  0.816800  0.140200  1.0  0.2002
  H  H232  1  0.919500  0.198000  0.369100  1.0  0.1884
  H  H233  1  0.875300  0.192900  0.338300  1.0  0.1917
  H  H234  1  0.908900  0.152900  0.341900  1.0  0.2062
  H  H235  1  0.894200  0.163500  0.249000  1.0  0.1615
  H  H236  1  0.883000  0.165900  0.166800  1.0  0.1979
  H  H237  1  0.893100  0.212200  0.141900  1.0  0.1985
  H  H238  1  0.927200  0.172900  0.136400  1.0  0.1947
  H  H239  1  0.588000  0.284400  0.868600  1.0  0.1939
  H  H240  1  0.632600  0.273400  0.840500  1.0  0.2026
  H  H241  1  0.613700  0.322200  0.840000  1.0  0.2055
  H  H242  1  0.628500  0.298300  0.748600  1.0  0.1546
  H  H243  1  0.633100  0.306600  0.667400  1.0  0.195
  H  H244  1  0.608600  0.268800  0.637600  1.0  0.2
  H  H245  1  0.587900  0.316800  0.640200  1.0  0.2002
  H  H246  1  0.419500  0.698000  0.869100  1.0  0.1884
  H  H247  1  0.375300  0.692900  0.838300  1.0  0.1917
  H  H248  1  0.408900  0.652900  0.841900  1.0  0.2062
  H  H249  1  0.394200  0.663500  0.749000  1.0  0.1615
  H  H250  1  0.383000  0.665900  0.666800  1.0  0.1979
  H  H251  1  0.393100  0.712200  0.641900  1.0  0.1985
  H  H252  1  0.427200  0.672900  0.636400  1.0  0.1947
  H  H253  1  0.412000  0.215600  0.868600  1.0  0.1926
  H  H254  1  0.367400  0.226600  0.840500  1.0  0.2011
  H  H255  1  0.386300  0.177800  0.840000  1.0  0.2045
  H  H256  1  0.371500  0.201700  0.748600  1.0  0.1543
  H  H257  1  0.366900  0.193400  0.667400  1.0  0.1899
  H  H258  1  0.391400  0.231200  0.637600  1.0  0.1987
  H  H259  1  0.412100  0.183200  0.640200  1.0  0.198
  H  H260  1  0.580500  0.802000  0.869100  1.0  0.1885
  H  H261  1  0.624700  0.807100  0.838300  1.0  0.1945
  H  H262  1  0.591100  0.847100  0.841900  1.0  0.2067
  H  H263  1  0.605800  0.836500  0.749000  1.0  0.1625
  H  H264  1  0.617000  0.834100  0.666800  1.0  0.2022
  H  H265  1  0.606900  0.787800  0.641900  1.0  0.1981
  H  H266  1  0.572800  0.827100  0.636400  1.0  0.1967
  H  H267  1  0.912000  0.715600  0.368600  1.0  0.1926
  H  H268  1  0.867400  0.726600  0.340500  1.0  0.2011
  H  H269  1  0.886300  0.677800  0.340000  1.0  0.2045
  H  H270  1  0.871500  0.701700  0.248600  1.0  0.1543
  H  H271  1  0.866900  0.693400  0.167400  1.0  0.1899
  H  H272  1  0.891400  0.731200  0.137600  1.0  0.1987
  H  H273  1  0.912100  0.683200  0.140200  1.0  0.198
  H  H274  1  0.080500  0.302000  0.369100  1.0  0.1885
  H  H275  1  0.124700  0.307100  0.338300  1.0  0.1945
  H  H276  1  0.091100  0.347100  0.341900  1.0  0.2067
  H  H277  1  0.105800  0.336500  0.249000  1.0  0.1625
  H  H278  1  0.117000  0.334100  0.166800  1.0  0.2022
  H  H279  1  0.106900  0.287800  0.141900  1.0  0.1981
  H  H280  1  0.072800  0.327100  0.136400  1.0  0.1967
  H  H281  1  0.465600  0.838000  0.118600  1.0  0.1903
  H  H282  1  0.476600  0.882600  0.090500  1.0  0.2008
  H  H283  1  0.427800  0.863700  0.090000  1.0  0.203
  H  H284  1  0.451700  0.878500  0.998600  1.0  0.1527
  H  H285  1  0.443400  0.883100  0.917400  1.0  0.1944
  H  H286  1  0.481200  0.858600  0.887600  1.0  0.1982
  H  H287  1  0.433200  0.837900  0.890200  1.0  0.1969
  H  H288  1  0.052000  0.669500  0.119100  1.0  0.187
  H  H289  1  0.057100  0.625300  0.088300  1.0  0.1917
  H  H290  1  0.097100  0.658900  0.091900  1.0  0.2038
  H  H291  1  0.086500  0.644200  0.999000  1.0  0.1611
  H  H292  1  0.084100  0.633000  0.916800  1.0  0.1985
  H  H293  1  0.037800  0.643100  0.891900  1.0  0.1986
  H  H294  1  0.077100  0.677200  0.886400  1.0  0.1935
  H  H295  1  0.965600  0.338000  0.618600  1.0  0.1903
  H  H296  1  0.976600  0.382600  0.590500  1.0  0.2008
  H  H297  1  0.927800  0.363700  0.590000  1.0  0.203
  H  H298  1  0.951700  0.378500  0.498600  1.0  0.1527
  H  H299  1  0.943400  0.383100  0.417400  1.0  0.1944
  H  H300  1  0.981200  0.358600  0.387600  1.0  0.1982
  H  H301  1  0.933200  0.337900  0.390200  1.0  0.1969
  H  H302  1  0.552000  0.169500  0.619100  1.0  0.187
  H  H303  1  0.557100  0.125300  0.588300  1.0  0.1917
  H  H304  1  0.597100  0.158900  0.591900  1.0  0.2038
  H  H305  1  0.586500  0.144200  0.499000  1.0  0.1611
  H  H306  1  0.584100  0.133000  0.416800  1.0  0.1985
  H  H307  1  0.537800  0.143100  0.391900  1.0  0.1986
  H  H308  1  0.577100  0.177200  0.386400  1.0  0.1935
  H  H309  1  0.034400  0.162000  0.618600  1.0  0.191
  H  H310  1  0.023400  0.117400  0.590500  1.0  0.2002
  H  H311  1  0.072200  0.136300  0.590000  1.0  0.2062
  H  H312  1  0.048300  0.121500  0.498600  1.0  0.1526
  H  H313  1  0.056600  0.116900  0.417400  1.0  0.192
  H  H314  1  0.018800  0.141400  0.387600  1.0  0.1983
  H  H315  1  0.066800  0.162100  0.390200  1.0  0.197
  H  H316  1  0.448000  0.330500  0.619100  1.0  0.187
  H  H317  1  0.442900  0.374700  0.588300  1.0  0.1935
  H  H318  1  0.402900  0.341100  0.591900  1.0  0.2042
  H  H319  1  0.413500  0.355800  0.499000  1.0  0.1619
  H  H320  1  0.415900  0.367000  0.416800  1.0  0.1977
  H  H321  1  0.462200  0.356900  0.391900  1.0  0.198
  H  H322  1  0.422900  0.322800  0.386400  1.0  0.194
  H  H323  1  0.534400  0.662000  0.118600  1.0  0.191
  H  H324  1  0.523400  0.617400  0.090500  1.0  0.2002
  H  H325  1  0.572200  0.636300  0.090000  1.0  0.2062
  H  H326  1  0.548300  0.621500  0.998600  1.0  0.1526
  H  H327  1  0.556600  0.616900  0.917400  1.0  0.192
  H  H328  1  0.518800  0.641400  0.887600  1.0  0.1983
  H  H329  1  0.566800  0.662100  0.890200  1.0  0.197
  H  H330  1  0.948000  0.830500  0.119100  1.0  0.187
  H  H331  1  0.942900  0.874700  0.088300  1.0  0.1935
  H  H332  1  0.902900  0.841100  0.091900  1.0  0.2042
  H  H333  1  0.913500  0.855800  0.999000  1.0  0.1619
  H  H334  1  0.915900  0.867000  0.916800  1.0  0.1977
  H  H335  1  0.962200  0.856900  0.891900  1.0  0.198
  H  H336  1  0.922900  0.822800  0.886400  1.0  0.194
  C  C337  1  0.091090  0.977260  0.865750  1.0  0.1932
  C  C338  1  0.093380  0.978190  0.641790  1.0  0.1804
  C  C339  1  0.969110  0.858430  0.752030  1.0  0.0029
  C  C340  1  0.895430  0.021880  0.864480  1.0  0.2021
  C  C341  1  0.895620  0.019980  0.640600  1.0  0.1881
  C  C342  1  0.020170  0.140270  0.752110  1.0  0.0917
  C  C343  1  0.976900  0.245500  0.649900  1.0  -0.048
  C  C344  1  0.919450  0.219120  0.705470  1.0  0.3287
  C  C345  1  0.894100  0.208900  0.660180  1.0  -0.3409
  C  C346  1  0.900780  0.211910  0.751130  1.0  -0.121
  C  C347  1  0.982700  0.232000  0.851300  1.0  0.0458
  C  C348  1  0.920280  0.218040  0.796300  1.0  0.3112
  C  C349  1  0.895500  0.205400  0.841740  1.0  -0.3259
  C  C350  1  0.093760  0.815220  0.660030  1.0  -0.3615
  C  C351  1  0.070550  0.798950  0.705050  1.0  0.3032
  C  C352  1  0.084700  0.813660  0.750820  1.0  -0.094
  C  C353  1  0.002600  0.225700  0.100400  1.0  0.0378
  C  C354  1  0.071050  0.798350  0.795740  1.0  0.3269
  C  C355  1  0.093930  0.813110  0.841660  1.0  -0.3581
  C  C356  1  0.025000  0.752000  0.650400  1.0  0.0121
  C  C357  1  0.591090  0.477260  0.365750  1.0  0.1932
  C  C358  1  0.593380  0.478190  0.141790  1.0  0.1804
  C  C359  1  0.469110  0.358430  0.252030  1.0  0.0029
  C  C360  1  0.395430  0.521880  0.364480  1.0  0.2021
  C  C361  1  0.395620  0.519980  0.140600  1.0  0.1881
  C  C362  1  0.520170  0.640270  0.252110  1.0  0.0917
  C  C363  1  0.476900  0.745500  0.149900  1.0  -0.048
  C  C364  1  0.419450  0.719120  0.205470  1.0  0.3287
  C  C365  1  0.394100  0.708900  0.160180  1.0  -0.3409
  C  C366  1  0.400780  0.711910  0.251130  1.0  -0.121
  C  C367  1  0.482700  0.732000  0.351300  1.0  0.0458
  C  C368  1  0.420280  0.718040  0.296300  1.0  0.3112
  C  C369  1  0.395500  0.705400  0.341740  1.0  -0.3259
  C  C370  1  0.593760  0.315220  0.160030  1.0  -0.3615
  C  C371  1  0.570550  0.298950  0.205050  1.0  0.3032
  C  C372  1  0.584700  0.313660  0.250820  1.0  -0.094
  C  C373  1  0.502600  0.725700  0.600400  1.0  0.0378
  C  C374  1  0.571050  0.298350  0.295740  1.0  0.3269
  C  C375  1  0.593930  0.313110  0.341660  1.0  -0.3581
  C  C376  1  0.525000  0.252000  0.150400  1.0  0.0121
  C  C377  1  0.408910  0.022740  0.365750  1.0  0.1916
  C  C378  1  0.406620  0.021810  0.141790  1.0  0.1799
  C  C379  1  0.530890  0.141570  0.252030  1.0  0.0051
  C  C380  1  0.604570  0.978120  0.364480  1.0  0.2016
  C  C381  1  0.604380  0.980020  0.140600  1.0  0.1887
  C  C382  1  0.479830  0.859730  0.252110  1.0  0.0876
  C  C383  1  0.523100  0.754500  0.149900  1.0  -0.046
  C  C384  1  0.580550  0.780880  0.205470  1.0  0.3275
  C  C385  1  0.605900  0.791100  0.160180  1.0  -0.3419
  C  C386  1  0.599220  0.788090  0.251130  1.0  -0.12
  C  C387  1  0.517300  0.768000  0.351300  1.0  0.0461
  C  C388  1  0.579720  0.781960  0.296300  1.0  0.3135
  C  C389  1  0.604500  0.794600  0.341740  1.0  -0.3271
  C  C390  1  0.406240  0.184780  0.160030  1.0  -0.3598
  C  C391  1  0.429450  0.201050  0.205050  1.0  0.3031
  C  C392  1  0.415300  0.186340  0.250820  1.0  -0.0928
  C  C393  1  0.497400  0.774300  0.600400  1.0  0.0378
  C  C394  1  0.428950  0.201650  0.295740  1.0  0.3258
  C  C395  1  0.406070  0.186890  0.341660  1.0  -0.3564
  C  C396  1  0.475000  0.248000  0.150400  1.0  0.0114
  C  C397  1  0.908910  0.522740  0.865750  1.0  0.1916
  C  C398  1  0.906620  0.521810  0.641790  1.0  0.1799
  C  C399  1  0.030890  0.641570  0.752030  1.0  0.0051
  C  C400  1  0.104570  0.478120  0.864480  1.0  0.2016
  C  C401  1  0.104380  0.480020  0.640600  1.0  0.1887
  C  C402  1  0.979830  0.359730  0.752110  1.0  0.0876
  C  C403  1  0.023100  0.254500  0.649900  1.0  -0.046
  C  C404  1  0.080550  0.280880  0.705470  1.0  0.3275
  C  C405  1  0.105900  0.291100  0.660180  1.0  -0.3419
  C  C406  1  0.099220  0.288090  0.751130  1.0  -0.12
  C  C407  1  0.017300  0.268000  0.851300  1.0  0.0461
  C  C408  1  0.079720  0.281960  0.796300  1.0  0.3135
  C  C409  1  0.104500  0.294600  0.841740  1.0  -0.3271
  C  C410  1  0.906240  0.684780  0.660030  1.0  -0.3598
  C  C411  1  0.929450  0.701050  0.705050  1.0  0.3031
  C  C412  1  0.915300  0.686340  0.750820  1.0  -0.0928
  C  C413  1  0.997400  0.274300  0.100400  1.0  0.0378
  C  C414  1  0.928950  0.701650  0.795740  1.0  0.3258
  C  C415  1  0.906070  0.686890  0.841660  1.0  -0.3564
  C  C416  1  0.975000  0.748000  0.650400  1.0  0.0114
  C  C417  1  0.772740  0.341090  0.115750  1.0  0.1929
  C  C418  1  0.771810  0.343380  0.891790  1.0  0.1794
  C  C419  1  0.891570  0.219110  0.002030  1.0  0.003
  C  C420  1  0.728120  0.145430  0.114480  1.0  0.2026
  C  C421  1  0.730020  0.145620  0.890600  1.0  0.1888
  C  C422  1  0.609730  0.270170  0.002110  1.0  0.0916
  C  C423  1  0.504500  0.226900  0.899900  1.0  -0.0449
  C  C424  1  0.530880  0.169450  0.955470  1.0  0.325
  C  C425  1  0.541100  0.144100  0.910180  1.0  -0.3415
  C  C426  1  0.538090  0.150780  0.001130  1.0  -0.118
  C  C427  1  0.518000  0.232700  0.101300  1.0  0.0468
  C  C428  1  0.531960  0.170280  0.046300  1.0  0.3111
  C  C429  1  0.544600  0.145500  0.091740  1.0  -0.3257
  C  C430  1  0.934780  0.343760  0.910030  1.0  -0.3606
  C  C431  1  0.951050  0.320550  0.955050  1.0  0.3042
  C  C432  1  0.936340  0.334700  0.000820  1.0  -0.0991
  C  C433  1  0.524300  0.252600  0.350400  1.0  0.0425
  C  C434  1  0.951650  0.321050  0.045740  1.0  0.3181
  C  C435  1  0.936890  0.343930  0.091660  1.0  -0.3569
  C  C436  1  0.998000  0.275000  0.900400  1.0  0.0226
  C  C437  1  0.272740  0.841090  0.615750  1.0  0.1929
  C  C438  1  0.271810  0.843380  0.391790  1.0  0.1794
  C  C439  1  0.391570  0.719110  0.502030  1.0  0.003
  C  C440  1  0.228120  0.645430  0.614480  1.0  0.2026
  C  C441  1  0.230020  0.645620  0.390600  1.0  0.1888
  C  C442  1  0.109730  0.770170  0.502110  1.0  0.0916
  C  C443  1  0.004500  0.726900  0.399900  1.0  -0.0449
  C  C444  1  0.030880  0.669450  0.455470  1.0  0.325
  C  C445  1  0.041100  0.644100  0.410180  1.0  -0.3415
  C  C446  1  0.038090  0.650780  0.501130  1.0  -0.118
  C  C447  1  0.018000  0.732700  0.601300  1.0  0.0468
  C  C448  1  0.031960  0.670280  0.546300  1.0  0.3111
  C  C449  1  0.044600  0.645500  0.591740  1.0  -0.3257
  C  C450  1  0.434780  0.843760  0.410030  1.0  -0.3606
  C  C451  1  0.451050  0.820550  0.455050  1.0  0.3042
  C  C452  1  0.436340  0.834700  0.500820  1.0  -0.0991
  C  C453  1  0.024300  0.752600  0.850400  1.0  0.0425
  C  C454  1  0.451650  0.821050  0.545740  1.0  0.3181
  C  C455  1  0.436890  0.843930  0.591660  1.0  -0.3569
  C  C456  1  0.498000  0.775000  0.400400  1.0  0.0226
  C  C457  1  0.727260  0.658910  0.615750  1.0  0.1932
  C  C458  1  0.728190  0.656620  0.391790  1.0  0.1807
  C  C459  1  0.608430  0.780890  0.502030  1.0  0.0013
  C  C460  1  0.771880  0.854570  0.614480  1.0  0.2023
  C  C461  1  0.769980  0.854380  0.390600  1.0  0.188
  C  C462  1  0.890270  0.729830  0.502110  1.0  0.091
  C  C463  1  0.995500  0.773100  0.399900  1.0  -0.0461
  C  C464  1  0.969120  0.830550  0.455470  1.0  0.3243
  C  C465  1  0.958900  0.855900  0.410180  1.0  -0.3418
  C  C466  1  0.961910  0.849220  0.501130  1.0  -0.1177
  C  C467  1  0.982000  0.767300  0.601300  1.0  0.0472
  C  C468  1  0.968040  0.829720  0.546300  1.0  0.3099
  C  C469  1  0.955400  0.854500  0.591740  1.0  -0.3269
  C  C470  1  0.565220  0.656240  0.410030  1.0  -0.3602
  C  C471  1  0.548950  0.679450  0.455050  1.0  0.3053
  C  C472  1  0.563660  0.665300  0.500820  1.0  -0.0972
  C  C473  1  0.975700  0.747400  0.850400  1.0  0.0412
  C  C474  1  0.548350  0.678950  0.545740  1.0  0.3178
  C  C475  1  0.563110  0.656070  0.591660  1.0  -0.3563
  C  C476  1  0.502000  0.725000  0.400400  1.0  0.0229
  C  C477  1  0.227260  0.158910  0.115750  1.0  0.1932
  C  C478  1  0.228190  0.156620  0.891790  1.0  0.1807
  C  C479  1  0.108430  0.280890  0.002030  1.0  0.0013
  C  C480  1  0.271880  0.354570  0.114480  1.0  0.2023
  C  C481  1  0.269980  0.354380  0.890600  1.0  0.188
  C  C482  1  0.390270  0.229830  0.002110  1.0  0.091
  C  C483  1  0.495500  0.273100  0.899900  1.0  -0.0461
  C  C484  1  0.469120  0.330550  0.955470  1.0  0.3243
  C  C485  1  0.458900  0.355900  0.910180  1.0  -0.3418
  C  C486  1  0.461910  0.349220  0.001130  1.0  -0.1177
  C  C487  1  0.482000  0.267300  0.101300  1.0  0.0472
  C  C488  1  0.468040  0.329720  0.046300  1.0  0.3099
  C  C489  1  0.455400  0.354500  0.091740  1.0  -0.3269
  C  C490  1  0.065220  0.156240  0.910030  1.0  -0.3602
  C  C491  1  0.048950  0.179450  0.955050  1.0  0.3053
  C  C492  1  0.063660  0.165300  0.000820  1.0  -0.0972
  C  C493  1  0.475700  0.247400  0.350400  1.0  0.0412
  C  C494  1  0.048350  0.178950  0.045740  1.0  0.3178
  C  C495  1  0.063110  0.156070  0.091660  1.0  -0.3563
  C  C496  1  0.002000  0.225000  0.900400  1.0  0.0229
  C  C497  1  0.908910  0.022740  0.134250  1.0  0.1921
  C  C498  1  0.906620  0.021810  0.358210  1.0  0.18
  C  C499  1  0.030890  0.141570  0.247970  1.0  0.005
  C  C500  1  0.104570  0.978120  0.135520  1.0  0.2005
  C  C501  1  0.104380  0.980020  0.359400  1.0  0.1891
  C  C502  1  0.979830  0.859730  0.247890  1.0  0.0877
  C  C503  1  0.023100  0.754500  0.350100  1.0  -0.0039
  C  C504  1  0.080550  0.780880  0.294530  1.0  0.3254
  C  C505  1  0.105900  0.791100  0.339820  1.0  -0.3417
  C  C506  1  0.099220  0.788090  0.248870  1.0  -0.1164
  C  C507  1  0.017300  0.768000  0.148700  1.0  0.0373
  C  C508  1  0.079720  0.781960  0.203700  1.0  0.3189
  C  C509  1  0.104500  0.794600  0.158260  1.0  -0.3281
  C  C510  1  0.906240  0.184780  0.339970  1.0  -0.3593
  C  C511  1  0.929450  0.201050  0.294950  1.0  0.3031
  C  C512  1  0.915300  0.186340  0.249180  1.0  -0.0928
  C  C513  1  0.997400  0.774300  0.899600  1.0  0.0378
  C  C514  1  0.928950  0.201650  0.204260  1.0  0.3256
  C  C515  1  0.906070  0.186890  0.158340  1.0  -0.3576
  C  C516  1  0.975000  0.248000  0.349600  1.0  0.0116
  C  C517  1  0.408910  0.522740  0.634250  1.0  0.1921
  C  C518  1  0.406620  0.521810  0.858210  1.0  0.18
  C  C519  1  0.530890  0.641570  0.747970  1.0  0.005
  C  C520  1  0.604570  0.478120  0.635520  1.0  0.2005
  C  C521  1  0.604380  0.480020  0.859400  1.0  0.1891
  C  C522  1  0.479830  0.359730  0.747890  1.0  0.0877
  C  C523  1  0.523100  0.254500  0.850100  1.0  -0.0039
  C  C524  1  0.580550  0.280880  0.794530  1.0  0.3254
  C  C525  1  0.605900  0.291100  0.839820  1.0  -0.3417
  C  C526  1  0.599220  0.288090  0.748870  1.0  -0.1164
  C  C527  1  0.517300  0.268000  0.648700  1.0  0.0373
  C  C528  1  0.579720  0.281960  0.703700  1.0  0.3189
  C  C529  1  0.604500  0.294600  0.658260  1.0  -0.3281
  C  C530  1  0.406240  0.684780  0.839970  1.0  -0.3593
  C  C531  1  0.429450  0.701050  0.794950  1.0  0.3031
  C  C532  1  0.415300  0.686340  0.749180  1.0  -0.0928
  C  C533  1  0.497400  0.274300  0.399600  1.0  0.0378
  C  C534  1  0.428950  0.701650  0.704260  1.0  0.3256
  C  C535  1  0.406070  0.686890  0.658340  1.0  -0.3576
  C  C536  1  0.475000  0.748000  0.849600  1.0  0.0116
  C  C537  1  0.591090  0.977260  0.634250  1.0  0.1924
  C  C538  1  0.593380  0.978190  0.858210  1.0  0.1818
  C  C539  1  0.469110  0.858430  0.747970  1.0  0.0027
  C  C540  1  0.395430  0.021880  0.635520  1.0  0.2024
  C  C541  1  0.395620  0.019980  0.859400  1.0  0.1876
  C  C542  1  0.520170  0.140270  0.747890  1.0  0.0918
  C  C543  1  0.476900  0.245500  0.850100  1.0  -0.0057
  C  C544  1  0.419450  0.219120  0.794530  1.0  0.3259
  C  C545  1  0.394100  0.208900  0.839820  1.0  -0.3405
  C  C546  1  0.400780  0.211910  0.748870  1.0  -0.1166
  C  C547  1  0.482700  0.232000  0.648700  1.0  0.036
  C  C548  1  0.420280  0.218040  0.703700  1.0  0.3167
  C  C549  1  0.395500  0.205400  0.658260  1.0  -0.3261
  C  C550  1  0.593760  0.815220  0.839970  1.0  -0.3609
  C  C551  1  0.570550  0.798950  0.794950  1.0  0.3031
  C  C552  1  0.584700  0.813660  0.749180  1.0  -0.0942
  C  C553  1  0.502600  0.225700  0.399600  1.0  0.0381
  C  C554  1  0.571050  0.798350  0.704260  1.0  0.3262
  C  C555  1  0.593930  0.813110  0.658340  1.0  -0.3595
  C  C556  1  0.525000  0.752000  0.849600  1.0  0.0116
  C  C557  1  0.091090  0.477260  0.134250  1.0  0.1924
  C  C558  1  0.093380  0.478190  0.358210  1.0  0.1818
  C  C559  1  0.969110  0.358430  0.247970  1.0  0.0027
  C  C560  1  0.895430  0.521880  0.135520  1.0  0.2024
  C  C561  1  0.895620  0.519980  0.359400  1.0  0.1876
  C  C562  1  0.020170  0.640270  0.247890  1.0  0.0918
  C  C563  1  0.976900  0.745500  0.350100  1.0  -0.0057
  C  C564  1  0.919450  0.719120  0.294530  1.0  0.3259
  C  C565  1  0.894100  0.708900  0.339820  1.0  -0.3405
  C  C566  1  0.900780  0.711910  0.248870  1.0  -0.1166
  C  C567  1  0.982700  0.732000  0.148700  1.0  0.036
  C  C568  1  0.920280  0.718040  0.203700  1.0  0.3167
  C  C569  1  0.895500  0.705400  0.158260  1.0  -0.3261
  C  C570  1  0.093760  0.315220  0.339970  1.0  -0.3609
  C  C571  1  0.070550  0.298950  0.294950  1.0  0.3031
  C  C572  1  0.084700  0.313660  0.249180  1.0  -0.0942
  C  C573  1  0.002600  0.725700  0.899600  1.0  0.0381
  C  C574  1  0.071050  0.298350  0.204260  1.0  0.3262
  C  C575  1  0.093930  0.313110  0.158340  1.0  -0.3595
  C  C576  1  0.025000  0.252000  0.349600  1.0  0.0116
  C  C577  1  0.227260  0.658910  0.884250  1.0  0.1936
  C  C578  1  0.228190  0.656620  0.108210  1.0  0.1813
  C  C579  1  0.108430  0.780890  0.997970  1.0  0.0012
  C  C580  1  0.271880  0.854570  0.885520  1.0  0.2017
  C  C581  1  0.269980  0.854380  0.109400  1.0  0.1883
  C  C582  1  0.390270  0.729830  0.997890  1.0  0.0911
  C  C583  1  0.495500  0.773100  0.100100  1.0  -0.0035
  C  C584  1  0.469120  0.830550  0.044530  1.0  0.3222
  C  C585  1  0.458900  0.855900  0.089820  1.0  -0.3413
  C  C586  1  0.461910  0.849220  0.998870  1.0  -0.1136
  C  C587  1  0.482000  0.767300  0.898700  1.0  0.0376
  C  C588  1  0.468040  0.829720  0.953700  1.0  0.3151
  C  C589  1  0.455400  0.854500  0.908260  1.0  -0.3269
  C  C590  1  0.065220  0.656240  0.089970  1.0  -0.3593
  C  C591  1  0.048950  0.679450  0.044950  1.0  0.305
  C  C592  1  0.063660  0.665300  0.999180  1.0  -0.0973
  C  C593  1  0.475700  0.747400  0.649600  1.0  0.0409
  C  C594  1  0.048350  0.678950  0.954260  1.0  0.3175
  C  C595  1  0.063110  0.656070  0.908340  1.0  -0.3581
  C  C596  1  0.002000  0.725000  0.099600  1.0  0.0236
  C  C597  1  0.727260  0.158910  0.384250  1.0  0.1936
  C  C598  1  0.728190  0.156620  0.608210  1.0  0.1813
  C  C599  1  0.608430  0.280890  0.497970  1.0  0.0012
  C  C600  1  0.771880  0.354570  0.385520  1.0  0.2017
  C  C601  1  0.769980  0.354380  0.609400  1.0  0.1883
  C  C602  1  0.890270  0.229830  0.497890  1.0  0.0911
  C  C603  1  0.995500  0.273100  0.600100  1.0  -0.0035
  C  C604  1  0.969120  0.330550  0.544530  1.0  0.3222
  C  C605  1  0.958900  0.355900  0.589820  1.0  -0.3413
  C  C606  1  0.961910  0.349220  0.498870  1.0  -0.1136
  C  C607  1  0.982000  0.267300  0.398700  1.0  0.0376
  C  C608  1  0.968040  0.329720  0.453700  1.0  0.3151
  C  C609  1  0.955400  0.354500  0.408260  1.0  -0.3269
  C  C610  1  0.565220  0.156240  0.589970  1.0  -0.3593
  C  C611  1  0.548950  0.179450  0.544950  1.0  0.305
  C  C612  1  0.563660  0.165300  0.499180  1.0  -0.0973
  C  C613  1  0.975700  0.247400  0.149600  1.0  0.0409
  C  C614  1  0.548350  0.178950  0.454260  1.0  0.3175
  C  C615  1  0.563110  0.156070  0.408340  1.0  -0.3581
  C  C616  1  0.502000  0.225000  0.599600  1.0  0.0236
  C  C617  1  0.272740  0.341090  0.384250  1.0  0.1925
  C  C618  1  0.271810  0.343380  0.608210  1.0  0.1805
  C  C619  1  0.391570  0.219110  0.497970  1.0  0.0028
  C  C620  1  0.228120  0.145430  0.385520  1.0  0.2022
  C  C621  1  0.230020  0.145620  0.609400  1.0  0.1883
  C  C622  1  0.109730  0.270170  0.497890  1.0  0.0918
  C  C623  1  0.004500  0.226900  0.600100  1.0  -0.0036
  C  C624  1  0.030880  0.169450  0.544530  1.0  0.3223
  C  C625  1  0.041100  0.144100  0.589820  1.0  -0.3406
  C  C626  1  0.038090  0.150780  0.498870  1.0  -0.1147
  C  C627  1  0.018000  0.232700  0.398700  1.0  0.0373
  C  C628  1  0.031960  0.170280  0.453700  1.0  0.3166
  C  C629  1  0.044600  0.145500  0.408260  1.0  -0.3267
  C  C630  1  0.434780  0.343760  0.589970  1.0  -0.3611
  C  C631  1  0.451050  0.320550  0.544950  1.0  0.3044
  C  C632  1  0.436340  0.334700  0.499180  1.0  -0.0992
  C  C633  1  0.024300  0.252600  0.149600  1.0  0.0422
  C  C634  1  0.451650  0.321050  0.454260  1.0  0.3173
  C  C635  1  0.436890  0.343930  0.408340  1.0  -0.357
  C  C636  1  0.498000  0.275000  0.599600  1.0  0.0212
  C  C637  1  0.772740  0.841090  0.884250  1.0  0.1925
  C  C638  1  0.771810  0.843380  0.108210  1.0  0.1805
  C  C639  1  0.891570  0.719110  0.997970  1.0  0.0028
  C  C640  1  0.728120  0.645430  0.885520  1.0  0.2022
  C  C641  1  0.730020  0.645620  0.109400  1.0  0.1883
  C  C642  1  0.609730  0.770170  0.997890  1.0  0.0918
  C  C643  1  0.504500  0.726900  0.100100  1.0  -0.0036
  C  C644  1  0.530880  0.669450  0.044530  1.0  0.3223
  C  C645  1  0.541100  0.644100  0.089820  1.0  -0.3406
  C  C646  1  0.538090  0.650780  0.998870  1.0  -0.1147
  C  C647  1  0.518000  0.732700  0.898700  1.0  0.0373
  C  C648  1  0.531960  0.670280  0.953700  1.0  0.3166
  C  C649  1  0.544600  0.645500  0.908260  1.0  -0.3267
  C  C650  1  0.934780  0.843760  0.089970  1.0  -0.3611
  C  C651  1  0.951050  0.820550  0.044950  1.0  0.3044
  C  C652  1  0.936340  0.834700  0.999180  1.0  -0.0992
  C  C653  1  0.524300  0.752600  0.649600  1.0  0.0422
  C  C654  1  0.951650  0.821050  0.954260  1.0  0.3173
  C  C655  1  0.936890  0.843930  0.908340  1.0  -0.357
  C  C656  1  0.998000  0.775000  0.099600  1.0  0.0212
  N  N657  1  0.115620  0.967490  0.895280  1.0  -0.3446
  N  N658  1  0.119540  0.970740  0.613360  1.0  -0.3385
  N  N659  1  0.967490  0.820760  0.751200  1.0  -0.4327
  N  N660  1  0.870150  0.031000  0.893370  1.0  -0.354
  N  N661  1  0.869420  0.027710  0.612160  1.0  -0.3446
  N  N662  1  0.023710  0.177530  0.751500  1.0  -0.3869
  N  N663  1  0.039390  0.770210  0.800870  1.0  -0.3867
  N  N664  1  0.039080  0.771110  0.699960  1.0  -0.3567
  N  N665  1  0.615620  0.467490  0.395280  1.0  -0.3446
  N  N666  1  0.619540  0.470740  0.113360  1.0  -0.3385
  N  N667  1  0.467490  0.320760  0.251200  1.0  -0.4327
  N  N668  1  0.370150  0.531000  0.393370  1.0  -0.354
  N  N669  1  0.369420  0.527710  0.112160  1.0  -0.3446
  N  N670  1  0.523710  0.677530  0.251500  1.0  -0.3869
  N  N671  1  0.539390  0.270210  0.300870  1.0  -0.3867
  N  N672  1  0.539080  0.271110  0.199960  1.0  -0.3567
  N  N673  1  0.384380  0.032510  0.395280  1.0  -0.3439
  N  N674  1  0.380460  0.029260  0.113360  1.0  -0.3392
  N  N675  1  0.532510  0.179240  0.251200  1.0  -0.4325
  N  N676  1  0.629850  0.969000  0.393370  1.0  -0.3542
  N  N677  1  0.630580  0.972290  0.112160  1.0  -0.3449
  N  N678  1  0.476290  0.822470  0.251500  1.0  -0.3873
  N  N679  1  0.460610  0.229790  0.300870  1.0  -0.388
  N  N680  1  0.460920  0.228890  0.199960  1.0  -0.3573
  N  N681  1  0.884380  0.532510  0.895280  1.0  -0.3439
  N  N682  1  0.880460  0.529260  0.613360  1.0  -0.3392
  N  N683  1  0.032510  0.679240  0.751200  1.0  -0.4325
  N  N684  1  0.129850  0.469000  0.893370  1.0  -0.3542
  N  N685  1  0.130580  0.472290  0.612160  1.0  -0.3449
  N  N686  1  0.976290  0.322470  0.751500  1.0  -0.3873
  N  N687  1  0.960610  0.729790  0.800870  1.0  -0.388
  N  N688  1  0.960920  0.728890  0.699960  1.0  -0.3573
  N  N689  1  0.782510  0.365620  0.145280  1.0  -0.3465
  N  N690  1  0.779260  0.369540  0.863360  1.0  -0.3412
  N  N691  1  0.929240  0.217490  0.001200  1.0  -0.441
  N  N692  1  0.719000  0.120150  0.143370  1.0  -0.3538
  N  N693  1  0.722290  0.119420  0.862160  1.0  -0.3454
  N  N694  1  0.572470  0.273710  0.001500  1.0  -0.3895
  N  N695  1  0.282510  0.865620  0.645280  1.0  -0.3465
  N  N696  1  0.279260  0.869540  0.363360  1.0  -0.3412
  N  N697  1  0.429240  0.717490  0.501200  1.0  -0.441
  N  N698  1  0.219000  0.620150  0.643370  1.0  -0.3538
  N  N699  1  0.222290  0.619420  0.362160  1.0  -0.3454
  N  N700  1  0.072470  0.773710  0.501500  1.0  -0.3895
  N  N701  1  0.717490  0.634380  0.645280  1.0  -0.3447
  N  N702  1  0.720740  0.630460  0.363360  1.0  -0.34
  N  N703  1  0.570760  0.782510  0.501200  1.0  -0.4441
  N  N704  1  0.781000  0.879850  0.643370  1.0  -0.3568
  N  N705  1  0.777710  0.880580  0.362160  1.0  -0.3463
  N  N706  1  0.927530  0.726290  0.501500  1.0  -0.3862
  N  N707  1  0.217490  0.134380  0.145280  1.0  -0.3447
  N  N708  1  0.220740  0.130460  0.863360  1.0  -0.34
  N  N709  1  0.070760  0.282510  0.001200  1.0  -0.4441
  N  N710  1  0.281000  0.379850  0.143370  1.0  -0.3568
  N  N711  1  0.277710  0.380580  0.862160  1.0  -0.3463
  N  N712  1  0.427530  0.226290  0.001500  1.0  -0.3862
  N  N713  1  0.041360  0.765370  0.300220  1.0  -0.347
  N  N714  1  0.041370  0.765690  0.198510  1.0  -0.4039
  N  N715  1  0.541360  0.265370  0.800220  1.0  -0.347
  N  N716  1  0.541370  0.265690  0.698510  1.0  -0.4039
  N  N717  1  0.458640  0.234630  0.800220  1.0  -0.3474
  N  N718  1  0.458630  0.234310  0.698510  1.0  -0.4043
  N  N719  1  0.958640  0.734630  0.300220  1.0  -0.3474
  N  N720  1  0.958630  0.734310  0.198510  1.0  -0.4043
  N  N721  1  0.984630  0.291360  0.550220  1.0  -0.3469
  N  N722  1  0.984310  0.291370  0.448510  1.0  -0.4046
  N  N723  1  0.484630  0.791360  0.050220  1.0  -0.3469
  N  N724  1  0.484310  0.791370  0.948510  1.0  -0.4046
  N  N725  1  0.515370  0.708640  0.050220  1.0  -0.3466
  N  N726  1  0.515690  0.708630  0.948510  1.0  -0.403
  N  N727  1  0.015370  0.208640  0.550220  1.0  -0.3466
  N  N728  1  0.015690  0.208630  0.448510  1.0  -0.403
  N  N729  1  0.884380  0.032510  0.104720  1.0  -0.3445
  N  N730  1  0.880460  0.029260  0.386640  1.0  -0.3397
  N  N731  1  0.032510  0.179240  0.248800  1.0  -0.4327
  N  N732  1  0.129850  0.969000  0.106630  1.0  -0.354
  N  N733  1  0.130580  0.972290  0.387840  1.0  -0.3458
  N  N734  1  0.976290  0.822470  0.248500  1.0  -0.3871
  N  N735  1  0.960610  0.229790  0.199130  1.0  -0.388
  N  N736  1  0.960920  0.228890  0.300040  1.0  -0.3575
  N  N737  1  0.384380  0.532510  0.604720  1.0  -0.3445
  N  N738  1  0.380460  0.529260  0.886640  1.0  -0.3397
  N  N739  1  0.532510  0.679240  0.748800  1.0  -0.4327
  N  N740  1  0.629850  0.469000  0.606630  1.0  -0.354
  N  N741  1  0.630580  0.472290  0.887840  1.0  -0.3458
  N  N742  1  0.476290  0.322470  0.748500  1.0  -0.3871
  N  N743  1  0.460610  0.729790  0.699130  1.0  -0.388
  N  N744  1  0.460920  0.728890  0.800040  1.0  -0.3575
  N  N745  1  0.615620  0.967490  0.604720  1.0  -0.3447
  N  N746  1  0.619540  0.970740  0.886640  1.0  -0.3393
  N  N747  1  0.467490  0.820760  0.748800  1.0  -0.433
  N  N748  1  0.370150  0.031000  0.606630  1.0  -0.354
  N  N749  1  0.369420  0.027710  0.887840  1.0  -0.3451
  N  N750  1  0.523710  0.177530  0.748500  1.0  -0.3869
  N  N751  1  0.539390  0.770210  0.699130  1.0  -0.3878
  N  N752  1  0.539080  0.771110  0.800040  1.0  -0.3571
  N  N753  1  0.115620  0.467490  0.104720  1.0  -0.3447
  N  N754  1  0.119540  0.470740  0.386640  1.0  -0.3393
  N  N755  1  0.967490  0.320760  0.248800  1.0  -0.433
  N  N756  1  0.870150  0.531000  0.106630  1.0  -0.354
  N  N757  1  0.869420  0.527710  0.387840  1.0  -0.3451
  N  N758  1  0.023710  0.677530  0.248500  1.0  -0.3869
  N  N759  1  0.039390  0.270210  0.199130  1.0  -0.3878
  N  N760  1  0.039080  0.271110  0.300040  1.0  -0.3571
  N  N761  1  0.217490  0.634380  0.854720  1.0  -0.346
  N  N762  1  0.220740  0.630460  0.136640  1.0  -0.3397
  N  N763  1  0.070760  0.782510  0.998800  1.0  -0.4444
  N  N764  1  0.281000  0.879850  0.856630  1.0  -0.3559
  N  N765  1  0.277710  0.880580  0.137840  1.0  -0.3474
  N  N766  1  0.427530  0.726290  0.998500  1.0  -0.3862
  N  N767  1  0.717490  0.134380  0.354720  1.0  -0.346
  N  N768  1  0.720740  0.130460  0.636640  1.0  -0.3397
  N  N769  1  0.570760  0.282510  0.498800  1.0  -0.4444
  N  N770  1  0.781000  0.379850  0.356630  1.0  -0.3559
  N  N771  1  0.777710  0.380580  0.637840  1.0  -0.3474
  N  N772  1  0.927530  0.226290  0.498500  1.0  -0.3862
  N  N773  1  0.282510  0.365620  0.354720  1.0  -0.346
  N  N774  1  0.279260  0.369540  0.636640  1.0  -0.3422
  N  N775  1  0.429240  0.217490  0.498800  1.0  -0.4412
  N  N776  1  0.219000  0.120150  0.356630  1.0  -0.3543
  N  N777  1  0.222290  0.119420  0.637840  1.0  -0.345
  N  N778  1  0.072470  0.273710  0.498500  1.0  -0.3896
  N  N779  1  0.782510  0.865620  0.854720  1.0  -0.346
  N  N780  1  0.779260  0.869540  0.136640  1.0  -0.3422
  N  N781  1  0.929240  0.717490  0.998800  1.0  -0.4412
  N  N782  1  0.719000  0.620150  0.856630  1.0  -0.3543
  N  N783  1  0.722290  0.619420  0.137840  1.0  -0.345
  N  N784  1  0.572470  0.773710  0.998500  1.0  -0.3896
  Cl  Cl785  1  0.032910  0.910280  0.816000  1.0  -0.4445
  Cl  Cl786  1  0.993380  0.999520  0.878850  1.0  -0.4166
  Cl  Cl787  1  0.104610  0.977780  0.753440  1.0  -0.41
  Cl  Cl788  1  0.064690  0.066620  0.816240  1.0  -0.4273
  Cl  Cl789  1  0.033770  0.910550  0.689750  1.0  -0.4531
  Cl  Cl790  1  0.994610  0.999540  0.626480  1.0  -0.4165
  Cl  Cl791  1  0.065510  0.066660  0.689760  1.0  -0.4411
  Cl  Cl792  1  0.922600  0.932470  0.815300  1.0  -0.425
  Cl  Cl793  1  0.923340  0.932390  0.689240  1.0  -0.4425
  Cl  Cl794  1  0.883700  0.021400  0.752080  1.0  -0.4154
  Cl  Cl795  1  0.954290  0.089250  0.815190  1.0  -0.4265
  Cl  Cl796  1  0.954670  0.088970  0.689140  1.0  -0.422
  Cl  Cl797  1  0.532910  0.410280  0.316000  1.0  -0.4445
  Cl  Cl798  1  0.493380  0.499520  0.378850  1.0  -0.4166
  Cl  Cl799  1  0.604610  0.477780  0.253440  1.0  -0.41
  Cl  Cl800  1  0.564690  0.566620  0.316240  1.0  -0.4273
  Cl  Cl801  1  0.533770  0.410550  0.189750  1.0  -0.4531
  Cl  Cl802  1  0.494610  0.499540  0.126480  1.0  -0.4165
  Cl  Cl803  1  0.565510  0.566660  0.189760  1.0  -0.4411
  Cl  Cl804  1  0.422600  0.432470  0.315300  1.0  -0.425
  Cl  Cl805  1  0.423340  0.432390  0.189240  1.0  -0.4425
  Cl  Cl806  1  0.383700  0.521400  0.252080  1.0  -0.4154
  Cl  Cl807  1  0.454290  0.589250  0.315190  1.0  -0.4265
  Cl  Cl808  1  0.454670  0.588970  0.189140  1.0  -0.422
  Cl  Cl809  1  0.467090  0.089720  0.316000  1.0  -0.4435
  Cl  Cl810  1  0.506620  0.000480  0.378850  1.0  -0.4165
  Cl  Cl811  1  0.395390  0.022220  0.253440  1.0  -0.4121
  Cl  Cl812  1  0.435310  0.933380  0.316240  1.0  -0.4279
  Cl  Cl813  1  0.466230  0.089450  0.189750  1.0  -0.4542
  Cl  Cl814  1  0.505390  0.000460  0.126480  1.0  -0.416
  Cl  Cl815  1  0.434490  0.933340  0.189760  1.0  -0.4423
  Cl  Cl816  1  0.577400  0.067530  0.315300  1.0  -0.4238
  Cl  Cl817  1  0.576660  0.067610  0.189240  1.0  -0.4428
  Cl  Cl818  1  0.616300  0.978600  0.252080  1.0  -0.4142
  Cl  Cl819  1  0.545710  0.910750  0.315190  1.0  -0.4239
  Cl  Cl820  1  0.545330  0.911030  0.189140  1.0  -0.422
  Cl  Cl821  1  0.967090  0.589720  0.816000  1.0  -0.4435
  Cl  Cl822  1  0.006620  0.500480  0.878850  1.0  -0.4165
  Cl  Cl823  1  0.895390  0.522220  0.753440  1.0  -0.4121
  Cl  Cl824  1  0.935310  0.433380  0.816240  1.0  -0.4279
  Cl  Cl825  1  0.966230  0.589450  0.689750  1.0  -0.4542
  Cl  Cl826  1  0.005390  0.500460  0.626480  1.0  -0.416
  Cl  Cl827  1  0.934490  0.433340  0.689760  1.0  -0.4423
  Cl  Cl828  1  0.077400  0.567530  0.815300  1.0  -0.4238
  Cl  Cl829  1  0.076660  0.567610  0.689240  1.0  -0.4428
  Cl  Cl830  1  0.116300  0.478600  0.752080  1.0  -0.4142
  Cl  Cl831  1  0.045710  0.410750  0.815190  1.0  -0.4239
  Cl  Cl832  1  0.045330  0.411030  0.689140  1.0  -0.422
  Cl  Cl833  1  0.839720  0.282910  0.066000  1.0  -0.4444
  Cl  Cl834  1  0.750480  0.243380  0.128850  1.0  -0.4168
  Cl  Cl835  1  0.772220  0.354610  0.003440  1.0  -0.4082
  Cl  Cl836  1  0.683380  0.314690  0.066240  1.0  -0.4278
  Cl  Cl837  1  0.839450  0.283770  0.939750  1.0  -0.4544
  Cl  Cl838  1  0.750460  0.244610  0.876480  1.0  -0.4163
  Cl  Cl839  1  0.683340  0.315510  0.939760  1.0  -0.4395
  Cl  Cl840  1  0.817530  0.172600  0.065300  1.0  -0.4267
  Cl  Cl841  1  0.817610  0.173340  0.939240  1.0  -0.4397
  Cl  Cl842  1  0.728600  0.133700  0.002080  1.0  -0.4131
  Cl  Cl843  1  0.660750  0.204290  0.065190  1.0  -0.4258
  Cl  Cl844  1  0.661030  0.204670  0.939140  1.0  -0.4222
  Cl  Cl845  1  0.339720  0.782910  0.566000  1.0  -0.4444
  Cl  Cl846  1  0.250480  0.743380  0.628850  1.0  -0.4168
  Cl  Cl847  1  0.272220  0.854610  0.503440  1.0  -0.4082
  Cl  Cl848  1  0.183380  0.814690  0.566240  1.0  -0.4278
  Cl  Cl849  1  0.339450  0.783770  0.439750  1.0  -0.4544
  Cl  Cl850  1  0.250460  0.744610  0.376480  1.0  -0.4163
  Cl  Cl851  1  0.183340  0.815510  0.439760  1.0  -0.4395
  Cl  Cl852  1  0.317530  0.672600  0.565300  1.0  -0.4267
  Cl  Cl853  1  0.317610  0.673340  0.439240  1.0  -0.4397
  Cl  Cl854  1  0.228600  0.633700  0.502080  1.0  -0.4131
  Cl  Cl855  1  0.160750  0.704290  0.565190  1.0  -0.4258
  Cl  Cl856  1  0.161030  0.704670  0.439140  1.0  -0.4222
  Cl  Cl857  1  0.660280  0.717090  0.566000  1.0  -0.444
  Cl  Cl858  1  0.749520  0.756620  0.628850  1.0  -0.4165
  Cl  Cl859  1  0.727780  0.645390  0.503440  1.0  -0.4103
  Cl  Cl860  1  0.816620  0.685310  0.566240  1.0  -0.4272
  Cl  Cl861  1  0.660550  0.716230  0.439750  1.0  -0.4533
  Cl  Cl862  1  0.749540  0.755390  0.376480  1.0  -0.4165
  Cl  Cl863  1  0.816660  0.684490  0.439760  1.0  -0.4406
  Cl  Cl864  1  0.682470  0.827400  0.565300  1.0  -0.4255
  Cl  Cl865  1  0.682390  0.826660  0.439240  1.0  -0.4411
  Cl  Cl866  1  0.771400  0.866300  0.502080  1.0  -0.4114
  Cl  Cl867  1  0.839250  0.795710  0.565190  1.0  -0.4272
  Cl  Cl868  1  0.838970  0.795330  0.439140  1.0  -0.4225
  Cl  Cl869  1  0.160280  0.217090  0.066000  1.0  -0.444
  Cl  Cl870  1  0.249520  0.256620  0.128850  1.0  -0.4165
  Cl  Cl871  1  0.227780  0.145390  0.003440  1.0  -0.4103
  Cl  Cl872  1  0.316620  0.185310  0.066240  1.0  -0.4272
  Cl  Cl873  1  0.160550  0.216230  0.939750  1.0  -0.4533
  Cl  Cl874  1  0.249540  0.255390  0.876480  1.0  -0.4165
  Cl  Cl875  1  0.316660  0.184490  0.939760  1.0  -0.4406
  Cl  Cl876  1  0.182470  0.327400  0.065300  1.0  -0.4255
  Cl  Cl877  1  0.182390  0.326660  0.939240  1.0  -0.4411
  Cl  Cl878  1  0.271400  0.366300  0.002080  1.0  -0.4114
  Cl  Cl879  1  0.339250  0.295710  0.065190  1.0  -0.4272
  Cl  Cl880  1  0.338970  0.295330  0.939140  1.0  -0.4225
  Cl  Cl881  1  0.967090  0.089720  0.184000  1.0  -0.4439
  Cl  Cl882  1  0.006620  0.000480  0.121150  1.0  -0.4159
  Cl  Cl883  1  0.895390  0.022220  0.246560  1.0  -0.4122
  Cl  Cl884  1  0.935310  0.933380  0.183760  1.0  -0.4281
  Cl  Cl885  1  0.966230  0.089450  0.310250  1.0  -0.4535
  Cl  Cl886  1  0.005390  0.000460  0.373520  1.0  -0.4177
  Cl  Cl887  1  0.934490  0.933340  0.310240  1.0  -0.4422
  Cl  Cl888  1  0.077400  0.067530  0.184700  1.0  -0.4241
  Cl  Cl889  1  0.076660  0.067610  0.310760  1.0  -0.4426
  Cl  Cl890  1  0.116300  0.978600  0.247920  1.0  -0.4143
  Cl  Cl891  1  0.045710  0.910750  0.184810  1.0  -0.4241
  Cl  Cl892  1  0.045330  0.911030  0.310860  1.0  -0.4219
  Cl  Cl893  1  0.467090  0.589720  0.684000  1.0  -0.4439
  Cl  Cl894  1  0.506620  0.500480  0.621150  1.0  -0.4159
  Cl  Cl895  1  0.395390  0.522220  0.746560  1.0  -0.4122
  Cl  Cl896  1  0.435310  0.433380  0.683760  1.0  -0.4281
  Cl  Cl897  1  0.466230  0.589450  0.810250  1.0  -0.4535
  Cl  Cl898  1  0.505390  0.500460  0.873520  1.0  -0.4177
  Cl  Cl899  1  0.434490  0.433340  0.810240  1.0  -0.4422
  Cl  Cl900  1  0.577400  0.567530  0.684700  1.0  -0.4241
  Cl  Cl901  1  0.576660  0.567610  0.810760  1.0  -0.4426
  Cl  Cl902  1  0.616300  0.478600  0.747920  1.0  -0.4143
  Cl  Cl903  1  0.545710  0.410750  0.684810  1.0  -0.4241
  Cl  Cl904  1  0.545330  0.411030  0.810860  1.0  -0.4219
  Cl  Cl905  1  0.532910  0.910280  0.684000  1.0  -0.4442
  Cl  Cl906  1  0.493380  0.999520  0.621150  1.0  -0.4163
  Cl  Cl907  1  0.604610  0.977780  0.746560  1.0  -0.41
  Cl  Cl908  1  0.564690  0.066620  0.683760  1.0  -0.4273
  Cl  Cl909  1  0.533770  0.910550  0.810250  1.0  -0.4529
  Cl  Cl910  1  0.494610  0.999540  0.873520  1.0  -0.4182
  Cl  Cl911  1  0.565510  0.066660  0.810240  1.0  -0.4408
  Cl  Cl912  1  0.422600  0.932470  0.684700  1.0  -0.4251
  Cl  Cl913  1  0.423340  0.932390  0.810760  1.0  -0.4421
  Cl  Cl914  1  0.383700  0.021400  0.747920  1.0  -0.4156
  Cl  Cl915  1  0.454290  0.089250  0.684810  1.0  -0.4267
  Cl  Cl916  1  0.454670  0.088970  0.810860  1.0  -0.4214
  Cl  Cl917  1  0.032910  0.410280  0.184000  1.0  -0.4442
  Cl  Cl918  1  0.993380  0.499520  0.121150  1.0  -0.4163
  Cl  Cl919  1  0.104610  0.477780  0.246560  1.0  -0.41
  Cl  Cl920  1  0.064690  0.566620  0.183760  1.0  -0.4273
  Cl  Cl921  1  0.033770  0.410550  0.310250  1.0  -0.4529
  Cl  Cl922  1  0.994610  0.499540  0.373520  1.0  -0.4182
  Cl  Cl923  1  0.065510  0.566660  0.310240  1.0  -0.4408
  Cl  Cl924  1  0.922600  0.432470  0.184700  1.0  -0.4251
  Cl  Cl925  1  0.923340  0.432390  0.310760  1.0  -0.4421
  Cl  Cl926  1  0.883700  0.521400  0.247920  1.0  -0.4156
  Cl  Cl927  1  0.954290  0.589250  0.184810  1.0  -0.4267
  Cl  Cl928  1  0.954670  0.588970  0.310860  1.0  -0.4214
  Cl  Cl929  1  0.160280  0.717090  0.934000  1.0  -0.4443
  Cl  Cl930  1  0.249520  0.756620  0.871150  1.0  -0.4163
  Cl  Cl931  1  0.227780  0.645390  0.996560  1.0  -0.4103
  Cl  Cl932  1  0.316620  0.685310  0.933760  1.0  -0.4275
  Cl  Cl933  1  0.160550  0.716230  0.060250  1.0  -0.4532
  Cl  Cl934  1  0.249540  0.755390  0.123520  1.0  -0.4181
  Cl  Cl935  1  0.316660  0.684490  0.060240  1.0  -0.4405
  Cl  Cl936  1  0.182470  0.827400  0.934700  1.0  -0.4256
  Cl  Cl937  1  0.182390  0.826660  0.060760  1.0  -0.4407
  Cl  Cl938  1  0.271400  0.866300  0.997920  1.0  -0.4114
  Cl  Cl939  1  0.339250  0.795710  0.934810  1.0  -0.4271
  Cl  Cl940  1  0.338970  0.795330  0.060860  1.0  -0.4219
  Cl  Cl941  1  0.660280  0.217090  0.434000  1.0  -0.4443
  Cl  Cl942  1  0.749520  0.256620  0.371150  1.0  -0.4163
  Cl  Cl943  1  0.727780  0.145390  0.496560  1.0  -0.4103
  Cl  Cl944  1  0.816620  0.185310  0.433760  1.0  -0.4275
  Cl  Cl945  1  0.660550  0.216230  0.560250  1.0  -0.4532
  Cl  Cl946  1  0.749540  0.255390  0.623520  1.0  -0.4181
  Cl  Cl947  1  0.816660  0.184490  0.560240  1.0  -0.4405
  Cl  Cl948  1  0.682470  0.327400  0.434700  1.0  -0.4256
  Cl  Cl949  1  0.682390  0.326660  0.560760  1.0  -0.4407
  Cl  Cl950  1  0.771400  0.366300  0.497920  1.0  -0.4114
  Cl  Cl951  1  0.839250  0.295710  0.434810  1.0  -0.4271
  Cl  Cl952  1  0.838970  0.295330  0.560860  1.0  -0.4219
  Cl  Cl953  1  0.339720  0.282910  0.434000  1.0  -0.4448
  Cl  Cl954  1  0.250480  0.243380  0.371150  1.0  -0.4166
  Cl  Cl955  1  0.272220  0.354610  0.496560  1.0  -0.4082
  Cl  Cl956  1  0.183380  0.314690  0.433760  1.0  -0.4278
  Cl  Cl957  1  0.339450  0.283770  0.560250  1.0  -0.4538
  Cl  Cl958  1  0.250460  0.244610  0.623520  1.0  -0.4177
  Cl  Cl959  1  0.183340  0.315510  0.560240  1.0  -0.4394
  Cl  Cl960  1  0.317530  0.172600  0.434700  1.0  -0.4268
  Cl  Cl961  1  0.317610  0.173340  0.560760  1.0  -0.4395
  Cl  Cl962  1  0.228600  0.133700  0.497920  1.0  -0.4133
  Cl  Cl963  1  0.160750  0.204290  0.434810  1.0  -0.426
  Cl  Cl964  1  0.161030  0.204670  0.560860  1.0  -0.4218
  Cl  Cl965  1  0.839720  0.782910  0.934000  1.0  -0.4448
  Cl  Cl966  1  0.750480  0.743380  0.871150  1.0  -0.4166
  Cl  Cl967  1  0.772220  0.854610  0.996560  1.0  -0.4082
  Cl  Cl968  1  0.683380  0.814690  0.933760  1.0  -0.4278
  Cl  Cl969  1  0.839450  0.783770  0.060250  1.0  -0.4538
  Cl  Cl970  1  0.750460  0.744610  0.123520  1.0  -0.4177
  Cl  Cl971  1  0.683340  0.815510  0.060240  1.0  -0.4394
  Cl  Cl972  1  0.817530  0.672600  0.934700  1.0  -0.4268
  Cl  Cl973  1  0.817610  0.673340  0.060760  1.0  -0.4395
  Cl  Cl974  1  0.728600  0.633700  0.997920  1.0  -0.4133
  Cl  Cl975  1  0.660750  0.704290  0.934810  1.0  -0.426
  Cl  Cl976  1  0.661030  0.704670  0.060860  1.0  -0.4218
  O  O977  1  0.958640  0.234630  0.699780  1.0  -0.487
  O  O978  1  0.958630  0.234310  0.801490  1.0  -0.544
  O  O979  1  0.020210  0.210610  0.050870  1.0  -0.4857
  O  O980  1  0.021110  0.210920  0.949960  1.0  -0.6105
  O  O981  1  0.458640  0.734630  0.199780  1.0  -0.487
  O  O982  1  0.458630  0.734310  0.301490  1.0  -0.544
  O  O983  1  0.520210  0.710610  0.550870  1.0  -0.4857
  O  O984  1  0.521110  0.710920  0.449960  1.0  -0.6105
  O  O985  1  0.541360  0.765370  0.199780  1.0  -0.4864
  O  O986  1  0.541370  0.765690  0.301490  1.0  -0.5441
  O  O987  1  0.479790  0.789390  0.550870  1.0  -0.4851
  O  O988  1  0.478890  0.789080  0.449960  1.0  -0.6124
  O  O989  1  0.041360  0.265370  0.699780  1.0  -0.4864
  O  O990  1  0.041370  0.265690  0.801490  1.0  -0.5441
  O  O991  1  0.979790  0.289390  0.050870  1.0  -0.4851
  O  O992  1  0.978890  0.289080  0.949960  1.0  -0.6124
  O  O993  1  0.515370  0.208640  0.949780  1.0  -0.4861
  O  O994  1  0.515690  0.208630  0.051490  1.0  -0.5436
  O  O995  1  0.015370  0.708640  0.449780  1.0  -0.4861
  O  O996  1  0.015690  0.708630  0.551490  1.0  -0.5436
  O  O997  1  0.984630  0.791360  0.449780  1.0  -0.4863
  O  O998  1  0.984310  0.791370  0.551490  1.0  -0.5447
  O  O999  1  0.484630  0.291360  0.949780  1.0  -0.4863
  O  O1000  1  0.484310  0.291370  0.051490  1.0  -0.5447
  O  O1001  1  0.979790  0.789390  0.949130  1.0  -0.4854
  O  O1002  1  0.978890  0.789080  0.050040  1.0  -0.6127
  O  O1003  1  0.479790  0.289390  0.449130  1.0  -0.4854
  O  O1004  1  0.478890  0.289080  0.550040  1.0  -0.6127
  O  O1005  1  0.520210  0.210610  0.449130  1.0  -0.4864
  O  O1006  1  0.521110  0.210920  0.550040  1.0  -0.6109
  O  O1007  1  0.020210  0.710610  0.949130  1.0  -0.4864
  O  O1008  1  0.021110  0.710920  0.050040  1.0  -0.6109
