# generated using pymatgen
data_Co36H72C104N64Cl3
_symmetry_space_group_name_H-M   'P 1'
_cell_length_a   37.06680000
_cell_length_b   37.06680000
_cell_length_c   37.06680000
_cell_angle_alpha   90.00000000
_cell_angle_beta   90.00000000
_cell_angle_gamma   90.00000000
_symmetry_Int_Tables_number   1
_chemical_formula_structural   Co36H72C104N64Cl3
_chemical_formula_sum   'Co288 H576 C832 N512 Cl24'
_cell_volume   50927.84320672
_cell_formula_units_Z   8
loop_
 _symmetry_equiv_pos_site_id
 _symmetry_equiv_pos_as_xyz
  1  'x, y, z'
loop_
 _atom_site_type_symbol
 _atom_site_label
 _atom_site_symmetry_multiplicity
 _atom_site_fract_x
 _atom_site_fract_y
 _atom_site_fract_z
 _atom_site_occupancy
 _atom_site_charge
  Co  Co1  1  0.248300  0.572600  0.364080  1.0  0.6298
  Co  Co2  1  0.248300  0.072600  0.864080  1.0  0.6298
  Co  Co3  1  0.748300  0.572600  0.864080  1.0  0.6298
  Co  Co4  1  0.748300  0.072600  0.364080  1.0  0.6298
  Co  Co5  1  0.751700  0.427400  0.364080  1.0  0.6306
  Co  Co6  1  0.751700  0.927400  0.864080  1.0  0.6306
  Co  Co7  1  0.251700  0.427400  0.864080  1.0  0.6306
  Co  Co8  1  0.251700  0.927400  0.364080  1.0  0.6306
  Co  Co9  1  0.751700  0.572600  0.635920  1.0  0.6387
  Co  Co10  1  0.751700  0.072600  0.135920  1.0  0.6387
  Co  Co11  1  0.251700  0.572600  0.135920  1.0  0.6387
  Co  Co12  1  0.251700  0.072600  0.635920  1.0  0.6387
  Co  Co13  1  0.248300  0.427400  0.635920  1.0  0.6404
  Co  Co14  1  0.248300  0.927400  0.135920  1.0  0.6404
  Co  Co15  1  0.748300  0.427400  0.135920  1.0  0.6404
  Co  Co16  1  0.748300  0.927400  0.635920  1.0  0.6404
  Co  Co17  1  0.364080  0.248300  0.572600  1.0  0.6384
  Co  Co18  1  0.364080  0.748300  0.072600  1.0  0.6384
  Co  Co19  1  0.864080  0.248300  0.072600  1.0  0.6384
  Co  Co20  1  0.864080  0.748300  0.572600  1.0  0.6384
  Co  Co21  1  0.364080  0.751700  0.427400  1.0  0.6362
  Co  Co22  1  0.364080  0.251700  0.927400  1.0  0.6362
  Co  Co23  1  0.864080  0.751700  0.927400  1.0  0.6362
  Co  Co24  1  0.864080  0.251700  0.427400  1.0  0.6362
  Co  Co25  1  0.635920  0.751700  0.572600  1.0  0.6352
  Co  Co26  1  0.635920  0.251700  0.072600  1.0  0.6352
  Co  Co27  1  0.135920  0.751700  0.072600  1.0  0.6352
  Co  Co28  1  0.135920  0.251700  0.572600  1.0  0.6352
  Co  Co29  1  0.635920  0.248300  0.427400  1.0  0.6338
  Co  Co30  1  0.635920  0.748300  0.927400  1.0  0.6338
  Co  Co31  1  0.135920  0.248300  0.927400  1.0  0.6338
  Co  Co32  1  0.135920  0.748300  0.427400  1.0  0.6338
  Co  Co33  1  0.572600  0.364080  0.248300  1.0  0.6371
  Co  Co34  1  0.572600  0.864080  0.748300  1.0  0.6371
  Co  Co35  1  0.072600  0.364080  0.748300  1.0  0.6371
  Co  Co36  1  0.072600  0.864080  0.248300  1.0  0.6371
  Co  Co37  1  0.427400  0.364080  0.751700  1.0  0.6313
  Co  Co38  1  0.427400  0.864080  0.251700  1.0  0.6313
  Co  Co39  1  0.927400  0.364080  0.251700  1.0  0.6313
  Co  Co40  1  0.927400  0.864080  0.751700  1.0  0.6313
  Co  Co41  1  0.572600  0.635920  0.751700  1.0  0.6287
  Co  Co42  1  0.572600  0.135920  0.251700  1.0  0.6287
  Co  Co43  1  0.072600  0.635920  0.251700  1.0  0.6287
  Co  Co44  1  0.072600  0.135920  0.751700  1.0  0.6287
  Co  Co45  1  0.427400  0.635920  0.248300  1.0  0.6376
  Co  Co46  1  0.427400  0.135920  0.748300  1.0  0.6376
  Co  Co47  1  0.927400  0.635920  0.748300  1.0  0.6376
  Co  Co48  1  0.927400  0.135920  0.248300  1.0  0.6376
  Co  Co49  1  0.072600  0.748300  0.135920  1.0  0.6399
  Co  Co50  1  0.072600  0.248300  0.635920  1.0  0.6399
  Co  Co51  1  0.572600  0.748300  0.635920  1.0  0.6399
  Co  Co52  1  0.572600  0.248300  0.135920  1.0  0.6399
  Co  Co53  1  0.927400  0.251700  0.135920  1.0  0.6414
  Co  Co54  1  0.927400  0.751700  0.635920  1.0  0.6414
  Co  Co55  1  0.427400  0.251700  0.635920  1.0  0.6414
  Co  Co56  1  0.427400  0.751700  0.135920  1.0  0.6414
  Co  Co57  1  0.072600  0.251700  0.864080  1.0  0.6304
  Co  Co58  1  0.072600  0.751700  0.364080  1.0  0.6304
  Co  Co59  1  0.572600  0.251700  0.364080  1.0  0.6304
  Co  Co60  1  0.572600  0.751700  0.864080  1.0  0.6304
  Co  Co61  1  0.927400  0.748300  0.864080  1.0  0.6324
  Co  Co62  1  0.927400  0.248300  0.364080  1.0  0.6324
  Co  Co63  1  0.427400  0.748300  0.364080  1.0  0.6324
  Co  Co64  1  0.427400  0.248300  0.864080  1.0  0.6324
  Co  Co65  1  0.748300  0.864080  0.927400  1.0  0.6273
  Co  Co66  1  0.748300  0.364080  0.427400  1.0  0.6273
  Co  Co67  1  0.248300  0.864080  0.427400  1.0  0.6273
  Co  Co68  1  0.248300  0.364080  0.927400  1.0  0.6273
  Co  Co69  1  0.251700  0.864080  0.072600  1.0  0.6285
  Co  Co70  1  0.251700  0.364080  0.572600  1.0  0.6285
  Co  Co71  1  0.751700  0.864080  0.572600  1.0  0.6285
  Co  Co72  1  0.751700  0.364080  0.072600  1.0  0.6285
  Co  Co73  1  0.251700  0.135920  0.927400  1.0  0.6254
  Co  Co74  1  0.251700  0.635920  0.427400  1.0  0.6254
  Co  Co75  1  0.751700  0.135920  0.427400  1.0  0.6254
  Co  Co76  1  0.751700  0.635920  0.927400  1.0  0.6254
  Co  Co77  1  0.748300  0.135920  0.072600  1.0  0.6295
  Co  Co78  1  0.748300  0.635920  0.572600  1.0  0.6295
  Co  Co79  1  0.248300  0.135920  0.572600  1.0  0.6295
  Co  Co80  1  0.248300  0.635920  0.072600  1.0  0.6295
  Co  Co81  1  0.864080  0.072600  0.251700  1.0  0.6384
  Co  Co82  1  0.864080  0.572600  0.751700  1.0  0.6384
  Co  Co83  1  0.364080  0.072600  0.751700  1.0  0.6384
  Co  Co84  1  0.364080  0.572600  0.251700  1.0  0.6384
  Co  Co85  1  0.864080  0.927400  0.748300  1.0  0.6466
  Co  Co86  1  0.864080  0.427400  0.248300  1.0  0.6466
  Co  Co87  1  0.364080  0.927400  0.248300  1.0  0.6466
  Co  Co88  1  0.364080  0.427400  0.748300  1.0  0.6466
  Co  Co89  1  0.135920  0.072600  0.748300  1.0  0.6424
  Co  Co90  1  0.135920  0.572600  0.248300  1.0  0.6424
  Co  Co91  1  0.635920  0.072600  0.248300  1.0  0.6424
  Co  Co92  1  0.635920  0.572600  0.748300  1.0  0.6424
  Co  Co93  1  0.135920  0.927400  0.251700  1.0  0.636
  Co  Co94  1  0.135920  0.427400  0.751700  1.0  0.636
  Co  Co95  1  0.635920  0.927400  0.751700  1.0  0.636
  Co  Co96  1  0.635920  0.427400  0.251700  1.0  0.636
  Co  Co97  1  0.751700  0.427400  0.635920  1.0  0.6397
  Co  Co98  1  0.751700  0.927400  0.135920  1.0  0.6397
  Co  Co99  1  0.251700  0.427400  0.135920  1.0  0.6397
  Co  Co100  1  0.251700  0.927400  0.635920  1.0  0.6397
  Co  Co101  1  0.248300  0.572600  0.635920  1.0  0.6392
  Co  Co102  1  0.248300  0.072600  0.135920  1.0  0.6392
  Co  Co103  1  0.748300  0.572600  0.135920  1.0  0.6392
  Co  Co104  1  0.748300  0.072600  0.635920  1.0  0.6392
  Co  Co105  1  0.248300  0.427400  0.364080  1.0  0.6311
  Co  Co106  1  0.248300  0.927400  0.864080  1.0  0.6311
  Co  Co107  1  0.748300  0.427400  0.864080  1.0  0.6311
  Co  Co108  1  0.748300  0.927400  0.364080  1.0  0.6311
  Co  Co109  1  0.751700  0.572600  0.364080  1.0  0.63
  Co  Co110  1  0.751700  0.072600  0.864080  1.0  0.63
  Co  Co111  1  0.251700  0.572600  0.864080  1.0  0.63
  Co  Co112  1  0.251700  0.072600  0.364080  1.0  0.63
  Co  Co113  1  0.635920  0.751700  0.427400  1.0  0.6331
  Co  Co114  1  0.635920  0.251700  0.927400  1.0  0.6331
  Co  Co115  1  0.135920  0.751700  0.927400  1.0  0.6331
  Co  Co116  1  0.135920  0.251700  0.427400  1.0  0.6331
  Co  Co117  1  0.635920  0.248300  0.572600  1.0  0.6356
  Co  Co118  1  0.635920  0.748300  0.072600  1.0  0.6356
  Co  Co119  1  0.135920  0.248300  0.072600  1.0  0.6356
  Co  Co120  1  0.135920  0.748300  0.572600  1.0  0.6356
  Co  Co121  1  0.364080  0.248300  0.427400  1.0  0.6365
  Co  Co122  1  0.364080  0.748300  0.927400  1.0  0.6365
  Co  Co123  1  0.864080  0.248300  0.927400  1.0  0.6365
  Co  Co124  1  0.864080  0.748300  0.427400  1.0  0.6365
  Co  Co125  1  0.364080  0.751700  0.572600  1.0  0.6382
  Co  Co126  1  0.364080  0.251700  0.072600  1.0  0.6382
  Co  Co127  1  0.864080  0.751700  0.072600  1.0  0.6382
  Co  Co128  1  0.864080  0.251700  0.572600  1.0  0.6382
  Co  Co129  1  0.427400  0.635920  0.751700  1.0  0.6302
  Co  Co130  1  0.427400  0.135920  0.251700  1.0  0.6302
  Co  Co131  1  0.927400  0.635920  0.251700  1.0  0.6302
  Co  Co132  1  0.927400  0.135920  0.751700  1.0  0.6302
  Co  Co133  1  0.572600  0.635920  0.248300  1.0  0.6366
  Co  Co134  1  0.572600  0.135920  0.748300  1.0  0.6366
  Co  Co135  1  0.072600  0.635920  0.748300  1.0  0.6366
  Co  Co136  1  0.072600  0.135920  0.248300  1.0  0.6366
  Co  Co137  1  0.427400  0.364080  0.248300  1.0  0.6386
  Co  Co138  1  0.427400  0.864080  0.748300  1.0  0.6386
  Co  Co139  1  0.927400  0.364080  0.748300  1.0  0.6386
  Co  Co140  1  0.927400  0.864080  0.248300  1.0  0.6386
  Co  Co141  1  0.572600  0.364080  0.751700  1.0  0.6296
  Co  Co142  1  0.572600  0.864080  0.251700  1.0  0.6296
  Co  Co143  1  0.072600  0.364080  0.251700  1.0  0.6296
  Co  Co144  1  0.072600  0.864080  0.751700  1.0  0.6296
  Co  Co145  1  0.927400  0.251700  0.864080  1.0  0.6328
  Co  Co146  1  0.927400  0.751700  0.364080  1.0  0.6328
  Co  Co147  1  0.427400  0.251700  0.364080  1.0  0.6328
  Co  Co148  1  0.427400  0.751700  0.864080  1.0  0.6328
  Co  Co149  1  0.072600  0.748300  0.864080  1.0  0.6305
  Co  Co150  1  0.072600  0.248300  0.364080  1.0  0.6305
  Co  Co151  1  0.572600  0.748300  0.364080  1.0  0.6305
  Co  Co152  1  0.572600  0.248300  0.864080  1.0  0.6305
  Co  Co153  1  0.927400  0.748300  0.135920  1.0  0.641
  Co  Co154  1  0.927400  0.248300  0.635920  1.0  0.641
  Co  Co155  1  0.427400  0.748300  0.635920  1.0  0.641
  Co  Co156  1  0.427400  0.248300  0.135920  1.0  0.641
  Co  Co157  1  0.072600  0.251700  0.135920  1.0  0.64
  Co  Co158  1  0.072600  0.751700  0.635920  1.0  0.64
  Co  Co159  1  0.572600  0.251700  0.635920  1.0  0.64
  Co  Co160  1  0.572600  0.751700  0.135920  1.0  0.64
  Co  Co161  1  0.251700  0.135920  0.072600  1.0  0.6279
  Co  Co162  1  0.251700  0.635920  0.572600  1.0  0.6279
  Co  Co163  1  0.751700  0.135920  0.572600  1.0  0.6279
  Co  Co164  1  0.751700  0.635920  0.072600  1.0  0.6279
  Co  Co165  1  0.748300  0.135920  0.927400  1.0  0.6273
  Co  Co166  1  0.748300  0.635920  0.427400  1.0  0.6273
  Co  Co167  1  0.248300  0.135920  0.427400  1.0  0.6273
  Co  Co168  1  0.248300  0.635920  0.927400  1.0  0.6273
  Co  Co169  1  0.748300  0.864080  0.072600  1.0  0.6297
  Co  Co170  1  0.748300  0.364080  0.572600  1.0  0.6297
  Co  Co171  1  0.248300  0.864080  0.572600  1.0  0.6297
  Co  Co172  1  0.248300  0.364080  0.072600  1.0  0.6297
  Co  Co173  1  0.251700  0.864080  0.927400  1.0  0.626
  Co  Co174  1  0.251700  0.364080  0.427400  1.0  0.626
  Co  Co175  1  0.751700  0.864080  0.427400  1.0  0.626
  Co  Co176  1  0.751700  0.364080  0.927400  1.0  0.626
  Co  Co177  1  0.135920  0.927400  0.748300  1.0  0.6444
  Co  Co178  1  0.135920  0.427400  0.248300  1.0  0.6444
  Co  Co179  1  0.635920  0.927400  0.248300  1.0  0.6444
  Co  Co180  1  0.635920  0.427400  0.748300  1.0  0.6444
  Co  Co181  1  0.135920  0.072600  0.251700  1.0  0.6343
  Co  Co182  1  0.135920  0.572600  0.751700  1.0  0.6343
  Co  Co183  1  0.635920  0.072600  0.751700  1.0  0.6343
  Co  Co184  1  0.635920  0.572600  0.251700  1.0  0.6343
  Co  Co185  1  0.864080  0.927400  0.251700  1.0  0.639
  Co  Co186  1  0.864080  0.427400  0.751700  1.0  0.639
  Co  Co187  1  0.364080  0.927400  0.751700  1.0  0.639
  Co  Co188  1  0.364080  0.427400  0.251700  1.0  0.639
  Co  Co189  1  0.864080  0.072600  0.748300  1.0  0.6456
  Co  Co190  1  0.864080  0.572600  0.248300  1.0  0.6456
  Co  Co191  1  0.364080  0.072600  0.248300  1.0  0.6456
  Co  Co192  1  0.364080  0.572600  0.748300  1.0  0.6456
  Co  Co193  1  0.246130  0.500000  0.313740  1.0  0.751
  Co  Co194  1  0.246130  0.000000  0.813740  1.0  0.751
  Co  Co195  1  0.746130  0.500000  0.813740  1.0  0.751
  Co  Co196  1  0.746130  0.000000  0.313740  1.0  0.751
  Co  Co197  1  0.753870  0.500000  0.313740  1.0  0.7511
  Co  Co198  1  0.753870  0.000000  0.813740  1.0  0.7511
  Co  Co199  1  0.253870  0.500000  0.813740  1.0  0.7511
  Co  Co200  1  0.253870  0.000000  0.313740  1.0  0.7511
  Co  Co201  1  0.753870  0.500000  0.686260  1.0  0.7516
  Co  Co202  1  0.753870  0.000000  0.186260  1.0  0.7516
  Co  Co203  1  0.253870  0.500000  0.186260  1.0  0.7516
  Co  Co204  1  0.253870  0.000000  0.686260  1.0  0.7516
  Co  Co205  1  0.246130  0.500000  0.686260  1.0  0.7516
  Co  Co206  1  0.246130  0.000000  0.186260  1.0  0.7516
  Co  Co207  1  0.746130  0.500000  0.186260  1.0  0.7516
  Co  Co208  1  0.746130  0.000000  0.686260  1.0  0.7516
  Co  Co209  1  0.313740  0.246130  0.500000  1.0  0.7519
  Co  Co210  1  0.313740  0.746130  0.000000  1.0  0.7519
  Co  Co211  1  0.813740  0.246130  0.000000  1.0  0.7519
  Co  Co212  1  0.813740  0.746130  0.500000  1.0  0.7519
  Co  Co213  1  0.313740  0.753870  0.500000  1.0  0.7519
  Co  Co214  1  0.313740  0.253870  0.000000  1.0  0.7519
  Co  Co215  1  0.813740  0.753870  0.000000  1.0  0.7519
  Co  Co216  1  0.813740  0.253870  0.500000  1.0  0.7519
  Co  Co217  1  0.686260  0.753870  0.500000  1.0  0.7519
  Co  Co218  1  0.686260  0.253870  0.000000  1.0  0.7519
  Co  Co219  1  0.186260  0.753870  0.000000  1.0  0.7519
  Co  Co220  1  0.186260  0.253870  0.500000  1.0  0.7519
  Co  Co221  1  0.686260  0.246130  0.500000  1.0  0.7518
  Co  Co222  1  0.686260  0.746130  0.000000  1.0  0.7518
  Co  Co223  1  0.186260  0.246130  0.000000  1.0  0.7518
  Co  Co224  1  0.186260  0.746130  0.500000  1.0  0.7518
  Co  Co225  1  0.500000  0.313740  0.246130  1.0  0.7508
  Co  Co226  1  0.500000  0.813740  0.746130  1.0  0.7508
  Co  Co227  1  0.000000  0.313740  0.746130  1.0  0.7508
  Co  Co228  1  0.000000  0.813740  0.246130  1.0  0.7508
  Co  Co229  1  0.500000  0.313740  0.753870  1.0  0.7507
  Co  Co230  1  0.500000  0.813740  0.253870  1.0  0.7507
  Co  Co231  1  0.000000  0.313740  0.253870  1.0  0.7507
  Co  Co232  1  0.000000  0.813740  0.753870  1.0  0.7507
  Co  Co233  1  0.500000  0.686260  0.753870  1.0  0.7495
  Co  Co234  1  0.500000  0.186260  0.253870  1.0  0.7495
  Co  Co235  1  0.000000  0.686260  0.253870  1.0  0.7495
  Co  Co236  1  0.000000  0.186260  0.753870  1.0  0.7495
  Co  Co237  1  0.500000  0.686260  0.246130  1.0  0.7497
  Co  Co238  1  0.500000  0.186260  0.746130  1.0  0.7497
  Co  Co239  1  0.000000  0.686260  0.746130  1.0  0.7497
  Co  Co240  1  0.000000  0.186260  0.246130  1.0  0.7497
  Co  Co241  1  0.000000  0.746130  0.186260  1.0  0.7518
  Co  Co242  1  0.000000  0.246130  0.686260  1.0  0.7518
  Co  Co243  1  0.500000  0.746130  0.686260  1.0  0.7518
  Co  Co244  1  0.500000  0.246130  0.186260  1.0  0.7518
  Co  Co245  1  0.000000  0.253870  0.186260  1.0  0.7519
  Co  Co246  1  0.000000  0.753870  0.686260  1.0  0.7519
  Co  Co247  1  0.500000  0.253870  0.686260  1.0  0.7519
  Co  Co248  1  0.500000  0.753870  0.186260  1.0  0.7519
  Co  Co249  1  0.000000  0.253870  0.813740  1.0  0.7513
  Co  Co250  1  0.000000  0.753870  0.313740  1.0  0.7513
  Co  Co251  1  0.500000  0.253870  0.313740  1.0  0.7513
  Co  Co252  1  0.500000  0.753870  0.813740  1.0  0.7513
  Co  Co253  1  0.000000  0.746130  0.813740  1.0  0.7511
  Co  Co254  1  0.000000  0.246130  0.313740  1.0  0.7511
  Co  Co255  1  0.500000  0.746130  0.313740  1.0  0.7511
  Co  Co256  1  0.500000  0.246130  0.813740  1.0  0.7511
  Co  Co257  1  0.746130  0.813740  0.000000  1.0  0.7502
  Co  Co258  1  0.746130  0.313740  0.500000  1.0  0.7502
  Co  Co259  1  0.246130  0.813740  0.500000  1.0  0.7502
  Co  Co260  1  0.246130  0.313740  0.000000  1.0  0.7502
  Co  Co261  1  0.253870  0.813740  0.000000  1.0  0.7506
  Co  Co262  1  0.253870  0.313740  0.500000  1.0  0.7506
  Co  Co263  1  0.753870  0.813740  0.500000  1.0  0.7506
  Co  Co264  1  0.753870  0.313740  0.000000  1.0  0.7506
  Co  Co265  1  0.253870  0.186260  0.000000  1.0  0.7493
  Co  Co266  1  0.253870  0.686260  0.500000  1.0  0.7493
  Co  Co267  1  0.753870  0.186260  0.500000  1.0  0.7493
  Co  Co268  1  0.753870  0.686260  0.000000  1.0  0.7493
  Co  Co269  1  0.746130  0.186260  0.000000  1.0  0.7491
  Co  Co270  1  0.746130  0.686260  0.500000  1.0  0.7491
  Co  Co271  1  0.246130  0.186260  0.500000  1.0  0.7491
  Co  Co272  1  0.246130  0.686260  0.000000  1.0  0.7491
  Co  Co273  1  0.813740  0.000000  0.253870  1.0  0.752
  Co  Co274  1  0.813740  0.500000  0.753870  1.0  0.752
  Co  Co275  1  0.313740  0.000000  0.753870  1.0  0.752
  Co  Co276  1  0.313740  0.500000  0.253870  1.0  0.752
  Co  Co277  1  0.813740  0.000000  0.746130  1.0  0.752
  Co  Co278  1  0.813740  0.500000  0.246130  1.0  0.752
  Co  Co279  1  0.313740  0.000000  0.246130  1.0  0.752
  Co  Co280  1  0.313740  0.500000  0.746130  1.0  0.752
  Co  Co281  1  0.186260  0.000000  0.746130  1.0  0.752
  Co  Co282  1  0.186260  0.500000  0.246130  1.0  0.752
  Co  Co283  1  0.686260  0.000000  0.246130  1.0  0.752
  Co  Co284  1  0.686260  0.500000  0.746130  1.0  0.752
  Co  Co285  1  0.186260  0.000000  0.253870  1.0  0.752
  Co  Co286  1  0.186260  0.500000  0.753870  1.0  0.752
  Co  Co287  1  0.686260  0.000000  0.753870  1.0  0.752
  Co  Co288  1  0.686260  0.500000  0.253870  1.0  0.752
  H  H289  1  0.303300  0.622200  0.382700  1.0  0.0148
  H  H290  1  0.274400  0.572000  0.357000  1.0  0.132
  H  H291  1  0.353900  0.569500  0.283500  1.0  0.0847
  H  H292  1  0.303300  0.122200  0.882700  1.0  0.0148
  H  H293  1  0.274400  0.072000  0.857000  1.0  0.132
  H  H294  1  0.353900  0.069500  0.783500  1.0  0.0847
  H  H295  1  0.803300  0.622200  0.882700  1.0  0.0148
  H  H296  1  0.774400  0.572000  0.857000  1.0  0.132
  H  H297  1  0.853900  0.569500  0.783500  1.0  0.0847
  H  H298  1  0.803300  0.122200  0.382700  1.0  0.0148
  H  H299  1  0.774400  0.072000  0.357000  1.0  0.132
  H  H300  1  0.853900  0.069500  0.283500  1.0  0.0847
  H  H301  1  0.696700  0.377800  0.382700  1.0  0.0146
  H  H302  1  0.725600  0.428000  0.357000  1.0  0.1317
  H  H303  1  0.646100  0.430500  0.283500  1.0  0.0839
  H  H304  1  0.696700  0.877800  0.882700  1.0  0.0146
  H  H305  1  0.725600  0.928000  0.857000  1.0  0.1317
  H  H306  1  0.646100  0.930500  0.783500  1.0  0.0839
  H  H307  1  0.196700  0.377800  0.882700  1.0  0.0146
  H  H308  1  0.225600  0.428000  0.857000  1.0  0.1317
  H  H309  1  0.146100  0.430500  0.783500  1.0  0.0839
  H  H310  1  0.196700  0.877800  0.382700  1.0  0.0146
  H  H311  1  0.225600  0.928000  0.357000  1.0  0.1317
  H  H312  1  0.146100  0.930500  0.283500  1.0  0.0839
  H  H313  1  0.696700  0.622200  0.617300  1.0  0.0142
  H  H314  1  0.725600  0.572000  0.643000  1.0  0.1365
  H  H315  1  0.646100  0.569500  0.716500  1.0  0.0836
  H  H316  1  0.696700  0.122200  0.117300  1.0  0.0142
  H  H317  1  0.725600  0.072000  0.143000  1.0  0.1365
  H  H318  1  0.646100  0.069500  0.216500  1.0  0.0836
  H  H319  1  0.196700  0.622200  0.117300  1.0  0.0142
  H  H320  1  0.225600  0.572000  0.143000  1.0  0.1365
  H  H321  1  0.146100  0.569500  0.216500  1.0  0.0836
  H  H322  1  0.196700  0.122200  0.617300  1.0  0.0142
  H  H323  1  0.225600  0.072000  0.643000  1.0  0.1365
  H  H324  1  0.146100  0.069500  0.716500  1.0  0.0836
  H  H325  1  0.303300  0.377800  0.617300  1.0  0.0151
  H  H326  1  0.274400  0.428000  0.643000  1.0  0.1347
  H  H327  1  0.353900  0.430500  0.716500  1.0  0.0857
  H  H328  1  0.303300  0.877800  0.117300  1.0  0.0151
  H  H329  1  0.274400  0.928000  0.143000  1.0  0.1347
  H  H330  1  0.353900  0.930500  0.216500  1.0  0.0857
  H  H331  1  0.803300  0.377800  0.117300  1.0  0.0151
  H  H332  1  0.774400  0.428000  0.143000  1.0  0.1347
  H  H333  1  0.853900  0.430500  0.216500  1.0  0.0857
  H  H334  1  0.803300  0.877800  0.617300  1.0  0.0151
  H  H335  1  0.774400  0.928000  0.643000  1.0  0.1347
  H  H336  1  0.853900  0.930500  0.716500  1.0  0.0857
  H  H337  1  0.382700  0.303300  0.622200  1.0  0.0154
  H  H338  1  0.357000  0.274400  0.572000  1.0  0.1327
  H  H339  1  0.283500  0.353900  0.569500  1.0  0.083
  H  H340  1  0.382700  0.803300  0.122200  1.0  0.0154
  H  H341  1  0.357000  0.774400  0.072000  1.0  0.1327
  H  H342  1  0.283500  0.853900  0.069500  1.0  0.083
  H  H343  1  0.882700  0.303300  0.122200  1.0  0.0154
  H  H344  1  0.857000  0.274400  0.072000  1.0  0.1327
  H  H345  1  0.783500  0.353900  0.069500  1.0  0.083
  H  H346  1  0.882700  0.803300  0.622200  1.0  0.0154
  H  H347  1  0.857000  0.774400  0.572000  1.0  0.1327
  H  H348  1  0.783500  0.853900  0.569500  1.0  0.083
  H  H349  1  0.382700  0.696700  0.377800  1.0  0.0151
  H  H350  1  0.357000  0.725600  0.428000  1.0  0.1317
  H  H351  1  0.283500  0.646100  0.430500  1.0  0.0842
  H  H352  1  0.382700  0.196700  0.877800  1.0  0.0151
  H  H353  1  0.357000  0.225600  0.928000  1.0  0.1317
  H  H354  1  0.283500  0.146100  0.930500  1.0  0.0842
  H  H355  1  0.882700  0.696700  0.877800  1.0  0.0151
  H  H356  1  0.857000  0.725600  0.928000  1.0  0.1317
  H  H357  1  0.783500  0.646100  0.930500  1.0  0.0842
  H  H358  1  0.882700  0.196700  0.377800  1.0  0.0151
  H  H359  1  0.857000  0.225600  0.428000  1.0  0.1317
  H  H360  1  0.783500  0.146100  0.430500  1.0  0.0842
  H  H361  1  0.617300  0.696700  0.622200  1.0  0.0158
  H  H362  1  0.643000  0.725600  0.572000  1.0  0.1336
  H  H363  1  0.716500  0.646100  0.569500  1.0  0.0843
  H  H364  1  0.617300  0.196700  0.122200  1.0  0.0158
  H  H365  1  0.643000  0.225600  0.072000  1.0  0.1336
  H  H366  1  0.716500  0.146100  0.069500  1.0  0.0843
  H  H367  1  0.117300  0.696700  0.122200  1.0  0.0158
  H  H368  1  0.143000  0.725600  0.072000  1.0  0.1336
  H  H369  1  0.216500  0.646100  0.069500  1.0  0.0843
  H  H370  1  0.117300  0.196700  0.622200  1.0  0.0158
  H  H371  1  0.143000  0.225600  0.572000  1.0  0.1336
  H  H372  1  0.216500  0.146100  0.569500  1.0  0.0843
  H  H373  1  0.617300  0.303300  0.377800  1.0  0.0154
  H  H374  1  0.643000  0.274400  0.428000  1.0  0.1328
  H  H375  1  0.716500  0.353900  0.430500  1.0  0.0821
  H  H376  1  0.617300  0.803300  0.877800  1.0  0.0154
  H  H377  1  0.643000  0.774400  0.928000  1.0  0.1328
  H  H378  1  0.716500  0.853900  0.930500  1.0  0.0821
  H  H379  1  0.117300  0.303300  0.877800  1.0  0.0154
  H  H380  1  0.143000  0.274400  0.928000  1.0  0.1328
  H  H381  1  0.216500  0.353900  0.930500  1.0  0.0821
  H  H382  1  0.117300  0.803300  0.377800  1.0  0.0154
  H  H383  1  0.143000  0.774400  0.428000  1.0  0.1328
  H  H384  1  0.216500  0.853900  0.430500  1.0  0.0821
  H  H385  1  0.622200  0.382700  0.303300  1.0  0.0167
  H  H386  1  0.572000  0.357000  0.274400  1.0  0.129
  H  H387  1  0.569500  0.283500  0.353900  1.0  0.0888
  H  H388  1  0.622200  0.882700  0.803300  1.0  0.0167
  H  H389  1  0.572000  0.857000  0.774400  1.0  0.129
  H  H390  1  0.569500  0.783500  0.853900  1.0  0.0888
  H  H391  1  0.122200  0.382700  0.803300  1.0  0.0167
  H  H392  1  0.072000  0.357000  0.774400  1.0  0.129
  H  H393  1  0.069500  0.283500  0.853900  1.0  0.0888
  H  H394  1  0.122200  0.882700  0.303300  1.0  0.0167
  H  H395  1  0.072000  0.857000  0.274400  1.0  0.129
  H  H396  1  0.069500  0.783500  0.353900  1.0  0.0888
  H  H397  1  0.377800  0.382700  0.696700  1.0  0.0156
  H  H398  1  0.428000  0.357000  0.725600  1.0  0.128
  H  H399  1  0.430500  0.283500  0.646100  1.0  0.0866
  H  H400  1  0.377800  0.882700  0.196700  1.0  0.0156
  H  H401  1  0.428000  0.857000  0.225600  1.0  0.128
  H  H402  1  0.430500  0.783500  0.146100  1.0  0.0866
  H  H403  1  0.877800  0.382700  0.196700  1.0  0.0156
  H  H404  1  0.928000  0.357000  0.225600  1.0  0.128
  H  H405  1  0.930500  0.283500  0.146100  1.0  0.0866
  H  H406  1  0.877800  0.882700  0.696700  1.0  0.0156
  H  H407  1  0.928000  0.857000  0.725600  1.0  0.128
  H  H408  1  0.930500  0.783500  0.646100  1.0  0.0866
  H  H409  1  0.622200  0.617300  0.696700  1.0  0.0159
  H  H410  1  0.572000  0.643000  0.725600  1.0  0.1269
  H  H411  1  0.569500  0.716500  0.646100  1.0  0.0877
  H  H412  1  0.622200  0.117300  0.196700  1.0  0.0159
  H  H413  1  0.572000  0.143000  0.225600  1.0  0.1269
  H  H414  1  0.569500  0.216500  0.146100  1.0  0.0877
  H  H415  1  0.122200  0.617300  0.196700  1.0  0.0159
  H  H416  1  0.072000  0.643000  0.225600  1.0  0.1269
  H  H417  1  0.069500  0.716500  0.146100  1.0  0.0877
  H  H418  1  0.122200  0.117300  0.696700  1.0  0.0159
  H  H419  1  0.072000  0.143000  0.725600  1.0  0.1269
  H  H420  1  0.069500  0.216500  0.646100  1.0  0.0877
  H  H421  1  0.377800  0.617300  0.303300  1.0  0.0157
  H  H422  1  0.428000  0.643000  0.274400  1.0  0.1258
  H  H423  1  0.430500  0.716500  0.353900  1.0  0.0885
  H  H424  1  0.377800  0.117300  0.803300  1.0  0.0157
  H  H425  1  0.428000  0.143000  0.774400  1.0  0.1258
  H  H426  1  0.430500  0.216500  0.853900  1.0  0.0885
  H  H427  1  0.877800  0.617300  0.803300  1.0  0.0157
  H  H428  1  0.928000  0.643000  0.774400  1.0  0.1258
  H  H429  1  0.930500  0.716500  0.853900  1.0  0.0885
  H  H430  1  0.877800  0.117300  0.303300  1.0  0.0157
  H  H431  1  0.928000  0.143000  0.274400  1.0  0.1258
  H  H432  1  0.930500  0.216500  0.353900  1.0  0.0885
  H  H433  1  0.122200  0.803300  0.117300  1.0  0.015
  H  H434  1  0.072000  0.774400  0.143000  1.0  0.1363
  H  H435  1  0.069500  0.853900  0.216500  1.0  0.0792
  H  H436  1  0.122200  0.303300  0.617300  1.0  0.015
  H  H437  1  0.072000  0.274400  0.643000  1.0  0.1363
  H  H438  1  0.069500  0.353900  0.716500  1.0  0.0792
  H  H439  1  0.622200  0.803300  0.617300  1.0  0.015
  H  H440  1  0.572000  0.774400  0.643000  1.0  0.1363
  H  H441  1  0.569500  0.853900  0.716500  1.0  0.0792
  H  H442  1  0.622200  0.303300  0.117300  1.0  0.015
  H  H443  1  0.572000  0.274400  0.143000  1.0  0.1363
  H  H444  1  0.569500  0.353900  0.216500  1.0  0.0792
  H  H445  1  0.877800  0.196700  0.117300  1.0  0.0151
  H  H446  1  0.928000  0.225600  0.143000  1.0  0.1344
  H  H447  1  0.930500  0.146100  0.216500  1.0  0.0797
  H  H448  1  0.877800  0.696700  0.617300  1.0  0.0151
  H  H449  1  0.928000  0.725600  0.643000  1.0  0.1344
  H  H450  1  0.930500  0.646100  0.716500  1.0  0.0797
  H  H451  1  0.377800  0.196700  0.617300  1.0  0.0151
  H  H452  1  0.428000  0.225600  0.643000  1.0  0.1344
  H  H453  1  0.430500  0.146100  0.716500  1.0  0.0797
  H  H454  1  0.377800  0.696700  0.117300  1.0  0.0151
  H  H455  1  0.428000  0.725600  0.143000  1.0  0.1344
  H  H456  1  0.430500  0.646100  0.216500  1.0  0.0797
  H  H457  1  0.122200  0.196700  0.882700  1.0  0.0152
  H  H458  1  0.072000  0.225600  0.857000  1.0  0.1326
  H  H459  1  0.069500  0.146100  0.783500  1.0  0.0807
  H  H460  1  0.122200  0.696700  0.382700  1.0  0.0152
  H  H461  1  0.072000  0.725600  0.357000  1.0  0.1326
  H  H462  1  0.069500  0.646100  0.283500  1.0  0.0807
  H  H463  1  0.622200  0.196700  0.382700  1.0  0.0152
  H  H464  1  0.572000  0.225600  0.357000  1.0  0.1326
  H  H465  1  0.569500  0.146100  0.283500  1.0  0.0807
  H  H466  1  0.622200  0.696700  0.882700  1.0  0.0152
  H  H467  1  0.572000  0.725600  0.857000  1.0  0.1326
  H  H468  1  0.569500  0.646100  0.783500  1.0  0.0807
  H  H469  1  0.877800  0.803300  0.882700  1.0  0.0155
  H  H470  1  0.928000  0.774400  0.857000  1.0  0.1305
  H  H471  1  0.930500  0.853900  0.783500  1.0  0.0788
  H  H472  1  0.877800  0.303300  0.382700  1.0  0.0155
  H  H473  1  0.928000  0.274400  0.357000  1.0  0.1305
  H  H474  1  0.930500  0.353900  0.283500  1.0  0.0788
  H  H475  1  0.377800  0.803300  0.382700  1.0  0.0155
  H  H476  1  0.428000  0.774400  0.357000  1.0  0.1305
  H  H477  1  0.430500  0.853900  0.283500  1.0  0.0788
  H  H478  1  0.377800  0.303300  0.882700  1.0  0.0155
  H  H479  1  0.428000  0.274400  0.857000  1.0  0.1305
  H  H480  1  0.430500  0.353900  0.783500  1.0  0.0788
  H  H481  1  0.803300  0.882700  0.877800  1.0  0.0154
  H  H482  1  0.774400  0.857000  0.928000  1.0  0.1281
  H  H483  1  0.853900  0.783500  0.930500  1.0  0.0895
  H  H484  1  0.803300  0.382700  0.377800  1.0  0.0154
  H  H485  1  0.774400  0.357000  0.428000  1.0  0.1281
  H  H486  1  0.853900  0.283500  0.430500  1.0  0.0895
  H  H487  1  0.303300  0.882700  0.377800  1.0  0.0154
  H  H488  1  0.274400  0.857000  0.428000  1.0  0.1281
  H  H489  1  0.353900  0.783500  0.430500  1.0  0.0895
  H  H490  1  0.303300  0.382700  0.877800  1.0  0.0154
  H  H491  1  0.274400  0.357000  0.928000  1.0  0.1281
  H  H492  1  0.353900  0.283500  0.930500  1.0  0.0895
  H  H493  1  0.196700  0.882700  0.122200  1.0  0.0153
  H  H494  1  0.225600  0.857000  0.072000  1.0  0.1296
  H  H495  1  0.146100  0.783500  0.069500  1.0  0.0881
  H  H496  1  0.196700  0.382700  0.622200  1.0  0.0153
  H  H497  1  0.225600  0.357000  0.572000  1.0  0.1296
  H  H498  1  0.146100  0.283500  0.569500  1.0  0.0881
  H  H499  1  0.696700  0.882700  0.622200  1.0  0.0153
  H  H500  1  0.725600  0.857000  0.572000  1.0  0.1296
  H  H501  1  0.646100  0.783500  0.569500  1.0  0.0881
  H  H502  1  0.696700  0.382700  0.122200  1.0  0.0153
  H  H503  1  0.725600  0.357000  0.072000  1.0  0.1296
  H  H504  1  0.646100  0.283500  0.069500  1.0  0.0881
  H  H505  1  0.196700  0.117300  0.877800  1.0  0.0149
  H  H506  1  0.225600  0.143000  0.928000  1.0  0.1277
  H  H507  1  0.146100  0.216500  0.930500  1.0  0.0878
  H  H508  1  0.196700  0.617300  0.377800  1.0  0.0149
  H  H509  1  0.225600  0.643000  0.428000  1.0  0.1277
  H  H510  1  0.146100  0.716500  0.430500  1.0  0.0878
  H  H511  1  0.696700  0.117300  0.377800  1.0  0.0149
  H  H512  1  0.725600  0.143000  0.428000  1.0  0.1277
  H  H513  1  0.646100  0.216500  0.430500  1.0  0.0878
  H  H514  1  0.696700  0.617300  0.877800  1.0  0.0149
  H  H515  1  0.725600  0.643000  0.928000  1.0  0.1277
  H  H516  1  0.646100  0.716500  0.930500  1.0  0.0878
  H  H517  1  0.803300  0.117300  0.122200  1.0  0.0147
  H  H518  1  0.774400  0.143000  0.072000  1.0  0.1257
  H  H519  1  0.853900  0.216500  0.069500  1.0  0.089
  H  H520  1  0.803300  0.617300  0.622200  1.0  0.0147
  H  H521  1  0.774400  0.643000  0.572000  1.0  0.1257
  H  H522  1  0.853900  0.716500  0.569500  1.0  0.089
  H  H523  1  0.303300  0.117300  0.622200  1.0  0.0147
  H  H524  1  0.274400  0.143000  0.572000  1.0  0.1257
  H  H525  1  0.353900  0.216500  0.569500  1.0  0.089
  H  H526  1  0.303300  0.617300  0.122200  1.0  0.0147
  H  H527  1  0.274400  0.643000  0.072000  1.0  0.1257
  H  H528  1  0.353900  0.716500  0.069500  1.0  0.089
  H  H529  1  0.882700  0.122200  0.196700  1.0  0.0154
  H  H530  1  0.857000  0.072000  0.225600  1.0  0.1323
  H  H531  1  0.783500  0.069500  0.146100  1.0  0.0866
  H  H532  1  0.882700  0.622200  0.696700  1.0  0.0154
  H  H533  1  0.857000  0.572000  0.725600  1.0  0.1323
  H  H534  1  0.783500  0.569500  0.646100  1.0  0.0866
  H  H535  1  0.382700  0.122200  0.696700  1.0  0.0154
  H  H536  1  0.357000  0.072000  0.725600  1.0  0.1323
  H  H537  1  0.283500  0.069500  0.646100  1.0  0.0866
  H  H538  1  0.382700  0.622200  0.196700  1.0  0.0154
  H  H539  1  0.357000  0.572000  0.225600  1.0  0.1323
  H  H540  1  0.283500  0.569500  0.146100  1.0  0.0866
  H  H541  1  0.882700  0.877800  0.803300  1.0  0.0158
  H  H542  1  0.857000  0.928000  0.774400  1.0  0.1318
  H  H543  1  0.783500  0.930500  0.853900  1.0  0.0883
  H  H544  1  0.882700  0.377800  0.303300  1.0  0.0158
  H  H545  1  0.857000  0.428000  0.274400  1.0  0.1318
  H  H546  1  0.783500  0.430500  0.353900  1.0  0.0883
  H  H547  1  0.382700  0.877800  0.303300  1.0  0.0158
  H  H548  1  0.357000  0.928000  0.274400  1.0  0.1318
  H  H549  1  0.283500  0.930500  0.353900  1.0  0.0883
  H  H550  1  0.382700  0.377800  0.803300  1.0  0.0158
  H  H551  1  0.357000  0.428000  0.774400  1.0  0.1318
  H  H552  1  0.283500  0.430500  0.853900  1.0  0.0883
  H  H553  1  0.117300  0.122200  0.803300  1.0  0.016
  H  H554  1  0.143000  0.072000  0.774400  1.0  0.133
  H  H555  1  0.216500  0.069500  0.853900  1.0  0.0887
  H  H556  1  0.117300  0.622200  0.303300  1.0  0.016
  H  H557  1  0.143000  0.572000  0.274400  1.0  0.133
  H  H558  1  0.216500  0.569500  0.353900  1.0  0.0887
  H  H559  1  0.617300  0.122200  0.303300  1.0  0.016
  H  H560  1  0.643000  0.072000  0.274400  1.0  0.133
  H  H561  1  0.716500  0.069500  0.353900  1.0  0.0887
  H  H562  1  0.617300  0.622200  0.803300  1.0  0.016
  H  H563  1  0.643000  0.572000  0.774400  1.0  0.133
  H  H564  1  0.716500  0.569500  0.853900  1.0  0.0887
  H  H565  1  0.117300  0.877800  0.196700  1.0  0.0154
  H  H566  1  0.143000  0.928000  0.225600  1.0  0.1332
  H  H567  1  0.216500  0.930500  0.146100  1.0  0.0871
  H  H568  1  0.117300  0.377800  0.696700  1.0  0.0154
  H  H569  1  0.143000  0.428000  0.725600  1.0  0.1332
  H  H570  1  0.216500  0.430500  0.646100  1.0  0.0871
  H  H571  1  0.617300  0.877800  0.696700  1.0  0.0154
  H  H572  1  0.643000  0.928000  0.725600  1.0  0.1332
  H  H573  1  0.716500  0.930500  0.646100  1.0  0.0871
  H  H574  1  0.617300  0.377800  0.196700  1.0  0.0154
  H  H575  1  0.643000  0.428000  0.225600  1.0  0.1332
  H  H576  1  0.716500  0.430500  0.146100  1.0  0.0871
  H  H577  1  0.696700  0.377800  0.617300  1.0  0.0145
  H  H578  1  0.725600  0.428000  0.643000  1.0  0.1358
  H  H579  1  0.646100  0.430500  0.716500  1.0  0.084
  H  H580  1  0.696700  0.877800  0.117300  1.0  0.0145
  H  H581  1  0.725600  0.928000  0.143000  1.0  0.1358
  H  H582  1  0.646100  0.930500  0.216500  1.0  0.084
  H  H583  1  0.196700  0.377800  0.117300  1.0  0.0145
  H  H584  1  0.225600  0.428000  0.143000  1.0  0.1358
  H  H585  1  0.146100  0.430500  0.216500  1.0  0.084
  H  H586  1  0.196700  0.877800  0.617300  1.0  0.0145
  H  H587  1  0.225600  0.928000  0.643000  1.0  0.1358
  H  H588  1  0.146100  0.930500  0.716500  1.0  0.084
  H  H589  1  0.303300  0.622200  0.617300  1.0  0.0145
  H  H590  1  0.274400  0.572000  0.643000  1.0  0.1356
  H  H591  1  0.353900  0.569500  0.716500  1.0  0.0853
  H  H592  1  0.303300  0.122200  0.117300  1.0  0.0145
  H  H593  1  0.274400  0.072000  0.143000  1.0  0.1356
  H  H594  1  0.353900  0.069500  0.216500  1.0  0.0853
  H  H595  1  0.803300  0.622200  0.117300  1.0  0.0145
  H  H596  1  0.774400  0.572000  0.143000  1.0  0.1356
  H  H597  1  0.853900  0.569500  0.216500  1.0  0.0853
  H  H598  1  0.803300  0.122200  0.617300  1.0  0.0145
  H  H599  1  0.774400  0.072000  0.643000  1.0  0.1356
  H  H600  1  0.853900  0.069500  0.716500  1.0  0.0853
  H  H601  1  0.303300  0.377800  0.382700  1.0  0.0149
  H  H602  1  0.274400  0.428000  0.357000  1.0  0.1314
  H  H603  1  0.353900  0.430500  0.283500  1.0  0.0849
  H  H604  1  0.303300  0.877800  0.882700  1.0  0.0149
  H  H605  1  0.274400  0.928000  0.857000  1.0  0.1314
  H  H606  1  0.353900  0.930500  0.783500  1.0  0.0849
  H  H607  1  0.803300  0.377800  0.882700  1.0  0.0149
  H  H608  1  0.774400  0.428000  0.857000  1.0  0.1314
  H  H609  1  0.853900  0.430500  0.783500  1.0  0.0849
  H  H610  1  0.803300  0.877800  0.382700  1.0  0.0149
  H  H611  1  0.774400  0.928000  0.357000  1.0  0.1314
  H  H612  1  0.853900  0.930500  0.283500  1.0  0.0849
  H  H613  1  0.696700  0.622200  0.382700  1.0  0.0147
  H  H614  1  0.725600  0.572000  0.357000  1.0  0.1323
  H  H615  1  0.646100  0.569500  0.283500  1.0  0.0832
  H  H616  1  0.696700  0.122200  0.882700  1.0  0.0147
  H  H617  1  0.725600  0.072000  0.857000  1.0  0.1323
  H  H618  1  0.646100  0.069500  0.783500  1.0  0.0832
  H  H619  1  0.196700  0.622200  0.882700  1.0  0.0147
  H  H620  1  0.225600  0.572000  0.857000  1.0  0.1323
  H  H621  1  0.146100  0.569500  0.783500  1.0  0.0832
  H  H622  1  0.196700  0.122200  0.382700  1.0  0.0147
  H  H623  1  0.225600  0.072000  0.357000  1.0  0.1323
  H  H624  1  0.146100  0.069500  0.283500  1.0  0.0832
  H  H625  1  0.617300  0.696700  0.377800  1.0  0.0153
  H  H626  1  0.643000  0.725600  0.428000  1.0  0.133
  H  H627  1  0.716500  0.646100  0.430500  1.0  0.0848
  H  H628  1  0.617300  0.196700  0.877800  1.0  0.0153
  H  H629  1  0.643000  0.225600  0.928000  1.0  0.133
  H  H630  1  0.716500  0.146100  0.930500  1.0  0.0848
  H  H631  1  0.117300  0.696700  0.877800  1.0  0.0153
  H  H632  1  0.143000  0.725600  0.928000  1.0  0.133
  H  H633  1  0.216500  0.646100  0.930500  1.0  0.0848
  H  H634  1  0.117300  0.196700  0.377800  1.0  0.0153
  H  H635  1  0.143000  0.225600  0.428000  1.0  0.133
  H  H636  1  0.216500  0.146100  0.430500  1.0  0.0848
  H  H637  1  0.617300  0.303300  0.622200  1.0  0.0153
  H  H638  1  0.643000  0.274400  0.572000  1.0  0.1333
  H  H639  1  0.716500  0.353900  0.569500  1.0  0.0829
  H  H640  1  0.617300  0.803300  0.122200  1.0  0.0153
  H  H641  1  0.643000  0.774400  0.072000  1.0  0.1333
  H  H642  1  0.716500  0.853900  0.069500  1.0  0.0829
  H  H643  1  0.117300  0.303300  0.122200  1.0  0.0153
  H  H644  1  0.143000  0.274400  0.072000  1.0  0.1333
  H  H645  1  0.216500  0.353900  0.069500  1.0  0.0829
  H  H646  1  0.117300  0.803300  0.622200  1.0  0.0153
  H  H647  1  0.143000  0.774400  0.572000  1.0  0.1333
  H  H648  1  0.216500  0.853900  0.569500  1.0  0.0829
  H  H649  1  0.382700  0.303300  0.377800  1.0  0.0155
  H  H650  1  0.357000  0.274400  0.428000  1.0  0.132
  H  H651  1  0.283500  0.353900  0.430500  1.0  0.0823
  H  H652  1  0.382700  0.803300  0.877800  1.0  0.0155
  H  H653  1  0.357000  0.774400  0.928000  1.0  0.132
  H  H654  1  0.283500  0.853900  0.930500  1.0  0.0823
  H  H655  1  0.882700  0.303300  0.877800  1.0  0.0155
  H  H656  1  0.857000  0.274400  0.928000  1.0  0.132
  H  H657  1  0.783500  0.353900  0.930500  1.0  0.0823
  H  H658  1  0.882700  0.803300  0.377800  1.0  0.0155
  H  H659  1  0.857000  0.774400  0.428000  1.0  0.132
  H  H660  1  0.783500  0.853900  0.430500  1.0  0.0823
  H  H661  1  0.382700  0.696700  0.622200  1.0  0.0152
  H  H662  1  0.357000  0.725600  0.572000  1.0  0.1322
  H  H663  1  0.283500  0.646100  0.569500  1.0  0.0838
  H  H664  1  0.382700  0.196700  0.122200  1.0  0.0152
  H  H665  1  0.357000  0.225600  0.072000  1.0  0.1322
  H  H666  1  0.283500  0.146100  0.069500  1.0  0.0838
  H  H667  1  0.882700  0.696700  0.122200  1.0  0.0152
  H  H668  1  0.857000  0.725600  0.072000  1.0  0.1322
  H  H669  1  0.783500  0.646100  0.069500  1.0  0.0838
  H  H670  1  0.882700  0.196700  0.622200  1.0  0.0152
  H  H671  1  0.857000  0.225600  0.572000  1.0  0.1322
  H  H672  1  0.783500  0.146100  0.569500  1.0  0.0838
  H  H673  1  0.377800  0.617300  0.696700  1.0  0.0156
  H  H674  1  0.428000  0.643000  0.725600  1.0  0.1257
  H  H675  1  0.430500  0.716500  0.646100  1.0  0.0865
  H  H676  1  0.377800  0.117300  0.196700  1.0  0.0156
  H  H677  1  0.428000  0.143000  0.225600  1.0  0.1257
  H  H678  1  0.430500  0.216500  0.146100  1.0  0.0865
  H  H679  1  0.877800  0.617300  0.196700  1.0  0.0156
  H  H680  1  0.928000  0.643000  0.225600  1.0  0.1257
  H  H681  1  0.930500  0.716500  0.146100  1.0  0.0865
  H  H682  1  0.877800  0.117300  0.696700  1.0  0.0156
  H  H683  1  0.928000  0.143000  0.725600  1.0  0.1257
  H  H684  1  0.930500  0.216500  0.646100  1.0  0.0865
  H  H685  1  0.622200  0.617300  0.303300  1.0  0.0161
  H  H686  1  0.572000  0.643000  0.274400  1.0  0.127
  H  H687  1  0.569500  0.716500  0.353900  1.0  0.0892
  H  H688  1  0.622200  0.117300  0.803300  1.0  0.0161
  H  H689  1  0.572000  0.143000  0.774400  1.0  0.127
  H  H690  1  0.569500  0.216500  0.853900  1.0  0.0892
  H  H691  1  0.122200  0.617300  0.803300  1.0  0.0161
  H  H692  1  0.072000  0.643000  0.774400  1.0  0.127
  H  H693  1  0.069500  0.716500  0.853900  1.0  0.0892
  H  H694  1  0.122200  0.117300  0.303300  1.0  0.0161
  H  H695  1  0.072000  0.143000  0.274400  1.0  0.127
  H  H696  1  0.069500  0.216500  0.353900  1.0  0.0892
  H  H697  1  0.377800  0.382700  0.303300  1.0  0.0164
  H  H698  1  0.428000  0.357000  0.274400  1.0  0.128
  H  H699  1  0.430500  0.283500  0.353900  1.0  0.0881
  H  H700  1  0.377800  0.882700  0.803300  1.0  0.0164
  H  H701  1  0.428000  0.857000  0.774400  1.0  0.128
  H  H702  1  0.430500  0.783500  0.853900  1.0  0.0881
  H  H703  1  0.877800  0.382700  0.803300  1.0  0.0164
  H  H704  1  0.928000  0.357000  0.774400  1.0  0.128
  H  H705  1  0.930500  0.283500  0.853900  1.0  0.0881
  H  H706  1  0.877800  0.882700  0.303300  1.0  0.0164
  H  H707  1  0.928000  0.857000  0.274400  1.0  0.128
  H  H708  1  0.930500  0.783500  0.353900  1.0  0.0881
  H  H709  1  0.622200  0.382700  0.696700  1.0  0.0158
  H  H710  1  0.572000  0.357000  0.725600  1.0  0.1291
  H  H711  1  0.569500  0.283500  0.646100  1.0  0.0878
  H  H712  1  0.622200  0.882700  0.196700  1.0  0.0158
  H  H713  1  0.572000  0.857000  0.225600  1.0  0.1291
  H  H714  1  0.569500  0.783500  0.146100  1.0  0.0878
  H  H715  1  0.122200  0.382700  0.196700  1.0  0.0158
  H  H716  1  0.072000  0.357000  0.225600  1.0  0.1291
  H  H717  1  0.069500  0.283500  0.146100  1.0  0.0878
  H  H718  1  0.122200  0.882700  0.696700  1.0  0.0158
  H  H719  1  0.072000  0.857000  0.725600  1.0  0.1291
  H  H720  1  0.069500  0.783500  0.646100  1.0  0.0878
  H  H721  1  0.877800  0.196700  0.882700  1.0  0.0151
  H  H722  1  0.928000  0.225600  0.857000  1.0  0.1307
  H  H723  1  0.930500  0.146100  0.783500  1.0  0.0797
  H  H724  1  0.877800  0.696700  0.382700  1.0  0.0151
  H  H725  1  0.928000  0.725600  0.357000  1.0  0.1307
  H  H726  1  0.930500  0.646100  0.283500  1.0  0.0797
  H  H727  1  0.377800  0.196700  0.382700  1.0  0.0151
  H  H728  1  0.428000  0.225600  0.357000  1.0  0.1307
  H  H729  1  0.430500  0.146100  0.283500  1.0  0.0797
  H  H730  1  0.377800  0.696700  0.882700  1.0  0.0151
  H  H731  1  0.428000  0.725600  0.857000  1.0  0.1307
  H  H732  1  0.430500  0.646100  0.783500  1.0  0.0797
  H  H733  1  0.122200  0.803300  0.882700  1.0  0.0153
  H  H734  1  0.072000  0.774400  0.857000  1.0  0.1322
  H  H735  1  0.069500  0.853900  0.783500  1.0  0.0788
  H  H736  1  0.122200  0.303300  0.382700  1.0  0.0153
  H  H737  1  0.072000  0.274400  0.357000  1.0  0.1322
  H  H738  1  0.069500  0.353900  0.283500  1.0  0.0788
  H  H739  1  0.622200  0.803300  0.382700  1.0  0.0153
  H  H740  1  0.572000  0.774400  0.357000  1.0  0.1322
  H  H741  1  0.569500  0.853900  0.283500  1.0  0.0788
  H  H742  1  0.622200  0.303300  0.882700  1.0  0.0153
  H  H743  1  0.572000  0.274400  0.857000  1.0  0.1322
  H  H744  1  0.569500  0.353900  0.783500  1.0  0.0788
  H  H745  1  0.877800  0.803300  0.117300  1.0  0.0153
  H  H746  1  0.928000  0.774400  0.143000  1.0  0.1352
  H  H747  1  0.930500  0.853900  0.216500  1.0  0.0791
  H  H748  1  0.877800  0.303300  0.617300  1.0  0.0153
  H  H749  1  0.928000  0.274400  0.643000  1.0  0.1352
  H  H750  1  0.930500  0.353900  0.716500  1.0  0.0791
  H  H751  1  0.377800  0.803300  0.617300  1.0  0.0153
  H  H752  1  0.428000  0.774400  0.643000  1.0  0.1352
  H  H753  1  0.430500  0.853900  0.716500  1.0  0.0791
  H  H754  1  0.377800  0.303300  0.117300  1.0  0.0153
  H  H755  1  0.428000  0.274400  0.143000  1.0  0.1352
  H  H756  1  0.430500  0.353900  0.216500  1.0  0.0791
  H  H757  1  0.122200  0.196700  0.117300  1.0  0.0154
  H  H758  1  0.072000  0.225600  0.143000  1.0  0.1356
  H  H759  1  0.069500  0.146100  0.216500  1.0  0.0807
  H  H760  1  0.122200  0.696700  0.617300  1.0  0.0154
  H  H761  1  0.072000  0.725600  0.643000  1.0  0.1356
  H  H762  1  0.069500  0.646100  0.716500  1.0  0.0807
  H  H763  1  0.622200  0.196700  0.617300  1.0  0.0154
  H  H764  1  0.572000  0.225600  0.643000  1.0  0.1356
  H  H765  1  0.569500  0.146100  0.716500  1.0  0.0807
  H  H766  1  0.622200  0.696700  0.117300  1.0  0.0154
  H  H767  1  0.572000  0.725600  0.143000  1.0  0.1356
  H  H768  1  0.569500  0.646100  0.216500  1.0  0.0807
  H  H769  1  0.196700  0.117300  0.122200  1.0  0.0144
  H  H770  1  0.225600  0.143000  0.072000  1.0  0.128
  H  H771  1  0.146100  0.216500  0.069500  1.0  0.0875
  H  H772  1  0.196700  0.617300  0.622200  1.0  0.0144
  H  H773  1  0.225600  0.643000  0.572000  1.0  0.128
  H  H774  1  0.146100  0.716500  0.569500  1.0  0.0875
  H  H775  1  0.696700  0.117300  0.622200  1.0  0.0144
  H  H776  1  0.725600  0.143000  0.572000  1.0  0.128
  H  H777  1  0.646100  0.216500  0.569500  1.0  0.0875
  H  H778  1  0.696700  0.617300  0.122200  1.0  0.0144
  H  H779  1  0.725600  0.643000  0.072000  1.0  0.128
  H  H780  1  0.646100  0.716500  0.069500  1.0  0.0875
  H  H781  1  0.803300  0.117300  0.877800  1.0  0.0149
  H  H782  1  0.774400  0.143000  0.928000  1.0  0.1254
  H  H783  1  0.853900  0.216500  0.930500  1.0  0.0898
  H  H784  1  0.803300  0.617300  0.377800  1.0  0.0149
  H  H785  1  0.774400  0.643000  0.428000  1.0  0.1254
  H  H786  1  0.853900  0.716500  0.430500  1.0  0.0898
  H  H787  1  0.303300  0.117300  0.377800  1.0  0.0149
  H  H788  1  0.274400  0.143000  0.428000  1.0  0.1254
  H  H789  1  0.353900  0.216500  0.430500  1.0  0.0898
  H  H790  1  0.303300  0.617300  0.877800  1.0  0.0149
  H  H791  1  0.274400  0.643000  0.928000  1.0  0.1254
  H  H792  1  0.353900  0.716500  0.930500  1.0  0.0898
  H  H793  1  0.803300  0.882700  0.122200  1.0  0.0157
  H  H794  1  0.774400  0.857000  0.072000  1.0  0.1283
  H  H795  1  0.853900  0.783500  0.069500  1.0  0.0899
  H  H796  1  0.803300  0.382700  0.622200  1.0  0.0157
  H  H797  1  0.774400  0.357000  0.572000  1.0  0.1283
  H  H798  1  0.853900  0.283500  0.569500  1.0  0.0899
  H  H799  1  0.303300  0.882700  0.622200  1.0  0.0157
  H  H800  1  0.274400  0.857000  0.572000  1.0  0.1283
  H  H801  1  0.353900  0.783500  0.569500  1.0  0.0899
  H  H802  1  0.303300  0.382700  0.122200  1.0  0.0157
  H  H803  1  0.274400  0.357000  0.072000  1.0  0.1283
  H  H804  1  0.353900  0.283500  0.069500  1.0  0.0899
  H  H805  1  0.196700  0.882700  0.877800  1.0  0.0151
  H  H806  1  0.225600  0.857000  0.928000  1.0  0.1298
  H  H807  1  0.146100  0.783500  0.930500  1.0  0.0876
  H  H808  1  0.196700  0.382700  0.377800  1.0  0.0151
  H  H809  1  0.225600  0.357000  0.428000  1.0  0.1298
  H  H810  1  0.146100  0.283500  0.430500  1.0  0.0876
  H  H811  1  0.696700  0.882700  0.377800  1.0  0.0151
  H  H812  1  0.725600  0.857000  0.428000  1.0  0.1298
  H  H813  1  0.646100  0.783500  0.430500  1.0  0.0876
  H  H814  1  0.696700  0.382700  0.877800  1.0  0.0151
  H  H815  1  0.725600  0.357000  0.928000  1.0  0.1298
  H  H816  1  0.646100  0.283500  0.930500  1.0  0.0876
  H  H817  1  0.117300  0.877800  0.803300  1.0  0.0163
  H  H818  1  0.143000  0.928000  0.774400  1.0  0.1332
  H  H819  1  0.216500  0.930500  0.853900  1.0  0.0888
  H  H820  1  0.117300  0.377800  0.303300  1.0  0.0163
  H  H821  1  0.143000  0.428000  0.274400  1.0  0.1332
  H  H822  1  0.216500  0.430500  0.353900  1.0  0.0888
  H  H823  1  0.617300  0.877800  0.303300  1.0  0.0163
  H  H824  1  0.643000  0.928000  0.274400  1.0  0.1332
  H  H825  1  0.716500  0.930500  0.353900  1.0  0.0888
  H  H826  1  0.617300  0.377800  0.803300  1.0  0.0163
  H  H827  1  0.643000  0.428000  0.774400  1.0  0.1332
  H  H828  1  0.716500  0.430500  0.853900  1.0  0.0888
  H  H829  1  0.117300  0.122200  0.196700  1.0  0.0157
  H  H830  1  0.143000  0.072000  0.225600  1.0  0.133
  H  H831  1  0.216500  0.069500  0.146100  1.0  0.0871
  H  H832  1  0.117300  0.622200  0.696700  1.0  0.0157
  H  H833  1  0.143000  0.572000  0.725600  1.0  0.133
  H  H834  1  0.216500  0.569500  0.646100  1.0  0.0871
  H  H835  1  0.617300  0.122200  0.696700  1.0  0.0157
  H  H836  1  0.643000  0.072000  0.725600  1.0  0.133
  H  H837  1  0.716500  0.069500  0.646100  1.0  0.0871
  H  H838  1  0.617300  0.622200  0.196700  1.0  0.0157
  H  H839  1  0.643000  0.572000  0.225600  1.0  0.133
  H  H840  1  0.716500  0.569500  0.146100  1.0  0.0871
  H  H841  1  0.882700  0.877800  0.196700  1.0  0.015
  H  H842  1  0.857000  0.928000  0.225600  1.0  0.1321
  H  H843  1  0.783500  0.930500  0.146100  1.0  0.0866
  H  H844  1  0.882700  0.377800  0.696700  1.0  0.015
  H  H845  1  0.857000  0.428000  0.725600  1.0  0.1321
  H  H846  1  0.783500  0.430500  0.646100  1.0  0.0866
  H  H847  1  0.382700  0.877800  0.696700  1.0  0.015
  H  H848  1  0.357000  0.928000  0.725600  1.0  0.1321
  H  H849  1  0.283500  0.930500  0.646100  1.0  0.0866
  H  H850  1  0.382700  0.377800  0.196700  1.0  0.015
  H  H851  1  0.357000  0.428000  0.225600  1.0  0.1321
  H  H852  1  0.283500  0.430500  0.146100  1.0  0.0866
  H  H853  1  0.882700  0.122200  0.803300  1.0  0.0155
  H  H854  1  0.857000  0.072000  0.774400  1.0  0.1323
  H  H855  1  0.783500  0.069500  0.853900  1.0  0.0883
  H  H856  1  0.882700  0.622200  0.303300  1.0  0.0155
  H  H857  1  0.857000  0.572000  0.274400  1.0  0.1323
  H  H858  1  0.783500  0.569500  0.353900  1.0  0.0883
  H  H859  1  0.382700  0.122200  0.303300  1.0  0.0155
  H  H860  1  0.357000  0.072000  0.274400  1.0  0.1323
  H  H861  1  0.283500  0.069500  0.353900  1.0  0.0883
  H  H862  1  0.382700  0.622200  0.803300  1.0  0.0155
  H  H863  1  0.357000  0.572000  0.774400  1.0  0.1323
  H  H864  1  0.283500  0.569500  0.853900  1.0  0.0883
  C  C865  1  0.320270  0.582080  0.326260  1.0  -0.1073
  C  C866  1  0.337800  0.614530  0.340770  1.0  -0.036
  C  C867  1  0.324210  0.631580  0.371320  1.0  -0.2305
  C  C868  1  0.333040  0.563780  0.297220  1.0  -0.1649
  C  C869  1  0.289320  0.564940  0.337430  1.0  -0.1313
  C  C870  1  0.320270  0.082080  0.826260  1.0  -0.1073
  C  C871  1  0.337800  0.114530  0.840770  1.0  -0.036
  C  C872  1  0.324210  0.131580  0.871320  1.0  -0.2305
  C  C873  1  0.333040  0.063780  0.797220  1.0  -0.1649
  C  C874  1  0.289320  0.064940  0.837430  1.0  -0.1313
  C  C875  1  0.820270  0.582080  0.826260  1.0  -0.1073
  C  C876  1  0.837800  0.614530  0.840770  1.0  -0.036
  C  C877  1  0.824210  0.631580  0.871320  1.0  -0.2305
  C  C878  1  0.833040  0.563780  0.797220  1.0  -0.1649
  C  C879  1  0.789320  0.564940  0.837430  1.0  -0.1313
  C  C880  1  0.820270  0.082080  0.326260  1.0  -0.1073
  C  C881  1  0.837800  0.114530  0.340770  1.0  -0.036
  C  C882  1  0.824210  0.131580  0.371320  1.0  -0.2305
  C  C883  1  0.833040  0.063780  0.297220  1.0  -0.1649
  C  C884  1  0.789320  0.064940  0.337430  1.0  -0.1313
  C  C885  1  0.679730  0.417920  0.326260  1.0  -0.1052
  C  C886  1  0.662200  0.385470  0.340770  1.0  -0.0354
  C  C887  1  0.675790  0.368420  0.371320  1.0  -0.2276
  C  C888  1  0.666960  0.436220  0.297220  1.0  -0.1647
  C  C889  1  0.710680  0.435060  0.337430  1.0  -0.1312
  C  C890  1  0.679730  0.917920  0.826260  1.0  -0.1052
  C  C891  1  0.662200  0.885470  0.840770  1.0  -0.0354
  C  C892  1  0.675790  0.868420  0.871320  1.0  -0.2276
  C  C893  1  0.666960  0.936220  0.797220  1.0  -0.1647
  C  C894  1  0.710680  0.935060  0.837430  1.0  -0.1312
  C  C895  1  0.179730  0.417920  0.826260  1.0  -0.1052
  C  C896  1  0.162200  0.385470  0.840770  1.0  -0.0354
  C  C897  1  0.175790  0.368420  0.871320  1.0  -0.2276
  C  C898  1  0.166960  0.436220  0.797220  1.0  -0.1647
  C  C899  1  0.210680  0.435060  0.837430  1.0  -0.1312
  C  C900  1  0.179730  0.917920  0.326260  1.0  -0.1052
  C  C901  1  0.162200  0.885470  0.340770  1.0  -0.0354
  C  C902  1  0.175790  0.868420  0.371320  1.0  -0.2276
  C  C903  1  0.166960  0.936220  0.297220  1.0  -0.1647
  C  C904  1  0.210680  0.935060  0.337430  1.0  -0.1312
  C  C905  1  0.679730  0.582080  0.673740  1.0  -0.1047
  C  C906  1  0.662200  0.614530  0.659230  1.0  -0.0351
  C  C907  1  0.675790  0.631580  0.628680  1.0  -0.2275
  C  C908  1  0.666960  0.563780  0.702780  1.0  -0.1668
  C  C909  1  0.710680  0.564940  0.662570  1.0  -0.1322
  C  C910  1  0.679730  0.082080  0.173740  1.0  -0.1047
  C  C911  1  0.662200  0.114530  0.159230  1.0  -0.0351
  C  C912  1  0.675790  0.131580  0.128680  1.0  -0.2275
  C  C913  1  0.666960  0.063780  0.202780  1.0  -0.1668
  C  C914  1  0.710680  0.064940  0.162570  1.0  -0.1322
  C  C915  1  0.179730  0.582080  0.173740  1.0  -0.1047
  C  C916  1  0.162200  0.614530  0.159230  1.0  -0.0351
  C  C917  1  0.175790  0.631580  0.128680  1.0  -0.2275
  C  C918  1  0.166960  0.563780  0.202780  1.0  -0.1668
  C  C919  1  0.210680  0.564940  0.162570  1.0  -0.1322
  C  C920  1  0.179730  0.082080  0.673740  1.0  -0.1047
  C  C921  1  0.162200  0.114530  0.659230  1.0  -0.0351
  C  C922  1  0.175790  0.131580  0.628680  1.0  -0.2275
  C  C923  1  0.166960  0.063780  0.702780  1.0  -0.1668
  C  C924  1  0.210680  0.064940  0.662570  1.0  -0.1322
  C  C925  1  0.320270  0.417920  0.673740  1.0  -0.1046
  C  C926  1  0.337800  0.385470  0.659230  1.0  -0.036
  C  C927  1  0.324210  0.368420  0.628680  1.0  -0.2293
  C  C928  1  0.333040  0.436220  0.702780  1.0  -0.1652
  C  C929  1  0.289320  0.435060  0.662570  1.0  -0.1312
  C  C930  1  0.320270  0.917920  0.173740  1.0  -0.1046
  C  C931  1  0.337800  0.885470  0.159230  1.0  -0.036
  C  C932  1  0.324210  0.868420  0.128680  1.0  -0.2293
  C  C933  1  0.333040  0.936220  0.202780  1.0  -0.1652
  C  C934  1  0.289320  0.935060  0.162570  1.0  -0.1312
  C  C935  1  0.820270  0.417920  0.173740  1.0  -0.1046
  C  C936  1  0.837800  0.385470  0.159230  1.0  -0.036
  C  C937  1  0.824210  0.368420  0.128680  1.0  -0.2293
  C  C938  1  0.833040  0.436220  0.202780  1.0  -0.1652
  C  C939  1  0.789320  0.435060  0.162570  1.0  -0.1312
  C  C940  1  0.820270  0.917920  0.673740  1.0  -0.1046
  C  C941  1  0.837800  0.885470  0.659230  1.0  -0.036
  C  C942  1  0.824210  0.868420  0.628680  1.0  -0.2293
  C  C943  1  0.833040  0.936220  0.702780  1.0  -0.1652
  C  C944  1  0.789320  0.935060  0.662570  1.0  -0.1312
  C  C945  1  0.326260  0.320270  0.582080  1.0  -0.0204
  C  C946  1  0.340770  0.337800  0.614530  1.0  -0.0365
  C  C947  1  0.371320  0.324210  0.631580  1.0  -0.2276
  C  C948  1  0.337430  0.289320  0.564940  1.0  -0.1306
  C  C949  1  0.326260  0.820270  0.082080  1.0  -0.0204
  C  C950  1  0.340770  0.837800  0.114530  1.0  -0.0365
  C  C951  1  0.371320  0.824210  0.131580  1.0  -0.2276
  C  C952  1  0.337430  0.789320  0.064940  1.0  -0.1306
  C  C953  1  0.826260  0.320270  0.082080  1.0  -0.0204
  C  C954  1  0.840770  0.337800  0.114530  1.0  -0.0365
  C  C955  1  0.871320  0.324210  0.131580  1.0  -0.2276
  C  C956  1  0.837430  0.289320  0.064940  1.0  -0.1306
  C  C957  1  0.826260  0.820270  0.582080  1.0  -0.0204
  C  C958  1  0.840770  0.837800  0.614530  1.0  -0.0365
  C  C959  1  0.871320  0.824210  0.631580  1.0  -0.2276
  C  C960  1  0.837430  0.789320  0.564940  1.0  -0.1306
  C  C961  1  0.326260  0.679730  0.417920  1.0  -0.0193
  C  C962  1  0.340770  0.662200  0.385470  1.0  -0.0372
  C  C963  1  0.371320  0.675790  0.368420  1.0  -0.2278
  C  C964  1  0.337430  0.710680  0.435060  1.0  -0.1299
  C  C965  1  0.326260  0.179730  0.917920  1.0  -0.0193
  C  C966  1  0.340770  0.162200  0.885470  1.0  -0.0372
  C  C967  1  0.371320  0.175790  0.868420  1.0  -0.2278
  C  C968  1  0.337430  0.210680  0.935060  1.0  -0.1299
  C  C969  1  0.826260  0.679730  0.917920  1.0  -0.0193
  C  C970  1  0.840770  0.662200  0.885470  1.0  -0.0372
  C  C971  1  0.871320  0.675790  0.868420  1.0  -0.2278
  C  C972  1  0.837430  0.710680  0.935060  1.0  -0.1299
  C  C973  1  0.826260  0.179730  0.417920  1.0  -0.0193
  C  C974  1  0.840770  0.162200  0.385470  1.0  -0.0372
  C  C975  1  0.871320  0.175790  0.368420  1.0  -0.2278
  C  C976  1  0.837430  0.210680  0.435060  1.0  -0.1299
  C  C977  1  0.673740  0.679730  0.582080  1.0  -0.0208
  C  C978  1  0.659230  0.662200  0.614530  1.0  -0.0375
  C  C979  1  0.628680  0.675790  0.631580  1.0  -0.2281
  C  C980  1  0.662570  0.710680  0.564940  1.0  -0.1296
  C  C981  1  0.673740  0.179730  0.082080  1.0  -0.0208
  C  C982  1  0.659230  0.162200  0.114530  1.0  -0.0375
  C  C983  1  0.628680  0.175790  0.131580  1.0  -0.2281
  C  C984  1  0.662570  0.210680  0.064940  1.0  -0.1296
  C  C985  1  0.173740  0.679730  0.082080  1.0  -0.0208
  C  C986  1  0.159230  0.662200  0.114530  1.0  -0.0375
  C  C987  1  0.128680  0.675790  0.131580  1.0  -0.2281
  C  C988  1  0.162570  0.710680  0.064940  1.0  -0.1296
  C  C989  1  0.173740  0.179730  0.582080  1.0  -0.0208
  C  C990  1  0.159230  0.162200  0.614530  1.0  -0.0375
  C  C991  1  0.128680  0.175790  0.631580  1.0  -0.2281
  C  C992  1  0.162570  0.210680  0.564940  1.0  -0.1296
  C  C993  1  0.673740  0.320270  0.417920  1.0  -0.0188
  C  C994  1  0.659230  0.337800  0.385470  1.0  -0.037
  C  C995  1  0.628680  0.324210  0.368420  1.0  -0.229
  C  C996  1  0.662570  0.289320  0.435060  1.0  -0.1302
  C  C997  1  0.673740  0.820270  0.917920  1.0  -0.0188
  C  C998  1  0.659230  0.837800  0.885470  1.0  -0.037
  C  C999  1  0.628680  0.824210  0.868420  1.0  -0.229
  C  C1000  1  0.662570  0.789320  0.935060  1.0  -0.1302
  C  C1001  1  0.173740  0.320270  0.917920  1.0  -0.0188
  C  C1002  1  0.159230  0.337800  0.885470  1.0  -0.037
  C  C1003  1  0.128680  0.324210  0.868420  1.0  -0.229
  C  C1004  1  0.162570  0.289320  0.935060  1.0  -0.1302
  C  C1005  1  0.173740  0.820270  0.417920  1.0  -0.0188
  C  C1006  1  0.159230  0.837800  0.385470  1.0  -0.037
  C  C1007  1  0.128680  0.824210  0.368420  1.0  -0.229
  C  C1008  1  0.162570  0.789320  0.435060  1.0  -0.1302
  C  C1009  1  0.582080  0.326260  0.320270  1.0  -0.0178
  C  C1010  1  0.614530  0.340770  0.337800  1.0  -0.0346
  C  C1011  1  0.631580  0.371320  0.324210  1.0  -0.2299
  C  C1012  1  0.564940  0.337430  0.289320  1.0  -0.1321
  C  C1013  1  0.582080  0.826260  0.820270  1.0  -0.0178
  C  C1014  1  0.614530  0.840770  0.837800  1.0  -0.0346
  C  C1015  1  0.631580  0.871320  0.824210  1.0  -0.2299
  C  C1016  1  0.564940  0.837430  0.789320  1.0  -0.1321
  C  C1017  1  0.082080  0.326260  0.820270  1.0  -0.0178
  C  C1018  1  0.114530  0.340770  0.837800  1.0  -0.0346
  C  C1019  1  0.131580  0.371320  0.824210  1.0  -0.2299
  C  C1020  1  0.064940  0.337430  0.789320  1.0  -0.1321
  C  C1021  1  0.082080  0.826260  0.320270  1.0  -0.0178
  C  C1022  1  0.114530  0.840770  0.337800  1.0  -0.0346
  C  C1023  1  0.131580  0.871320  0.324210  1.0  -0.2299
  C  C1024  1  0.064940  0.837430  0.289320  1.0  -0.1321
  C  C1025  1  0.417920  0.326260  0.679730  1.0  -0.0178
  C  C1026  1  0.385470  0.340770  0.662200  1.0  -0.035
  C  C1027  1  0.368420  0.371320  0.675790  1.0  -0.2288
  C  C1028  1  0.435060  0.337430  0.710680  1.0  -0.1334
  C  C1029  1  0.417920  0.826260  0.179730  1.0  -0.0178
  C  C1030  1  0.385470  0.840770  0.162200  1.0  -0.035
  C  C1031  1  0.368420  0.871320  0.175790  1.0  -0.2288
  C  C1032  1  0.435060  0.837430  0.210680  1.0  -0.1334
  C  C1033  1  0.917920  0.326260  0.179730  1.0  -0.0178
  C  C1034  1  0.885470  0.340770  0.162200  1.0  -0.035
  C  C1035  1  0.868420  0.371320  0.175790  1.0  -0.2288
  C  C1036  1  0.935060  0.337430  0.210680  1.0  -0.1334
  C  C1037  1  0.917920  0.826260  0.679730  1.0  -0.0178
  C  C1038  1  0.885470  0.840770  0.662200  1.0  -0.035
  C  C1039  1  0.868420  0.871320  0.675790  1.0  -0.2288
  C  C1040  1  0.935060  0.837430  0.710680  1.0  -0.1334
  C  C1041  1  0.582080  0.673740  0.679730  1.0  -0.0178
  C  C1042  1  0.614530  0.659230  0.662200  1.0  -0.0352
  C  C1043  1  0.631580  0.628680  0.675790  1.0  -0.2307
  C  C1044  1  0.564940  0.662570  0.710680  1.0  -0.1316
  C  C1045  1  0.582080  0.173740  0.179730  1.0  -0.0178
  C  C1046  1  0.614530  0.159230  0.162200  1.0  -0.0352
  C  C1047  1  0.631580  0.128680  0.175790  1.0  -0.2307
  C  C1048  1  0.564940  0.162570  0.210680  1.0  -0.1316
  C  C1049  1  0.082080  0.673740  0.179730  1.0  -0.0178
  C  C1050  1  0.114530  0.659230  0.162200  1.0  -0.0352
  C  C1051  1  0.131580  0.628680  0.175790  1.0  -0.2307
  C  C1052  1  0.064940  0.662570  0.210680  1.0  -0.1316
  C  C1053  1  0.082080  0.173740  0.679730  1.0  -0.0178
  C  C1054  1  0.114530  0.159230  0.662200  1.0  -0.0352
  C  C1055  1  0.131580  0.128680  0.675790  1.0  -0.2307
  C  C1056  1  0.064940  0.162570  0.710680  1.0  -0.1316
  C  C1057  1  0.417920  0.673740  0.320270  1.0  -0.0183
  C  C1058  1  0.385470  0.659230  0.337800  1.0  -0.0354
  C  C1059  1  0.368420  0.628680  0.324210  1.0  -0.2293
  C  C1060  1  0.435060  0.662570  0.289320  1.0  -0.1314
  C  C1061  1  0.417920  0.173740  0.820270  1.0  -0.0183
  C  C1062  1  0.385470  0.159230  0.837800  1.0  -0.0354
  C  C1063  1  0.368420  0.128680  0.824210  1.0  -0.2293
  C  C1064  1  0.435060  0.162570  0.789320  1.0  -0.1314
  C  C1065  1  0.917920  0.673740  0.820270  1.0  -0.0183
  C  C1066  1  0.885470  0.659230  0.837800  1.0  -0.0354
  C  C1067  1  0.868420  0.628680  0.824210  1.0  -0.2293
  C  C1068  1  0.935060  0.662570  0.789320  1.0  -0.1314
  C  C1069  1  0.917920  0.173740  0.320270  1.0  -0.0183
  C  C1070  1  0.885470  0.159230  0.337800  1.0  -0.0354
  C  C1071  1  0.868420  0.128680  0.324210  1.0  -0.2293
  C  C1072  1  0.935060  0.162570  0.289320  1.0  -0.1314
  C  C1073  1  0.082080  0.820270  0.173740  1.0  -0.1027
  C  C1074  1  0.114530  0.837800  0.159230  1.0  -0.0349
  C  C1075  1  0.131580  0.824210  0.128680  1.0  -0.2287
  C  C1076  1  0.063780  0.833040  0.202780  1.0  -0.1643
  C  C1077  1  0.064940  0.789320  0.162570  1.0  -0.1314
  C  C1078  1  0.082080  0.320270  0.673740  1.0  -0.1027
  C  C1079  1  0.114530  0.337800  0.659230  1.0  -0.0349
  C  C1080  1  0.131580  0.324210  0.628680  1.0  -0.2287
  C  C1081  1  0.063780  0.333040  0.702780  1.0  -0.1643
  C  C1082  1  0.064940  0.289320  0.662570  1.0  -0.1314
  C  C1083  1  0.582080  0.820270  0.673740  1.0  -0.1027
  C  C1084  1  0.614530  0.837800  0.659230  1.0  -0.0349
  C  C1085  1  0.631580  0.824210  0.628680  1.0  -0.2287
  C  C1086  1  0.563780  0.833040  0.702780  1.0  -0.1643
  C  C1087  1  0.564940  0.789320  0.662570  1.0  -0.1314
  C  C1088  1  0.582080  0.320270  0.173740  1.0  -0.1027
  C  C1089  1  0.614530  0.337800  0.159230  1.0  -0.0349
  C  C1090  1  0.631580  0.324210  0.128680  1.0  -0.2287
  C  C1091  1  0.563780  0.333040  0.202780  1.0  -0.1643
  C  C1092  1  0.564940  0.289320  0.162570  1.0  -0.1314
  C  C1093  1  0.917920  0.179730  0.173740  1.0  -0.1034
  C  C1094  1  0.885470  0.162200  0.159230  1.0  -0.0358
  C  C1095  1  0.868420  0.175790  0.128680  1.0  -0.2277
  C  C1096  1  0.936220  0.166960  0.202780  1.0  -0.1643
  C  C1097  1  0.935060  0.210680  0.162570  1.0  -0.1313
  C  C1098  1  0.917920  0.679730  0.673740  1.0  -0.1034
  C  C1099  1  0.885470  0.662200  0.659230  1.0  -0.0358
  C  C1100  1  0.868420  0.675790  0.628680  1.0  -0.2277
  C  C1101  1  0.936220  0.666960  0.702780  1.0  -0.1643
  C  C1102  1  0.935060  0.710680  0.662570  1.0  -0.1313
  C  C1103  1  0.417920  0.179730  0.673740  1.0  -0.1034
  C  C1104  1  0.385470  0.162200  0.659230  1.0  -0.0358
  C  C1105  1  0.368420  0.175790  0.628680  1.0  -0.2277
  C  C1106  1  0.436220  0.166960  0.702780  1.0  -0.1643
  C  C1107  1  0.435060  0.210680  0.662570  1.0  -0.1313
  C  C1108  1  0.417920  0.679730  0.173740  1.0  -0.1034
  C  C1109  1  0.385470  0.662200  0.159230  1.0  -0.0358
  C  C1110  1  0.368420  0.675790  0.128680  1.0  -0.2277
  C  C1111  1  0.436220  0.666960  0.202780  1.0  -0.1643
  C  C1112  1  0.435060  0.710680  0.162570  1.0  -0.1313
  C  C1113  1  0.082080  0.179730  0.826260  1.0  -0.1041
  C  C1114  1  0.114530  0.162200  0.840770  1.0  -0.0355
  C  C1115  1  0.131580  0.175790  0.871320  1.0  -0.2293
  C  C1116  1  0.063780  0.166960  0.797220  1.0  -0.1639
  C  C1117  1  0.064940  0.210680  0.837430  1.0  -0.1302
  C  C1118  1  0.082080  0.679730  0.326260  1.0  -0.1041
  C  C1119  1  0.114530  0.662200  0.340770  1.0  -0.0355
  C  C1120  1  0.131580  0.675790  0.371320  1.0  -0.2293
  C  C1121  1  0.063780  0.666960  0.297220  1.0  -0.1639
  C  C1122  1  0.064940  0.710680  0.337430  1.0  -0.1302
  C  C1123  1  0.582080  0.179730  0.326260  1.0  -0.1041
  C  C1124  1  0.614530  0.162200  0.340770  1.0  -0.0355
  C  C1125  1  0.631580  0.175790  0.371320  1.0  -0.2293
  C  C1126  1  0.563780  0.166960  0.297220  1.0  -0.1639
  C  C1127  1  0.564940  0.210680  0.337430  1.0  -0.1302
  C  C1128  1  0.582080  0.679730  0.826260  1.0  -0.1041
  C  C1129  1  0.614530  0.662200  0.840770  1.0  -0.0355
  C  C1130  1  0.631580  0.675790  0.871320  1.0  -0.2293
  C  C1131  1  0.563780  0.666960  0.797220  1.0  -0.1639
  C  C1132  1  0.564940  0.710680  0.837430  1.0  -0.1302
  C  C1133  1  0.917920  0.820270  0.826260  1.0  -0.1039
  C  C1134  1  0.885470  0.837800  0.840770  1.0  -0.0352
  C  C1135  1  0.868420  0.824210  0.871320  1.0  -0.2287
  C  C1136  1  0.936220  0.833040  0.797220  1.0  -0.1629
  C  C1137  1  0.935060  0.789320  0.837430  1.0  -0.1314
  C  C1138  1  0.917920  0.320270  0.326260  1.0  -0.1039
  C  C1139  1  0.885470  0.337800  0.340770  1.0  -0.0352
  C  C1140  1  0.868420  0.324210  0.371320  1.0  -0.2287
  C  C1141  1  0.936220  0.333040  0.297220  1.0  -0.1629
  C  C1142  1  0.935060  0.289320  0.337430  1.0  -0.1314
  C  C1143  1  0.417920  0.820270  0.326260  1.0  -0.1039
  C  C1144  1  0.385470  0.837800  0.340770  1.0  -0.0352
  C  C1145  1  0.368420  0.824210  0.371320  1.0  -0.2287
  C  C1146  1  0.436220  0.833040  0.297220  1.0  -0.1629
  C  C1147  1  0.435060  0.789320  0.337430  1.0  -0.1314
  C  C1148  1  0.417920  0.320270  0.826260  1.0  -0.1039
  C  C1149  1  0.385470  0.337800  0.840770  1.0  -0.0352
  C  C1150  1  0.368420  0.324210  0.871320  1.0  -0.2287
  C  C1151  1  0.436220  0.333040  0.797220  1.0  -0.1629
  C  C1152  1  0.435060  0.289320  0.837430  1.0  -0.1314
  C  C1153  1  0.820270  0.826260  0.917920  1.0  -0.0192
  C  C1154  1  0.837800  0.840770  0.885470  1.0  -0.0367
  C  C1155  1  0.824210  0.871320  0.868420  1.0  -0.2296
  C  C1156  1  0.789320  0.837430  0.935060  1.0  -0.1325
  C  C1157  1  0.820270  0.326260  0.417920  1.0  -0.0192
  C  C1158  1  0.837800  0.340770  0.385470  1.0  -0.0367
  C  C1159  1  0.824210  0.371320  0.368420  1.0  -0.2296
  C  C1160  1  0.789320  0.337430  0.435060  1.0  -0.1325
  C  C1161  1  0.320270  0.826260  0.417920  1.0  -0.0192
  C  C1162  1  0.337800  0.840770  0.385470  1.0  -0.0367
  C  C1163  1  0.324210  0.871320  0.368420  1.0  -0.2296
  C  C1164  1  0.289320  0.837430  0.435060  1.0  -0.1325
  C  C1165  1  0.320270  0.326260  0.917920  1.0  -0.0192
  C  C1166  1  0.337800  0.340770  0.885470  1.0  -0.0367
  C  C1167  1  0.324210  0.371320  0.868420  1.0  -0.2296
  C  C1168  1  0.289320  0.337430  0.935060  1.0  -0.1325
  C  C1169  1  0.179730  0.826260  0.082080  1.0  -0.0206
  C  C1170  1  0.162200  0.840770  0.114530  1.0  -0.0356
  C  C1171  1  0.175790  0.871320  0.131580  1.0  -0.2272
  C  C1172  1  0.210680  0.837430  0.064940  1.0  -0.1326
  C  C1173  1  0.179730  0.326260  0.582080  1.0  -0.0206
  C  C1174  1  0.162200  0.340770  0.614530  1.0  -0.0356
  C  C1175  1  0.175790  0.371320  0.631580  1.0  -0.2272
  C  C1176  1  0.210680  0.337430  0.564940  1.0  -0.1326
  C  C1177  1  0.679730  0.826260  0.582080  1.0  -0.0206
  C  C1178  1  0.662200  0.840770  0.614530  1.0  -0.0356
  C  C1179  1  0.675790  0.871320  0.631580  1.0  -0.2272
  C  C1180  1  0.710680  0.837430  0.564940  1.0  -0.1326
  C  C1181  1  0.679730  0.326260  0.082080  1.0  -0.0206
  C  C1182  1  0.662200  0.340770  0.114530  1.0  -0.0356
  C  C1183  1  0.675790  0.371320  0.131580  1.0  -0.2272
  C  C1184  1  0.710680  0.337430  0.064940  1.0  -0.1326
  C  C1185  1  0.179730  0.173740  0.917920  1.0  -0.0196
  C  C1186  1  0.162200  0.159230  0.885470  1.0  -0.0363
  C  C1187  1  0.175790  0.128680  0.868420  1.0  -0.2277
  C  C1188  1  0.210680  0.162570  0.935060  1.0  -0.1315
  C  C1189  1  0.179730  0.673740  0.417920  1.0  -0.0196
  C  C1190  1  0.162200  0.659230  0.385470  1.0  -0.0363
  C  C1191  1  0.175790  0.628680  0.368420  1.0  -0.2277
  C  C1192  1  0.210680  0.662570  0.435060  1.0  -0.1315
  C  C1193  1  0.679730  0.173740  0.417920  1.0  -0.0196
  C  C1194  1  0.662200  0.159230  0.385470  1.0  -0.0363
  C  C1195  1  0.675790  0.128680  0.368420  1.0  -0.2277
  C  C1196  1  0.710680  0.162570  0.435060  1.0  -0.1315
  C  C1197  1  0.679730  0.673740  0.917920  1.0  -0.0196
  C  C1198  1  0.662200  0.659230  0.885470  1.0  -0.0363
  C  C1199  1  0.675790  0.628680  0.868420  1.0  -0.2277
  C  C1200  1  0.710680  0.662570  0.935060  1.0  -0.1315
  C  C1201  1  0.820270  0.173740  0.082080  1.0  -0.0212
  C  C1202  1  0.837800  0.159230  0.114530  1.0  -0.0369
  C  C1203  1  0.824210  0.128680  0.131580  1.0  -0.2296
  C  C1204  1  0.789320  0.162570  0.064940  1.0  -0.1313
  C  C1205  1  0.820270  0.673740  0.582080  1.0  -0.0212
  C  C1206  1  0.837800  0.659230  0.614530  1.0  -0.0369
  C  C1207  1  0.824210  0.628680  0.631580  1.0  -0.2296
  C  C1208  1  0.789320  0.662570  0.564940  1.0  -0.1313
  C  C1209  1  0.320270  0.173740  0.582080  1.0  -0.0212
  C  C1210  1  0.337800  0.159230  0.614530  1.0  -0.0369
  C  C1211  1  0.324210  0.128680  0.631580  1.0  -0.2296
  C  C1212  1  0.289320  0.162570  0.564940  1.0  -0.1313
  C  C1213  1  0.320270  0.673740  0.082080  1.0  -0.0212
  C  C1214  1  0.337800  0.659230  0.114530  1.0  -0.0369
  C  C1215  1  0.324210  0.628680  0.131580  1.0  -0.2296
  C  C1216  1  0.289320  0.662570  0.064940  1.0  -0.1313
  C  C1217  1  0.826260  0.082080  0.179730  1.0  -0.0195
  C  C1218  1  0.840770  0.114530  0.162200  1.0  -0.0359
  C  C1219  1  0.871320  0.131580  0.175790  1.0  -0.2289
  C  C1220  1  0.837430  0.064940  0.210680  1.0  -0.1309
  C  C1221  1  0.826260  0.582080  0.679730  1.0  -0.0195
  C  C1222  1  0.840770  0.614530  0.662200  1.0  -0.0359
  C  C1223  1  0.871320  0.631580  0.675790  1.0  -0.2289
  C  C1224  1  0.837430  0.564940  0.710680  1.0  -0.1309
  C  C1225  1  0.326260  0.082080  0.679730  1.0  -0.0195
  C  C1226  1  0.340770  0.114530  0.662200  1.0  -0.0359
  C  C1227  1  0.371320  0.131580  0.675790  1.0  -0.2289
  C  C1228  1  0.337430  0.064940  0.710680  1.0  -0.1309
  C  C1229  1  0.326260  0.582080  0.179730  1.0  -0.0195
  C  C1230  1  0.340770  0.614530  0.162200  1.0  -0.0359
  C  C1231  1  0.371320  0.631580  0.175790  1.0  -0.2289
  C  C1232  1  0.337430  0.564940  0.210680  1.0  -0.1309
  C  C1233  1  0.826260  0.917920  0.820270  1.0  -0.0189
  C  C1234  1  0.840770  0.885470  0.837800  1.0  -0.0358
  C  C1235  1  0.871320  0.868420  0.824210  1.0  -0.2288
  C  C1236  1  0.837430  0.935060  0.789320  1.0  -0.1306
  C  C1237  1  0.826260  0.417920  0.320270  1.0  -0.0189
  C  C1238  1  0.840770  0.385470  0.337800  1.0  -0.0358
  C  C1239  1  0.871320  0.368420  0.324210  1.0  -0.2288
  C  C1240  1  0.837430  0.435060  0.289320  1.0  -0.1306
  C  C1241  1  0.326260  0.917920  0.320270  1.0  -0.0189
  C  C1242  1  0.340770  0.885470  0.337800  1.0  -0.0358
  C  C1243  1  0.371320  0.868420  0.324210  1.0  -0.2288
  C  C1244  1  0.337430  0.935060  0.289320  1.0  -0.1306
  C  C1245  1  0.326260  0.417920  0.820270  1.0  -0.0189
  C  C1246  1  0.340770  0.385470  0.837800  1.0  -0.0358
  C  C1247  1  0.371320  0.368420  0.824210  1.0  -0.2288
  C  C1248  1  0.337430  0.435060  0.789320  1.0  -0.1306
  C  C1249  1  0.173740  0.082080  0.820270  1.0  -0.0196
  C  C1250  1  0.159230  0.114530  0.837800  1.0  -0.0357
  C  C1251  1  0.128680  0.131580  0.824210  1.0  -0.2297
  C  C1252  1  0.162570  0.064940  0.789320  1.0  -0.1305
  C  C1253  1  0.173740  0.582080  0.320270  1.0  -0.0196
  C  C1254  1  0.159230  0.614530  0.337800  1.0  -0.0357
  C  C1255  1  0.128680  0.631580  0.324210  1.0  -0.2297
  C  C1256  1  0.162570  0.564940  0.289320  1.0  -0.1305
  C  C1257  1  0.673740  0.082080  0.320270  1.0  -0.0196
  C  C1258  1  0.659230  0.114530  0.337800  1.0  -0.0357
  C  C1259  1  0.628680  0.131580  0.324210  1.0  -0.2297
  C  C1260  1  0.662570  0.064940  0.289320  1.0  -0.1305
  C  C1261  1  0.673740  0.582080  0.820270  1.0  -0.0196
  C  C1262  1  0.659230  0.614530  0.837800  1.0  -0.0357
  C  C1263  1  0.628680  0.631580  0.824210  1.0  -0.2297
  C  C1264  1  0.662570  0.564940  0.789320  1.0  -0.1305
  C  C1265  1  0.173740  0.917920  0.179730  1.0  -0.019
  C  C1266  1  0.159230  0.885470  0.162200  1.0  -0.0362
  C  C1267  1  0.128680  0.868420  0.175790  1.0  -0.2294
  C  C1268  1  0.162570  0.935060  0.210680  1.0  -0.1309
  C  C1269  1  0.173740  0.417920  0.679730  1.0  -0.019
  C  C1270  1  0.159230  0.385470  0.662200  1.0  -0.0362
  C  C1271  1  0.128680  0.368420  0.675790  1.0  -0.2294
  C  C1272  1  0.162570  0.435060  0.710680  1.0  -0.1309
  C  C1273  1  0.673740  0.917920  0.679730  1.0  -0.019
  C  C1274  1  0.659230  0.885470  0.662200  1.0  -0.0362
  C  C1275  1  0.628680  0.868420  0.675790  1.0  -0.2294
  C  C1276  1  0.662570  0.935060  0.710680  1.0  -0.1309
  C  C1277  1  0.673740  0.417920  0.179730  1.0  -0.019
  C  C1278  1  0.659230  0.385470  0.162200  1.0  -0.0362
  C  C1279  1  0.628680  0.368420  0.175790  1.0  -0.2294
  C  C1280  1  0.662570  0.435060  0.210680  1.0  -0.1309
  C  C1281  1  0.679730  0.417920  0.673740  1.0  -0.1042
  C  C1282  1  0.662200  0.385470  0.659230  1.0  -0.0353
  C  C1283  1  0.675790  0.368420  0.628680  1.0  -0.2272
  C  C1284  1  0.666960  0.436220  0.702780  1.0  -0.1654
  C  C1285  1  0.710680  0.435060  0.662570  1.0  -0.1315
  C  C1286  1  0.679730  0.917920  0.173740  1.0  -0.1042
  C  C1287  1  0.662200  0.885470  0.159230  1.0  -0.0353
  C  C1288  1  0.675790  0.868420  0.128680  1.0  -0.2272
  C  C1289  1  0.666960  0.936220  0.202780  1.0  -0.1654
  C  C1290  1  0.710680  0.935060  0.162570  1.0  -0.1315
  C  C1291  1  0.179730  0.417920  0.173740  1.0  -0.1042
  C  C1292  1  0.162200  0.385470  0.159230  1.0  -0.0353
  C  C1293  1  0.175790  0.368420  0.128680  1.0  -0.2272
  C  C1294  1  0.166960  0.436220  0.202780  1.0  -0.1654
  C  C1295  1  0.210680  0.435060  0.162570  1.0  -0.1315
  C  C1296  1  0.179730  0.917920  0.673740  1.0  -0.1042
  C  C1297  1  0.162200  0.885470  0.659230  1.0  -0.0353
  C  C1298  1  0.175790  0.868420  0.628680  1.0  -0.2272
  C  C1299  1  0.166960  0.936220  0.702780  1.0  -0.1654
  C  C1300  1  0.210680  0.935060  0.662570  1.0  -0.1315
  C  C1301  1  0.320270  0.582080  0.673740  1.0  -0.1056
  C  C1302  1  0.337800  0.614530  0.659230  1.0  -0.0359
  C  C1303  1  0.324210  0.631580  0.628680  1.0  -0.2298
  C  C1304  1  0.333040  0.563780  0.702780  1.0  -0.1659
  C  C1305  1  0.289320  0.564940  0.662570  1.0  -0.1315
  C  C1306  1  0.320270  0.082080  0.173740  1.0  -0.1056
  C  C1307  1  0.337800  0.114530  0.159230  1.0  -0.0359
  C  C1308  1  0.324210  0.131580  0.128680  1.0  -0.2298
  C  C1309  1  0.333040  0.063780  0.202780  1.0  -0.1659
  C  C1310  1  0.289320  0.064940  0.162570  1.0  -0.1315
  C  C1311  1  0.820270  0.582080  0.173740  1.0  -0.1056
  C  C1312  1  0.837800  0.614530  0.159230  1.0  -0.0359
  C  C1313  1  0.824210  0.631580  0.128680  1.0  -0.2298
  C  C1314  1  0.833040  0.563780  0.202780  1.0  -0.1659
  C  C1315  1  0.789320  0.564940  0.162570  1.0  -0.1315
  C  C1316  1  0.820270  0.082080  0.673740  1.0  -0.1056
  C  C1317  1  0.837800  0.114530  0.659230  1.0  -0.0359
  C  C1318  1  0.824210  0.131580  0.628680  1.0  -0.2298
  C  C1319  1  0.833040  0.063780  0.702780  1.0  -0.1659
  C  C1320  1  0.789320  0.064940  0.662570  1.0  -0.1315
  C  C1321  1  0.320270  0.417920  0.326260  1.0  -0.1058
  C  C1322  1  0.337800  0.385470  0.340770  1.0  -0.0362
  C  C1323  1  0.324210  0.368420  0.371320  1.0  -0.2298
  C  C1324  1  0.333040  0.436220  0.297220  1.0  -0.1642
  C  C1325  1  0.289320  0.435060  0.337430  1.0  -0.1313
  C  C1326  1  0.320270  0.917920  0.826260  1.0  -0.1058
  C  C1327  1  0.337800  0.885470  0.840770  1.0  -0.0362
  C  C1328  1  0.324210  0.868420  0.871320  1.0  -0.2298
  C  C1329  1  0.333040  0.936220  0.797220  1.0  -0.1642
  C  C1330  1  0.289320  0.935060  0.837430  1.0  -0.1313
  C  C1331  1  0.820270  0.417920  0.826260  1.0  -0.1058
  C  C1332  1  0.837800  0.385470  0.840770  1.0  -0.0362
  C  C1333  1  0.824210  0.368420  0.871320  1.0  -0.2298
  C  C1334  1  0.833040  0.436220  0.797220  1.0  -0.1642
  C  C1335  1  0.789320  0.435060  0.837430  1.0  -0.1313
  C  C1336  1  0.820270  0.917920  0.326260  1.0  -0.1058
  C  C1337  1  0.837800  0.885470  0.340770  1.0  -0.0362
  C  C1338  1  0.824210  0.868420  0.371320  1.0  -0.2298
  C  C1339  1  0.833040  0.936220  0.297220  1.0  -0.1642
  C  C1340  1  0.789320  0.935060  0.337430  1.0  -0.1313
  C  C1341  1  0.679730  0.582080  0.326260  1.0  -0.1061
  C  C1342  1  0.662200  0.614530  0.340770  1.0  -0.0351
  C  C1343  1  0.675790  0.631580  0.371320  1.0  -0.228
  C  C1344  1  0.666960  0.563780  0.297220  1.0  -0.1662
  C  C1345  1  0.710680  0.564940  0.337430  1.0  -0.1315
  C  C1346  1  0.679730  0.082080  0.826260  1.0  -0.1061
  C  C1347  1  0.662200  0.114530  0.840770  1.0  -0.0351
  C  C1348  1  0.675790  0.131580  0.871320  1.0  -0.228
  C  C1349  1  0.666960  0.063780  0.797220  1.0  -0.1662
  C  C1350  1  0.710680  0.064940  0.837430  1.0  -0.1315
  C  C1351  1  0.179730  0.582080  0.826260  1.0  -0.1061
  C  C1352  1  0.162200  0.614530  0.840770  1.0  -0.0351
  C  C1353  1  0.175790  0.631580  0.871320  1.0  -0.228
  C  C1354  1  0.166960  0.563780  0.797220  1.0  -0.1662
  C  C1355  1  0.210680  0.564940  0.837430  1.0  -0.1315
  C  C1356  1  0.179730  0.082080  0.326260  1.0  -0.1061
  C  C1357  1  0.162200  0.114530  0.340770  1.0  -0.0351
  C  C1358  1  0.175790  0.131580  0.371320  1.0  -0.228
  C  C1359  1  0.166960  0.063780  0.297220  1.0  -0.1662
  C  C1360  1  0.210680  0.064940  0.337430  1.0  -0.1315
  C  C1361  1  0.673740  0.679730  0.417920  1.0  -0.0194
  C  C1362  1  0.659230  0.662200  0.385470  1.0  -0.0375
  C  C1363  1  0.628680  0.675790  0.368420  1.0  -0.2282
  C  C1364  1  0.662570  0.710680  0.435060  1.0  -0.1295
  C  C1365  1  0.673740  0.179730  0.917920  1.0  -0.0194
  C  C1366  1  0.659230  0.162200  0.885470  1.0  -0.0375
  C  C1367  1  0.628680  0.175790  0.868420  1.0  -0.2282
  C  C1368  1  0.662570  0.210680  0.935060  1.0  -0.1295
  C  C1369  1  0.173740  0.679730  0.917920  1.0  -0.0194
  C  C1370  1  0.159230  0.662200  0.885470  1.0  -0.0375
  C  C1371  1  0.128680  0.675790  0.868420  1.0  -0.2282
  C  C1372  1  0.162570  0.710680  0.935060  1.0  -0.1295
  C  C1373  1  0.173740  0.179730  0.417920  1.0  -0.0194
  C  C1374  1  0.159230  0.162200  0.385470  1.0  -0.0375
  C  C1375  1  0.128680  0.175790  0.368420  1.0  -0.2282
  C  C1376  1  0.162570  0.210680  0.435060  1.0  -0.1295
  C  C1377  1  0.673740  0.320270  0.582080  1.0  -0.0204
  C  C1378  1  0.659230  0.337800  0.614530  1.0  -0.037
  C  C1379  1  0.628680  0.324210  0.631580  1.0  -0.2285
  C  C1380  1  0.662570  0.289320  0.564940  1.0  -0.1304
  C  C1381  1  0.673740  0.820270  0.082080  1.0  -0.0204
  C  C1382  1  0.659230  0.837800  0.114530  1.0  -0.037
  C  C1383  1  0.628680  0.824210  0.131580  1.0  -0.2285
  C  C1384  1  0.662570  0.789320  0.064940  1.0  -0.1304
  C  C1385  1  0.173740  0.320270  0.082080  1.0  -0.0204
  C  C1386  1  0.159230  0.337800  0.114530  1.0  -0.037
  C  C1387  1  0.128680  0.324210  0.131580  1.0  -0.2285
  C  C1388  1  0.162570  0.289320  0.064940  1.0  -0.1304
  C  C1389  1  0.173740  0.820270  0.582080  1.0  -0.0204
  C  C1390  1  0.159230  0.837800  0.614530  1.0  -0.037
  C  C1391  1  0.128680  0.824210  0.631580  1.0  -0.2285
  C  C1392  1  0.162570  0.789320  0.564940  1.0  -0.1304
  C  C1393  1  0.326260  0.320270  0.417920  1.0  -0.0187
  C  C1394  1  0.340770  0.337800  0.385470  1.0  -0.0367
  C  C1395  1  0.371320  0.324210  0.368420  1.0  -0.228
  C  C1396  1  0.337430  0.289320  0.435060  1.0  -0.1305
  C  C1397  1  0.326260  0.820270  0.917920  1.0  -0.0187
  C  C1398  1  0.340770  0.837800  0.885470  1.0  -0.0367
  C  C1399  1  0.371320  0.824210  0.868420  1.0  -0.228
  C  C1400  1  0.337430  0.789320  0.935060  1.0  -0.1305
  C  C1401  1  0.826260  0.320270  0.917920  1.0  -0.0187
  C  C1402  1  0.840770  0.337800  0.885470  1.0  -0.0367
  C  C1403  1  0.871320  0.324210  0.868420  1.0  -0.228
  C  C1404  1  0.837430  0.289320  0.935060  1.0  -0.1305
  C  C1405  1  0.826260  0.820270  0.417920  1.0  -0.0187
  C  C1406  1  0.840770  0.837800  0.385470  1.0  -0.0367
  C  C1407  1  0.871320  0.824210  0.368420  1.0  -0.228
  C  C1408  1  0.837430  0.789320  0.435060  1.0  -0.1305
  C  C1409  1  0.326260  0.679730  0.582080  1.0  -0.0206
  C  C1410  1  0.340770  0.662200  0.614530  1.0  -0.0371
  C  C1411  1  0.371320  0.675790  0.631580  1.0  -0.2277
  C  C1412  1  0.337430  0.710680  0.564940  1.0  -0.1299
  C  C1413  1  0.326260  0.179730  0.082080  1.0  -0.0206
  C  C1414  1  0.340770  0.162200  0.114530  1.0  -0.0371
  C  C1415  1  0.371320  0.175790  0.131580  1.0  -0.2277
  C  C1416  1  0.337430  0.210680  0.064940  1.0  -0.1299
  C  C1417  1  0.826260  0.679730  0.082080  1.0  -0.0206
  C  C1418  1  0.840770  0.662200  0.114530  1.0  -0.0371
  C  C1419  1  0.871320  0.675790  0.131580  1.0  -0.2277
  C  C1420  1  0.837430  0.710680  0.064940  1.0  -0.1299
  C  C1421  1  0.826260  0.179730  0.582080  1.0  -0.0206
  C  C1422  1  0.840770  0.162200  0.614530  1.0  -0.0371
  C  C1423  1  0.871320  0.175790  0.631580  1.0  -0.2277
  C  C1424  1  0.837430  0.210680  0.564940  1.0  -0.1299
  C  C1425  1  0.417920  0.673740  0.679730  1.0  -0.0183
  C  C1426  1  0.385470  0.659230  0.662200  1.0  -0.0357
  C  C1427  1  0.368420  0.628680  0.675790  1.0  -0.2293
  C  C1428  1  0.435060  0.662570  0.710680  1.0  -0.1319
  C  C1429  1  0.417920  0.173740  0.179730  1.0  -0.0183
  C  C1430  1  0.385470  0.159230  0.162200  1.0  -0.0357
  C  C1431  1  0.368420  0.128680  0.175790  1.0  -0.2293
  C  C1432  1  0.435060  0.162570  0.210680  1.0  -0.1319
  C  C1433  1  0.917920  0.673740  0.179730  1.0  -0.0183
  C  C1434  1  0.885470  0.659230  0.162200  1.0  -0.0357
  C  C1435  1  0.868420  0.628680  0.175790  1.0  -0.2293
  C  C1436  1  0.935060  0.662570  0.210680  1.0  -0.1319
  C  C1437  1  0.917920  0.173740  0.679730  1.0  -0.0183
  C  C1438  1  0.885470  0.159230  0.662200  1.0  -0.0357
  C  C1439  1  0.868420  0.128680  0.675790  1.0  -0.2293
  C  C1440  1  0.935060  0.162570  0.710680  1.0  -0.1319
  C  C1441  1  0.582080  0.673740  0.320270  1.0  -0.018
  C  C1442  1  0.614530  0.659230  0.337800  1.0  -0.035
  C  C1443  1  0.631580  0.628680  0.324210  1.0  -0.2307
  C  C1444  1  0.564940  0.662570  0.289320  1.0  -0.1312
  C  C1445  1  0.582080  0.173740  0.820270  1.0  -0.018
  C  C1446  1  0.614530  0.159230  0.837800  1.0  -0.035
  C  C1447  1  0.631580  0.128680  0.824210  1.0  -0.2307
  C  C1448  1  0.564940  0.162570  0.789320  1.0  -0.1312
  C  C1449  1  0.082080  0.673740  0.820270  1.0  -0.018
  C  C1450  1  0.114530  0.659230  0.837800  1.0  -0.035
  C  C1451  1  0.131580  0.628680  0.824210  1.0  -0.2307
  C  C1452  1  0.064940  0.662570  0.789320  1.0  -0.1312
  C  C1453  1  0.082080  0.173740  0.320270  1.0  -0.018
  C  C1454  1  0.114530  0.159230  0.337800  1.0  -0.035
  C  C1455  1  0.131580  0.128680  0.324210  1.0  -0.2307
  C  C1456  1  0.064940  0.162570  0.289320  1.0  -0.1312
  C  C1457  1  0.417920  0.326260  0.320270  1.0  -0.0177
  C  C1458  1  0.385470  0.340770  0.337800  1.0  -0.0347
  C  C1459  1  0.368420  0.371320  0.324210  1.0  -0.2288
  C  C1460  1  0.435060  0.337430  0.289320  1.0  -0.1326
  C  C1461  1  0.417920  0.826260  0.820270  1.0  -0.0177
  C  C1462  1  0.385470  0.840770  0.837800  1.0  -0.0347
  C  C1463  1  0.368420  0.871320  0.824210  1.0  -0.2288
  C  C1464  1  0.435060  0.837430  0.789320  1.0  -0.1326
  C  C1465  1  0.917920  0.326260  0.820270  1.0  -0.0177
  C  C1466  1  0.885470  0.340770  0.837800  1.0  -0.0347
  C  C1467  1  0.868420  0.371320  0.824210  1.0  -0.2288
  C  C1468  1  0.935060  0.337430  0.789320  1.0  -0.1326
  C  C1469  1  0.917920  0.826260  0.320270  1.0  -0.0177
  C  C1470  1  0.885470  0.840770  0.337800  1.0  -0.0347
  C  C1471  1  0.868420  0.871320  0.324210  1.0  -0.2288
  C  C1472  1  0.935060  0.837430  0.289320  1.0  -0.1326
  C  C1473  1  0.582080  0.326260  0.679730  1.0  -0.0174
  C  C1474  1  0.614530  0.340770  0.662200  1.0  -0.0347
  C  C1475  1  0.631580  0.371320  0.675790  1.0  -0.2301
  C  C1476  1  0.564940  0.337430  0.710680  1.0  -0.1327
  C  C1477  1  0.582080  0.826260  0.179730  1.0  -0.0174
  C  C1478  1  0.614530  0.840770  0.162200  1.0  -0.0347
  C  C1479  1  0.631580  0.871320  0.175790  1.0  -0.2301
  C  C1480  1  0.564940  0.837430  0.210680  1.0  -0.1327
  C  C1481  1  0.082080  0.326260  0.179730  1.0  -0.0174
  C  C1482  1  0.114530  0.340770  0.162200  1.0  -0.0347
  C  C1483  1  0.131580  0.371320  0.175790  1.0  -0.2301
  C  C1484  1  0.064940  0.337430  0.210680  1.0  -0.1327
  C  C1485  1  0.082080  0.826260  0.679730  1.0  -0.0174
  C  C1486  1  0.114530  0.840770  0.662200  1.0  -0.0347
  C  C1487  1  0.131580  0.871320  0.675790  1.0  -0.2301
  C  C1488  1  0.064940  0.837430  0.710680  1.0  -0.1327
  C  C1489  1  0.917920  0.179730  0.826260  1.0  -0.1043
  C  C1490  1  0.885470  0.162200  0.840770  1.0  -0.0359
  C  C1491  1  0.868420  0.175790  0.871320  1.0  -0.2283
  C  C1492  1  0.936220  0.166960  0.797220  1.0  -0.1635
  C  C1493  1  0.935060  0.210680  0.837430  1.0  -0.1307
  C  C1494  1  0.917920  0.679730  0.326260  1.0  -0.1043
  C  C1495  1  0.885470  0.662200  0.340770  1.0  -0.0359
  C  C1496  1  0.868420  0.675790  0.371320  1.0  -0.2283
  C  C1497  1  0.936220  0.666960  0.297220  1.0  -0.1635
  C  C1498  1  0.935060  0.710680  0.337430  1.0  -0.1307
  C  C1499  1  0.417920  0.179730  0.326260  1.0  -0.1043
  C  C1500  1  0.385470  0.162200  0.340770  1.0  -0.0359
  C  C1501  1  0.368420  0.175790  0.371320  1.0  -0.2283
  C  C1502  1  0.436220  0.166960  0.297220  1.0  -0.1635
  C  C1503  1  0.435060  0.210680  0.337430  1.0  -0.1307
  C  C1504  1  0.417920  0.679730  0.826260  1.0  -0.1043
  C  C1505  1  0.385470  0.662200  0.840770  1.0  -0.0359
  C  C1506  1  0.368420  0.675790  0.871320  1.0  -0.2283
  C  C1507  1  0.436220  0.666960  0.797220  1.0  -0.1635
  C  C1508  1  0.435060  0.710680  0.837430  1.0  -0.1307
  C  C1509  1  0.082080  0.820270  0.826260  1.0  -0.1041
  C  C1510  1  0.114530  0.837800  0.840770  1.0  -0.0351
  C  C1511  1  0.131580  0.824210  0.871320  1.0  -0.2298
  C  C1512  1  0.063780  0.833040  0.797220  1.0  -0.1633
  C  C1513  1  0.064940  0.789320  0.837430  1.0  -0.131
  C  C1514  1  0.082080  0.320270  0.326260  1.0  -0.1041
  C  C1515  1  0.114530  0.337800  0.340770  1.0  -0.0351
  C  C1516  1  0.131580  0.324210  0.371320  1.0  -0.2298
  C  C1517  1  0.063780  0.333040  0.297220  1.0  -0.1633
  C  C1518  1  0.064940  0.289320  0.337430  1.0  -0.131
  C  C1519  1  0.582080  0.820270  0.326260  1.0  -0.1041
  C  C1520  1  0.614530  0.837800  0.340770  1.0  -0.0351
  C  C1521  1  0.631580  0.824210  0.371320  1.0  -0.2298
  C  C1522  1  0.563780  0.833040  0.297220  1.0  -0.1633
  C  C1523  1  0.564940  0.789320  0.337430  1.0  -0.131
  C  C1524  1  0.582080  0.320270  0.826260  1.0  -0.1041
  C  C1525  1  0.614530  0.337800  0.840770  1.0  -0.0351
  C  C1526  1  0.631580  0.324210  0.871320  1.0  -0.2298
  C  C1527  1  0.563780  0.333040  0.797220  1.0  -0.1633
  C  C1528  1  0.564940  0.289320  0.837430  1.0  -0.131
  C  C1529  1  0.917920  0.820270  0.173740  1.0  -0.1031
  C  C1530  1  0.885470  0.837800  0.159230  1.0  -0.035
  C  C1531  1  0.868420  0.824210  0.128680  1.0  -0.2276
  C  C1532  1  0.936220  0.833040  0.202780  1.0  -0.1641
  C  C1533  1  0.935060  0.789320  0.162570  1.0  -0.1315
  C  C1534  1  0.917920  0.320270  0.673740  1.0  -0.1031
  C  C1535  1  0.885470  0.337800  0.659230  1.0  -0.035
  C  C1536  1  0.868420  0.324210  0.628680  1.0  -0.2276
  C  C1537  1  0.936220  0.333040  0.702780  1.0  -0.1641
  C  C1538  1  0.935060  0.289320  0.662570  1.0  -0.1315
  C  C1539  1  0.417920  0.820270  0.673740  1.0  -0.1031
  C  C1540  1  0.385470  0.837800  0.659230  1.0  -0.035
  C  C1541  1  0.368420  0.824210  0.628680  1.0  -0.2276
  C  C1542  1  0.436220  0.833040  0.702780  1.0  -0.1641
  C  C1543  1  0.435060  0.789320  0.662570  1.0  -0.1315
  C  C1544  1  0.417920  0.320270  0.173740  1.0  -0.1031
  C  C1545  1  0.385470  0.337800  0.159230  1.0  -0.035
  C  C1546  1  0.368420  0.324210  0.128680  1.0  -0.2276
  C  C1547  1  0.436220  0.333040  0.202780  1.0  -0.1641
  C  C1548  1  0.435060  0.289320  0.162570  1.0  -0.1315
  C  C1549  1  0.082080  0.179730  0.173740  1.0  -0.1028
  C  C1550  1  0.114530  0.162200  0.159230  1.0  -0.0355
  C  C1551  1  0.131580  0.175790  0.128680  1.0  -0.2287
  C  C1552  1  0.063780  0.166960  0.202780  1.0  -0.1646
  C  C1553  1  0.064940  0.210680  0.162570  1.0  -0.1314
  C  C1554  1  0.082080  0.679730  0.673740  1.0  -0.1028
  C  C1555  1  0.114530  0.662200  0.659230  1.0  -0.0355
  C  C1556  1  0.131580  0.675790  0.628680  1.0  -0.2287
  C  C1557  1  0.063780  0.666960  0.702780  1.0  -0.1646
  C  C1558  1  0.064940  0.710680  0.662570  1.0  -0.1314
  C  C1559  1  0.582080  0.179730  0.673740  1.0  -0.1028
  C  C1560  1  0.614530  0.162200  0.659230  1.0  -0.0355
  C  C1561  1  0.631580  0.175790  0.628680  1.0  -0.2287
  C  C1562  1  0.563780  0.166960  0.702780  1.0  -0.1646
  C  C1563  1  0.564940  0.210680  0.662570  1.0  -0.1314
  C  C1564  1  0.582080  0.679730  0.173740  1.0  -0.1028
  C  C1565  1  0.614530  0.662200  0.159230  1.0  -0.0355
  C  C1566  1  0.631580  0.675790  0.128680  1.0  -0.2287
  C  C1567  1  0.563780  0.666960  0.202780  1.0  -0.1646
  C  C1568  1  0.564940  0.710680  0.162570  1.0  -0.1314
  C  C1569  1  0.179730  0.173740  0.082080  1.0  -0.0209
  C  C1570  1  0.162200  0.159230  0.114530  1.0  -0.0361
  C  C1571  1  0.175790  0.128680  0.131580  1.0  -0.2275
  C  C1572  1  0.210680  0.162570  0.064940  1.0  -0.1316
  C  C1573  1  0.179730  0.673740  0.582080  1.0  -0.0209
  C  C1574  1  0.162200  0.659230  0.614530  1.0  -0.0361
  C  C1575  1  0.175790  0.628680  0.631580  1.0  -0.2275
  C  C1576  1  0.210680  0.662570  0.564940  1.0  -0.1316
  C  C1577  1  0.679730  0.173740  0.582080  1.0  -0.0209
  C  C1578  1  0.662200  0.159230  0.614530  1.0  -0.0361
  C  C1579  1  0.675790  0.128680  0.631580  1.0  -0.2275
  C  C1580  1  0.710680  0.162570  0.564940  1.0  -0.1316
  C  C1581  1  0.679730  0.673740  0.082080  1.0  -0.0209
  C  C1582  1  0.662200  0.659230  0.114530  1.0  -0.0361
  C  C1583  1  0.675790  0.628680  0.131580  1.0  -0.2275
  C  C1584  1  0.710680  0.662570  0.064940  1.0  -0.1316
  C  C1585  1  0.820270  0.173740  0.917920  1.0  -0.0196
  C  C1586  1  0.837800  0.159230  0.885470  1.0  -0.0371
  C  C1587  1  0.824210  0.128680  0.868420  1.0  -0.23
  C  C1588  1  0.789320  0.162570  0.935060  1.0  -0.1312
  C  C1589  1  0.820270  0.673740  0.417920  1.0  -0.0196
  C  C1590  1  0.837800  0.659230  0.385470  1.0  -0.0371
  C  C1591  1  0.824210  0.628680  0.368420  1.0  -0.23
  C  C1592  1  0.789320  0.662570  0.435060  1.0  -0.1312
  C  C1593  1  0.320270  0.173740  0.417920  1.0  -0.0196
  C  C1594  1  0.337800  0.159230  0.385470  1.0  -0.0371
  C  C1595  1  0.324210  0.128680  0.368420  1.0  -0.23
  C  C1596  1  0.289320  0.162570  0.435060  1.0  -0.1312
  C  C1597  1  0.320270  0.673740  0.917920  1.0  -0.0196
  C  C1598  1  0.337800  0.659230  0.885470  1.0  -0.0371
  C  C1599  1  0.324210  0.628680  0.868420  1.0  -0.23
  C  C1600  1  0.289320  0.662570  0.935060  1.0  -0.1312
  C  C1601  1  0.820270  0.826260  0.082080  1.0  -0.021
  C  C1602  1  0.837800  0.840770  0.114530  1.0  -0.0365
  C  C1603  1  0.824210  0.871320  0.131580  1.0  -0.2293
  C  C1604  1  0.789320  0.837430  0.064940  1.0  -0.1326
  C  C1605  1  0.820270  0.326260  0.582080  1.0  -0.021
  C  C1606  1  0.837800  0.340770  0.614530  1.0  -0.0365
  C  C1607  1  0.824210  0.371320  0.631580  1.0  -0.2293
  C  C1608  1  0.789320  0.337430  0.564940  1.0  -0.1326
  C  C1609  1  0.320270  0.826260  0.582080  1.0  -0.021
  C  C1610  1  0.337800  0.840770  0.614530  1.0  -0.0365
  C  C1611  1  0.324210  0.871320  0.631580  1.0  -0.2293
  C  C1612  1  0.289320  0.837430  0.564940  1.0  -0.1326
  C  C1613  1  0.320270  0.326260  0.082080  1.0  -0.021
  C  C1614  1  0.337800  0.340770  0.114530  1.0  -0.0365
  C  C1615  1  0.324210  0.371320  0.131580  1.0  -0.2293
  C  C1616  1  0.289320  0.337430  0.064940  1.0  -0.1326
  C  C1617  1  0.179730  0.826260  0.917920  1.0  -0.019
  C  C1618  1  0.162200  0.840770  0.885470  1.0  -0.0358
  C  C1619  1  0.175790  0.871320  0.868420  1.0  -0.2273
  C  C1620  1  0.210680  0.837430  0.935060  1.0  -0.1326
  C  C1621  1  0.179730  0.326260  0.417920  1.0  -0.019
  C  C1622  1  0.162200  0.340770  0.385470  1.0  -0.0358
  C  C1623  1  0.175790  0.371320  0.368420  1.0  -0.2273
  C  C1624  1  0.210680  0.337430  0.435060  1.0  -0.1326
  C  C1625  1  0.679730  0.826260  0.417920  1.0  -0.019
  C  C1626  1  0.662200  0.840770  0.385470  1.0  -0.0358
  C  C1627  1  0.675790  0.871320  0.368420  1.0  -0.2273
  C  C1628  1  0.710680  0.837430  0.435060  1.0  -0.1326
  C  C1629  1  0.679730  0.326260  0.917920  1.0  -0.019
  C  C1630  1  0.662200  0.340770  0.885470  1.0  -0.0358
  C  C1631  1  0.675790  0.371320  0.868420  1.0  -0.2273
  C  C1632  1  0.710680  0.337430  0.935060  1.0  -0.1326
  C  C1633  1  0.173740  0.917920  0.820270  1.0  -0.019
  C  C1634  1  0.159230  0.885470  0.837800  1.0  -0.0359
  C  C1635  1  0.128680  0.868420  0.824210  1.0  -0.2291
  C  C1636  1  0.162570  0.935060  0.789320  1.0  -0.1307
  C  C1637  1  0.173740  0.417920  0.320270  1.0  -0.019
  C  C1638  1  0.159230  0.385470  0.337800  1.0  -0.0359
  C  C1639  1  0.128680  0.368420  0.324210  1.0  -0.2291
  C  C1640  1  0.162570  0.435060  0.289320  1.0  -0.1307
  C  C1641  1  0.673740  0.917920  0.320270  1.0  -0.019
  C  C1642  1  0.659230  0.885470  0.337800  1.0  -0.0359
  C  C1643  1  0.628680  0.868420  0.324210  1.0  -0.2291
  C  C1644  1  0.662570  0.935060  0.289320  1.0  -0.1307
  C  C1645  1  0.673740  0.417920  0.820270  1.0  -0.019
  C  C1646  1  0.659230  0.385470  0.837800  1.0  -0.0359
  C  C1647  1  0.628680  0.368420  0.824210  1.0  -0.2291
  C  C1648  1  0.662570  0.435060  0.789320  1.0  -0.1307
  C  C1649  1  0.173740  0.082080  0.179730  1.0  -0.0195
  C  C1650  1  0.159230  0.114530  0.162200  1.0  -0.036
  C  C1651  1  0.128680  0.131580  0.175790  1.0  -0.2295
  C  C1652  1  0.162570  0.064940  0.210680  1.0  -0.1311
  C  C1653  1  0.173740  0.582080  0.679730  1.0  -0.0195
  C  C1654  1  0.159230  0.614530  0.662200  1.0  -0.036
  C  C1655  1  0.128680  0.631580  0.675790  1.0  -0.2295
  C  C1656  1  0.162570  0.564940  0.710680  1.0  -0.1311
  C  C1657  1  0.673740  0.082080  0.679730  1.0  -0.0195
  C  C1658  1  0.659230  0.114530  0.662200  1.0  -0.036
  C  C1659  1  0.628680  0.131580  0.675790  1.0  -0.2295
  C  C1660  1  0.662570  0.064940  0.710680  1.0  -0.1311
  C  C1661  1  0.673740  0.582080  0.179730  1.0  -0.0195
  C  C1662  1  0.659230  0.614530  0.162200  1.0  -0.036
  C  C1663  1  0.628680  0.631580  0.175790  1.0  -0.2295
  C  C1664  1  0.662570  0.564940  0.210680  1.0  -0.1311
  C  C1665  1  0.826260  0.917920  0.179730  1.0  -0.0184
  C  C1666  1  0.840770  0.885470  0.162200  1.0  -0.0361
  C  C1667  1  0.871320  0.868420  0.175790  1.0  -0.2287
  C  C1668  1  0.837430  0.935060  0.210680  1.0  -0.1306
  C  C1669  1  0.826260  0.417920  0.679730  1.0  -0.0184
  C  C1670  1  0.840770  0.385470  0.662200  1.0  -0.0361
  C  C1671  1  0.871320  0.368420  0.675790  1.0  -0.2287
  C  C1672  1  0.837430  0.435060  0.710680  1.0  -0.1306
  C  C1673  1  0.326260  0.917920  0.679730  1.0  -0.0184
  C  C1674  1  0.340770  0.885470  0.662200  1.0  -0.0361
  C  C1675  1  0.371320  0.868420  0.675790  1.0  -0.2287
  C  C1676  1  0.337430  0.935060  0.710680  1.0  -0.1306
  C  C1677  1  0.326260  0.417920  0.179730  1.0  -0.0184
  C  C1678  1  0.340770  0.385470  0.162200  1.0  -0.0361
  C  C1679  1  0.371320  0.368420  0.175790  1.0  -0.2287
  C  C1680  1  0.337430  0.435060  0.210680  1.0  -0.1306
  C  C1681  1  0.826260  0.082080  0.820270  1.0  -0.0199
  C  C1682  1  0.840770  0.114530  0.837800  1.0  -0.0356
  C  C1683  1  0.871320  0.131580  0.824210  1.0  -0.229
  C  C1684  1  0.837430  0.064940  0.789320  1.0  -0.1305
  C  C1685  1  0.826260  0.582080  0.320270  1.0  -0.0199
  C  C1686  1  0.840770  0.614530  0.337800  1.0  -0.0356
  C  C1687  1  0.871320  0.631580  0.324210  1.0  -0.229
  C  C1688  1  0.837430  0.564940  0.289320  1.0  -0.1305
  C  C1689  1  0.326260  0.082080  0.320270  1.0  -0.0199
  C  C1690  1  0.340770  0.114530  0.337800  1.0  -0.0356
  C  C1691  1  0.371320  0.131580  0.324210  1.0  -0.229
  C  C1692  1  0.337430  0.064940  0.289320  1.0  -0.1305
  C  C1693  1  0.326260  0.582080  0.820270  1.0  -0.0199
  C  C1694  1  0.340770  0.614530  0.837800  1.0  -0.0356
  C  C1695  1  0.371320  0.631580  0.824210  1.0  -0.229
  C  C1696  1  0.337430  0.564940  0.789320  1.0  -0.1305
  N  N1697  1  0.283910  0.536650  0.315910  1.0  -0.311
  N  N1698  1  0.310700  0.536500  0.291750  1.0  -0.2619
  N  N1699  1  0.297220  0.666960  0.436220  1.0  -0.2937
  N  N1700  1  0.283910  0.036650  0.815910  1.0  -0.311
  N  N1701  1  0.310700  0.036500  0.791750  1.0  -0.2619
  N  N1702  1  0.297220  0.166960  0.936220  1.0  -0.2937
  N  N1703  1  0.783910  0.536650  0.815910  1.0  -0.311
  N  N1704  1  0.810700  0.536500  0.791750  1.0  -0.2619
  N  N1705  1  0.797220  0.666960  0.936220  1.0  -0.2937
  N  N1706  1  0.783910  0.036650  0.315910  1.0  -0.311
  N  N1707  1  0.810700  0.036500  0.291750  1.0  -0.2619
  N  N1708  1  0.797220  0.166960  0.436220  1.0  -0.2937
  N  N1709  1  0.716090  0.463350  0.315910  1.0  -0.3102
  N  N1710  1  0.689300  0.463500  0.291750  1.0  -0.2617
  N  N1711  1  0.702780  0.333040  0.436220  1.0  -0.2938
  N  N1712  1  0.716090  0.963350  0.815910  1.0  -0.3102
  N  N1713  1  0.689300  0.963500  0.791750  1.0  -0.2617
  N  N1714  1  0.702780  0.833040  0.936220  1.0  -0.2938
  N  N1715  1  0.216090  0.463350  0.815910  1.0  -0.3102
  N  N1716  1  0.189300  0.463500  0.791750  1.0  -0.2617
  N  N1717  1  0.202780  0.333040  0.936220  1.0  -0.2938
  N  N1718  1  0.216090  0.963350  0.315910  1.0  -0.3102
  N  N1719  1  0.189300  0.963500  0.291750  1.0  -0.2617
  N  N1720  1  0.202780  0.833040  0.436220  1.0  -0.2938
  N  N1721  1  0.716090  0.536650  0.684090  1.0  -0.3114
  N  N1722  1  0.689300  0.536500  0.708250  1.0  -0.2602
  N  N1723  1  0.702780  0.666960  0.563780  1.0  -0.2952
  N  N1724  1  0.716090  0.036650  0.184090  1.0  -0.3114
  N  N1725  1  0.689300  0.036500  0.208250  1.0  -0.2602
  N  N1726  1  0.702780  0.166960  0.063780  1.0  -0.2952
  N  N1727  1  0.216090  0.536650  0.184090  1.0  -0.3114
  N  N1728  1  0.189300  0.536500  0.208250  1.0  -0.2602
  N  N1729  1  0.202780  0.666960  0.063780  1.0  -0.2952
  N  N1730  1  0.216090  0.036650  0.684090  1.0  -0.3114
  N  N1731  1  0.189300  0.036500  0.708250  1.0  -0.2602
  N  N1732  1  0.202780  0.166960  0.563780  1.0  -0.2952
  N  N1733  1  0.283910  0.463350  0.684090  1.0  -0.3125
  N  N1734  1  0.310700  0.463500  0.708250  1.0  -0.2602
  N  N1735  1  0.297220  0.333040  0.563780  1.0  -0.2943
  N  N1736  1  0.283910  0.963350  0.184090  1.0  -0.3125
  N  N1737  1  0.310700  0.963500  0.208250  1.0  -0.2602
  N  N1738  1  0.297220  0.833040  0.063780  1.0  -0.2943
  N  N1739  1  0.783910  0.463350  0.184090  1.0  -0.3125
  N  N1740  1  0.810700  0.463500  0.208250  1.0  -0.2602
  N  N1741  1  0.797220  0.333040  0.063780  1.0  -0.2943
  N  N1742  1  0.783910  0.963350  0.684090  1.0  -0.3125
  N  N1743  1  0.810700  0.963500  0.708250  1.0  -0.2602
  N  N1744  1  0.797220  0.833040  0.563780  1.0  -0.2943
  N  N1745  1  0.315910  0.283910  0.536650  1.0  -0.3137
  N  N1746  1  0.291750  0.310700  0.536500  1.0  -0.1859
  N  N1747  1  0.436220  0.297220  0.666960  1.0  -0.2916
  N  N1748  1  0.315910  0.783910  0.036650  1.0  -0.3137
  N  N1749  1  0.291750  0.810700  0.036500  1.0  -0.1859
  N  N1750  1  0.436220  0.797220  0.166960  1.0  -0.2916
  N  N1751  1  0.815910  0.283910  0.036650  1.0  -0.3137
  N  N1752  1  0.791750  0.310700  0.036500  1.0  -0.1859
  N  N1753  1  0.936220  0.297220  0.166960  1.0  -0.2916
  N  N1754  1  0.815910  0.783910  0.536650  1.0  -0.3137
  N  N1755  1  0.791750  0.810700  0.536500  1.0  -0.1859
  N  N1756  1  0.936220  0.797220  0.666960  1.0  -0.2916
  N  N1757  1  0.315910  0.716090  0.463350  1.0  -0.3109
  N  N1758  1  0.291750  0.689300  0.463500  1.0  -0.1844
  N  N1759  1  0.436220  0.702780  0.333040  1.0  -0.2912
  N  N1760  1  0.315910  0.216090  0.963350  1.0  -0.3109
  N  N1761  1  0.291750  0.189300  0.963500  1.0  -0.1844
  N  N1762  1  0.436220  0.202780  0.833040  1.0  -0.2912
  N  N1763  1  0.815910  0.716090  0.963350  1.0  -0.3109
  N  N1764  1  0.791750  0.689300  0.963500  1.0  -0.1844
  N  N1765  1  0.936220  0.702780  0.833040  1.0  -0.2912
  N  N1766  1  0.815910  0.216090  0.463350  1.0  -0.3109
  N  N1767  1  0.791750  0.189300  0.463500  1.0  -0.1844
  N  N1768  1  0.936220  0.202780  0.333040  1.0  -0.2912
  N  N1769  1  0.684090  0.716090  0.536650  1.0  -0.3119
  N  N1770  1  0.708250  0.689300  0.536500  1.0  -0.1857
  N  N1771  1  0.563780  0.702780  0.666960  1.0  -0.2917
  N  N1772  1  0.684090  0.216090  0.036650  1.0  -0.3119
  N  N1773  1  0.708250  0.189300  0.036500  1.0  -0.1857
  N  N1774  1  0.563780  0.202780  0.166960  1.0  -0.2917
  N  N1775  1  0.184090  0.716090  0.036650  1.0  -0.3119
  N  N1776  1  0.208250  0.689300  0.036500  1.0  -0.1857
  N  N1777  1  0.063780  0.702780  0.166960  1.0  -0.2917
  N  N1778  1  0.184090  0.216090  0.536650  1.0  -0.3119
  N  N1779  1  0.208250  0.189300  0.536500  1.0  -0.1857
  N  N1780  1  0.063780  0.202780  0.666960  1.0  -0.2917
  N  N1781  1  0.684090  0.283910  0.463350  1.0  -0.3113
  N  N1782  1  0.708250  0.310700  0.463500  1.0  -0.184
  N  N1783  1  0.563780  0.297220  0.333040  1.0  -0.2912
  N  N1784  1  0.684090  0.783910  0.963350  1.0  -0.3113
  N  N1785  1  0.708250  0.810700  0.963500  1.0  -0.184
  N  N1786  1  0.563780  0.797220  0.833040  1.0  -0.2912
  N  N1787  1  0.184090  0.283910  0.963350  1.0  -0.3113
  N  N1788  1  0.208250  0.310700  0.963500  1.0  -0.184
  N  N1789  1  0.063780  0.297220  0.833040  1.0  -0.2912
  N  N1790  1  0.184090  0.783910  0.463350  1.0  -0.3113
  N  N1791  1  0.208250  0.810700  0.463500  1.0  -0.184
  N  N1792  1  0.063780  0.797220  0.333040  1.0  -0.2912
  N  N1793  1  0.536650  0.315910  0.283910  1.0  -0.314
  N  N1794  1  0.536500  0.291750  0.310700  1.0  -0.1827
  N  N1795  1  0.536650  0.815910  0.783910  1.0  -0.314
  N  N1796  1  0.536500  0.791750  0.810700  1.0  -0.1827
  N  N1797  1  0.036650  0.315910  0.783910  1.0  -0.314
  N  N1798  1  0.036500  0.291750  0.810700  1.0  -0.1827
  N  N1799  1  0.036650  0.815910  0.283910  1.0  -0.314
  N  N1800  1  0.036500  0.791750  0.310700  1.0  -0.1827
  N  N1801  1  0.463350  0.315910  0.716090  1.0  -0.3118
  N  N1802  1  0.463500  0.291750  0.689300  1.0  -0.1817
  N  N1803  1  0.463350  0.815910  0.216090  1.0  -0.3118
  N  N1804  1  0.463500  0.791750  0.189300  1.0  -0.1817
  N  N1805  1  0.963350  0.315910  0.216090  1.0  -0.3118
  N  N1806  1  0.963500  0.291750  0.189300  1.0  -0.1817
  N  N1807  1  0.963350  0.815910  0.716090  1.0  -0.3118
  N  N1808  1  0.963500  0.791750  0.689300  1.0  -0.1817
  N  N1809  1  0.536650  0.684090  0.716090  1.0  -0.3138
  N  N1810  1  0.536500  0.708250  0.689300  1.0  -0.1833
  N  N1811  1  0.536650  0.184090  0.216090  1.0  -0.3138
  N  N1812  1  0.536500  0.208250  0.189300  1.0  -0.1833
  N  N1813  1  0.036650  0.684090  0.216090  1.0  -0.3138
  N  N1814  1  0.036500  0.708250  0.189300  1.0  -0.1833
  N  N1815  1  0.036650  0.184090  0.716090  1.0  -0.3138
  N  N1816  1  0.036500  0.208250  0.689300  1.0  -0.1833
  N  N1817  1  0.463350  0.684090  0.283910  1.0  -0.3107
  N  N1818  1  0.463500  0.708250  0.310700  1.0  -0.1814
  N  N1819  1  0.463350  0.184090  0.783910  1.0  -0.3107
  N  N1820  1  0.463500  0.208250  0.810700  1.0  -0.1814
  N  N1821  1  0.963350  0.684090  0.783910  1.0  -0.3107
  N  N1822  1  0.963500  0.708250  0.810700  1.0  -0.1814
  N  N1823  1  0.963350  0.184090  0.283910  1.0  -0.3107
  N  N1824  1  0.963500  0.208250  0.310700  1.0  -0.1814
  N  N1825  1  0.036650  0.783910  0.184090  1.0  -0.3138
  N  N1826  1  0.036500  0.810700  0.208250  1.0  -0.2603
  N  N1827  1  0.166960  0.797220  0.063780  1.0  -0.2946
  N  N1828  1  0.036650  0.283910  0.684090  1.0  -0.3138
  N  N1829  1  0.036500  0.310700  0.708250  1.0  -0.2603
  N  N1830  1  0.166960  0.297220  0.563780  1.0  -0.2946
  N  N1831  1  0.536650  0.783910  0.684090  1.0  -0.3138
  N  N1832  1  0.536500  0.810700  0.708250  1.0  -0.2603
  N  N1833  1  0.666960  0.797220  0.563780  1.0  -0.2946
  N  N1834  1  0.536650  0.283910  0.184090  1.0  -0.3138
  N  N1835  1  0.536500  0.310700  0.208250  1.0  -0.2603
  N  N1836  1  0.666960  0.297220  0.063780  1.0  -0.2946
  N  N1837  1  0.963350  0.216090  0.184090  1.0  -0.3099
  N  N1838  1  0.963500  0.189300  0.208250  1.0  -0.2589
  N  N1839  1  0.833040  0.202780  0.063780  1.0  -0.2944
  N  N1840  1  0.963350  0.716090  0.684090  1.0  -0.3099
  N  N1841  1  0.963500  0.689300  0.708250  1.0  -0.2589
  N  N1842  1  0.833040  0.702780  0.563780  1.0  -0.2944
  N  N1843  1  0.463350  0.216090  0.684090  1.0  -0.3099
  N  N1844  1  0.463500  0.189300  0.708250  1.0  -0.2589
  N  N1845  1  0.333040  0.202780  0.563780  1.0  -0.2944
  N  N1846  1  0.463350  0.716090  0.184090  1.0  -0.3099
  N  N1847  1  0.463500  0.689300  0.208250  1.0  -0.2589
  N  N1848  1  0.333040  0.702780  0.063780  1.0  -0.2944
  N  N1849  1  0.036650  0.216090  0.815910  1.0  -0.3115
  N  N1850  1  0.036500  0.189300  0.791750  1.0  -0.2616
  N  N1851  1  0.166960  0.202780  0.936220  1.0  -0.2937
  N  N1852  1  0.036650  0.716090  0.315910  1.0  -0.3115
  N  N1853  1  0.036500  0.689300  0.291750  1.0  -0.2616
  N  N1854  1  0.166960  0.702780  0.436220  1.0  -0.2937
  N  N1855  1  0.536650  0.216090  0.315910  1.0  -0.3115
  N  N1856  1  0.536500  0.189300  0.291750  1.0  -0.2616
  N  N1857  1  0.666960  0.202780  0.436220  1.0  -0.2937
  N  N1858  1  0.536650  0.716090  0.815910  1.0  -0.3115
  N  N1859  1  0.536500  0.689300  0.791750  1.0  -0.2616
  N  N1860  1  0.666960  0.702780  0.936220  1.0  -0.2937
  N  N1861  1  0.963350  0.783910  0.815910  1.0  -0.3092
  N  N1862  1  0.963500  0.810700  0.791750  1.0  -0.2615
  N  N1863  1  0.833040  0.797220  0.936220  1.0  -0.2937
  N  N1864  1  0.963350  0.283910  0.315910  1.0  -0.3092
  N  N1865  1  0.963500  0.310700  0.291750  1.0  -0.2615
  N  N1866  1  0.833040  0.297220  0.436220  1.0  -0.2937
  N  N1867  1  0.463350  0.783910  0.315910  1.0  -0.3092
  N  N1868  1  0.463500  0.810700  0.291750  1.0  -0.2615
  N  N1869  1  0.333040  0.797220  0.436220  1.0  -0.2937
  N  N1870  1  0.463350  0.283910  0.815910  1.0  -0.3092
  N  N1871  1  0.463500  0.310700  0.791750  1.0  -0.2615
  N  N1872  1  0.333040  0.297220  0.936220  1.0  -0.2937
  N  N1873  1  0.783910  0.815910  0.963350  1.0  -0.3129
  N  N1874  1  0.810700  0.791750  0.963500  1.0  -0.1839
  N  N1875  1  0.797220  0.936220  0.833040  1.0  -0.2917
  N  N1876  1  0.783910  0.315910  0.463350  1.0  -0.3129
  N  N1877  1  0.810700  0.291750  0.463500  1.0  -0.1839
  N  N1878  1  0.797220  0.436220  0.333040  1.0  -0.2917
  N  N1879  1  0.283910  0.815910  0.463350  1.0  -0.3129
  N  N1880  1  0.310700  0.791750  0.463500  1.0  -0.1839
  N  N1881  1  0.297220  0.936220  0.333040  1.0  -0.2917
  N  N1882  1  0.283910  0.315910  0.963350  1.0  -0.3129
  N  N1883  1  0.310700  0.291750  0.963500  1.0  -0.1839
  N  N1884  1  0.297220  0.436220  0.833040  1.0  -0.2917
  N  N1885  1  0.216090  0.815910  0.036650  1.0  -0.3136
  N  N1886  1  0.189300  0.791750  0.036500  1.0  -0.1856
  N  N1887  1  0.202780  0.936220  0.166960  1.0  -0.293
  N  N1888  1  0.216090  0.315910  0.536650  1.0  -0.3136
  N  N1889  1  0.189300  0.291750  0.536500  1.0  -0.1856
  N  N1890  1  0.202780  0.436220  0.666960  1.0  -0.293
  N  N1891  1  0.716090  0.815910  0.536650  1.0  -0.3136
  N  N1892  1  0.689300  0.791750  0.536500  1.0  -0.1856
  N  N1893  1  0.702780  0.936220  0.666960  1.0  -0.293
  N  N1894  1  0.716090  0.315910  0.036650  1.0  -0.3136
  N  N1895  1  0.689300  0.291750  0.036500  1.0  -0.1856
  N  N1896  1  0.702780  0.436220  0.166960  1.0  -0.293
  N  N1897  1  0.216090  0.184090  0.963350  1.0  -0.3111
  N  N1898  1  0.189300  0.208250  0.963500  1.0  -0.1839
  N  N1899  1  0.202780  0.063780  0.833040  1.0  -0.2935
  N  N1900  1  0.216090  0.684090  0.463350  1.0  -0.3111
  N  N1901  1  0.189300  0.708250  0.463500  1.0  -0.1839
  N  N1902  1  0.202780  0.563780  0.333040  1.0  -0.2935
  N  N1903  1  0.716090  0.184090  0.463350  1.0  -0.3111
  N  N1904  1  0.689300  0.208250  0.463500  1.0  -0.1839
  N  N1905  1  0.702780  0.063780  0.333040  1.0  -0.2935
  N  N1906  1  0.716090  0.684090  0.963350  1.0  -0.3111
  N  N1907  1  0.689300  0.708250  0.963500  1.0  -0.1839
  N  N1908  1  0.702780  0.563780  0.833040  1.0  -0.2935
  N  N1909  1  0.783910  0.184090  0.036650  1.0  -0.3136
  N  N1910  1  0.810700  0.208250  0.036500  1.0  -0.1848
  N  N1911  1  0.797220  0.063780  0.166960  1.0  -0.2933
  N  N1912  1  0.783910  0.684090  0.536650  1.0  -0.3136
  N  N1913  1  0.810700  0.708250  0.536500  1.0  -0.1848
  N  N1914  1  0.797220  0.563780  0.666960  1.0  -0.2933
  N  N1915  1  0.283910  0.184090  0.536650  1.0  -0.3136
  N  N1916  1  0.310700  0.208250  0.536500  1.0  -0.1848
  N  N1917  1  0.297220  0.063780  0.666960  1.0  -0.2933
  N  N1918  1  0.283910  0.684090  0.036650  1.0  -0.3136
  N  N1919  1  0.310700  0.708250  0.036500  1.0  -0.1848
  N  N1920  1  0.297220  0.563780  0.166960  1.0  -0.2933
  N  N1921  1  0.815910  0.036650  0.216090  1.0  -0.3128
  N  N1922  1  0.791750  0.036500  0.189300  1.0  -0.1831
  N  N1923  1  0.815910  0.536650  0.716090  1.0  -0.3128
  N  N1924  1  0.791750  0.536500  0.689300  1.0  -0.1831
  N  N1925  1  0.315910  0.036650  0.716090  1.0  -0.3128
  N  N1926  1  0.291750  0.036500  0.689300  1.0  -0.1831
  N  N1927  1  0.315910  0.536650  0.216090  1.0  -0.3128
  N  N1928  1  0.291750  0.536500  0.189300  1.0  -0.1831
  N  N1929  1  0.815910  0.963350  0.783910  1.0  -0.3122
  N  N1930  1  0.791750  0.963500  0.810700  1.0  -0.1823
  N  N1931  1  0.815910  0.463350  0.283910  1.0  -0.3122
  N  N1932  1  0.791750  0.463500  0.310700  1.0  -0.1823
  N  N1933  1  0.315910  0.963350  0.283910  1.0  -0.3122
  N  N1934  1  0.291750  0.963500  0.310700  1.0  -0.1823
  N  N1935  1  0.315910  0.463350  0.783910  1.0  -0.3122
  N  N1936  1  0.291750  0.463500  0.810700  1.0  -0.1823
  N  N1937  1  0.184090  0.036650  0.783910  1.0  -0.3116
  N  N1938  1  0.208250  0.036500  0.810700  1.0  -0.1823
  N  N1939  1  0.184090  0.536650  0.283910  1.0  -0.3116
  N  N1940  1  0.208250  0.536500  0.310700  1.0  -0.1823
  N  N1941  1  0.684090  0.036650  0.283910  1.0  -0.3116
  N  N1942  1  0.708250  0.036500  0.310700  1.0  -0.1823
  N  N1943  1  0.684090  0.536650  0.783910  1.0  -0.3116
  N  N1944  1  0.708250  0.536500  0.810700  1.0  -0.1823
  N  N1945  1  0.184090  0.963350  0.216090  1.0  -0.3122
  N  N1946  1  0.208250  0.963500  0.189300  1.0  -0.1838
  N  N1947  1  0.184090  0.463350  0.716090  1.0  -0.3122
  N  N1948  1  0.208250  0.463500  0.689300  1.0  -0.1838
  N  N1949  1  0.684090  0.963350  0.716090  1.0  -0.3122
  N  N1950  1  0.708250  0.963500  0.689300  1.0  -0.1838
  N  N1951  1  0.684090  0.463350  0.216090  1.0  -0.3122
  N  N1952  1  0.708250  0.463500  0.189300  1.0  -0.1838
  N  N1953  1  0.716090  0.463350  0.684090  1.0  -0.3121
  N  N1954  1  0.689300  0.463500  0.708250  1.0  -0.2599
  N  N1955  1  0.702780  0.333040  0.563780  1.0  -0.2947
  N  N1956  1  0.716090  0.963350  0.184090  1.0  -0.3121
  N  N1957  1  0.689300  0.963500  0.208250  1.0  -0.2599
  N  N1958  1  0.702780  0.833040  0.063780  1.0  -0.2947
  N  N1959  1  0.216090  0.463350  0.184090  1.0  -0.3121
  N  N1960  1  0.189300  0.463500  0.208250  1.0  -0.2599
  N  N1961  1  0.202780  0.333040  0.063780  1.0  -0.2947
  N  N1962  1  0.216090  0.963350  0.684090  1.0  -0.3121
  N  N1963  1  0.189300  0.963500  0.708250  1.0  -0.2599
  N  N1964  1  0.202780  0.833040  0.563780  1.0  -0.2947
  N  N1965  1  0.283910  0.536650  0.684090  1.0  -0.3124
  N  N1966  1  0.310700  0.536500  0.708250  1.0  -0.2605
  N  N1967  1  0.297220  0.666960  0.563780  1.0  -0.2947
  N  N1968  1  0.283910  0.036650  0.184090  1.0  -0.3124
  N  N1969  1  0.310700  0.036500  0.208250  1.0  -0.2605
  N  N1970  1  0.297220  0.166960  0.063780  1.0  -0.2947
  N  N1971  1  0.783910  0.536650  0.184090  1.0  -0.3124
  N  N1972  1  0.810700  0.536500  0.208250  1.0  -0.2605
  N  N1973  1  0.797220  0.666960  0.063780  1.0  -0.2947
  N  N1974  1  0.783910  0.036650  0.684090  1.0  -0.3124
  N  N1975  1  0.810700  0.036500  0.708250  1.0  -0.2605
  N  N1976  1  0.797220  0.166960  0.563780  1.0  -0.2947
  N  N1977  1  0.283910  0.463350  0.315910  1.0  -0.3108
  N  N1978  1  0.310700  0.463500  0.291750  1.0  -0.2614
  N  N1979  1  0.297220  0.333040  0.436220  1.0  -0.2935
  N  N1980  1  0.283910  0.963350  0.815910  1.0  -0.3108
  N  N1981  1  0.310700  0.963500  0.791750  1.0  -0.2614
  N  N1982  1  0.297220  0.833040  0.936220  1.0  -0.2935
  N  N1983  1  0.783910  0.463350  0.815910  1.0  -0.3108
  N  N1984  1  0.810700  0.463500  0.791750  1.0  -0.2614
  N  N1985  1  0.797220  0.333040  0.936220  1.0  -0.2935
  N  N1986  1  0.783910  0.963350  0.315910  1.0  -0.3108
  N  N1987  1  0.810700  0.963500  0.291750  1.0  -0.2614
  N  N1988  1  0.797220  0.833040  0.436220  1.0  -0.2935
  N  N1989  1  0.716090  0.536650  0.315910  1.0  -0.3101
  N  N1990  1  0.689300  0.536500  0.291750  1.0  -0.2621
  N  N1991  1  0.702780  0.666960  0.436220  1.0  -0.2943
  N  N1992  1  0.716090  0.036650  0.815910  1.0  -0.3101
  N  N1993  1  0.689300  0.036500  0.791750  1.0  -0.2621
  N  N1994  1  0.702780  0.166960  0.936220  1.0  -0.2943
  N  N1995  1  0.216090  0.536650  0.815910  1.0  -0.3101
  N  N1996  1  0.189300  0.536500  0.791750  1.0  -0.2621
  N  N1997  1  0.202780  0.666960  0.936220  1.0  -0.2943
  N  N1998  1  0.216090  0.036650  0.315910  1.0  -0.3101
  N  N1999  1  0.189300  0.036500  0.291750  1.0  -0.2621
  N  N2000  1  0.202780  0.166960  0.436220  1.0  -0.2943
  N  N2001  1  0.684090  0.716090  0.463350  1.0  -0.3108
  N  N2002  1  0.708250  0.689300  0.463500  1.0  -0.184
  N  N2003  1  0.563780  0.702780  0.333040  1.0  -0.2911
  N  N2004  1  0.684090  0.216090  0.963350  1.0  -0.3108
  N  N2005  1  0.708250  0.189300  0.963500  1.0  -0.184
  N  N2006  1  0.563780  0.202780  0.833040  1.0  -0.2911
  N  N2007  1  0.184090  0.716090  0.963350  1.0  -0.3108
  N  N2008  1  0.208250  0.689300  0.963500  1.0  -0.184
  N  N2009  1  0.063780  0.702780  0.833040  1.0  -0.2911
  N  N2010  1  0.184090  0.216090  0.463350  1.0  -0.3108
  N  N2011  1  0.208250  0.189300  0.463500  1.0  -0.184
  N  N2012  1  0.063780  0.202780  0.333040  1.0  -0.2911
  N  N2013  1  0.684090  0.283910  0.536650  1.0  -0.3133
  N  N2014  1  0.708250  0.310700  0.536500  1.0  -0.1855
  N  N2015  1  0.563780  0.297220  0.666960  1.0  -0.2918
  N  N2016  1  0.684090  0.783910  0.036650  1.0  -0.3133
  N  N2017  1  0.708250  0.810700  0.036500  1.0  -0.1855
  N  N2018  1  0.563780  0.797220  0.166960  1.0  -0.2918
  N  N2019  1  0.184090  0.283910  0.036650  1.0  -0.3133
  N  N2020  1  0.208250  0.310700  0.036500  1.0  -0.1855
  N  N2021  1  0.063780  0.297220  0.166960  1.0  -0.2918
  N  N2022  1  0.184090  0.783910  0.536650  1.0  -0.3133
  N  N2023  1  0.208250  0.810700  0.536500  1.0  -0.1855
  N  N2024  1  0.063780  0.797220  0.666960  1.0  -0.2918
  N  N2025  1  0.315910  0.283910  0.463350  1.0  -0.3118
  N  N2026  1  0.291750  0.310700  0.463500  1.0  -0.1842
  N  N2027  1  0.436220  0.297220  0.333040  1.0  -0.291
  N  N2028  1  0.315910  0.783910  0.963350  1.0  -0.3118
  N  N2029  1  0.291750  0.810700  0.963500  1.0  -0.1842
  N  N2030  1  0.436220  0.797220  0.833040  1.0  -0.291
  N  N2031  1  0.815910  0.283910  0.963350  1.0  -0.3118
  N  N2032  1  0.791750  0.310700  0.963500  1.0  -0.1842
  N  N2033  1  0.936220  0.297220  0.833040  1.0  -0.291
  N  N2034  1  0.815910  0.783910  0.463350  1.0  -0.3118
  N  N2035  1  0.791750  0.810700  0.463500  1.0  -0.1842
  N  N2036  1  0.936220  0.797220  0.333040  1.0  -0.291
  N  N2037  1  0.315910  0.716090  0.536650  1.0  -0.3121
  N  N2038  1  0.291750  0.689300  0.536500  1.0  -0.186
  N  N2039  1  0.436220  0.702780  0.666960  1.0  -0.2915
  N  N2040  1  0.315910  0.216090  0.036650  1.0  -0.3121
  N  N2041  1  0.291750  0.189300  0.036500  1.0  -0.186
  N  N2042  1  0.436220  0.202780  0.166960  1.0  -0.2915
  N  N2043  1  0.815910  0.716090  0.036650  1.0  -0.3121
  N  N2044  1  0.791750  0.689300  0.036500  1.0  -0.186
  N  N2045  1  0.936220  0.702780  0.166960  1.0  -0.2915
  N  N2046  1  0.815910  0.216090  0.536650  1.0  -0.3121
  N  N2047  1  0.791750  0.189300  0.536500  1.0  -0.186
  N  N2048  1  0.936220  0.202780  0.666960  1.0  -0.2915
  N  N2049  1  0.463350  0.684090  0.716090  1.0  -0.311
  N  N2050  1  0.463500  0.708250  0.689300  1.0  -0.1819
  N  N2051  1  0.463350  0.184090  0.216090  1.0  -0.311
  N  N2052  1  0.463500  0.208250  0.189300  1.0  -0.1819
  N  N2053  1  0.963350  0.684090  0.216090  1.0  -0.311
  N  N2054  1  0.963500  0.708250  0.189300  1.0  -0.1819
  N  N2055  1  0.963350  0.184090  0.716090  1.0  -0.311
  N  N2056  1  0.963500  0.208250  0.689300  1.0  -0.1819
  N  N2057  1  0.536650  0.684090  0.283910  1.0  -0.3128
  N  N2058  1  0.536500  0.708250  0.310700  1.0  -0.1827
  N  N2059  1  0.536650  0.184090  0.783910  1.0  -0.3128
  N  N2060  1  0.536500  0.208250  0.810700  1.0  -0.1827
  N  N2061  1  0.036650  0.684090  0.783910  1.0  -0.3128
  N  N2062  1  0.036500  0.708250  0.810700  1.0  -0.1827
  N  N2063  1  0.036650  0.184090  0.283910  1.0  -0.3128
  N  N2064  1  0.036500  0.208250  0.310700  1.0  -0.1827
  N  N2065  1  0.463350  0.315910  0.283910  1.0  -0.3119
  N  N2066  1  0.463500  0.291750  0.310700  1.0  -0.1814
  N  N2067  1  0.463350  0.815910  0.783910  1.0  -0.3119
  N  N2068  1  0.463500  0.791750  0.810700  1.0  -0.1814
  N  N2069  1  0.963350  0.315910  0.783910  1.0  -0.3119
  N  N2070  1  0.963500  0.291750  0.810700  1.0  -0.1814
  N  N2071  1  0.963350  0.815910  0.283910  1.0  -0.3119
  N  N2072  1  0.963500  0.791750  0.310700  1.0  -0.1814
  N  N2073  1  0.536650  0.315910  0.716090  1.0  -0.3146
  N  N2074  1  0.536500  0.291750  0.689300  1.0  -0.1833
  N  N2075  1  0.536650  0.815910  0.216090  1.0  -0.3146
  N  N2076  1  0.536500  0.791750  0.189300  1.0  -0.1833
  N  N2077  1  0.036650  0.315910  0.216090  1.0  -0.3146
  N  N2078  1  0.036500  0.291750  0.189300  1.0  -0.1833
  N  N2079  1  0.036650  0.815910  0.716090  1.0  -0.3146
  N  N2080  1  0.036500  0.791750  0.689300  1.0  -0.1833
  N  N2081  1  0.963350  0.216090  0.815910  1.0  -0.3085
  N  N2082  1  0.963500  0.189300  0.791750  1.0  -0.2611
  N  N2083  1  0.833040  0.202780  0.936220  1.0  -0.2939
  N  N2084  1  0.963350  0.716090  0.315910  1.0  -0.3085
  N  N2085  1  0.963500  0.689300  0.291750  1.0  -0.2611
  N  N2086  1  0.833040  0.702780  0.436220  1.0  -0.2939
  N  N2087  1  0.463350  0.216090  0.315910  1.0  -0.3085
  N  N2088  1  0.463500  0.189300  0.291750  1.0  -0.2611
  N  N2089  1  0.333040  0.202780  0.436220  1.0  -0.2939
  N  N2090  1  0.463350  0.716090  0.815910  1.0  -0.3085
  N  N2091  1  0.463500  0.689300  0.791750  1.0  -0.2611
  N  N2092  1  0.333040  0.702780  0.936220  1.0  -0.2939
  N  N2093  1  0.036650  0.783910  0.815910  1.0  -0.3124
  N  N2094  1  0.036500  0.810700  0.791750  1.0  -0.2619
  N  N2095  1  0.166960  0.797220  0.936220  1.0  -0.2938
  N  N2096  1  0.036650  0.283910  0.315910  1.0  -0.3124
  N  N2097  1  0.036500  0.310700  0.291750  1.0  -0.2619
  N  N2098  1  0.166960  0.297220  0.436220  1.0  -0.2938
  N  N2099  1  0.536650  0.783910  0.315910  1.0  -0.3124
  N  N2100  1  0.536500  0.810700  0.291750  1.0  -0.2619
  N  N2101  1  0.666960  0.797220  0.436220  1.0  -0.2938
  N  N2102  1  0.536650  0.283910  0.815910  1.0  -0.3124
  N  N2103  1  0.536500  0.310700  0.791750  1.0  -0.2619
  N  N2104  1  0.666960  0.297220  0.936220  1.0  -0.2938
  N  N2105  1  0.963350  0.783910  0.184090  1.0  -0.3105
  N  N2106  1  0.963500  0.810700  0.208250  1.0  -0.2594
  N  N2107  1  0.833040  0.797220  0.063780  1.0  -0.2941
  N  N2108  1  0.963350  0.283910  0.684090  1.0  -0.3105
  N  N2109  1  0.963500  0.310700  0.708250  1.0  -0.2594
  N  N2110  1  0.833040  0.297220  0.563780  1.0  -0.2941
  N  N2111  1  0.463350  0.783910  0.684090  1.0  -0.3105
  N  N2112  1  0.463500  0.810700  0.708250  1.0  -0.2594
  N  N2113  1  0.333040  0.797220  0.563780  1.0  -0.2941
  N  N2114  1  0.463350  0.283910  0.184090  1.0  -0.3105
  N  N2115  1  0.463500  0.310700  0.208250  1.0  -0.2594
  N  N2116  1  0.333040  0.297220  0.063780  1.0  -0.2941
  N  N2117  1  0.036650  0.216090  0.184090  1.0  -0.3128
  N  N2118  1  0.036500  0.189300  0.208250  1.0  -0.2601
  N  N2119  1  0.166960  0.202780  0.063780  1.0  -0.2946
  N  N2120  1  0.036650  0.716090  0.684090  1.0  -0.3128
  N  N2121  1  0.036500  0.689300  0.708250  1.0  -0.2601
  N  N2122  1  0.166960  0.702780  0.563780  1.0  -0.2946
  N  N2123  1  0.536650  0.216090  0.684090  1.0  -0.3128
  N  N2124  1  0.536500  0.189300  0.708250  1.0  -0.2601
  N  N2125  1  0.666960  0.202780  0.563780  1.0  -0.2946
  N  N2126  1  0.536650  0.716090  0.184090  1.0  -0.3128
  N  N2127  1  0.536500  0.689300  0.208250  1.0  -0.2601
  N  N2128  1  0.666960  0.702780  0.063780  1.0  -0.2946
  N  N2129  1  0.216090  0.184090  0.036650  1.0  -0.3124
  N  N2130  1  0.189300  0.208250  0.036500  1.0  -0.1853
  N  N2131  1  0.202780  0.063780  0.166960  1.0  -0.2943
  N  N2132  1  0.216090  0.684090  0.536650  1.0  -0.3124
  N  N2133  1  0.189300  0.708250  0.536500  1.0  -0.1853
  N  N2134  1  0.202780  0.563780  0.666960  1.0  -0.2943
  N  N2135  1  0.716090  0.184090  0.536650  1.0  -0.3124
  N  N2136  1  0.689300  0.208250  0.536500  1.0  -0.1853
  N  N2137  1  0.702780  0.063780  0.666960  1.0  -0.2943
  N  N2138  1  0.716090  0.684090  0.036650  1.0  -0.3124
  N  N2139  1  0.689300  0.708250  0.036500  1.0  -0.1853
  N  N2140  1  0.702780  0.563780  0.166960  1.0  -0.2943
  N  N2141  1  0.783910  0.184090  0.963350  1.0  -0.3122
  N  N2142  1  0.810700  0.208250  0.963500  1.0  -0.1838
  N  N2143  1  0.797220  0.063780  0.833040  1.0  -0.293
  N  N2144  1  0.783910  0.684090  0.463350  1.0  -0.3122
  N  N2145  1  0.810700  0.708250  0.463500  1.0  -0.1838
  N  N2146  1  0.797220  0.563780  0.333040  1.0  -0.293
  N  N2147  1  0.283910  0.184090  0.463350  1.0  -0.3122
  N  N2148  1  0.310700  0.208250  0.463500  1.0  -0.1838
  N  N2149  1  0.297220  0.063780  0.333040  1.0  -0.293
  N  N2150  1  0.283910  0.684090  0.963350  1.0  -0.3122
  N  N2151  1  0.310700  0.708250  0.963500  1.0  -0.1838
  N  N2152  1  0.297220  0.563780  0.833040  1.0  -0.293
  N  N2153  1  0.783910  0.815910  0.036650  1.0  -0.3146
  N  N2154  1  0.810700  0.791750  0.036500  1.0  -0.1852
  N  N2155  1  0.797220  0.936220  0.166960  1.0  -0.2919
  N  N2156  1  0.783910  0.315910  0.536650  1.0  -0.3146
  N  N2157  1  0.810700  0.291750  0.536500  1.0  -0.1852
  N  N2158  1  0.797220  0.436220  0.666960  1.0  -0.2919
  N  N2159  1  0.283910  0.815910  0.536650  1.0  -0.3146
  N  N2160  1  0.310700  0.791750  0.536500  1.0  -0.1852
  N  N2161  1  0.297220  0.936220  0.666960  1.0  -0.2919
  N  N2162  1  0.283910  0.315910  0.036650  1.0  -0.3146
  N  N2163  1  0.310700  0.291750  0.036500  1.0  -0.1852
  N  N2164  1  0.297220  0.436220  0.166960  1.0  -0.2919
  N  N2165  1  0.216090  0.815910  0.963350  1.0  -0.3122
  N  N2166  1  0.189300  0.791750  0.963500  1.0  -0.1838
  N  N2167  1  0.202780  0.936220  0.833040  1.0  -0.2924
  N  N2168  1  0.216090  0.315910  0.463350  1.0  -0.3122
  N  N2169  1  0.189300  0.291750  0.463500  1.0  -0.1838
  N  N2170  1  0.202780  0.436220  0.333040  1.0  -0.2924
  N  N2171  1  0.716090  0.815910  0.463350  1.0  -0.3122
  N  N2172  1  0.689300  0.791750  0.463500  1.0  -0.1838
  N  N2173  1  0.702780  0.936220  0.333040  1.0  -0.2924
  N  N2174  1  0.716090  0.315910  0.963350  1.0  -0.3122
  N  N2175  1  0.689300  0.291750  0.963500  1.0  -0.1838
  N  N2176  1  0.702780  0.436220  0.833040  1.0  -0.2924
  N  N2177  1  0.184090  0.963350  0.783910  1.0  -0.3118
  N  N2178  1  0.208250  0.963500  0.810700  1.0  -0.1825
  N  N2179  1  0.184090  0.463350  0.283910  1.0  -0.3118
  N  N2180  1  0.208250  0.463500  0.310700  1.0  -0.1825
  N  N2181  1  0.684090  0.963350  0.283910  1.0  -0.3118
  N  N2182  1  0.708250  0.963500  0.310700  1.0  -0.1825
  N  N2183  1  0.684090  0.463350  0.783910  1.0  -0.3118
  N  N2184  1  0.708250  0.463500  0.810700  1.0  -0.1825
  N  N2185  1  0.184090  0.036650  0.216090  1.0  -0.3122
  N  N2186  1  0.208250  0.036500  0.189300  1.0  -0.1825
  N  N2187  1  0.184090  0.536650  0.716090  1.0  -0.3122
  N  N2188  1  0.208250  0.536500  0.689300  1.0  -0.1825
  N  N2189  1  0.684090  0.036650  0.716090  1.0  -0.3122
  N  N2190  1  0.708250  0.036500  0.689300  1.0  -0.1825
  N  N2191  1  0.684090  0.536650  0.216090  1.0  -0.3122
  N  N2192  1  0.708250  0.536500  0.189300  1.0  -0.1825
  N  N2193  1  0.815910  0.963350  0.216090  1.0  -0.3127
  N  N2194  1  0.791750  0.963500  0.189300  1.0  -0.1838
  N  N2195  1  0.815910  0.463350  0.716090  1.0  -0.3127
  N  N2196  1  0.791750  0.463500  0.689300  1.0  -0.1838
  N  N2197  1  0.315910  0.963350  0.716090  1.0  -0.3127
  N  N2198  1  0.291750  0.963500  0.689300  1.0  -0.1838
  N  N2199  1  0.315910  0.463350  0.216090  1.0  -0.3127
  N  N2200  1  0.291750  0.463500  0.189300  1.0  -0.1838
  N  N2201  1  0.815910  0.036650  0.783910  1.0  -0.312
  N  N2202  1  0.791750  0.036500  0.810700  1.0  -0.1825
  N  N2203  1  0.815910  0.536650  0.283910  1.0  -0.312
  N  N2204  1  0.791750  0.536500  0.310700  1.0  -0.1825
  N  N2205  1  0.315910  0.036650  0.283910  1.0  -0.312
  N  N2206  1  0.291750  0.036500  0.310700  1.0  -0.1825
  N  N2207  1  0.315910  0.536650  0.783910  1.0  -0.312
  N  N2208  1  0.291750  0.536500  0.810700  1.0  -0.1825
  Cl  Cl2209  1  0.250000  0.500000  0.250000  1.0  -0.216
  Cl  Cl2210  1  0.250000  0.000000  0.750000  1.0  -0.216
  Cl  Cl2211  1  0.750000  0.000000  0.250000  1.0  -0.216
  Cl  Cl2212  1  0.750000  0.500000  0.250000  1.0  -0.216
  Cl  Cl2213  1  0.250000  0.000000  0.250000  1.0  -0.216
  Cl  Cl2214  1  0.750000  0.500000  0.750000  1.0  -0.216
  Cl  Cl2215  1  0.250000  0.500000  0.750000  1.0  -0.216
  Cl  Cl2216  1  0.250000  0.250000  0.500000  1.0  -0.216
  Cl  Cl2217  1  0.250000  0.750000  0.000000  1.0  -0.216
  Cl  Cl2218  1  0.750000  0.250000  0.000000  1.0  -0.216
  Cl  Cl2219  1  0.250000  0.750000  0.500000  1.0  -0.216
  Cl  Cl2220  1  0.250000  0.250000  0.000000  1.0  -0.216
  Cl  Cl2221  1  0.750000  0.750000  0.500000  1.0  -0.216
  Cl  Cl2222  1  0.750000  0.250000  0.500000  1.0  -0.216
  Cl  Cl2223  1  0.500000  0.250000  0.250000  1.0  -0.216
  Cl  Cl2224  1  0.000000  0.250000  0.750000  1.0  -0.216
  Cl  Cl2225  1  0.000000  0.750000  0.250000  1.0  -0.216
  Cl  Cl2226  1  0.500000  0.250000  0.750000  1.0  -0.216
  Cl  Cl2227  1  0.000000  0.250000  0.250000  1.0  -0.216
  Cl  Cl2228  1  0.500000  0.750000  0.750000  1.0  -0.216
  Cl  Cl2229  1  0.500000  0.750000  0.250000  1.0  -0.216
  Cl  Cl2230  1  0.000000  0.750000  0.750000  1.0  -0.216
  Cl  Cl2231  1  0.750000  0.750000  0.000000  1.0  -0.216
  Cl  Cl2232  1  0.750000  0.000000  0.750000  1.0  -0.216
