# generated using pymatgen
data_Co4H16C32N24Cl
_symmetry_space_group_name_H-M   'P 1'
_cell_length_a   37.41390000
_cell_length_b   37.41390000
_cell_length_c   37.41390000
_cell_angle_alpha   90.00000000
_cell_angle_beta   90.00000000
_cell_angle_gamma   90.00000000
_symmetry_Int_Tables_number   1
_chemical_formula_structural   Co4H16C32N24Cl
_chemical_formula_sum   'Co96 H384 C768 N576 Cl24'
_cell_volume   52371.97397285
_cell_formula_units_Z   24
loop_
 _symmetry_equiv_pos_site_id
 _symmetry_equiv_pos_as_xyz
  1  'x, y, z'
loop_
 _atom_site_type_symbol
 _atom_site_label
 _atom_site_symmetry_multiplicity
 _atom_site_fract_x
 _atom_site_fract_y
 _atom_site_fract_z
 _atom_site_occupancy
 _atom_site_charge
  Co  Co1  1  0.500000  0.246170  0.316330  1.0  0.9297
  Co  Co2  1  0.500000  0.746170  0.816330  1.0  0.9297
  Co  Co3  1  0.000000  0.246170  0.816330  1.0  0.9297
  Co  Co4  1  0.000000  0.746170  0.316330  1.0  0.9297
  Co  Co5  1  0.500000  0.753830  0.316330  1.0  0.9299
  Co  Co6  1  0.500000  0.253830  0.816330  1.0  0.9299
  Co  Co7  1  0.000000  0.753830  0.816330  1.0  0.9299
  Co  Co8  1  0.000000  0.253830  0.316330  1.0  0.9299
  Co  Co9  1  0.500000  0.246170  0.683670  1.0  0.932
  Co  Co10  1  0.500000  0.746170  0.183670  1.0  0.932
  Co  Co11  1  0.000000  0.246170  0.183670  1.0  0.932
  Co  Co12  1  0.000000  0.746170  0.683670  1.0  0.932
  Co  Co13  1  0.500000  0.753830  0.683670  1.0  0.9322
  Co  Co14  1  0.500000  0.253830  0.183670  1.0  0.9322
  Co  Co15  1  0.000000  0.753830  0.183670  1.0  0.9322
  Co  Co16  1  0.000000  0.253830  0.683670  1.0  0.9322
  Co  Co17  1  0.316330  0.500000  0.246170  1.0  0.931
  Co  Co18  1  0.316330  0.000000  0.746170  1.0  0.931
  Co  Co19  1  0.816330  0.500000  0.746170  1.0  0.931
  Co  Co20  1  0.816330  0.000000  0.246170  1.0  0.931
  Co  Co21  1  0.316330  0.500000  0.753830  1.0  0.9302
  Co  Co22  1  0.316330  0.000000  0.253830  1.0  0.9302
  Co  Co23  1  0.816330  0.500000  0.253830  1.0  0.9302
  Co  Co24  1  0.816330  0.000000  0.753830  1.0  0.9302
  Co  Co25  1  0.683670  0.500000  0.246170  1.0  0.932
  Co  Co26  1  0.683670  0.000000  0.746170  1.0  0.932
  Co  Co27  1  0.183670  0.500000  0.746170  1.0  0.932
  Co  Co28  1  0.183670  0.000000  0.246170  1.0  0.932
  Co  Co29  1  0.683670  0.500000  0.753830  1.0  0.9314
  Co  Co30  1  0.683670  0.000000  0.253830  1.0  0.9314
  Co  Co31  1  0.183670  0.500000  0.253830  1.0  0.9314
  Co  Co32  1  0.183670  0.000000  0.753830  1.0  0.9314
  Co  Co33  1  0.246170  0.316330  0.500000  1.0  0.9314
  Co  Co34  1  0.246170  0.816330  0.000000  1.0  0.9314
  Co  Co35  1  0.746170  0.316330  0.000000  1.0  0.9314
  Co  Co36  1  0.746170  0.816330  0.500000  1.0  0.9314
  Co  Co37  1  0.753830  0.316330  0.500000  1.0  0.9316
  Co  Co38  1  0.753830  0.816330  0.000000  1.0  0.9316
  Co  Co39  1  0.253830  0.316330  0.000000  1.0  0.9316
  Co  Co40  1  0.253830  0.816330  0.500000  1.0  0.9316
  Co  Co41  1  0.246170  0.683670  0.500000  1.0  0.9288
  Co  Co42  1  0.246170  0.183670  0.000000  1.0  0.9288
  Co  Co43  1  0.746170  0.683670  0.000000  1.0  0.9288
  Co  Co44  1  0.746170  0.183670  0.500000  1.0  0.9288
  Co  Co45  1  0.753830  0.683670  0.500000  1.0  0.9286
  Co  Co46  1  0.753830  0.183670  0.000000  1.0  0.9286
  Co  Co47  1  0.253830  0.683670  0.000000  1.0  0.9286
  Co  Co48  1  0.253830  0.183670  0.500000  1.0  0.9286
  Co  Co49  1  0.746170  0.000000  0.183670  1.0  0.9323
  Co  Co50  1  0.746170  0.500000  0.683670  1.0  0.9323
  Co  Co51  1  0.246170  0.000000  0.683670  1.0  0.9323
  Co  Co52  1  0.246170  0.500000  0.183670  1.0  0.9323
  Co  Co53  1  0.253830  0.000000  0.183670  1.0  0.9322
  Co  Co54  1  0.253830  0.500000  0.683670  1.0  0.9322
  Co  Co55  1  0.753830  0.000000  0.683670  1.0  0.9322
  Co  Co56  1  0.753830  0.500000  0.183670  1.0  0.9322
  Co  Co57  1  0.746170  0.000000  0.816330  1.0  0.93
  Co  Co58  1  0.746170  0.500000  0.316330  1.0  0.93
  Co  Co59  1  0.246170  0.000000  0.316330  1.0  0.93
  Co  Co60  1  0.246170  0.500000  0.816330  1.0  0.93
  Co  Co61  1  0.253830  0.000000  0.816330  1.0  0.9299
  Co  Co62  1  0.253830  0.500000  0.316330  1.0  0.9299
  Co  Co63  1  0.753830  0.000000  0.316330  1.0  0.9299
  Co  Co64  1  0.753830  0.500000  0.816330  1.0  0.9299
  Co  Co65  1  0.000000  0.816330  0.253830  1.0  0.9316
  Co  Co66  1  0.000000  0.316330  0.753830  1.0  0.9316
  Co  Co67  1  0.500000  0.816330  0.753830  1.0  0.9316
  Co  Co68  1  0.500000  0.316330  0.253830  1.0  0.9316
  Co  Co69  1  0.000000  0.816330  0.746170  1.0  0.9322
  Co  Co70  1  0.000000  0.316330  0.246170  1.0  0.9322
  Co  Co71  1  0.500000  0.816330  0.246170  1.0  0.9322
  Co  Co72  1  0.500000  0.316330  0.746170  1.0  0.9322
  Co  Co73  1  0.000000  0.183670  0.253830  1.0  0.9288
  Co  Co74  1  0.000000  0.683670  0.753830  1.0  0.9288
  Co  Co75  1  0.500000  0.183670  0.753830  1.0  0.9288
  Co  Co76  1  0.500000  0.683670  0.253830  1.0  0.9288
  Co  Co77  1  0.000000  0.183670  0.746170  1.0  0.9294
  Co  Co78  1  0.000000  0.683670  0.246170  1.0  0.9294
  Co  Co79  1  0.500000  0.183670  0.246170  1.0  0.9294
  Co  Co80  1  0.500000  0.683670  0.746170  1.0  0.9294
  Co  Co81  1  0.816330  0.746170  0.000000  1.0  0.9297
  Co  Co82  1  0.816330  0.246170  0.500000  1.0  0.9297
  Co  Co83  1  0.316330  0.746170  0.500000  1.0  0.9297
  Co  Co84  1  0.316330  0.246170  0.000000  1.0  0.9297
  Co  Co85  1  0.816330  0.253830  0.000000  1.0  0.93
  Co  Co86  1  0.816330  0.753830  0.500000  1.0  0.93
  Co  Co87  1  0.316330  0.253830  0.500000  1.0  0.93
  Co  Co88  1  0.316330  0.753830  0.000000  1.0  0.93
  Co  Co89  1  0.183670  0.746170  0.000000  1.0  0.9308
  Co  Co90  1  0.183670  0.246170  0.500000  1.0  0.9308
  Co  Co91  1  0.683670  0.746170  0.500000  1.0  0.9308
  Co  Co92  1  0.683670  0.246170  0.000000  1.0  0.9308
  Co  Co93  1  0.183670  0.253830  0.000000  1.0  0.9313
  Co  Co94  1  0.183670  0.753830  0.500000  1.0  0.9313
  Co  Co95  1  0.683670  0.253830  0.500000  1.0  0.9313
  Co  Co96  1  0.683670  0.753830  0.000000  1.0  0.9313
  H  H97  1  0.572700  0.274900  0.357000  1.0  0.1004
  H  H98  1  0.618600  0.376700  0.302600  1.0  0.0934
  H  H99  1  0.572700  0.774900  0.857000  1.0  0.1004
  H  H100  1  0.618600  0.876700  0.802600  1.0  0.0934
  H  H101  1  0.072700  0.274900  0.857000  1.0  0.1004
  H  H102  1  0.118600  0.376700  0.802600  1.0  0.0934
  H  H103  1  0.072700  0.774900  0.357000  1.0  0.1004
  H  H104  1  0.118600  0.876700  0.302600  1.0  0.0934
  H  H105  1  0.427300  0.725100  0.357000  1.0  0.1004
  H  H106  1  0.381400  0.623300  0.302600  1.0  0.0934
  H  H107  1  0.427300  0.225100  0.857000  1.0  0.1004
  H  H108  1  0.381400  0.123300  0.802600  1.0  0.0934
  H  H109  1  0.927300  0.725100  0.857000  1.0  0.1004
  H  H110  1  0.881400  0.623300  0.802600  1.0  0.0934
  H  H111  1  0.927300  0.225100  0.357000  1.0  0.1004
  H  H112  1  0.881400  0.123300  0.302600  1.0  0.0934
  H  H113  1  0.427300  0.274900  0.643000  1.0  0.1002
  H  H114  1  0.381400  0.376700  0.697400  1.0  0.0925
  H  H115  1  0.427300  0.774900  0.143000  1.0  0.1002
  H  H116  1  0.381400  0.876700  0.197400  1.0  0.0925
  H  H117  1  0.927300  0.274900  0.143000  1.0  0.1002
  H  H118  1  0.881400  0.376700  0.197400  1.0  0.0925
  H  H119  1  0.927300  0.774900  0.643000  1.0  0.1002
  H  H120  1  0.881400  0.876700  0.697400  1.0  0.0925
  H  H121  1  0.572700  0.725100  0.643000  1.0  0.0999
  H  H122  1  0.618600  0.623300  0.697400  1.0  0.0931
  H  H123  1  0.572700  0.225100  0.143000  1.0  0.0999
  H  H124  1  0.618600  0.123300  0.197400  1.0  0.0931
  H  H125  1  0.072700  0.725100  0.143000  1.0  0.0999
  H  H126  1  0.118600  0.623300  0.197400  1.0  0.0931
  H  H127  1  0.072700  0.225100  0.643000  1.0  0.0999
  H  H128  1  0.118600  0.123300  0.697400  1.0  0.0931
  H  H129  1  0.357000  0.572700  0.274900  1.0  0.0995
  H  H130  1  0.302600  0.618600  0.376700  1.0  0.0931
  H  H131  1  0.357000  0.072700  0.774900  1.0  0.0995
  H  H132  1  0.302600  0.118600  0.876700  1.0  0.0931
  H  H133  1  0.857000  0.572700  0.774900  1.0  0.0995
  H  H134  1  0.802600  0.618600  0.876700  1.0  0.0931
  H  H135  1  0.857000  0.072700  0.274900  1.0  0.0995
  H  H136  1  0.802600  0.118600  0.376700  1.0  0.0931
  H  H137  1  0.357000  0.427300  0.725100  1.0  0.0994
  H  H138  1  0.302600  0.381400  0.623300  1.0  0.0922
  H  H139  1  0.357000  0.927300  0.225100  1.0  0.0994
  H  H140  1  0.302600  0.881400  0.123300  1.0  0.0922
  H  H141  1  0.857000  0.427300  0.225100  1.0  0.0994
  H  H142  1  0.802600  0.381400  0.123300  1.0  0.0922
  H  H143  1  0.857000  0.927300  0.725100  1.0  0.0994
  H  H144  1  0.802600  0.881400  0.623300  1.0  0.0922
  H  H145  1  0.643000  0.427300  0.274900  1.0  0.0989
  H  H146  1  0.697400  0.381400  0.376700  1.0  0.0924
  H  H147  1  0.643000  0.927300  0.774900  1.0  0.0989
  H  H148  1  0.697400  0.881400  0.876700  1.0  0.0924
  H  H149  1  0.143000  0.427300  0.774900  1.0  0.0989
  H  H150  1  0.197400  0.381400  0.876700  1.0  0.0924
  H  H151  1  0.143000  0.927300  0.274900  1.0  0.0989
  H  H152  1  0.197400  0.881400  0.376700  1.0  0.0924
  H  H153  1  0.643000  0.572700  0.725100  1.0  0.0992
  H  H154  1  0.697400  0.618600  0.623300  1.0  0.0927
  H  H155  1  0.643000  0.072700  0.225100  1.0  0.0992
  H  H156  1  0.697400  0.118600  0.123300  1.0  0.0927
  H  H157  1  0.143000  0.572700  0.225100  1.0  0.0992
  H  H158  1  0.197400  0.618600  0.123300  1.0  0.0927
  H  H159  1  0.143000  0.072700  0.725100  1.0  0.0992
  H  H160  1  0.197400  0.118600  0.623300  1.0  0.0927
  H  H161  1  0.274900  0.357000  0.572700  1.0  0.1009
  H  H162  1  0.376700  0.302600  0.618600  1.0  0.0919
  H  H163  1  0.274900  0.857000  0.072700  1.0  0.1009
  H  H164  1  0.376700  0.802600  0.118600  1.0  0.0919
  H  H165  1  0.774900  0.357000  0.072700  1.0  0.1009
  H  H166  1  0.876700  0.302600  0.118600  1.0  0.0919
  H  H167  1  0.774900  0.857000  0.572700  1.0  0.1009
  H  H168  1  0.876700  0.802600  0.618600  1.0  0.0919
  H  H169  1  0.725100  0.357000  0.427300  1.0  0.1011
  H  H170  1  0.623300  0.302600  0.381400  1.0  0.0922
  H  H171  1  0.725100  0.857000  0.927300  1.0  0.1011
  H  H172  1  0.623300  0.802600  0.881400  1.0  0.0922
  H  H173  1  0.225100  0.357000  0.927300  1.0  0.1011
  H  H174  1  0.123300  0.302600  0.881400  1.0  0.0922
  H  H175  1  0.225100  0.857000  0.427300  1.0  0.1011
  H  H176  1  0.123300  0.802600  0.381400  1.0  0.0922
  H  H177  1  0.274900  0.643000  0.427300  1.0  0.1009
  H  H178  1  0.376700  0.697400  0.381400  1.0  0.0917
  H  H179  1  0.274900  0.143000  0.927300  1.0  0.1009
  H  H180  1  0.376700  0.197400  0.881400  1.0  0.0917
  H  H181  1  0.774900  0.643000  0.927300  1.0  0.1009
  H  H182  1  0.876700  0.697400  0.881400  1.0  0.0917
  H  H183  1  0.774900  0.143000  0.427300  1.0  0.1009
  H  H184  1  0.876700  0.197400  0.381400  1.0  0.0917
  H  H185  1  0.725100  0.643000  0.572700  1.0  0.1009
  H  H186  1  0.623300  0.697400  0.618600  1.0  0.0921
  H  H187  1  0.725100  0.143000  0.072700  1.0  0.1009
  H  H188  1  0.623300  0.197400  0.118600  1.0  0.0921
  H  H189  1  0.225100  0.643000  0.072700  1.0  0.1009
  H  H190  1  0.123300  0.697400  0.118600  1.0  0.0921
  H  H191  1  0.225100  0.143000  0.572700  1.0  0.1009
  H  H192  1  0.123300  0.197400  0.618600  1.0  0.0921
  H  H193  1  0.774900  0.072700  0.143000  1.0  0.1008
  H  H194  1  0.876700  0.118600  0.197400  1.0  0.0933
  H  H195  1  0.774900  0.572700  0.643000  1.0  0.1008
  H  H196  1  0.876700  0.618600  0.697400  1.0  0.0933
  H  H197  1  0.274900  0.072700  0.643000  1.0  0.1008
  H  H198  1  0.376700  0.118600  0.697400  1.0  0.0933
  H  H199  1  0.274900  0.572700  0.143000  1.0  0.1008
  H  H200  1  0.376700  0.618600  0.197400  1.0  0.0933
  H  H201  1  0.225100  0.927300  0.143000  1.0  0.1008
  H  H202  1  0.123300  0.881400  0.197400  1.0  0.093
  H  H203  1  0.225100  0.427300  0.643000  1.0  0.1008
  H  H204  1  0.123300  0.381400  0.697400  1.0  0.093
  H  H205  1  0.725100  0.927300  0.643000  1.0  0.1008
  H  H206  1  0.623300  0.881400  0.697400  1.0  0.093
  H  H207  1  0.725100  0.427300  0.143000  1.0  0.1008
  H  H208  1  0.623300  0.381400  0.197400  1.0  0.093
  H  H209  1  0.774900  0.927300  0.857000  1.0  0.1009
  H  H210  1  0.876700  0.881400  0.802600  1.0  0.0933
  H  H211  1  0.774900  0.427300  0.357000  1.0  0.1009
  H  H212  1  0.876700  0.381400  0.302600  1.0  0.0933
  H  H213  1  0.274900  0.927300  0.357000  1.0  0.1009
  H  H214  1  0.376700  0.881400  0.302600  1.0  0.0933
  H  H215  1  0.274900  0.427300  0.857000  1.0  0.1009
  H  H216  1  0.376700  0.381400  0.802600  1.0  0.0933
  H  H217  1  0.225100  0.072700  0.857000  1.0  0.1012
  H  H218  1  0.123300  0.118600  0.802600  1.0  0.094
  H  H219  1  0.225100  0.572700  0.357000  1.0  0.1012
  H  H220  1  0.123300  0.618600  0.302600  1.0  0.094
  H  H221  1  0.725100  0.072700  0.357000  1.0  0.1012
  H  H222  1  0.623300  0.118600  0.302600  1.0  0.094
  H  H223  1  0.725100  0.572700  0.857000  1.0  0.1012
  H  H224  1  0.623300  0.618600  0.802600  1.0  0.094
  H  H225  1  0.072700  0.857000  0.225100  1.0  0.0995
  H  H226  1  0.118600  0.802600  0.123300  1.0  0.0918
  H  H227  1  0.072700  0.357000  0.725100  1.0  0.0995
  H  H228  1  0.118600  0.302600  0.623300  1.0  0.0918
  H  H229  1  0.572700  0.857000  0.725100  1.0  0.0995
  H  H230  1  0.618600  0.802600  0.623300  1.0  0.0918
  H  H231  1  0.572700  0.357000  0.225100  1.0  0.0995
  H  H232  1  0.618600  0.302600  0.123300  1.0  0.0918
  H  H233  1  0.927300  0.857000  0.774900  1.0  0.0998
  H  H234  1  0.881400  0.802600  0.876700  1.0  0.0923
  H  H235  1  0.927300  0.357000  0.274900  1.0  0.0998
  H  H236  1  0.881400  0.302600  0.376700  1.0  0.0923
  H  H237  1  0.427300  0.857000  0.274900  1.0  0.0998
  H  H238  1  0.381400  0.802600  0.376700  1.0  0.0923
  H  H239  1  0.427300  0.357000  0.774900  1.0  0.0998
  H  H240  1  0.381400  0.302600  0.876700  1.0  0.0923
  H  H241  1  0.927300  0.143000  0.225100  1.0  0.0998
  H  H242  1  0.881400  0.197400  0.123300  1.0  0.0916
  H  H243  1  0.927300  0.643000  0.725100  1.0  0.0998
  H  H244  1  0.881400  0.697400  0.623300  1.0  0.0916
  H  H245  1  0.427300  0.143000  0.725100  1.0  0.0998
  H  H246  1  0.381400  0.197400  0.623300  1.0  0.0916
  H  H247  1  0.427300  0.643000  0.225100  1.0  0.0998
  H  H248  1  0.381400  0.697400  0.123300  1.0  0.0916
  H  H249  1  0.072700  0.143000  0.774900  1.0  0.0991
  H  H250  1  0.118600  0.197400  0.876700  1.0  0.0922
  H  H251  1  0.072700  0.643000  0.274900  1.0  0.0991
  H  H252  1  0.118600  0.697400  0.376700  1.0  0.0922
  H  H253  1  0.572700  0.143000  0.274900  1.0  0.0991
  H  H254  1  0.618600  0.197400  0.376700  1.0  0.0922
  H  H255  1  0.572700  0.643000  0.774900  1.0  0.0991
  H  H256  1  0.618600  0.697400  0.876700  1.0  0.0922
  H  H257  1  0.857000  0.774900  0.927300  1.0  0.1003
  H  H258  1  0.802600  0.876700  0.881400  1.0  0.0923
  H  H259  1  0.857000  0.274900  0.427300  1.0  0.1003
  H  H260  1  0.802600  0.376700  0.381400  1.0  0.0923
  H  H261  1  0.357000  0.774900  0.427300  1.0  0.1003
  H  H262  1  0.302600  0.876700  0.381400  1.0  0.0923
  H  H263  1  0.357000  0.274900  0.927300  1.0  0.1003
  H  H264  1  0.302600  0.376700  0.881400  1.0  0.0923
  H  H265  1  0.857000  0.225100  0.072700  1.0  0.1001
  H  H266  1  0.802600  0.123300  0.118600  1.0  0.092
  H  H267  1  0.857000  0.725100  0.572700  1.0  0.1001
  H  H268  1  0.802600  0.623300  0.618600  1.0  0.092
  H  H269  1  0.357000  0.225100  0.572700  1.0  0.1001
  H  H270  1  0.302600  0.123300  0.618600  1.0  0.092
  H  H271  1  0.357000  0.725100  0.072700  1.0  0.1001
  H  H272  1  0.302600  0.623300  0.118600  1.0  0.092
  H  H273  1  0.143000  0.774900  0.072700  1.0  0.0992
  H  H274  1  0.197400  0.876700  0.118600  1.0  0.0922
  H  H275  1  0.143000  0.274900  0.572700  1.0  0.0992
  H  H276  1  0.197400  0.376700  0.618600  1.0  0.0922
  H  H277  1  0.643000  0.774900  0.572700  1.0  0.0992
  H  H278  1  0.697400  0.876700  0.618600  1.0  0.0922
  H  H279  1  0.643000  0.274900  0.072700  1.0  0.0992
  H  H280  1  0.697400  0.376700  0.118600  1.0  0.0922
  H  H281  1  0.143000  0.225100  0.927300  1.0  0.0997
  H  H282  1  0.197400  0.123300  0.881400  1.0  0.0926
  H  H283  1  0.143000  0.725100  0.427300  1.0  0.0997
  H  H284  1  0.197400  0.623300  0.381400  1.0  0.0926
  H  H285  1  0.643000  0.225100  0.427300  1.0  0.0997
  H  H286  1  0.697400  0.123300  0.381400  1.0  0.0926
  H  H287  1  0.643000  0.725100  0.927300  1.0  0.0997
  H  H288  1  0.697400  0.623300  0.881400  1.0  0.0926
  H  H289  1  0.427300  0.725100  0.643000  1.0  0.1002
  H  H290  1  0.381400  0.623300  0.697400  1.0  0.0929
  H  H291  1  0.427300  0.225100  0.143000  1.0  0.1002
  H  H292  1  0.381400  0.123300  0.197400  1.0  0.0929
  H  H293  1  0.927300  0.725100  0.143000  1.0  0.1002
  H  H294  1  0.881400  0.623300  0.197400  1.0  0.0929
  H  H295  1  0.927300  0.225100  0.643000  1.0  0.1002
  H  H296  1  0.881400  0.123300  0.697400  1.0  0.0929
  H  H297  1  0.572700  0.274900  0.643000  1.0  0.0999
  H  H298  1  0.618600  0.376700  0.697400  1.0  0.0928
  H  H299  1  0.572700  0.774900  0.143000  1.0  0.0999
  H  H300  1  0.618600  0.876700  0.197400  1.0  0.0928
  H  H301  1  0.072700  0.274900  0.143000  1.0  0.0999
  H  H302  1  0.118600  0.376700  0.197400  1.0  0.0928
  H  H303  1  0.072700  0.774900  0.643000  1.0  0.0999
  H  H304  1  0.118600  0.876700  0.697400  1.0  0.0928
  H  H305  1  0.572700  0.725100  0.357000  1.0  0.1004
  H  H306  1  0.618600  0.623300  0.302600  1.0  0.0935
  H  H307  1  0.572700  0.225100  0.857000  1.0  0.1004
  H  H308  1  0.618600  0.123300  0.802600  1.0  0.0935
  H  H309  1  0.072700  0.725100  0.857000  1.0  0.1004
  H  H310  1  0.118600  0.623300  0.802600  1.0  0.0935
  H  H311  1  0.072700  0.225100  0.357000  1.0  0.1004
  H  H312  1  0.118600  0.123300  0.302600  1.0  0.0935
  H  H313  1  0.427300  0.274900  0.357000  1.0  0.1005
  H  H314  1  0.381400  0.376700  0.302600  1.0  0.0932
  H  H315  1  0.427300  0.774900  0.857000  1.0  0.1005
  H  H316  1  0.381400  0.876700  0.802600  1.0  0.0932
  H  H317  1  0.927300  0.274900  0.857000  1.0  0.1005
  H  H318  1  0.881400  0.376700  0.802600  1.0  0.0932
  H  H319  1  0.927300  0.774900  0.357000  1.0  0.1005
  H  H320  1  0.881400  0.876700  0.302600  1.0  0.0932
  H  H321  1  0.643000  0.427300  0.725100  1.0  0.099
  H  H322  1  0.697400  0.381400  0.623300  1.0  0.0923
  H  H323  1  0.643000  0.927300  0.225100  1.0  0.099
  H  H324  1  0.697400  0.881400  0.123300  1.0  0.0923
  H  H325  1  0.143000  0.427300  0.225100  1.0  0.099
  H  H326  1  0.197400  0.381400  0.123300  1.0  0.0923
  H  H327  1  0.143000  0.927300  0.725100  1.0  0.099
  H  H328  1  0.197400  0.881400  0.623300  1.0  0.0923
  H  H329  1  0.643000  0.572700  0.274900  1.0  0.099
  H  H330  1  0.697400  0.618600  0.376700  1.0  0.0931
  H  H331  1  0.643000  0.072700  0.774900  1.0  0.099
  H  H332  1  0.697400  0.118600  0.876700  1.0  0.0931
  H  H333  1  0.143000  0.572700  0.774900  1.0  0.099
  H  H334  1  0.197400  0.618600  0.876700  1.0  0.0931
  H  H335  1  0.143000  0.072700  0.274900  1.0  0.099
  H  H336  1  0.197400  0.118600  0.376700  1.0  0.0931
  H  H337  1  0.357000  0.572700  0.725100  1.0  0.0994
  H  H338  1  0.302600  0.618600  0.623300  1.0  0.0926
  H  H339  1  0.357000  0.072700  0.225100  1.0  0.0994
  H  H340  1  0.302600  0.118600  0.123300  1.0  0.0926
  H  H341  1  0.857000  0.572700  0.225100  1.0  0.0994
  H  H342  1  0.802600  0.618600  0.123300  1.0  0.0926
  H  H343  1  0.857000  0.072700  0.725100  1.0  0.0994
  H  H344  1  0.802600  0.118600  0.623300  1.0  0.0926
  H  H345  1  0.357000  0.427300  0.274900  1.0  0.0996
  H  H346  1  0.302600  0.381400  0.376700  1.0  0.0925
  H  H347  1  0.357000  0.927300  0.774900  1.0  0.0996
  H  H348  1  0.302600  0.881400  0.876700  1.0  0.0925
  H  H349  1  0.857000  0.427300  0.774900  1.0  0.0996
  H  H350  1  0.802600  0.381400  0.876700  1.0  0.0925
  H  H351  1  0.857000  0.927300  0.274900  1.0  0.0996
  H  H352  1  0.802600  0.881400  0.376700  1.0  0.0925
  H  H353  1  0.725100  0.643000  0.427300  1.0  0.1013
  H  H354  1  0.623300  0.697400  0.381400  1.0  0.0921
  H  H355  1  0.725100  0.143000  0.927300  1.0  0.1013
  H  H356  1  0.623300  0.197400  0.881400  1.0  0.0921
  H  H357  1  0.225100  0.643000  0.927300  1.0  0.1013
  H  H358  1  0.123300  0.697400  0.881400  1.0  0.0921
  H  H359  1  0.225100  0.143000  0.427300  1.0  0.1013
  H  H360  1  0.123300  0.197400  0.381400  1.0  0.0921
  H  H361  1  0.274900  0.643000  0.572700  1.0  0.1004
  H  H362  1  0.376700  0.697400  0.618600  1.0  0.0916
  H  H363  1  0.274900  0.143000  0.072700  1.0  0.1004
  H  H364  1  0.376700  0.197400  0.118600  1.0  0.0916
  H  H365  1  0.774900  0.643000  0.072700  1.0  0.1004
  H  H366  1  0.876700  0.697400  0.118600  1.0  0.0916
  H  H367  1  0.774900  0.143000  0.572700  1.0  0.1004
  H  H368  1  0.876700  0.197400  0.618600  1.0  0.0916
  H  H369  1  0.725100  0.357000  0.572700  1.0  0.101
  H  H370  1  0.623300  0.302600  0.618600  1.0  0.0918
  H  H371  1  0.725100  0.857000  0.072700  1.0  0.101
  H  H372  1  0.623300  0.802600  0.118600  1.0  0.0918
  H  H373  1  0.225100  0.357000  0.072700  1.0  0.101
  H  H374  1  0.123300  0.302600  0.118600  1.0  0.0918
  H  H375  1  0.225100  0.857000  0.572700  1.0  0.101
  H  H376  1  0.123300  0.802600  0.618600  1.0  0.0918
  H  H377  1  0.274900  0.357000  0.427300  1.0  0.101
  H  H378  1  0.376700  0.302600  0.381400  1.0  0.0922
  H  H379  1  0.274900  0.857000  0.927300  1.0  0.101
  H  H380  1  0.376700  0.802600  0.881400  1.0  0.0922
  H  H381  1  0.774900  0.357000  0.927300  1.0  0.101
  H  H382  1  0.876700  0.302600  0.881400  1.0  0.0922
  H  H383  1  0.774900  0.857000  0.427300  1.0  0.101
  H  H384  1  0.876700  0.802600  0.381400  1.0  0.0922
  H  H385  1  0.225100  0.927300  0.857000  1.0  0.1012
  H  H386  1  0.123300  0.881400  0.802600  1.0  0.0936
  H  H387  1  0.225100  0.427300  0.357000  1.0  0.1012
  H  H388  1  0.123300  0.381400  0.302600  1.0  0.0936
  H  H389  1  0.725100  0.927300  0.357000  1.0  0.1012
  H  H390  1  0.623300  0.881400  0.302600  1.0  0.0936
  H  H391  1  0.725100  0.427300  0.857000  1.0  0.1012
  H  H392  1  0.623300  0.381400  0.802600  1.0  0.0936
  H  H393  1  0.774900  0.072700  0.857000  1.0  0.101
  H  H394  1  0.876700  0.118600  0.802600  1.0  0.0938
  H  H395  1  0.774900  0.572700  0.357000  1.0  0.101
  H  H396  1  0.876700  0.618600  0.302600  1.0  0.0938
  H  H397  1  0.274900  0.072700  0.357000  1.0  0.101
  H  H398  1  0.376700  0.118600  0.302600  1.0  0.0938
  H  H399  1  0.274900  0.572700  0.857000  1.0  0.101
  H  H400  1  0.376700  0.618600  0.802600  1.0  0.0938
  H  H401  1  0.225100  0.072700  0.143000  1.0  0.1008
  H  H402  1  0.123300  0.118600  0.197400  1.0  0.0937
  H  H403  1  0.225100  0.572700  0.643000  1.0  0.1008
  H  H404  1  0.123300  0.618600  0.697400  1.0  0.0937
  H  H405  1  0.725100  0.072700  0.643000  1.0  0.1008
  H  H406  1  0.623300  0.118600  0.697400  1.0  0.0937
  H  H407  1  0.725100  0.572700  0.143000  1.0  0.1008
  H  H408  1  0.623300  0.618600  0.197400  1.0  0.0937
  H  H409  1  0.774900  0.927300  0.143000  1.0  0.1007
  H  H410  1  0.876700  0.881400  0.197400  1.0  0.0927
  H  H411  1  0.774900  0.427300  0.643000  1.0  0.1007
  H  H412  1  0.876700  0.381400  0.697400  1.0  0.0927
  H  H413  1  0.274900  0.927300  0.643000  1.0  0.1007
  H  H414  1  0.376700  0.881400  0.697400  1.0  0.0927
  H  H415  1  0.274900  0.427300  0.143000  1.0  0.1007
  H  H416  1  0.376700  0.381400  0.197400  1.0  0.0927
  H  H417  1  0.927300  0.143000  0.774900  1.0  0.0993
  H  H418  1  0.881400  0.197400  0.876700  1.0  0.0916
  H  H419  1  0.927300  0.643000  0.274900  1.0  0.0993
  H  H420  1  0.881400  0.697400  0.376700  1.0  0.0916
  H  H421  1  0.427300  0.143000  0.274900  1.0  0.0993
  H  H422  1  0.381400  0.197400  0.376700  1.0  0.0916
  H  H423  1  0.427300  0.643000  0.774900  1.0  0.0993
  H  H424  1  0.381400  0.697400  0.876700  1.0  0.0916
  H  H425  1  0.072700  0.143000  0.225100  1.0  0.0997
  H  H426  1  0.118600  0.197400  0.123300  1.0  0.0921
  H  H427  1  0.072700  0.643000  0.725100  1.0  0.0997
  H  H428  1  0.118600  0.697400  0.623300  1.0  0.0921
  H  H429  1  0.572700  0.143000  0.725100  1.0  0.0997
  H  H430  1  0.618600  0.197400  0.623300  1.0  0.0921
  H  H431  1  0.572700  0.643000  0.225100  1.0  0.0997
  H  H432  1  0.618600  0.697400  0.123300  1.0  0.0921
  H  H433  1  0.072700  0.857000  0.774900  1.0  0.0996
  H  H434  1  0.118600  0.802600  0.876700  1.0  0.0922
  H  H435  1  0.072700  0.357000  0.274900  1.0  0.0996
  H  H436  1  0.118600  0.302600  0.376700  1.0  0.0922
  H  H437  1  0.572700  0.857000  0.274900  1.0  0.0996
  H  H438  1  0.618600  0.802600  0.376700  1.0  0.0922
  H  H439  1  0.572700  0.357000  0.774900  1.0  0.0996
  H  H440  1  0.618600  0.302600  0.876700  1.0  0.0922
  H  H441  1  0.927300  0.857000  0.225100  1.0  0.0997
  H  H442  1  0.881400  0.802600  0.123300  1.0  0.092
  H  H443  1  0.927300  0.357000  0.725100  1.0  0.0997
  H  H444  1  0.881400  0.302600  0.623300  1.0  0.092
  H  H445  1  0.427300  0.857000  0.725100  1.0  0.0997
  H  H446  1  0.381400  0.802600  0.623300  1.0  0.092
  H  H447  1  0.427300  0.357000  0.225100  1.0  0.0997
  H  H448  1  0.381400  0.302600  0.123300  1.0  0.092
  H  H449  1  0.143000  0.225100  0.072700  1.0  0.0995
  H  H450  1  0.197400  0.123300  0.118600  1.0  0.0923
  H  H451  1  0.143000  0.725100  0.572700  1.0  0.0995
  H  H452  1  0.197400  0.623300  0.618600  1.0  0.0923
  H  H453  1  0.643000  0.225100  0.572700  1.0  0.0995
  H  H454  1  0.697400  0.123300  0.618600  1.0  0.0923
  H  H455  1  0.643000  0.725100  0.072700  1.0  0.0995
  H  H456  1  0.697400  0.623300  0.118600  1.0  0.0923
  H  H457  1  0.143000  0.774900  0.927300  1.0  0.0996
  H  H458  1  0.197400  0.876700  0.881400  1.0  0.0924
  H  H459  1  0.143000  0.274900  0.427300  1.0  0.0996
  H  H460  1  0.197400  0.376700  0.381400  1.0  0.0924
  H  H461  1  0.643000  0.774900  0.427300  1.0  0.0996
  H  H462  1  0.697400  0.876700  0.381400  1.0  0.0924
  H  H463  1  0.643000  0.274900  0.927300  1.0  0.0996
  H  H464  1  0.697400  0.376700  0.881400  1.0  0.0924
  H  H465  1  0.857000  0.225100  0.927300  1.0  0.1003
  H  H466  1  0.802600  0.123300  0.881400  1.0  0.0925
  H  H467  1  0.857000  0.725100  0.427300  1.0  0.1003
  H  H468  1  0.802600  0.623300  0.381400  1.0  0.0925
  H  H469  1  0.357000  0.225100  0.427300  1.0  0.1003
  H  H470  1  0.302600  0.123300  0.381400  1.0  0.0925
  H  H471  1  0.357000  0.725100  0.927300  1.0  0.1003
  H  H472  1  0.302600  0.623300  0.881400  1.0  0.0925
  H  H473  1  0.857000  0.774900  0.072700  1.0  0.0999
  H  H474  1  0.802600  0.876700  0.118600  1.0  0.0919
  H  H475  1  0.857000  0.274900  0.572700  1.0  0.0999
  H  H476  1  0.802600  0.376700  0.618600  1.0  0.0919
  H  H477  1  0.357000  0.774900  0.572700  1.0  0.0999
  H  H478  1  0.302600  0.876700  0.618600  1.0  0.0919
  H  H479  1  0.357000  0.274900  0.072700  1.0  0.0999
  H  H480  1  0.302600  0.376700  0.118600  1.0  0.0919
  C  C481  1  0.583130  0.320140  0.326160  1.0  0.0378
  C  C482  1  0.565800  0.289730  0.337550  1.0  0.0007
  C  C483  1  0.615400  0.337440  0.340160  1.0  -0.0348
  C  C484  1  0.629620  0.367580  0.323590  1.0  -0.0793
  C  C485  1  0.583130  0.820140  0.826160  1.0  0.0378
  C  C486  1  0.565800  0.789730  0.837550  1.0  0.0007
  C  C487  1  0.615400  0.837440  0.840160  1.0  -0.0348
  C  C488  1  0.629620  0.867580  0.823590  1.0  -0.0793
  C  C489  1  0.083130  0.320140  0.826160  1.0  0.0378
  C  C490  1  0.065800  0.289730  0.837550  1.0  0.0007
  C  C491  1  0.115400  0.337440  0.840160  1.0  -0.0348
  C  C492  1  0.129620  0.367580  0.823590  1.0  -0.0793
  C  C493  1  0.083130  0.820140  0.326160  1.0  0.0378
  C  C494  1  0.065800  0.789730  0.337550  1.0  0.0007
  C  C495  1  0.115400  0.837440  0.340160  1.0  -0.0348
  C  C496  1  0.129620  0.867580  0.323590  1.0  -0.0793
  C  C497  1  0.416870  0.679860  0.326160  1.0  0.0365
  C  C498  1  0.434200  0.710270  0.337550  1.0  -0.0002
  C  C499  1  0.384600  0.662560  0.340160  1.0  -0.0342
  C  C500  1  0.370380  0.632420  0.323590  1.0  -0.0796
  C  C501  1  0.416870  0.179860  0.826160  1.0  0.0365
  C  C502  1  0.434200  0.210270  0.837550  1.0  -0.0002
  C  C503  1  0.384600  0.162560  0.840160  1.0  -0.0342
  C  C504  1  0.370380  0.132420  0.823590  1.0  -0.0796
  C  C505  1  0.916870  0.679860  0.826160  1.0  0.0365
  C  C506  1  0.934200  0.710270  0.837550  1.0  -0.0002
  C  C507  1  0.884600  0.662560  0.840160  1.0  -0.0342
  C  C508  1  0.870380  0.632420  0.823590  1.0  -0.0796
  C  C509  1  0.916870  0.179860  0.326160  1.0  0.0365
  C  C510  1  0.934200  0.210270  0.337550  1.0  -0.0002
  C  C511  1  0.884600  0.162560  0.340160  1.0  -0.0342
  C  C512  1  0.870380  0.132420  0.323590  1.0  -0.0796
  C  C513  1  0.416870  0.320140  0.673840  1.0  0.0368
  C  C514  1  0.434200  0.289730  0.662450  1.0  0.0002
  C  C515  1  0.384600  0.337440  0.659840  1.0  -0.0337
  C  C516  1  0.370380  0.367580  0.676410  1.0  -0.0786
  C  C517  1  0.416870  0.820140  0.173840  1.0  0.0368
  C  C518  1  0.434200  0.789730  0.162450  1.0  0.0002
  C  C519  1  0.384600  0.837440  0.159840  1.0  -0.0337
  C  C520  1  0.370380  0.867580  0.176410  1.0  -0.0786
  C  C521  1  0.916870  0.320140  0.173840  1.0  0.0368
  C  C522  1  0.934200  0.289730  0.162450  1.0  0.0002
  C  C523  1  0.884600  0.337440  0.159840  1.0  -0.0337
  C  C524  1  0.870380  0.367580  0.176410  1.0  -0.0786
  C  C525  1  0.916870  0.820140  0.673840  1.0  0.0368
  C  C526  1  0.934200  0.789730  0.662450  1.0  0.0002
  C  C527  1  0.884600  0.837440  0.659840  1.0  -0.0337
  C  C528  1  0.870380  0.867580  0.676410  1.0  -0.0786
  C  C529  1  0.583130  0.679860  0.673840  1.0  0.0372
  C  C530  1  0.565800  0.710270  0.662450  1.0  -1e-04
  C  C531  1  0.615400  0.662560  0.659840  1.0  -0.0352
  C  C532  1  0.629620  0.632420  0.676410  1.0  -0.079
  C  C533  1  0.583130  0.179860  0.173840  1.0  0.0372
  C  C534  1  0.565800  0.210270  0.162450  1.0  -1e-04
  C  C535  1  0.615400  0.162560  0.159840  1.0  -0.0352
  C  C536  1  0.629620  0.132420  0.176410  1.0  -0.079
  C  C537  1  0.083130  0.679860  0.173840  1.0  0.0372
  C  C538  1  0.065800  0.710270  0.162450  1.0  -1e-04
  C  C539  1  0.115400  0.662560  0.159840  1.0  -0.0352
  C  C540  1  0.129620  0.632420  0.176410  1.0  -0.079
  C  C541  1  0.083130  0.179860  0.673840  1.0  0.0372
  C  C542  1  0.065800  0.210270  0.662450  1.0  -1e-04
  C  C543  1  0.115400  0.162560  0.659840  1.0  -0.0352
  C  C544  1  0.129620  0.132420  0.676410  1.0  -0.079
  C  C545  1  0.326160  0.583130  0.320140  1.0  0.0405
  C  C546  1  0.337550  0.565800  0.289730  1.0  0.0021
  C  C547  1  0.340160  0.615400  0.337440  1.0  -0.0322
  C  C548  1  0.323590  0.629620  0.367580  1.0  -0.0796
  C  C549  1  0.326160  0.083130  0.820140  1.0  0.0405
  C  C550  1  0.337550  0.065800  0.789730  1.0  0.0021
  C  C551  1  0.340160  0.115400  0.837440  1.0  -0.0322
  C  C552  1  0.323590  0.129620  0.867580  1.0  -0.0796
  C  C553  1  0.826160  0.583130  0.820140  1.0  0.0405
  C  C554  1  0.837550  0.565800  0.789730  1.0  0.0021
  C  C555  1  0.840160  0.615400  0.837440  1.0  -0.0322
  C  C556  1  0.823590  0.629620  0.867580  1.0  -0.0796
  C  C557  1  0.826160  0.083130  0.320140  1.0  0.0405
  C  C558  1  0.837550  0.065800  0.289730  1.0  0.0021
  C  C559  1  0.840160  0.115400  0.337440  1.0  -0.0322
  C  C560  1  0.823590  0.129620  0.367580  1.0  -0.0796
  C  C561  1  0.326160  0.416870  0.679860  1.0  0.039
  C  C562  1  0.337550  0.434200  0.710270  1.0  0.0045
  C  C563  1  0.340160  0.384600  0.662560  1.0  -0.0316
  C  C564  1  0.323590  0.370380  0.632420  1.0  -0.0798
  C  C565  1  0.326160  0.916870  0.179860  1.0  0.039
  C  C566  1  0.337550  0.934200  0.210270  1.0  0.0045
  C  C567  1  0.340160  0.884600  0.162560  1.0  -0.0316
  C  C568  1  0.323590  0.870380  0.132420  1.0  -0.0798
  C  C569  1  0.826160  0.416870  0.179860  1.0  0.039
  C  C570  1  0.837550  0.434200  0.210270  1.0  0.0045
  C  C571  1  0.840160  0.384600  0.162560  1.0  -0.0316
  C  C572  1  0.823590  0.370380  0.132420  1.0  -0.0798
  C  C573  1  0.826160  0.916870  0.679860  1.0  0.039
  C  C574  1  0.837550  0.934200  0.710270  1.0  0.0045
  C  C575  1  0.840160  0.884600  0.662560  1.0  -0.0316
  C  C576  1  0.823590  0.870380  0.632420  1.0  -0.0798
  C  C577  1  0.673840  0.416870  0.320140  1.0  0.0386
  C  C578  1  0.662450  0.434200  0.289730  1.0  0.003
  C  C579  1  0.659840  0.384600  0.337440  1.0  -0.0318
  C  C580  1  0.676410  0.370380  0.367580  1.0  -0.0792
  C  C581  1  0.673840  0.916870  0.820140  1.0  0.0386
  C  C582  1  0.662450  0.934200  0.789730  1.0  0.003
  C  C583  1  0.659840  0.884600  0.837440  1.0  -0.0318
  C  C584  1  0.676410  0.870380  0.867580  1.0  -0.0792
  C  C585  1  0.173840  0.416870  0.820140  1.0  0.0386
  C  C586  1  0.162450  0.434200  0.789730  1.0  0.003
  C  C587  1  0.159840  0.384600  0.837440  1.0  -0.0318
  C  C588  1  0.176410  0.370380  0.867580  1.0  -0.0792
  C  C589  1  0.173840  0.916870  0.320140  1.0  0.0386
  C  C590  1  0.162450  0.934200  0.289730  1.0  0.003
  C  C591  1  0.159840  0.884600  0.337440  1.0  -0.0318
  C  C592  1  0.176410  0.870380  0.367580  1.0  -0.0792
  C  C593  1  0.673840  0.583130  0.679860  1.0  0.039
  C  C594  1  0.662450  0.565800  0.710270  1.0  0.0037
  C  C595  1  0.659840  0.615400  0.662560  1.0  -0.0324
  C  C596  1  0.676410  0.629620  0.632420  1.0  -0.0793
  C  C597  1  0.673840  0.083130  0.179860  1.0  0.039
  C  C598  1  0.662450  0.065800  0.210270  1.0  0.0037
  C  C599  1  0.659840  0.115400  0.162560  1.0  -0.0324
  C  C600  1  0.676410  0.129620  0.132420  1.0  -0.0793
  C  C601  1  0.173840  0.583130  0.179860  1.0  0.039
  C  C602  1  0.162450  0.565800  0.210270  1.0  0.0037
  C  C603  1  0.159840  0.615400  0.162560  1.0  -0.0324
  C  C604  1  0.176410  0.629620  0.132420  1.0  -0.0793
  C  C605  1  0.173840  0.083130  0.679860  1.0  0.039
  C  C606  1  0.162450  0.065800  0.710270  1.0  0.0037
  C  C607  1  0.159840  0.115400  0.662560  1.0  -0.0324
  C  C608  1  0.176410  0.129620  0.632420  1.0  -0.0793
  C  C609  1  0.320140  0.326160  0.583130  1.0  0.0392
  C  C610  1  0.289730  0.337550  0.565800  1.0  0.0009
  C  C611  1  0.337440  0.340160  0.615400  1.0  -0.0336
  C  C612  1  0.367580  0.323590  0.629620  1.0  -0.0785
  C  C613  1  0.320140  0.826160  0.083130  1.0  0.0392
  C  C614  1  0.289730  0.837550  0.065800  1.0  0.0009
  C  C615  1  0.337440  0.840160  0.115400  1.0  -0.0336
  C  C616  1  0.367580  0.823590  0.129620  1.0  -0.0785
  C  C617  1  0.820140  0.326160  0.083130  1.0  0.0392
  C  C618  1  0.789730  0.337550  0.065800  1.0  0.0009
  C  C619  1  0.837440  0.340160  0.115400  1.0  -0.0336
  C  C620  1  0.867580  0.323590  0.129620  1.0  -0.0785
  C  C621  1  0.820140  0.826160  0.583130  1.0  0.0392
  C  C622  1  0.789730  0.837550  0.565800  1.0  0.0009
  C  C623  1  0.837440  0.840160  0.615400  1.0  -0.0336
  C  C624  1  0.867580  0.823590  0.629620  1.0  -0.0785
  C  C625  1  0.679860  0.326160  0.416870  1.0  0.0386
  C  C626  1  0.710270  0.337550  0.434200  1.0  0.0012
  C  C627  1  0.662560  0.340160  0.384600  1.0  -0.0333
  C  C628  1  0.632420  0.323590  0.370380  1.0  -0.0787
  C  C629  1  0.679860  0.826160  0.916870  1.0  0.0386
  C  C630  1  0.710270  0.837550  0.934200  1.0  0.0012
  C  C631  1  0.662560  0.840160  0.884600  1.0  -0.0333
  C  C632  1  0.632420  0.823590  0.870380  1.0  -0.0787
  C  C633  1  0.179860  0.326160  0.916870  1.0  0.0386
  C  C634  1  0.210270  0.337550  0.934200  1.0  0.0012
  C  C635  1  0.162560  0.340160  0.884600  1.0  -0.0333
  C  C636  1  0.132420  0.323590  0.870380  1.0  -0.0787
  C  C637  1  0.179860  0.826160  0.416870  1.0  0.0386
  C  C638  1  0.210270  0.837550  0.434200  1.0  0.0012
  C  C639  1  0.162560  0.840160  0.384600  1.0  -0.0333
  C  C640  1  0.132420  0.823590  0.370380  1.0  -0.0787
  C  C641  1  0.320140  0.673840  0.416870  1.0  0.0394
  C  C642  1  0.289730  0.662450  0.434200  1.0  0.0011
  C  C643  1  0.337440  0.659840  0.384600  1.0  -0.0331
  C  C644  1  0.367580  0.676410  0.370380  1.0  -0.0793
  C  C645  1  0.320140  0.173840  0.916870  1.0  0.0394
  C  C646  1  0.289730  0.162450  0.934200  1.0  0.0011
  C  C647  1  0.337440  0.159840  0.884600  1.0  -0.0331
  C  C648  1  0.367580  0.176410  0.870380  1.0  -0.0793
  C  C649  1  0.820140  0.673840  0.916870  1.0  0.0394
  C  C650  1  0.789730  0.662450  0.934200  1.0  0.0011
  C  C651  1  0.837440  0.659840  0.884600  1.0  -0.0331
  C  C652  1  0.867580  0.676410  0.870380  1.0  -0.0793
  C  C653  1  0.820140  0.173840  0.416870  1.0  0.0394
  C  C654  1  0.789730  0.162450  0.434200  1.0  0.0011
  C  C655  1  0.837440  0.159840  0.384600  1.0  -0.0331
  C  C656  1  0.867580  0.176410  0.370380  1.0  -0.0793
  C  C657  1  0.679860  0.673840  0.583130  1.0  0.0384
  C  C658  1  0.710270  0.662450  0.565800  1.0  0.001
  C  C659  1  0.662560  0.659840  0.615400  1.0  -0.0335
  C  C660  1  0.632420  0.676410  0.629620  1.0  -0.0792
  C  C661  1  0.679860  0.173840  0.083130  1.0  0.0384
  C  C662  1  0.710270  0.162450  0.065800  1.0  0.001
  C  C663  1  0.662560  0.159840  0.115400  1.0  -0.0335
  C  C664  1  0.632420  0.176410  0.129620  1.0  -0.0792
  C  C665  1  0.179860  0.673840  0.083130  1.0  0.0384
  C  C666  1  0.210270  0.662450  0.065800  1.0  0.001
  C  C667  1  0.162560  0.659840  0.115400  1.0  -0.0335
  C  C668  1  0.132420  0.676410  0.129620  1.0  -0.0792
  C  C669  1  0.179860  0.173840  0.583130  1.0  0.0384
  C  C670  1  0.210270  0.162450  0.565800  1.0  0.001
  C  C671  1  0.162560  0.159840  0.615400  1.0  -0.0335
  C  C672  1  0.132420  0.176410  0.629620  1.0  -0.0792
  C  C673  1  0.820140  0.083130  0.173840  1.0  0.0378
  C  C674  1  0.789730  0.065800  0.162450  1.0  0.0008
  C  C675  1  0.837440  0.115400  0.159840  1.0  -0.0336
  C  C676  1  0.867580  0.129620  0.176410  1.0  -0.0785
  C  C677  1  0.820140  0.583130  0.673840  1.0  0.0378
  C  C678  1  0.789730  0.565800  0.662450  1.0  0.0008
  C  C679  1  0.837440  0.615400  0.659840  1.0  -0.0336
  C  C680  1  0.867580  0.629620  0.676410  1.0  -0.0785
  C  C681  1  0.320140  0.083130  0.673840  1.0  0.0378
  C  C682  1  0.289730  0.065800  0.662450  1.0  0.0008
  C  C683  1  0.337440  0.115400  0.659840  1.0  -0.0336
  C  C684  1  0.367580  0.129620  0.676410  1.0  -0.0785
  C  C685  1  0.320140  0.583130  0.173840  1.0  0.0378
  C  C686  1  0.289730  0.565800  0.162450  1.0  0.0008
  C  C687  1  0.337440  0.615400  0.159840  1.0  -0.0336
  C  C688  1  0.367580  0.629620  0.176410  1.0  -0.0785
  C  C689  1  0.179860  0.916870  0.173840  1.0  0.036
  C  C690  1  0.210270  0.934200  0.162450  1.0  0.0011
  C  C691  1  0.162560  0.884600  0.159840  1.0  -0.0328
  C  C692  1  0.132420  0.870380  0.176410  1.0  -0.0794
  C  C693  1  0.179860  0.416870  0.673840  1.0  0.036
  C  C694  1  0.210270  0.434200  0.662450  1.0  0.0011
  C  C695  1  0.162560  0.384600  0.659840  1.0  -0.0328
  C  C696  1  0.132420  0.370380  0.676410  1.0  -0.0794
  C  C697  1  0.679860  0.916870  0.673840  1.0  0.036
  C  C698  1  0.710270  0.934200  0.662450  1.0  0.0011
  C  C699  1  0.662560  0.884600  0.659840  1.0  -0.0328
  C  C700  1  0.632420  0.870380  0.676410  1.0  -0.0794
  C  C701  1  0.679860  0.416870  0.173840  1.0  0.036
  C  C702  1  0.710270  0.434200  0.162450  1.0  0.0011
  C  C703  1  0.662560  0.384600  0.159840  1.0  -0.0328
  C  C704  1  0.632420  0.370380  0.176410  1.0  -0.0794
  C  C705  1  0.820140  0.916870  0.826160  1.0  0.0375
  C  C706  1  0.789730  0.934200  0.837550  1.0  0.001
  C  C707  1  0.837440  0.884600  0.840160  1.0  -0.033
  C  C708  1  0.867580  0.870380  0.823590  1.0  -0.0793
  C  C709  1  0.820140  0.416870  0.326160  1.0  0.0375
  C  C710  1  0.789730  0.434200  0.337550  1.0  0.001
  C  C711  1  0.837440  0.384600  0.340160  1.0  -0.033
  C  C712  1  0.867580  0.370380  0.323590  1.0  -0.0793
  C  C713  1  0.320140  0.916870  0.326160  1.0  0.0375
  C  C714  1  0.289730  0.934200  0.337550  1.0  0.001
  C  C715  1  0.337440  0.884600  0.340160  1.0  -0.033
  C  C716  1  0.367580  0.870380  0.323590  1.0  -0.0793
  C  C717  1  0.320140  0.416870  0.826160  1.0  0.0375
  C  C718  1  0.289730  0.434200  0.837550  1.0  0.001
  C  C719  1  0.337440  0.384600  0.840160  1.0  -0.033
  C  C720  1  0.367580  0.370380  0.823590  1.0  -0.0793
  C  C721  1  0.179860  0.083130  0.826160  1.0  0.0372
  C  C722  1  0.210270  0.065800  0.837550  1.0  0.0011
  C  C723  1  0.162560  0.115400  0.840160  1.0  -0.0333
  C  C724  1  0.132420  0.129620  0.823590  1.0  -0.0796
  C  C725  1  0.179860  0.583130  0.326160  1.0  0.0372
  C  C726  1  0.210270  0.565800  0.337550  1.0  0.0011
  C  C727  1  0.162560  0.615400  0.340160  1.0  -0.0333
  C  C728  1  0.132420  0.629620  0.323590  1.0  -0.0796
  C  C729  1  0.679860  0.083130  0.326160  1.0  0.0372
  C  C730  1  0.710270  0.065800  0.337550  1.0  0.0011
  C  C731  1  0.662560  0.115400  0.340160  1.0  -0.0333
  C  C732  1  0.632420  0.129620  0.323590  1.0  -0.0796
  C  C733  1  0.679860  0.583130  0.826160  1.0  0.0372
  C  C734  1  0.710270  0.565800  0.837550  1.0  0.0011
  C  C735  1  0.662560  0.615400  0.840160  1.0  -0.0333
  C  C736  1  0.632420  0.629620  0.823590  1.0  -0.0796
  C  C737  1  0.083130  0.826160  0.179860  1.0  0.0389
  C  C738  1  0.065800  0.837550  0.210270  1.0  0.002
  C  C739  1  0.115400  0.840160  0.162560  1.0  -0.0339
  C  C740  1  0.129620  0.823590  0.132420  1.0  -0.078
  C  C741  1  0.083130  0.326160  0.679860  1.0  0.0389
  C  C742  1  0.065800  0.337550  0.710270  1.0  0.002
  C  C743  1  0.115400  0.340160  0.662560  1.0  -0.0339
  C  C744  1  0.129620  0.323590  0.632420  1.0  -0.078
  C  C745  1  0.583130  0.826160  0.679860  1.0  0.0389
  C  C746  1  0.565800  0.837550  0.710270  1.0  0.002
  C  C747  1  0.615400  0.840160  0.662560  1.0  -0.0339
  C  C748  1  0.629620  0.823590  0.632420  1.0  -0.078
  C  C749  1  0.583130  0.326160  0.179860  1.0  0.0389
  C  C750  1  0.565800  0.337550  0.210270  1.0  0.002
  C  C751  1  0.615400  0.340160  0.162560  1.0  -0.0339
  C  C752  1  0.629620  0.323590  0.132420  1.0  -0.078
  C  C753  1  0.916870  0.826160  0.820140  1.0  0.0389
  C  C754  1  0.934200  0.837550  0.789730  1.0  0.0011
  C  C755  1  0.884600  0.840160  0.837440  1.0  -0.0324
  C  C756  1  0.870380  0.823590  0.867580  1.0  -0.0782
  C  C757  1  0.916870  0.326160  0.320140  1.0  0.0389
  C  C758  1  0.934200  0.337550  0.289730  1.0  0.0011
  C  C759  1  0.884600  0.340160  0.337440  1.0  -0.0324
  C  C760  1  0.870380  0.323590  0.367580  1.0  -0.0782
  C  C761  1  0.416870  0.826160  0.320140  1.0  0.0389
  C  C762  1  0.434200  0.837550  0.289730  1.0  0.0011
  C  C763  1  0.384600  0.840160  0.337440  1.0  -0.0324
  C  C764  1  0.370380  0.823590  0.367580  1.0  -0.0782
  C  C765  1  0.416870  0.326160  0.820140  1.0  0.0389
  C  C766  1  0.434200  0.337550  0.789730  1.0  0.0011
  C  C767  1  0.384600  0.340160  0.837440  1.0  -0.0324
  C  C768  1  0.370380  0.323590  0.867580  1.0  -0.0782
  C  C769  1  0.916870  0.173840  0.179860  1.0  0.0382
  C  C770  1  0.934200  0.162450  0.210270  1.0  0.0022
  C  C771  1  0.884600  0.159840  0.162560  1.0  -0.0324
  C  C772  1  0.870380  0.176410  0.132420  1.0  -0.0788
  C  C773  1  0.916870  0.673840  0.679860  1.0  0.0382
  C  C774  1  0.934200  0.662450  0.710270  1.0  0.0022
  C  C775  1  0.884600  0.659840  0.662560  1.0  -0.0324
  C  C776  1  0.870380  0.676410  0.632420  1.0  -0.0788
  C  C777  1  0.416870  0.173840  0.679860  1.0  0.0382
  C  C778  1  0.434200  0.162450  0.710270  1.0  0.0022
  C  C779  1  0.384600  0.159840  0.662560  1.0  -0.0324
  C  C780  1  0.370380  0.176410  0.632420  1.0  -0.0788
  C  C781  1  0.416870  0.673840  0.179860  1.0  0.0382
  C  C782  1  0.434200  0.662450  0.210270  1.0  0.0022
  C  C783  1  0.384600  0.659840  0.162560  1.0  -0.0324
  C  C784  1  0.370380  0.676410  0.132420  1.0  -0.0788
  C  C785  1  0.083130  0.173840  0.820140  1.0  0.0395
  C  C786  1  0.065800  0.162450  0.789730  1.0  0.0005
  C  C787  1  0.115400  0.159840  0.837440  1.0  -0.0337
  C  C788  1  0.129620  0.176410  0.867580  1.0  -0.0788
  C  C789  1  0.083130  0.673840  0.320140  1.0  0.0395
  C  C790  1  0.065800  0.662450  0.289730  1.0  0.0005
  C  C791  1  0.115400  0.659840  0.337440  1.0  -0.0337
  C  C792  1  0.129620  0.676410  0.367580  1.0  -0.0788
  C  C793  1  0.583130  0.173840  0.320140  1.0  0.0395
  C  C794  1  0.565800  0.162450  0.289730  1.0  0.0005
  C  C795  1  0.615400  0.159840  0.337440  1.0  -0.0337
  C  C796  1  0.629620  0.176410  0.367580  1.0  -0.0788
  C  C797  1  0.583130  0.673840  0.820140  1.0  0.0395
  C  C798  1  0.565800  0.662450  0.789730  1.0  0.0005
  C  C799  1  0.615400  0.659840  0.837440  1.0  -0.0337
  C  C800  1  0.629620  0.676410  0.867580  1.0  -0.0788
  C  C801  1  0.826160  0.820140  0.916870  1.0  0.0402
  C  C802  1  0.837550  0.789730  0.934200  1.0  0.0021
  C  C803  1  0.840160  0.837440  0.884600  1.0  -0.0333
  C  C804  1  0.823590  0.867580  0.870380  1.0  -0.0802
  C  C805  1  0.826160  0.320140  0.416870  1.0  0.0402
  C  C806  1  0.837550  0.289730  0.434200  1.0  0.0021
  C  C807  1  0.840160  0.337440  0.384600  1.0  -0.0333
  C  C808  1  0.823590  0.367580  0.370380  1.0  -0.0802
  C  C809  1  0.326160  0.820140  0.416870  1.0  0.0402
  C  C810  1  0.337550  0.789730  0.434200  1.0  0.0021
  C  C811  1  0.340160  0.837440  0.384600  1.0  -0.0333
  C  C812  1  0.323590  0.867580  0.370380  1.0  -0.0802
  C  C813  1  0.326160  0.320140  0.916870  1.0  0.0402
  C  C814  1  0.337550  0.289730  0.934200  1.0  0.0021
  C  C815  1  0.340160  0.337440  0.884600  1.0  -0.0333
  C  C816  1  0.323590  0.367580  0.870380  1.0  -0.0802
  C  C817  1  0.826160  0.179860  0.083130  1.0  0.0397
  C  C818  1  0.837550  0.210270  0.065800  1.0  0.0018
  C  C819  1  0.840160  0.162560  0.115400  1.0  -0.0342
  C  C820  1  0.823590  0.132420  0.129620  1.0  -0.0804
  C  C821  1  0.826160  0.679860  0.583130  1.0  0.0397
  C  C822  1  0.837550  0.710270  0.565800  1.0  0.0018
  C  C823  1  0.840160  0.662560  0.615400  1.0  -0.0342
  C  C824  1  0.823590  0.632420  0.629620  1.0  -0.0804
  C  C825  1  0.326160  0.179860  0.583130  1.0  0.0397
  C  C826  1  0.337550  0.210270  0.565800  1.0  0.0018
  C  C827  1  0.340160  0.162560  0.615400  1.0  -0.0342
  C  C828  1  0.323590  0.132420  0.629620  1.0  -0.0804
  C  C829  1  0.326160  0.679860  0.083130  1.0  0.0397
  C  C830  1  0.337550  0.710270  0.065800  1.0  0.0018
  C  C831  1  0.340160  0.662560  0.115400  1.0  -0.0342
  C  C832  1  0.323590  0.632420  0.129620  1.0  -0.0804
  C  C833  1  0.173840  0.820140  0.083130  1.0  0.0394
  C  C834  1  0.162450  0.789730  0.065800  1.0  0.0024
  C  C835  1  0.159840  0.837440  0.115400  1.0  -0.0338
  C  C836  1  0.176410  0.867580  0.129620  1.0  -0.0798
  C  C837  1  0.173840  0.320140  0.583130  1.0  0.0394
  C  C838  1  0.162450  0.289730  0.565800  1.0  0.0024
  C  C839  1  0.159840  0.337440  0.615400  1.0  -0.0338
  C  C840  1  0.176410  0.367580  0.629620  1.0  -0.0798
  C  C841  1  0.673840  0.820140  0.583130  1.0  0.0394
  C  C842  1  0.662450  0.789730  0.565800  1.0  0.0024
  C  C843  1  0.659840  0.837440  0.615400  1.0  -0.0338
  C  C844  1  0.676410  0.867580  0.629620  1.0  -0.0798
  C  C845  1  0.673840  0.320140  0.083130  1.0  0.0394
  C  C846  1  0.662450  0.289730  0.065800  1.0  0.0024
  C  C847  1  0.659840  0.337440  0.115400  1.0  -0.0338
  C  C848  1  0.676410  0.367580  0.129620  1.0  -0.0798
  C  C849  1  0.173840  0.179860  0.916870  1.0  0.0387
  C  C850  1  0.162450  0.210270  0.934200  1.0  0.002
  C  C851  1  0.159840  0.162560  0.884600  1.0  -0.034
  C  C852  1  0.176410  0.132420  0.870380  1.0  -0.0798
  C  C853  1  0.173840  0.679860  0.416870  1.0  0.0387
  C  C854  1  0.162450  0.710270  0.434200  1.0  0.002
  C  C855  1  0.159840  0.662560  0.384600  1.0  -0.034
  C  C856  1  0.176410  0.632420  0.370380  1.0  -0.0798
  C  C857  1  0.673840  0.179860  0.416870  1.0  0.0387
  C  C858  1  0.662450  0.210270  0.434200  1.0  0.002
  C  C859  1  0.659840  0.162560  0.384600  1.0  -0.034
  C  C860  1  0.676410  0.132420  0.370380  1.0  -0.0798
  C  C861  1  0.673840  0.679860  0.916870  1.0  0.0387
  C  C862  1  0.662450  0.710270  0.934200  1.0  0.002
  C  C863  1  0.659840  0.662560  0.884600  1.0  -0.034
  C  C864  1  0.676410  0.632420  0.870380  1.0  -0.0798
  C  C865  1  0.416870  0.679860  0.673840  1.0  0.0363
  C  C866  1  0.434200  0.710270  0.662450  1.0  -0.0003
  C  C867  1  0.384600  0.662560  0.659840  1.0  -0.0341
  C  C868  1  0.370380  0.632420  0.676410  1.0  -0.0786
  C  C869  1  0.416870  0.179860  0.173840  1.0  0.0363
  C  C870  1  0.434200  0.210270  0.162450  1.0  -0.0003
  C  C871  1  0.384600  0.162560  0.159840  1.0  -0.0341
  C  C872  1  0.370380  0.132420  0.176410  1.0  -0.0786
  C  C873  1  0.916870  0.679860  0.173840  1.0  0.0363
  C  C874  1  0.934200  0.710270  0.162450  1.0  -0.0003
  C  C875  1  0.884600  0.662560  0.159840  1.0  -0.0341
  C  C876  1  0.870380  0.632420  0.176410  1.0  -0.0786
  C  C877  1  0.916870  0.179860  0.673840  1.0  0.0363
  C  C878  1  0.934200  0.210270  0.662450  1.0  -0.0003
  C  C879  1  0.884600  0.162560  0.659840  1.0  -0.0341
  C  C880  1  0.870380  0.132420  0.676410  1.0  -0.0786
  C  C881  1  0.583130  0.320140  0.673840  1.0  0.0377
  C  C882  1  0.565800  0.289730  0.662450  1.0  0.0006
  C  C883  1  0.615400  0.337440  0.659840  1.0  -0.0348
  C  C884  1  0.629620  0.367580  0.676410  1.0  -0.0792
  C  C885  1  0.583130  0.820140  0.173840  1.0  0.0377
  C  C886  1  0.565800  0.789730  0.162450  1.0  0.0006
  C  C887  1  0.615400  0.837440  0.159840  1.0  -0.0348
  C  C888  1  0.629620  0.867580  0.176410  1.0  -0.0792
  C  C889  1  0.083130  0.320140  0.173840  1.0  0.0377
  C  C890  1  0.065800  0.289730  0.162450  1.0  0.0006
  C  C891  1  0.115400  0.337440  0.159840  1.0  -0.0348
  C  C892  1  0.129620  0.367580  0.176410  1.0  -0.0792
  C  C893  1  0.083130  0.820140  0.673840  1.0  0.0377
  C  C894  1  0.065800  0.789730  0.662450  1.0  0.0006
  C  C895  1  0.115400  0.837440  0.659840  1.0  -0.0348
  C  C896  1  0.129620  0.867580  0.676410  1.0  -0.0792
  C  C897  1  0.583130  0.679860  0.326160  1.0  0.0373
  C  C898  1  0.565800  0.710270  0.337550  1.0  0.0004
  C  C899  1  0.615400  0.662560  0.340160  1.0  -0.0353
  C  C900  1  0.629620  0.632420  0.323590  1.0  -0.0798
  C  C901  1  0.583130  0.179860  0.826160  1.0  0.0373
  C  C902  1  0.565800  0.210270  0.837550  1.0  0.0004
  C  C903  1  0.615400  0.162560  0.840160  1.0  -0.0353
  C  C904  1  0.629620  0.132420  0.823590  1.0  -0.0798
  C  C905  1  0.083130  0.679860  0.826160  1.0  0.0373
  C  C906  1  0.065800  0.710270  0.837550  1.0  0.0004
  C  C907  1  0.115400  0.662560  0.840160  1.0  -0.0353
  C  C908  1  0.129620  0.632420  0.823590  1.0  -0.0798
  C  C909  1  0.083130  0.179860  0.326160  1.0  0.0373
  C  C910  1  0.065800  0.210270  0.337550  1.0  0.0004
  C  C911  1  0.115400  0.162560  0.340160  1.0  -0.0353
  C  C912  1  0.129620  0.132420  0.323590  1.0  -0.0798
  C  C913  1  0.416870  0.320140  0.326160  1.0  0.0371
  C  C914  1  0.434200  0.289730  0.337550  1.0  0.0002
  C  C915  1  0.384600  0.337440  0.340160  1.0  -0.0337
  C  C916  1  0.370380  0.367580  0.323590  1.0  -0.0794
  C  C917  1  0.416870  0.820140  0.826160  1.0  0.0371
  C  C918  1  0.434200  0.789730  0.837550  1.0  0.0002
  C  C919  1  0.384600  0.837440  0.840160  1.0  -0.0337
  C  C920  1  0.370380  0.867580  0.823590  1.0  -0.0794
  C  C921  1  0.916870  0.320140  0.826160  1.0  0.0371
  C  C922  1  0.934200  0.289730  0.837550  1.0  0.0002
  C  C923  1  0.884600  0.337440  0.840160  1.0  -0.0337
  C  C924  1  0.870380  0.367580  0.823590  1.0  -0.0794
  C  C925  1  0.916870  0.820140  0.326160  1.0  0.0371
  C  C926  1  0.934200  0.789730  0.337550  1.0  0.0002
  C  C927  1  0.884600  0.837440  0.340160  1.0  -0.0337
  C  C928  1  0.870380  0.867580  0.323590  1.0  -0.0794
  C  C929  1  0.673840  0.416870  0.679860  1.0  0.0379
  C  C930  1  0.662450  0.434200  0.710270  1.0  0.004
  C  C931  1  0.659840  0.384600  0.662560  1.0  -0.0318
  C  C932  1  0.676410  0.370380  0.632420  1.0  -0.0793
  C  C933  1  0.673840  0.916870  0.179860  1.0  0.0379
  C  C934  1  0.662450  0.934200  0.210270  1.0  0.004
  C  C935  1  0.659840  0.884600  0.162560  1.0  -0.0318
  C  C936  1  0.676410  0.870380  0.132420  1.0  -0.0793
  C  C937  1  0.173840  0.416870  0.179860  1.0  0.0379
  C  C938  1  0.162450  0.434200  0.210270  1.0  0.004
  C  C939  1  0.159840  0.384600  0.162560  1.0  -0.0318
  C  C940  1  0.176410  0.370380  0.132420  1.0  -0.0793
  C  C941  1  0.173840  0.916870  0.679860  1.0  0.0379
  C  C942  1  0.162450  0.934200  0.710270  1.0  0.004
  C  C943  1  0.159840  0.884600  0.662560  1.0  -0.0318
  C  C944  1  0.176410  0.870380  0.632420  1.0  -0.0793
  C  C945  1  0.673840  0.583130  0.320140  1.0  0.0397
  C  C946  1  0.662450  0.565800  0.289730  1.0  0.0028
  C  C947  1  0.659840  0.615400  0.337440  1.0  -0.0325
  C  C948  1  0.676410  0.629620  0.367580  1.0  -0.0793
  C  C949  1  0.673840  0.083130  0.820140  1.0  0.0397
  C  C950  1  0.662450  0.065800  0.789730  1.0  0.0028
  C  C951  1  0.659840  0.115400  0.837440  1.0  -0.0325
  C  C952  1  0.676410  0.129620  0.867580  1.0  -0.0793
  C  C953  1  0.173840  0.583130  0.820140  1.0  0.0397
  C  C954  1  0.162450  0.565800  0.789730  1.0  0.0028
  C  C955  1  0.159840  0.615400  0.837440  1.0  -0.0325
  C  C956  1  0.176410  0.629620  0.867580  1.0  -0.0793
  C  C957  1  0.173840  0.083130  0.320140  1.0  0.0397
  C  C958  1  0.162450  0.065800  0.289730  1.0  0.0028
  C  C959  1  0.159840  0.115400  0.337440  1.0  -0.0325
  C  C960  1  0.176410  0.129620  0.367580  1.0  -0.0793
  C  C961  1  0.326160  0.583130  0.679860  1.0  0.0399
  C  C962  1  0.337550  0.565800  0.710270  1.0  0.0039
  C  C963  1  0.340160  0.615400  0.662560  1.0  -0.0321
  C  C964  1  0.323590  0.629620  0.632420  1.0  -0.0795
  C  C965  1  0.326160  0.083130  0.179860  1.0  0.0399
  C  C966  1  0.337550  0.065800  0.210270  1.0  0.0039
  C  C967  1  0.340160  0.115400  0.162560  1.0  -0.0321
  C  C968  1  0.323590  0.129620  0.132420  1.0  -0.0795
  C  C969  1  0.826160  0.583130  0.179860  1.0  0.0399
  C  C970  1  0.837550  0.565800  0.210270  1.0  0.0039
  C  C971  1  0.840160  0.615400  0.162560  1.0  -0.0321
  C  C972  1  0.823590  0.629620  0.132420  1.0  -0.0795
  C  C973  1  0.826160  0.083130  0.679860  1.0  0.0399
  C  C974  1  0.837550  0.065800  0.710270  1.0  0.0039
  C  C975  1  0.840160  0.115400  0.662560  1.0  -0.0321
  C  C976  1  0.823590  0.129620  0.632420  1.0  -0.0795
  C  C977  1  0.326160  0.416870  0.320140  1.0  0.0396
  C  C978  1  0.337550  0.434200  0.289730  1.0  0.0027
  C  C979  1  0.340160  0.384600  0.337440  1.0  -0.0316
  C  C980  1  0.323590  0.370380  0.367580  1.0  -0.0799
  C  C981  1  0.326160  0.916870  0.820140  1.0  0.0396
  C  C982  1  0.337550  0.934200  0.789730  1.0  0.0027
  C  C983  1  0.340160  0.884600  0.837440  1.0  -0.0316
  C  C984  1  0.323590  0.870380  0.867580  1.0  -0.0799
  C  C985  1  0.826160  0.416870  0.820140  1.0  0.0396
  C  C986  1  0.837550  0.434200  0.789730  1.0  0.0027
  C  C987  1  0.840160  0.384600  0.837440  1.0  -0.0316
  C  C988  1  0.823590  0.370380  0.867580  1.0  -0.0799
  C  C989  1  0.826160  0.916870  0.320140  1.0  0.0396
  C  C990  1  0.837550  0.934200  0.289730  1.0  0.0027
  C  C991  1  0.840160  0.884600  0.337440  1.0  -0.0316
  C  C992  1  0.823590  0.870380  0.367580  1.0  -0.0799
  C  C993  1  0.679860  0.673840  0.416870  1.0  0.0385
  C  C994  1  0.710270  0.662450  0.434200  1.0  0.0009
  C  C995  1  0.662560  0.659840  0.384600  1.0  -0.0331
  C  C996  1  0.632420  0.676410  0.370380  1.0  -0.0795
  C  C997  1  0.679860  0.173840  0.916870  1.0  0.0385
  C  C998  1  0.710270  0.162450  0.934200  1.0  0.0009
  C  C999  1  0.662560  0.159840  0.884600  1.0  -0.0331
  C  C1000  1  0.632420  0.176410  0.870380  1.0  -0.0795
  C  C1001  1  0.179860  0.673840  0.916870  1.0  0.0385
  C  C1002  1  0.210270  0.662450  0.934200  1.0  0.0009
  C  C1003  1  0.162560  0.659840  0.884600  1.0  -0.0331
  C  C1004  1  0.132420  0.676410  0.870380  1.0  -0.0795
  C  C1005  1  0.179860  0.173840  0.416870  1.0  0.0385
  C  C1006  1  0.210270  0.162450  0.434200  1.0  0.0009
  C  C1007  1  0.162560  0.159840  0.384600  1.0  -0.0331
  C  C1008  1  0.132420  0.176410  0.370380  1.0  -0.0795
  C  C1009  1  0.320140  0.673840  0.583130  1.0  0.0393
  C  C1010  1  0.289730  0.662450  0.565800  1.0  0.0011
  C  C1011  1  0.337440  0.659840  0.615400  1.0  -0.0335
  C  C1012  1  0.367580  0.676410  0.629620  1.0  -0.0794
  C  C1013  1  0.320140  0.173840  0.083130  1.0  0.0393
  C  C1014  1  0.289730  0.162450  0.065800  1.0  0.0011
  C  C1015  1  0.337440  0.159840  0.115400  1.0  -0.0335
  C  C1016  1  0.367580  0.176410  0.129620  1.0  -0.0794
  C  C1017  1  0.820140  0.673840  0.083130  1.0  0.0393
  C  C1018  1  0.789730  0.662450  0.065800  1.0  0.0011
  C  C1019  1  0.837440  0.659840  0.115400  1.0  -0.0335
  C  C1020  1  0.867580  0.676410  0.129620  1.0  -0.0794
  C  C1021  1  0.820140  0.173840  0.583130  1.0  0.0393
  C  C1022  1  0.789730  0.162450  0.565800  1.0  0.0011
  C  C1023  1  0.837440  0.159840  0.615400  1.0  -0.0335
  C  C1024  1  0.867580  0.176410  0.629620  1.0  -0.0794
  C  C1025  1  0.679860  0.326160  0.583130  1.0  0.0386
  C  C1026  1  0.710270  0.337550  0.565800  1.0  0.0012
  C  C1027  1  0.662560  0.340160  0.615400  1.0  -0.0335
  C  C1028  1  0.632420  0.323590  0.629620  1.0  -0.0787
  C  C1029  1  0.679860  0.826160  0.083130  1.0  0.0386
  C  C1030  1  0.710270  0.837550  0.065800  1.0  0.0012
  C  C1031  1  0.662560  0.840160  0.115400  1.0  -0.0335
  C  C1032  1  0.632420  0.823590  0.129620  1.0  -0.0787
  C  C1033  1  0.179860  0.326160  0.083130  1.0  0.0386
  C  C1034  1  0.210270  0.337550  0.065800  1.0  0.0012
  C  C1035  1  0.162560  0.340160  0.115400  1.0  -0.0335
  C  C1036  1  0.132420  0.323590  0.129620  1.0  -0.0787
  C  C1037  1  0.179860  0.826160  0.583130  1.0  0.0386
  C  C1038  1  0.210270  0.837550  0.565800  1.0  0.0012
  C  C1039  1  0.162560  0.840160  0.615400  1.0  -0.0335
  C  C1040  1  0.132420  0.823590  0.629620  1.0  -0.0787
  C  C1041  1  0.320140  0.326160  0.416870  1.0  0.0394
  C  C1042  1  0.289730  0.337550  0.434200  1.0  0.0011
  C  C1043  1  0.337440  0.340160  0.384600  1.0  -0.0333
  C  C1044  1  0.367580  0.323590  0.370380  1.0  -0.0783
  C  C1045  1  0.320140  0.826160  0.916870  1.0  0.0394
  C  C1046  1  0.289730  0.837550  0.934200  1.0  0.0011
  C  C1047  1  0.337440  0.840160  0.884600  1.0  -0.0333
  C  C1048  1  0.367580  0.823590  0.870380  1.0  -0.0783
  C  C1049  1  0.820140  0.326160  0.916870  1.0  0.0394
  C  C1050  1  0.789730  0.337550  0.934200  1.0  0.0011
  C  C1051  1  0.837440  0.340160  0.884600  1.0  -0.0333
  C  C1052  1  0.867580  0.323590  0.870380  1.0  -0.0783
  C  C1053  1  0.820140  0.826160  0.416870  1.0  0.0394
  C  C1054  1  0.789730  0.837550  0.434200  1.0  0.0011
  C  C1055  1  0.837440  0.840160  0.384600  1.0  -0.0333
  C  C1056  1  0.867580  0.823590  0.370380  1.0  -0.0783
  C  C1057  1  0.179860  0.916870  0.826160  1.0  0.0363
  C  C1058  1  0.210270  0.934200  0.837550  1.0  0.0015
  C  C1059  1  0.162560  0.884600  0.840160  1.0  -0.0327
  C  C1060  1  0.132420  0.870380  0.823590  1.0  -0.0794
  C  C1061  1  0.179860  0.416870  0.326160  1.0  0.0363
  C  C1062  1  0.210270  0.434200  0.337550  1.0  0.0015
  C  C1063  1  0.162560  0.384600  0.340160  1.0  -0.0327
  C  C1064  1  0.132420  0.370380  0.323590  1.0  -0.0794
  C  C1065  1  0.679860  0.916870  0.326160  1.0  0.0363
  C  C1066  1  0.710270  0.934200  0.337550  1.0  0.0015
  C  C1067  1  0.662560  0.884600  0.340160  1.0  -0.0327
  C  C1068  1  0.632420  0.870380  0.323590  1.0  -0.0794
  C  C1069  1  0.679860  0.416870  0.826160  1.0  0.0363
  C  C1070  1  0.710270  0.434200  0.837550  1.0  0.0015
  C  C1071  1  0.662560  0.384600  0.840160  1.0  -0.0327
  C  C1072  1  0.632420  0.370380  0.823590  1.0  -0.0794
  C  C1073  1  0.820140  0.083130  0.826160  1.0  0.038
  C  C1074  1  0.789730  0.065800  0.837550  1.0  0.0008
  C  C1075  1  0.837440  0.115400  0.840160  1.0  -0.0336
  C  C1076  1  0.867580  0.129620  0.823590  1.0  -0.0794
  C  C1077  1  0.820140  0.583130  0.326160  1.0  0.038
  C  C1078  1  0.789730  0.565800  0.337550  1.0  0.0008
  C  C1079  1  0.837440  0.615400  0.340160  1.0  -0.0336
  C  C1080  1  0.867580  0.629620  0.323590  1.0  -0.0794
  C  C1081  1  0.320140  0.083130  0.326160  1.0  0.038
  C  C1082  1  0.289730  0.065800  0.337550  1.0  0.0008
  C  C1083  1  0.337440  0.115400  0.340160  1.0  -0.0336
  C  C1084  1  0.367580  0.129620  0.323590  1.0  -0.0794
  C  C1085  1  0.320140  0.583130  0.826160  1.0  0.038
  C  C1086  1  0.289730  0.565800  0.837550  1.0  0.0008
  C  C1087  1  0.337440  0.615400  0.840160  1.0  -0.0336
  C  C1088  1  0.367580  0.629620  0.823590  1.0  -0.0794
  C  C1089  1  0.179860  0.083130  0.173840  1.0  0.0371
  C  C1090  1  0.210270  0.065800  0.162450  1.0  0.0004
  C  C1091  1  0.162560  0.115400  0.159840  1.0  -0.0333
  C  C1092  1  0.132420  0.129620  0.176410  1.0  -0.0789
  C  C1093  1  0.179860  0.583130  0.673840  1.0  0.0371
  C  C1094  1  0.210270  0.565800  0.662450  1.0  0.0004
  C  C1095  1  0.162560  0.615400  0.659840  1.0  -0.0333
  C  C1096  1  0.132420  0.629620  0.676410  1.0  -0.0789
  C  C1097  1  0.679860  0.083130  0.673840  1.0  0.0371
  C  C1098  1  0.710270  0.065800  0.662450  1.0  0.0004
  C  C1099  1  0.662560  0.115400  0.659840  1.0  -0.0333
  C  C1100  1  0.632420  0.129620  0.676410  1.0  -0.0789
  C  C1101  1  0.679860  0.583130  0.173840  1.0  0.0371
  C  C1102  1  0.710270  0.565800  0.162450  1.0  0.0004
  C  C1103  1  0.662560  0.615400  0.159840  1.0  -0.0333
  C  C1104  1  0.632420  0.629620  0.176410  1.0  -0.0789
  C  C1105  1  0.820140  0.916870  0.173840  1.0  0.0372
  C  C1106  1  0.789730  0.934200  0.162450  1.0  0.0014
  C  C1107  1  0.837440  0.884600  0.159840  1.0  -0.0331
  C  C1108  1  0.867580  0.870380  0.176410  1.0  -0.0788
  C  C1109  1  0.820140  0.416870  0.673840  1.0  0.0372
  C  C1110  1  0.789730  0.434200  0.662450  1.0  0.0014
  C  C1111  1  0.837440  0.384600  0.659840  1.0  -0.0331
  C  C1112  1  0.867580  0.370380  0.676410  1.0  -0.0788
  C  C1113  1  0.320140  0.916870  0.673840  1.0  0.0372
  C  C1114  1  0.289730  0.934200  0.662450  1.0  0.0014
  C  C1115  1  0.337440  0.884600  0.659840  1.0  -0.0331
  C  C1116  1  0.367580  0.870380  0.676410  1.0  -0.0788
  C  C1117  1  0.320140  0.416870  0.173840  1.0  0.0372
  C  C1118  1  0.289730  0.434200  0.162450  1.0  0.0014
  C  C1119  1  0.337440  0.384600  0.159840  1.0  -0.0331
  C  C1120  1  0.367580  0.370380  0.176410  1.0  -0.0788
  C  C1121  1  0.916870  0.173840  0.820140  1.0  0.0389
  C  C1122  1  0.934200  0.162450  0.789730  1.0  0.0
  C  C1123  1  0.884600  0.159840  0.837440  1.0  -0.0323
  C  C1124  1  0.870380  0.176410  0.867580  1.0  -0.079
  C  C1125  1  0.916870  0.673840  0.320140  1.0  0.0389
  C  C1126  1  0.934200  0.662450  0.289730  1.0  0.0
  C  C1127  1  0.884600  0.659840  0.337440  1.0  -0.0323
  C  C1128  1  0.870380  0.676410  0.367580  1.0  -0.079
  C  C1129  1  0.416870  0.173840  0.320140  1.0  0.0389
  C  C1130  1  0.434200  0.162450  0.289730  1.0  0.0
  C  C1131  1  0.384600  0.159840  0.337440  1.0  -0.0323
  C  C1132  1  0.370380  0.176410  0.367580  1.0  -0.079
  C  C1133  1  0.416870  0.673840  0.820140  1.0  0.0389
  C  C1134  1  0.434200  0.662450  0.789730  1.0  0.0
  C  C1135  1  0.384600  0.659840  0.837440  1.0  -0.0323
  C  C1136  1  0.370380  0.676410  0.867580  1.0  -0.079
  C  C1137  1  0.083130  0.173840  0.179860  1.0  0.0388
  C  C1138  1  0.065800  0.162450  0.210270  1.0  0.0027
  C  C1139  1  0.115400  0.159840  0.162560  1.0  -0.0336
  C  C1140  1  0.129620  0.176410  0.132420  1.0  -0.0785
  C  C1141  1  0.083130  0.673840  0.679860  1.0  0.0388
  C  C1142  1  0.065800  0.662450  0.710270  1.0  0.0027
  C  C1143  1  0.115400  0.659840  0.662560  1.0  -0.0336
  C  C1144  1  0.129620  0.676410  0.632420  1.0  -0.0785
  C  C1145  1  0.583130  0.173840  0.679860  1.0  0.0388
  C  C1146  1  0.565800  0.162450  0.710270  1.0  0.0027
  C  C1147  1  0.615400  0.159840  0.662560  1.0  -0.0336
  C  C1148  1  0.629620  0.176410  0.632420  1.0  -0.0785
  C  C1149  1  0.583130  0.673840  0.179860  1.0  0.0388
  C  C1150  1  0.565800  0.662450  0.210270  1.0  0.0027
  C  C1151  1  0.615400  0.659840  0.162560  1.0  -0.0336
  C  C1152  1  0.629620  0.676410  0.132420  1.0  -0.0785
  C  C1153  1  0.083130  0.826160  0.820140  1.0  0.0394
  C  C1154  1  0.065800  0.837550  0.789730  1.0  0.0014
  C  C1155  1  0.115400  0.840160  0.837440  1.0  -0.0339
  C  C1156  1  0.129620  0.823590  0.867580  1.0  -0.0782
  C  C1157  1  0.083130  0.326160  0.320140  1.0  0.0394
  C  C1158  1  0.065800  0.337550  0.289730  1.0  0.0014
  C  C1159  1  0.115400  0.340160  0.337440  1.0  -0.0339
  C  C1160  1  0.129620  0.323590  0.367580  1.0  -0.0782
  C  C1161  1  0.583130  0.826160  0.320140  1.0  0.0394
  C  C1162  1  0.565800  0.837550  0.289730  1.0  0.0014
  C  C1163  1  0.615400  0.840160  0.337440  1.0  -0.0339
  C  C1164  1  0.629620  0.823590  0.367580  1.0  -0.0782
  C  C1165  1  0.583130  0.326160  0.820140  1.0  0.0394
  C  C1166  1  0.565800  0.337550  0.789730  1.0  0.0014
  C  C1167  1  0.615400  0.340160  0.837440  1.0  -0.0339
  C  C1168  1  0.629620  0.323590  0.867580  1.0  -0.0782
  C  C1169  1  0.916870  0.826160  0.179860  1.0  0.0383
  C  C1170  1  0.934200  0.837550  0.210270  1.0  0.0015
  C  C1171  1  0.884600  0.840160  0.162560  1.0  -0.0325
  C  C1172  1  0.870380  0.823590  0.132420  1.0  -0.078
  C  C1173  1  0.916870  0.326160  0.679860  1.0  0.0383
  C  C1174  1  0.934200  0.337550  0.710270  1.0  0.0015
  C  C1175  1  0.884600  0.340160  0.662560  1.0  -0.0325
  C  C1176  1  0.870380  0.323590  0.632420  1.0  -0.078
  C  C1177  1  0.416870  0.826160  0.679860  1.0  0.0383
  C  C1178  1  0.434200  0.837550  0.710270  1.0  0.0015
  C  C1179  1  0.384600  0.840160  0.662560  1.0  -0.0325
  C  C1180  1  0.370380  0.823590  0.632420  1.0  -0.078
  C  C1181  1  0.416870  0.326160  0.179860  1.0  0.0383
  C  C1182  1  0.434200  0.337550  0.210270  1.0  0.0015
  C  C1183  1  0.384600  0.340160  0.162560  1.0  -0.0325
  C  C1184  1  0.370380  0.323590  0.132420  1.0  -0.078
  C  C1185  1  0.173840  0.179860  0.083130  1.0  0.0386
  C  C1186  1  0.162450  0.210270  0.065800  1.0  0.0019
  C  C1187  1  0.159840  0.162560  0.115400  1.0  -0.0343
  C  C1188  1  0.176410  0.132420  0.129620  1.0  -0.0803
  C  C1189  1  0.173840  0.679860  0.583130  1.0  0.0386
  C  C1190  1  0.162450  0.710270  0.565800  1.0  0.0019
  C  C1191  1  0.159840  0.662560  0.615400  1.0  -0.0343
  C  C1192  1  0.176410  0.632420  0.629620  1.0  -0.0803
  C  C1193  1  0.673840  0.179860  0.583130  1.0  0.0386
  C  C1194  1  0.662450  0.210270  0.565800  1.0  0.0019
  C  C1195  1  0.659840  0.162560  0.615400  1.0  -0.0343
  C  C1196  1  0.676410  0.132420  0.629620  1.0  -0.0803
  C  C1197  1  0.673840  0.679860  0.083130  1.0  0.0386
  C  C1198  1  0.662450  0.710270  0.065800  1.0  0.0019
  C  C1199  1  0.659840  0.662560  0.115400  1.0  -0.0343
  C  C1200  1  0.676410  0.632420  0.129620  1.0  -0.0803
  C  C1201  1  0.173840  0.820140  0.916870  1.0  0.0395
  C  C1202  1  0.162450  0.789730  0.934200  1.0  0.0024
  C  C1203  1  0.159840  0.837440  0.884600  1.0  -0.0336
  C  C1204  1  0.176410  0.867580  0.870380  1.0  -0.0794
  C  C1205  1  0.173840  0.320140  0.416870  1.0  0.0395
  C  C1206  1  0.162450  0.289730  0.434200  1.0  0.0024
  C  C1207  1  0.159840  0.337440  0.384600  1.0  -0.0336
  C  C1208  1  0.176410  0.367580  0.370380  1.0  -0.0794
  C  C1209  1  0.673840  0.820140  0.416870  1.0  0.0395
  C  C1210  1  0.662450  0.789730  0.434200  1.0  0.0024
  C  C1211  1  0.659840  0.837440  0.384600  1.0  -0.0336
  C  C1212  1  0.676410  0.867580  0.370380  1.0  -0.0794
  C  C1213  1  0.673840  0.320140  0.916870  1.0  0.0395
  C  C1214  1  0.662450  0.289730  0.934200  1.0  0.0024
  C  C1215  1  0.659840  0.337440  0.884600  1.0  -0.0336
  C  C1216  1  0.676410  0.367580  0.870380  1.0  -0.0794
  C  C1217  1  0.826160  0.179860  0.916870  1.0  0.0396
  C  C1218  1  0.837550  0.210270  0.934200  1.0  0.0017
  C  C1219  1  0.840160  0.162560  0.884600  1.0  -0.0338
  C  C1220  1  0.823590  0.132420  0.870380  1.0  -0.0802
  C  C1221  1  0.826160  0.679860  0.416870  1.0  0.0396
  C  C1222  1  0.837550  0.710270  0.434200  1.0  0.0017
  C  C1223  1  0.840160  0.662560  0.384600  1.0  -0.0338
  C  C1224  1  0.823590  0.632420  0.370380  1.0  -0.0802
  C  C1225  1  0.326160  0.179860  0.416870  1.0  0.0396
  C  C1226  1  0.337550  0.210270  0.434200  1.0  0.0017
  C  C1227  1  0.340160  0.162560  0.384600  1.0  -0.0338
  C  C1228  1  0.323590  0.132420  0.370380  1.0  -0.0802
  C  C1229  1  0.326160  0.679860  0.916870  1.0  0.0396
  C  C1230  1  0.337550  0.710270  0.934200  1.0  0.0017
  C  C1231  1  0.340160  0.662560  0.884600  1.0  -0.0338
  C  C1232  1  0.323590  0.632420  0.870380  1.0  -0.0802
  C  C1233  1  0.826160  0.820140  0.083130  1.0  0.0401
  C  C1234  1  0.837550  0.789730  0.065800  1.0  0.0023
  C  C1235  1  0.840160  0.837440  0.115400  1.0  -0.0336
  C  C1236  1  0.823590  0.867580  0.129620  1.0  -0.0802
  C  C1237  1  0.826160  0.320140  0.583130  1.0  0.0401
  C  C1238  1  0.837550  0.289730  0.565800  1.0  0.0023
  C  C1239  1  0.840160  0.337440  0.615400  1.0  -0.0336
  C  C1240  1  0.823590  0.367580  0.629620  1.0  -0.0802
  C  C1241  1  0.326160  0.820140  0.583130  1.0  0.0401
  C  C1242  1  0.337550  0.789730  0.565800  1.0  0.0023
  C  C1243  1  0.340160  0.837440  0.615400  1.0  -0.0336
  C  C1244  1  0.323590  0.867580  0.629620  1.0  -0.0802
  C  C1245  1  0.326160  0.320140  0.083130  1.0  0.0401
  C  C1246  1  0.337550  0.289730  0.065800  1.0  0.0023
  C  C1247  1  0.340160  0.337440  0.115400  1.0  -0.0336
  C  C1248  1  0.323590  0.367580  0.129620  1.0  -0.0802
  N  N1249  1  0.537360  0.311720  0.292320  1.0  -0.0439
  N  N1250  1  0.537520  0.284790  0.316310  1.0  -0.2282
  N  N1251  1  0.564760  0.333530  0.297780  1.0  -0.2941
  N  N1252  1  0.537360  0.811720  0.792320  1.0  -0.0439
  N  N1253  1  0.537520  0.784790  0.816310  1.0  -0.2282
  N  N1254  1  0.564760  0.833530  0.797780  1.0  -0.2941
  N  N1255  1  0.037360  0.311720  0.792320  1.0  -0.0439
  N  N1256  1  0.037520  0.284790  0.816310  1.0  -0.2282
  N  N1257  1  0.064760  0.333530  0.797780  1.0  -0.2941
  N  N1258  1  0.037360  0.811720  0.292320  1.0  -0.0439
  N  N1259  1  0.037520  0.784790  0.316310  1.0  -0.2282
  N  N1260  1  0.064760  0.833530  0.297780  1.0  -0.2941
  N  N1261  1  0.462640  0.688280  0.292320  1.0  -0.0448
  N  N1262  1  0.462480  0.715210  0.316310  1.0  -0.2281
  N  N1263  1  0.435240  0.666470  0.297780  1.0  -0.2932
  N  N1264  1  0.462640  0.188280  0.792320  1.0  -0.0448
  N  N1265  1  0.462480  0.215210  0.816310  1.0  -0.2281
  N  N1266  1  0.435240  0.166470  0.797780  1.0  -0.2932
  N  N1267  1  0.962640  0.688280  0.792320  1.0  -0.0448
  N  N1268  1  0.962480  0.715210  0.816310  1.0  -0.2281
  N  N1269  1  0.935240  0.666470  0.797780  1.0  -0.2932
  N  N1270  1  0.962640  0.188280  0.292320  1.0  -0.0448
  N  N1271  1  0.962480  0.215210  0.316310  1.0  -0.2281
  N  N1272  1  0.935240  0.166470  0.297780  1.0  -0.2932
  N  N1273  1  0.462640  0.311720  0.707680  1.0  -0.0448
  N  N1274  1  0.462480  0.284790  0.683690  1.0  -0.2287
  N  N1275  1  0.435240  0.333530  0.702220  1.0  -0.293
  N  N1276  1  0.462640  0.811720  0.207680  1.0  -0.0448
  N  N1277  1  0.462480  0.784790  0.183690  1.0  -0.2287
  N  N1278  1  0.435240  0.833530  0.202220  1.0  -0.293
  N  N1279  1  0.962640  0.311720  0.207680  1.0  -0.0448
  N  N1280  1  0.962480  0.284790  0.183690  1.0  -0.2287
  N  N1281  1  0.935240  0.333530  0.202220  1.0  -0.293
  N  N1282  1  0.962640  0.811720  0.707680  1.0  -0.0448
  N  N1283  1  0.962480  0.784790  0.683690  1.0  -0.2287
  N  N1284  1  0.935240  0.833530  0.702220  1.0  -0.293
  N  N1285  1  0.537360  0.688280  0.707680  1.0  -0.0456
  N  N1286  1  0.537520  0.715210  0.683690  1.0  -0.2284
  N  N1287  1  0.564760  0.666470  0.702220  1.0  -0.2937
  N  N1288  1  0.537360  0.188280  0.207680  1.0  -0.0456
  N  N1289  1  0.537520  0.215210  0.183690  1.0  -0.2284
  N  N1290  1  0.564760  0.166470  0.202220  1.0  -0.2937
  N  N1291  1  0.037360  0.688280  0.207680  1.0  -0.0456
  N  N1292  1  0.037520  0.715210  0.183690  1.0  -0.2284
  N  N1293  1  0.064760  0.666470  0.202220  1.0  -0.2937
  N  N1294  1  0.037360  0.188280  0.707680  1.0  -0.0456
  N  N1295  1  0.037520  0.215210  0.683690  1.0  -0.2284
  N  N1296  1  0.064760  0.166470  0.702220  1.0  -0.2937
  N  N1297  1  0.292320  0.537360  0.311720  1.0  -0.043
  N  N1298  1  0.316310  0.537520  0.284790  1.0  -0.2284
  N  N1299  1  0.297780  0.564760  0.333530  1.0  -0.2929
  N  N1300  1  0.292320  0.037360  0.811720  1.0  -0.043
  N  N1301  1  0.316310  0.037520  0.784790  1.0  -0.2284
  N  N1302  1  0.297780  0.064760  0.833530  1.0  -0.2929
  N  N1303  1  0.792320  0.537360  0.811720  1.0  -0.043
  N  N1304  1  0.816310  0.537520  0.784790  1.0  -0.2284
  N  N1305  1  0.797780  0.564760  0.833530  1.0  -0.2929
  N  N1306  1  0.792320  0.037360  0.311720  1.0  -0.043
  N  N1307  1  0.816310  0.037520  0.284790  1.0  -0.2284
  N  N1308  1  0.797780  0.064760  0.333530  1.0  -0.2929
  N  N1309  1  0.292320  0.462640  0.688280  1.0  -0.0437
  N  N1310  1  0.316310  0.462480  0.715210  1.0  -0.228
  N  N1311  1  0.297780  0.435240  0.666470  1.0  -0.2931
  N  N1312  1  0.292320  0.962640  0.188280  1.0  -0.0437
  N  N1313  1  0.316310  0.962480  0.215210  1.0  -0.228
  N  N1314  1  0.297780  0.935240  0.166470  1.0  -0.2931
  N  N1315  1  0.792320  0.462640  0.188280  1.0  -0.0437
  N  N1316  1  0.816310  0.462480  0.215210  1.0  -0.228
  N  N1317  1  0.797780  0.435240  0.166470  1.0  -0.2931
  N  N1318  1  0.792320  0.962640  0.688280  1.0  -0.0437
  N  N1319  1  0.816310  0.962480  0.715210  1.0  -0.228
  N  N1320  1  0.797780  0.935240  0.666470  1.0  -0.2931
  N  N1321  1  0.707680  0.462640  0.311720  1.0  -0.0435
  N  N1322  1  0.683690  0.462480  0.284790  1.0  -0.2275
  N  N1323  1  0.702220  0.435240  0.333530  1.0  -0.2925
  N  N1324  1  0.707680  0.962640  0.811720  1.0  -0.0435
  N  N1325  1  0.683690  0.962480  0.784790  1.0  -0.2275
  N  N1326  1  0.702220  0.935240  0.833530  1.0  -0.2925
  N  N1327  1  0.207680  0.462640  0.811720  1.0  -0.0435
  N  N1328  1  0.183690  0.462480  0.784790  1.0  -0.2275
  N  N1329  1  0.202220  0.435240  0.833530  1.0  -0.2925
  N  N1330  1  0.207680  0.962640  0.311720  1.0  -0.0435
  N  N1331  1  0.183690  0.962480  0.284790  1.0  -0.2275
  N  N1332  1  0.202220  0.935240  0.333530  1.0  -0.2925
  N  N1333  1  0.707680  0.537360  0.688280  1.0  -0.044
  N  N1334  1  0.683690  0.537520  0.715210  1.0  -0.2276
  N  N1335  1  0.702220  0.564760  0.666470  1.0  -0.293
  N  N1336  1  0.707680  0.037360  0.188280  1.0  -0.044
  N  N1337  1  0.683690  0.037520  0.215210  1.0  -0.2276
  N  N1338  1  0.702220  0.064760  0.166470  1.0  -0.293
  N  N1339  1  0.207680  0.537360  0.188280  1.0  -0.044
  N  N1340  1  0.183690  0.537520  0.215210  1.0  -0.2276
  N  N1341  1  0.202220  0.564760  0.166470  1.0  -0.293
  N  N1342  1  0.207680  0.037360  0.688280  1.0  -0.044
  N  N1343  1  0.183690  0.037520  0.715210  1.0  -0.2276
  N  N1344  1  0.202220  0.064760  0.666470  1.0  -0.293
  N  N1345  1  0.311720  0.292320  0.537360  1.0  -0.0433
  N  N1346  1  0.284790  0.316310  0.537520  1.0  -0.2282
  N  N1347  1  0.333530  0.297780  0.564760  1.0  -0.2949
  N  N1348  1  0.311720  0.792320  0.037360  1.0  -0.0433
  N  N1349  1  0.284790  0.816310  0.037520  1.0  -0.2282
  N  N1350  1  0.333530  0.797780  0.064760  1.0  -0.2949
  N  N1351  1  0.811720  0.292320  0.037360  1.0  -0.0433
  N  N1352  1  0.784790  0.316310  0.037520  1.0  -0.2282
  N  N1353  1  0.833530  0.297780  0.064760  1.0  -0.2949
  N  N1354  1  0.811720  0.792320  0.537360  1.0  -0.0433
  N  N1355  1  0.784790  0.816310  0.537520  1.0  -0.2282
  N  N1356  1  0.833530  0.797780  0.564760  1.0  -0.2949
  N  N1357  1  0.688280  0.292320  0.462640  1.0  -0.0425
  N  N1358  1  0.715210  0.316310  0.462480  1.0  -0.2285
  N  N1359  1  0.666470  0.297780  0.435240  1.0  -0.2963
  N  N1360  1  0.688280  0.792320  0.962640  1.0  -0.0425
  N  N1361  1  0.715210  0.816310  0.962480  1.0  -0.2285
  N  N1362  1  0.666470  0.797780  0.935240  1.0  -0.2963
  N  N1363  1  0.188280  0.292320  0.962640  1.0  -0.0425
  N  N1364  1  0.215210  0.316310  0.962480  1.0  -0.2285
  N  N1365  1  0.166470  0.297780  0.935240  1.0  -0.2963
  N  N1366  1  0.188280  0.792320  0.462640  1.0  -0.0425
  N  N1367  1  0.215210  0.816310  0.462480  1.0  -0.2285
  N  N1368  1  0.166470  0.797780  0.435240  1.0  -0.2963
  N  N1369  1  0.311720  0.707680  0.462640  1.0  -0.0433
  N  N1370  1  0.284790  0.683690  0.462480  1.0  -0.2292
  N  N1371  1  0.333530  0.702220  0.435240  1.0  -0.2955
  N  N1372  1  0.311720  0.207680  0.962640  1.0  -0.0433
  N  N1373  1  0.284790  0.183690  0.962480  1.0  -0.2292
  N  N1374  1  0.333530  0.202220  0.935240  1.0  -0.2955
  N  N1375  1  0.811720  0.707680  0.962640  1.0  -0.0433
  N  N1376  1  0.784790  0.683690  0.962480  1.0  -0.2292
  N  N1377  1  0.833530  0.702220  0.935240  1.0  -0.2955
  N  N1378  1  0.811720  0.207680  0.462640  1.0  -0.0433
  N  N1379  1  0.784790  0.183690  0.462480  1.0  -0.2292
  N  N1380  1  0.833530  0.202220  0.435240  1.0  -0.2955
  N  N1381  1  0.688280  0.707680  0.537360  1.0  -0.0424
  N  N1382  1  0.715210  0.683690  0.537520  1.0  -0.2288
  N  N1383  1  0.666470  0.702220  0.564760  1.0  -0.2963
  N  N1384  1  0.688280  0.207680  0.037360  1.0  -0.0424
  N  N1385  1  0.715210  0.183690  0.037520  1.0  -0.2288
  N  N1386  1  0.666470  0.202220  0.064760  1.0  -0.2963
  N  N1387  1  0.188280  0.707680  0.037360  1.0  -0.0424
  N  N1388  1  0.215210  0.683690  0.037520  1.0  -0.2288
  N  N1389  1  0.166470  0.702220  0.064760  1.0  -0.2963
  N  N1390  1  0.188280  0.207680  0.537360  1.0  -0.0424
  N  N1391  1  0.215210  0.183690  0.537520  1.0  -0.2288
  N  N1392  1  0.166470  0.202220  0.564760  1.0  -0.2963
  N  N1393  1  0.811720  0.037360  0.207680  1.0  -0.0435
  N  N1394  1  0.784790  0.037520  0.183690  1.0  -0.2283
  N  N1395  1  0.833530  0.064760  0.202220  1.0  -0.2952
  N  N1396  1  0.811720  0.537360  0.707680  1.0  -0.0435
  N  N1397  1  0.784790  0.537520  0.683690  1.0  -0.2283
  N  N1398  1  0.833530  0.564760  0.702220  1.0  -0.2952
  N  N1399  1  0.311720  0.037360  0.707680  1.0  -0.0435
  N  N1400  1  0.284790  0.037520  0.683690  1.0  -0.2283
  N  N1401  1  0.333530  0.064760  0.702220  1.0  -0.2952
  N  N1402  1  0.311720  0.537360  0.207680  1.0  -0.0435
  N  N1403  1  0.284790  0.537520  0.183690  1.0  -0.2283
  N  N1404  1  0.333530  0.564760  0.202220  1.0  -0.2952
  N  N1405  1  0.188280  0.962640  0.207680  1.0  -0.0425
  N  N1406  1  0.215210  0.962480  0.183690  1.0  -0.2284
  N  N1407  1  0.166470  0.935240  0.202220  1.0  -0.2963
  N  N1408  1  0.188280  0.462640  0.707680  1.0  -0.0425
  N  N1409  1  0.215210  0.462480  0.683690  1.0  -0.2284
  N  N1410  1  0.166470  0.435240  0.702220  1.0  -0.2963
  N  N1411  1  0.688280  0.962640  0.707680  1.0  -0.0425
  N  N1412  1  0.715210  0.962480  0.683690  1.0  -0.2284
  N  N1413  1  0.666470  0.935240  0.702220  1.0  -0.2963
  N  N1414  1  0.688280  0.462640  0.207680  1.0  -0.0425
  N  N1415  1  0.715210  0.462480  0.183690  1.0  -0.2284
  N  N1416  1  0.666470  0.435240  0.202220  1.0  -0.2963
  N  N1417  1  0.811720  0.962640  0.792320  1.0  -0.0423
  N  N1418  1  0.784790  0.962480  0.816310  1.0  -0.2274
  N  N1419  1  0.833530  0.935240  0.797780  1.0  -0.2959
  N  N1420  1  0.811720  0.462640  0.292320  1.0  -0.0423
  N  N1421  1  0.784790  0.462480  0.316310  1.0  -0.2274
  N  N1422  1  0.833530  0.435240  0.297780  1.0  -0.2959
  N  N1423  1  0.311720  0.962640  0.292320  1.0  -0.0423
  N  N1424  1  0.284790  0.962480  0.316310  1.0  -0.2274
  N  N1425  1  0.333530  0.935240  0.297780  1.0  -0.2959
  N  N1426  1  0.311720  0.462640  0.792320  1.0  -0.0423
  N  N1427  1  0.284790  0.462480  0.816310  1.0  -0.2274
  N  N1428  1  0.333530  0.435240  0.797780  1.0  -0.2959
  N  N1429  1  0.188280  0.037360  0.792320  1.0  -0.0424
  N  N1430  1  0.215210  0.037520  0.816310  1.0  -0.2275
  N  N1431  1  0.166470  0.064760  0.797780  1.0  -0.2962
  N  N1432  1  0.188280  0.537360  0.292320  1.0  -0.0424
  N  N1433  1  0.215210  0.537520  0.316310  1.0  -0.2275
  N  N1434  1  0.166470  0.564760  0.297780  1.0  -0.2962
  N  N1435  1  0.688280  0.037360  0.292320  1.0  -0.0424
  N  N1436  1  0.715210  0.037520  0.316310  1.0  -0.2275
  N  N1437  1  0.666470  0.064760  0.297780  1.0  -0.2962
  N  N1438  1  0.688280  0.537360  0.792320  1.0  -0.0424
  N  N1439  1  0.715210  0.537520  0.816310  1.0  -0.2275
  N  N1440  1  0.666470  0.564760  0.797780  1.0  -0.2962
  N  N1441  1  0.037360  0.792320  0.188280  1.0  -0.0444
  N  N1442  1  0.037520  0.816310  0.215210  1.0  -0.229
  N  N1443  1  0.064760  0.797780  0.166470  1.0  -0.2947
  N  N1444  1  0.037360  0.292320  0.688280  1.0  -0.0444
  N  N1445  1  0.037520  0.316310  0.715210  1.0  -0.229
  N  N1446  1  0.064760  0.297780  0.666470  1.0  -0.2947
  N  N1447  1  0.537360  0.792320  0.688280  1.0  -0.0444
  N  N1448  1  0.537520  0.816310  0.715210  1.0  -0.229
  N  N1449  1  0.564760  0.797780  0.666470  1.0  -0.2947
  N  N1450  1  0.537360  0.292320  0.188280  1.0  -0.0444
  N  N1451  1  0.537520  0.316310  0.215210  1.0  -0.229
  N  N1452  1  0.564760  0.297780  0.166470  1.0  -0.2947
  N  N1453  1  0.962640  0.792320  0.811720  1.0  -0.0427
  N  N1454  1  0.962480  0.816310  0.784790  1.0  -0.2291
  N  N1455  1  0.935240  0.797780  0.833530  1.0  -0.294
  N  N1456  1  0.962640  0.292320  0.311720  1.0  -0.0427
  N  N1457  1  0.962480  0.316310  0.284790  1.0  -0.2291
  N  N1458  1  0.935240  0.297780  0.333530  1.0  -0.294
  N  N1459  1  0.462640  0.792320  0.311720  1.0  -0.0427
  N  N1460  1  0.462480  0.816310  0.284790  1.0  -0.2291
  N  N1461  1  0.435240  0.797780  0.333530  1.0  -0.294
  N  N1462  1  0.462640  0.292320  0.811720  1.0  -0.0427
  N  N1463  1  0.462480  0.316310  0.784790  1.0  -0.2291
  N  N1464  1  0.435240  0.297780  0.833530  1.0  -0.294
  N  N1465  1  0.962640  0.207680  0.188280  1.0  -0.0437
  N  N1466  1  0.962480  0.183690  0.215210  1.0  -0.229
  N  N1467  1  0.935240  0.202220  0.166470  1.0  -0.2938
  N  N1468  1  0.962640  0.707680  0.688280  1.0  -0.0437
  N  N1469  1  0.962480  0.683690  0.715210  1.0  -0.229
  N  N1470  1  0.935240  0.702220  0.666470  1.0  -0.2938
  N  N1471  1  0.462640  0.207680  0.688280  1.0  -0.0437
  N  N1472  1  0.462480  0.183690  0.715210  1.0  -0.229
  N  N1473  1  0.435240  0.202220  0.666470  1.0  -0.2938
  N  N1474  1  0.462640  0.707680  0.188280  1.0  -0.0437
  N  N1475  1  0.462480  0.683690  0.215210  1.0  -0.229
  N  N1476  1  0.435240  0.702220  0.166470  1.0  -0.2938
  N  N1477  1  0.037360  0.207680  0.811720  1.0  -0.0437
  N  N1478  1  0.037520  0.183690  0.784790  1.0  -0.2291
  N  N1479  1  0.064760  0.202220  0.833530  1.0  -0.2946
  N  N1480  1  0.037360  0.707680  0.311720  1.0  -0.0437
  N  N1481  1  0.037520  0.683690  0.284790  1.0  -0.2291
  N  N1482  1  0.064760  0.702220  0.333530  1.0  -0.2946
  N  N1483  1  0.537360  0.207680  0.311720  1.0  -0.0437
  N  N1484  1  0.537520  0.183690  0.284790  1.0  -0.2291
  N  N1485  1  0.564760  0.202220  0.333530  1.0  -0.2946
  N  N1486  1  0.537360  0.707680  0.811720  1.0  -0.0437
  N  N1487  1  0.537520  0.683690  0.784790  1.0  -0.2291
  N  N1488  1  0.564760  0.702220  0.833530  1.0  -0.2946
  N  N1489  1  0.792320  0.811720  0.962640  1.0  -0.0447
  N  N1490  1  0.816310  0.784790  0.962480  1.0  -0.2286
  N  N1491  1  0.797780  0.833530  0.935240  1.0  -0.2941
  N  N1492  1  0.792320  0.311720  0.462640  1.0  -0.0447
  N  N1493  1  0.816310  0.284790  0.462480  1.0  -0.2286
  N  N1494  1  0.797780  0.333530  0.435240  1.0  -0.2941
  N  N1495  1  0.292320  0.811720  0.462640  1.0  -0.0447
  N  N1496  1  0.316310  0.784790  0.462480  1.0  -0.2286
  N  N1497  1  0.297780  0.833530  0.435240  1.0  -0.2941
  N  N1498  1  0.292320  0.311720  0.962640  1.0  -0.0447
  N  N1499  1  0.316310  0.284790  0.962480  1.0  -0.2286
  N  N1500  1  0.297780  0.333530  0.935240  1.0  -0.2941
  N  N1501  1  0.792320  0.188280  0.037360  1.0  -0.045
  N  N1502  1  0.816310  0.215210  0.037520  1.0  -0.2278
  N  N1503  1  0.797780  0.166470  0.064760  1.0  -0.2947
  N  N1504  1  0.792320  0.688280  0.537360  1.0  -0.045
  N  N1505  1  0.816310  0.715210  0.537520  1.0  -0.2278
  N  N1506  1  0.797780  0.666470  0.564760  1.0  -0.2947
  N  N1507  1  0.292320  0.188280  0.537360  1.0  -0.045
  N  N1508  1  0.316310  0.215210  0.537520  1.0  -0.2278
  N  N1509  1  0.297780  0.166470  0.564760  1.0  -0.2947
  N  N1510  1  0.292320  0.688280  0.037360  1.0  -0.045
  N  N1511  1  0.316310  0.715210  0.037520  1.0  -0.2278
  N  N1512  1  0.297780  0.666470  0.064760  1.0  -0.2947
  N  N1513  1  0.207680  0.811720  0.037360  1.0  -0.0446
  N  N1514  1  0.183690  0.784790  0.037520  1.0  -0.2276
  N  N1515  1  0.202220  0.833530  0.064760  1.0  -0.2942
  N  N1516  1  0.207680  0.311720  0.537360  1.0  -0.0446
  N  N1517  1  0.183690  0.284790  0.537520  1.0  -0.2276
  N  N1518  1  0.202220  0.333530  0.564760  1.0  -0.2942
  N  N1519  1  0.707680  0.811720  0.537360  1.0  -0.0446
  N  N1520  1  0.683690  0.784790  0.537520  1.0  -0.2276
  N  N1521  1  0.702220  0.833530  0.564760  1.0  -0.2942
  N  N1522  1  0.707680  0.311720  0.037360  1.0  -0.0446
  N  N1523  1  0.683690  0.284790  0.037520  1.0  -0.2276
  N  N1524  1  0.702220  0.333530  0.064760  1.0  -0.2942
  N  N1525  1  0.207680  0.188280  0.962640  1.0  -0.0449
  N  N1526  1  0.183690  0.215210  0.962480  1.0  -0.2277
  N  N1527  1  0.202220  0.166470  0.935240  1.0  -0.2937
  N  N1528  1  0.207680  0.688280  0.462640  1.0  -0.0449
  N  N1529  1  0.183690  0.715210  0.462480  1.0  -0.2277
  N  N1530  1  0.202220  0.666470  0.435240  1.0  -0.2937
  N  N1531  1  0.707680  0.188280  0.462640  1.0  -0.0449
  N  N1532  1  0.683690  0.215210  0.462480  1.0  -0.2277
  N  N1533  1  0.702220  0.166470  0.435240  1.0  -0.2937
  N  N1534  1  0.707680  0.688280  0.962640  1.0  -0.0449
  N  N1535  1  0.683690  0.715210  0.962480  1.0  -0.2277
  N  N1536  1  0.702220  0.666470  0.935240  1.0  -0.2937
  N  N1537  1  0.462640  0.688280  0.707680  1.0  -0.0447
  N  N1538  1  0.462480  0.715210  0.683690  1.0  -0.2289
  N  N1539  1  0.435240  0.666470  0.702220  1.0  -0.2936
  N  N1540  1  0.462640  0.188280  0.207680  1.0  -0.0447
  N  N1541  1  0.462480  0.215210  0.183690  1.0  -0.2289
  N  N1542  1  0.435240  0.166470  0.202220  1.0  -0.2936
  N  N1543  1  0.962640  0.688280  0.207680  1.0  -0.0447
  N  N1544  1  0.962480  0.715210  0.183690  1.0  -0.2289
  N  N1545  1  0.935240  0.666470  0.202220  1.0  -0.2936
  N  N1546  1  0.962640  0.188280  0.707680  1.0  -0.0447
  N  N1547  1  0.962480  0.215210  0.683690  1.0  -0.2289
  N  N1548  1  0.935240  0.166470  0.702220  1.0  -0.2936
  N  N1549  1  0.537360  0.311720  0.707680  1.0  -0.0453
  N  N1550  1  0.537520  0.284790  0.683690  1.0  -0.2286
  N  N1551  1  0.564760  0.333530  0.702220  1.0  -0.2935
  N  N1552  1  0.537360  0.811720  0.207680  1.0  -0.0453
  N  N1553  1  0.537520  0.784790  0.183690  1.0  -0.2286
  N  N1554  1  0.564760  0.833530  0.202220  1.0  -0.2935
  N  N1555  1  0.037360  0.311720  0.207680  1.0  -0.0453
  N  N1556  1  0.037520  0.284790  0.183690  1.0  -0.2286
  N  N1557  1  0.064760  0.333530  0.202220  1.0  -0.2935
  N  N1558  1  0.037360  0.811720  0.707680  1.0  -0.0453
  N  N1559  1  0.037520  0.784790  0.683690  1.0  -0.2286
  N  N1560  1  0.064760  0.833530  0.702220  1.0  -0.2935
  N  N1561  1  0.537360  0.688280  0.292320  1.0  -0.0452
  N  N1562  1  0.537520  0.715210  0.316310  1.0  -0.2276
  N  N1563  1  0.564760  0.666470  0.297780  1.0  -0.2934
  N  N1564  1  0.537360  0.188280  0.792320  1.0  -0.0452
  N  N1565  1  0.537520  0.215210  0.816310  1.0  -0.2276
  N  N1566  1  0.564760  0.166470  0.797780  1.0  -0.2934
  N  N1567  1  0.037360  0.688280  0.792320  1.0  -0.0452
  N  N1568  1  0.037520  0.715210  0.816310  1.0  -0.2276
  N  N1569  1  0.064760  0.666470  0.797780  1.0  -0.2934
  N  N1570  1  0.037360  0.188280  0.292320  1.0  -0.0452
  N  N1571  1  0.037520  0.215210  0.316310  1.0  -0.2276
  N  N1572  1  0.064760  0.166470  0.297780  1.0  -0.2934
  N  N1573  1  0.462640  0.311720  0.292320  1.0  -0.0437
  N  N1574  1  0.462480  0.284790  0.316310  1.0  -0.2283
  N  N1575  1  0.435240  0.333530  0.297780  1.0  -0.2933
  N  N1576  1  0.462640  0.811720  0.792320  1.0  -0.0437
  N  N1577  1  0.462480  0.784790  0.816310  1.0  -0.2283
  N  N1578  1  0.435240  0.833530  0.797780  1.0  -0.2933
  N  N1579  1  0.962640  0.311720  0.792320  1.0  -0.0437
  N  N1580  1  0.962480  0.284790  0.816310  1.0  -0.2283
  N  N1581  1  0.935240  0.333530  0.797780  1.0  -0.2933
  N  N1582  1  0.962640  0.811720  0.292320  1.0  -0.0437
  N  N1583  1  0.962480  0.784790  0.316310  1.0  -0.2283
  N  N1584  1  0.935240  0.833530  0.297780  1.0  -0.2933
  N  N1585  1  0.707680  0.462640  0.688280  1.0  -0.0439
  N  N1586  1  0.683690  0.462480  0.715210  1.0  -0.2278
  N  N1587  1  0.702220  0.435240  0.666470  1.0  -0.2934
  N  N1588  1  0.707680  0.962640  0.188280  1.0  -0.0439
  N  N1589  1  0.683690  0.962480  0.215210  1.0  -0.2278
  N  N1590  1  0.702220  0.935240  0.166470  1.0  -0.2934
  N  N1591  1  0.207680  0.462640  0.188280  1.0  -0.0439
  N  N1592  1  0.183690  0.462480  0.215210  1.0  -0.2278
  N  N1593  1  0.202220  0.435240  0.166470  1.0  -0.2934
  N  N1594  1  0.207680  0.962640  0.688280  1.0  -0.0439
  N  N1595  1  0.183690  0.962480  0.715210  1.0  -0.2278
  N  N1596  1  0.202220  0.935240  0.666470  1.0  -0.2934
  N  N1597  1  0.707680  0.537360  0.311720  1.0  -0.043
  N  N1598  1  0.683690  0.537520  0.284790  1.0  -0.2277
  N  N1599  1  0.702220  0.564760  0.333530  1.0  -0.2925
  N  N1600  1  0.707680  0.037360  0.811720  1.0  -0.043
  N  N1601  1  0.683690  0.037520  0.784790  1.0  -0.2277
  N  N1602  1  0.702220  0.064760  0.833530  1.0  -0.2925
  N  N1603  1  0.207680  0.537360  0.811720  1.0  -0.043
  N  N1604  1  0.183690  0.537520  0.784790  1.0  -0.2277
  N  N1605  1  0.202220  0.564760  0.833530  1.0  -0.2925
  N  N1606  1  0.207680  0.037360  0.311720  1.0  -0.043
  N  N1607  1  0.183690  0.037520  0.284790  1.0  -0.2277
  N  N1608  1  0.202220  0.064760  0.333530  1.0  -0.2925
  N  N1609  1  0.292320  0.537360  0.688280  1.0  -0.0443
  N  N1610  1  0.316310  0.537520  0.715210  1.0  -0.2285
  N  N1611  1  0.297780  0.564760  0.666470  1.0  -0.2927
  N  N1612  1  0.292320  0.037360  0.188280  1.0  -0.0443
  N  N1613  1  0.316310  0.037520  0.215210  1.0  -0.2285
  N  N1614  1  0.297780  0.064760  0.166470  1.0  -0.2927
  N  N1615  1  0.792320  0.537360  0.188280  1.0  -0.0443
  N  N1616  1  0.816310  0.537520  0.215210  1.0  -0.2285
  N  N1617  1  0.797780  0.564760  0.166470  1.0  -0.2927
  N  N1618  1  0.792320  0.037360  0.688280  1.0  -0.0443
  N  N1619  1  0.816310  0.037520  0.715210  1.0  -0.2285
  N  N1620  1  0.797780  0.064760  0.666470  1.0  -0.2927
  N  N1621  1  0.292320  0.462640  0.311720  1.0  -0.043
  N  N1622  1  0.316310  0.462480  0.284790  1.0  -0.2279
  N  N1623  1  0.297780  0.435240  0.333530  1.0  -0.293
  N  N1624  1  0.292320  0.962640  0.811720  1.0  -0.043
  N  N1625  1  0.316310  0.962480  0.784790  1.0  -0.2279
  N  N1626  1  0.297780  0.935240  0.833530  1.0  -0.293
  N  N1627  1  0.792320  0.462640  0.811720  1.0  -0.043
  N  N1628  1  0.816310  0.462480  0.784790  1.0  -0.2279
  N  N1629  1  0.797780  0.435240  0.833530  1.0  -0.293
  N  N1630  1  0.792320  0.962640  0.311720  1.0  -0.043
  N  N1631  1  0.816310  0.962480  0.284790  1.0  -0.2279
  N  N1632  1  0.797780  0.935240  0.333530  1.0  -0.293
  N  N1633  1  0.688280  0.707680  0.462640  1.0  -0.0428
  N  N1634  1  0.715210  0.683690  0.462480  1.0  -0.2284
  N  N1635  1  0.666470  0.702220  0.435240  1.0  -0.2962
  N  N1636  1  0.688280  0.207680  0.962640  1.0  -0.0428
  N  N1637  1  0.715210  0.183690  0.962480  1.0  -0.2284
  N  N1638  1  0.666470  0.202220  0.935240  1.0  -0.2962
  N  N1639  1  0.188280  0.707680  0.962640  1.0  -0.0428
  N  N1640  1  0.215210  0.683690  0.962480  1.0  -0.2284
  N  N1641  1  0.166470  0.702220  0.935240  1.0  -0.2962
  N  N1642  1  0.188280  0.207680  0.462640  1.0  -0.0428
  N  N1643  1  0.215210  0.183690  0.462480  1.0  -0.2284
  N  N1644  1  0.166470  0.202220  0.435240  1.0  -0.2962
  N  N1645  1  0.311720  0.707680  0.537360  1.0  -0.0431
  N  N1646  1  0.284790  0.683690  0.537520  1.0  -0.2288
  N  N1647  1  0.333530  0.702220  0.564760  1.0  -0.2953
  N  N1648  1  0.311720  0.207680  0.037360  1.0  -0.0431
  N  N1649  1  0.284790  0.183690  0.037520  1.0  -0.2288
  N  N1650  1  0.333530  0.202220  0.064760  1.0  -0.2953
  N  N1651  1  0.811720  0.707680  0.037360  1.0  -0.0431
  N  N1652  1  0.784790  0.683690  0.037520  1.0  -0.2288
  N  N1653  1  0.833530  0.702220  0.064760  1.0  -0.2953
  N  N1654  1  0.811720  0.207680  0.537360  1.0  -0.0431
  N  N1655  1  0.784790  0.183690  0.537520  1.0  -0.2288
  N  N1656  1  0.833530  0.202220  0.564760  1.0  -0.2953
  N  N1657  1  0.688280  0.292320  0.537360  1.0  -0.0427
  N  N1658  1  0.715210  0.316310  0.537520  1.0  -0.2288
  N  N1659  1  0.666470  0.297780  0.564760  1.0  -0.2964
  N  N1660  1  0.688280  0.792320  0.037360  1.0  -0.0427
  N  N1661  1  0.715210  0.816310  0.037520  1.0  -0.2288
  N  N1662  1  0.666470  0.797780  0.064760  1.0  -0.2964
  N  N1663  1  0.188280  0.292320  0.037360  1.0  -0.0427
  N  N1664  1  0.215210  0.316310  0.037520  1.0  -0.2288
  N  N1665  1  0.166470  0.297780  0.064760  1.0  -0.2964
  N  N1666  1  0.188280  0.792320  0.537360  1.0  -0.0427
  N  N1667  1  0.215210  0.816310  0.537520  1.0  -0.2288
  N  N1668  1  0.166470  0.797780  0.564760  1.0  -0.2964
  N  N1669  1  0.311720  0.292320  0.462640  1.0  -0.0433
  N  N1670  1  0.284790  0.316310  0.462480  1.0  -0.2287
  N  N1671  1  0.333530  0.297780  0.435240  1.0  -0.2951
  N  N1672  1  0.311720  0.792320  0.962640  1.0  -0.0433
  N  N1673  1  0.284790  0.816310  0.962480  1.0  -0.2287
  N  N1674  1  0.333530  0.797780  0.935240  1.0  -0.2951
  N  N1675  1  0.811720  0.292320  0.962640  1.0  -0.0433
  N  N1676  1  0.784790  0.316310  0.962480  1.0  -0.2287
  N  N1677  1  0.833530  0.297780  0.935240  1.0  -0.2951
  N  N1678  1  0.811720  0.792320  0.462640  1.0  -0.0433
  N  N1679  1  0.784790  0.816310  0.462480  1.0  -0.2287
  N  N1680  1  0.833530  0.797780  0.435240  1.0  -0.2951
  N  N1681  1  0.188280  0.962640  0.792320  1.0  -0.0416
  N  N1682  1  0.215210  0.962480  0.816310  1.0  -0.2278
  N  N1683  1  0.166470  0.935240  0.797780  1.0  -0.2964
  N  N1684  1  0.188280  0.462640  0.292320  1.0  -0.0416
  N  N1685  1  0.215210  0.462480  0.316310  1.0  -0.2278
  N  N1686  1  0.166470  0.435240  0.297780  1.0  -0.2964
  N  N1687  1  0.688280  0.962640  0.292320  1.0  -0.0416
  N  N1688  1  0.715210  0.962480  0.316310  1.0  -0.2278
  N  N1689  1  0.666470  0.935240  0.297780  1.0  -0.2964
  N  N1690  1  0.688280  0.462640  0.792320  1.0  -0.0416
  N  N1691  1  0.715210  0.462480  0.816310  1.0  -0.2278
  N  N1692  1  0.666470  0.435240  0.797780  1.0  -0.2964
  N  N1693  1  0.811720  0.037360  0.792320  1.0  -0.043
  N  N1694  1  0.784790  0.037520  0.816310  1.0  -0.2278
  N  N1695  1  0.833530  0.064760  0.797780  1.0  -0.2958
  N  N1696  1  0.811720  0.537360  0.292320  1.0  -0.043
  N  N1697  1  0.784790  0.537520  0.316310  1.0  -0.2278
  N  N1698  1  0.833530  0.564760  0.297780  1.0  -0.2958
  N  N1699  1  0.311720  0.037360  0.292320  1.0  -0.043
  N  N1700  1  0.284790  0.037520  0.316310  1.0  -0.2278
  N  N1701  1  0.333530  0.064760  0.297780  1.0  -0.2958
  N  N1702  1  0.311720  0.537360  0.792320  1.0  -0.043
  N  N1703  1  0.284790  0.537520  0.816310  1.0  -0.2278
  N  N1704  1  0.333530  0.564760  0.797780  1.0  -0.2958
  N  N1705  1  0.188280  0.037360  0.207680  1.0  -0.0429
  N  N1706  1  0.215210  0.037520  0.183690  1.0  -0.228
  N  N1707  1  0.166470  0.064760  0.202220  1.0  -0.2961
  N  N1708  1  0.188280  0.537360  0.707680  1.0  -0.0429
  N  N1709  1  0.215210  0.537520  0.683690  1.0  -0.228
  N  N1710  1  0.166470  0.564760  0.702220  1.0  -0.2961
  N  N1711  1  0.688280  0.037360  0.707680  1.0  -0.0429
  N  N1712  1  0.715210  0.037520  0.683690  1.0  -0.228
  N  N1713  1  0.666470  0.064760  0.702220  1.0  -0.2961
  N  N1714  1  0.688280  0.537360  0.207680  1.0  -0.0429
  N  N1715  1  0.715210  0.537520  0.183690  1.0  -0.228
  N  N1716  1  0.666470  0.564760  0.202220  1.0  -0.2961
  N  N1717  1  0.811720  0.962640  0.207680  1.0  -0.043
  N  N1718  1  0.784790  0.962480  0.183690  1.0  -0.2281
  N  N1719  1  0.833530  0.935240  0.202220  1.0  -0.2953
  N  N1720  1  0.811720  0.462640  0.707680  1.0  -0.043
  N  N1721  1  0.784790  0.462480  0.683690  1.0  -0.2281
  N  N1722  1  0.833530  0.435240  0.702220  1.0  -0.2953
  N  N1723  1  0.311720  0.962640  0.707680  1.0  -0.043
  N  N1724  1  0.284790  0.962480  0.683690  1.0  -0.2281
  N  N1725  1  0.333530  0.935240  0.702220  1.0  -0.2953
  N  N1726  1  0.311720  0.462640  0.207680  1.0  -0.043
  N  N1727  1  0.284790  0.462480  0.183690  1.0  -0.2281
  N  N1728  1  0.333530  0.435240  0.202220  1.0  -0.2953
  N  N1729  1  0.962640  0.207680  0.811720  1.0  -0.043
  N  N1730  1  0.962480  0.183690  0.784790  1.0  -0.2294
  N  N1731  1  0.935240  0.202220  0.833530  1.0  -0.2942
  N  N1732  1  0.962640  0.707680  0.311720  1.0  -0.043
  N  N1733  1  0.962480  0.683690  0.284790  1.0  -0.2294
  N  N1734  1  0.935240  0.702220  0.333530  1.0  -0.2942
  N  N1735  1  0.462640  0.207680  0.311720  1.0  -0.043
  N  N1736  1  0.462480  0.183690  0.284790  1.0  -0.2294
  N  N1737  1  0.435240  0.202220  0.333530  1.0  -0.2942
  N  N1738  1  0.462640  0.707680  0.811720  1.0  -0.043
  N  N1739  1  0.462480  0.683690  0.784790  1.0  -0.2294
  N  N1740  1  0.435240  0.702220  0.833530  1.0  -0.2942
  N  N1741  1  0.037360  0.207680  0.188280  1.0  -0.0443
  N  N1742  1  0.037520  0.183690  0.215210  1.0  -0.2292
  N  N1743  1  0.064760  0.202220  0.166470  1.0  -0.2944
  N  N1744  1  0.037360  0.707680  0.688280  1.0  -0.0443
  N  N1745  1  0.037520  0.683690  0.715210  1.0  -0.2292
  N  N1746  1  0.064760  0.702220  0.666470  1.0  -0.2944
  N  N1747  1  0.537360  0.207680  0.688280  1.0  -0.0443
  N  N1748  1  0.537520  0.183690  0.715210  1.0  -0.2292
  N  N1749  1  0.564760  0.202220  0.666470  1.0  -0.2944
  N  N1750  1  0.537360  0.707680  0.188280  1.0  -0.0443
  N  N1751  1  0.537520  0.683690  0.215210  1.0  -0.2292
  N  N1752  1  0.564760  0.702220  0.166470  1.0  -0.2944
  N  N1753  1  0.037360  0.792320  0.811720  1.0  -0.0436
  N  N1754  1  0.037520  0.816310  0.784790  1.0  -0.2284
  N  N1755  1  0.064760  0.797780  0.833530  1.0  -0.2944
  N  N1756  1  0.037360  0.292320  0.311720  1.0  -0.0436
  N  N1757  1  0.037520  0.316310  0.284790  1.0  -0.2284
  N  N1758  1  0.064760  0.297780  0.333530  1.0  -0.2944
  N  N1759  1  0.537360  0.792320  0.311720  1.0  -0.0436
  N  N1760  1  0.537520  0.816310  0.284790  1.0  -0.2284
  N  N1761  1  0.564760  0.797780  0.333530  1.0  -0.2944
  N  N1762  1  0.537360  0.292320  0.811720  1.0  -0.0436
  N  N1763  1  0.537520  0.316310  0.784790  1.0  -0.2284
  N  N1764  1  0.564760  0.297780  0.833530  1.0  -0.2944
  N  N1765  1  0.962640  0.792320  0.188280  1.0  -0.0436
  N  N1766  1  0.962480  0.816310  0.215210  1.0  -0.2291
  N  N1767  1  0.935240  0.797780  0.166470  1.0  -0.2941
  N  N1768  1  0.962640  0.292320  0.688280  1.0  -0.0436
  N  N1769  1  0.962480  0.316310  0.715210  1.0  -0.2291
  N  N1770  1  0.935240  0.297780  0.666470  1.0  -0.2941
  N  N1771  1  0.462640  0.792320  0.688280  1.0  -0.0436
  N  N1772  1  0.462480  0.816310  0.715210  1.0  -0.2291
  N  N1773  1  0.435240  0.797780  0.666470  1.0  -0.2941
  N  N1774  1  0.462640  0.292320  0.188280  1.0  -0.0436
  N  N1775  1  0.462480  0.316310  0.215210  1.0  -0.2291
  N  N1776  1  0.435240  0.297780  0.166470  1.0  -0.2941
  N  N1777  1  0.207680  0.188280  0.037360  1.0  -0.0456
  N  N1778  1  0.183690  0.215210  0.037520  1.0  -0.2274
  N  N1779  1  0.202220  0.166470  0.064760  1.0  -0.2937
  N  N1780  1  0.207680  0.688280  0.537360  1.0  -0.0456
  N  N1781  1  0.183690  0.715210  0.537520  1.0  -0.2274
  N  N1782  1  0.202220  0.666470  0.564760  1.0  -0.2937
  N  N1783  1  0.707680  0.188280  0.537360  1.0  -0.0456
  N  N1784  1  0.683690  0.215210  0.537520  1.0  -0.2274
  N  N1785  1  0.702220  0.166470  0.564760  1.0  -0.2937
  N  N1786  1  0.707680  0.688280  0.037360  1.0  -0.0456
  N  N1787  1  0.683690  0.715210  0.037520  1.0  -0.2274
  N  N1788  1  0.702220  0.666470  0.064760  1.0  -0.2937
  N  N1789  1  0.207680  0.811720  0.962640  1.0  -0.0451
  N  N1790  1  0.183690  0.784790  0.962480  1.0  -0.2275
  N  N1791  1  0.202220  0.833530  0.935240  1.0  -0.2945
  N  N1792  1  0.207680  0.311720  0.462640  1.0  -0.0451
  N  N1793  1  0.183690  0.284790  0.462480  1.0  -0.2275
  N  N1794  1  0.202220  0.333530  0.435240  1.0  -0.2945
  N  N1795  1  0.707680  0.811720  0.462640  1.0  -0.0451
  N  N1796  1  0.683690  0.784790  0.462480  1.0  -0.2275
  N  N1797  1  0.702220  0.833530  0.435240  1.0  -0.2945
  N  N1798  1  0.707680  0.311720  0.962640  1.0  -0.0451
  N  N1799  1  0.683690  0.284790  0.962480  1.0  -0.2275
  N  N1800  1  0.702220  0.333530  0.935240  1.0  -0.2945
  N  N1801  1  0.792320  0.188280  0.962640  1.0  -0.0448
  N  N1802  1  0.816310  0.215210  0.962480  1.0  -0.2279
  N  N1803  1  0.797780  0.166470  0.935240  1.0  -0.2947
  N  N1804  1  0.792320  0.688280  0.462640  1.0  -0.0448
  N  N1805  1  0.816310  0.715210  0.462480  1.0  -0.2279
  N  N1806  1  0.797780  0.666470  0.435240  1.0  -0.2947
  N  N1807  1  0.292320  0.188280  0.462640  1.0  -0.0448
  N  N1808  1  0.316310  0.215210  0.462480  1.0  -0.2279
  N  N1809  1  0.297780  0.166470  0.435240  1.0  -0.2947
  N  N1810  1  0.292320  0.688280  0.962640  1.0  -0.0448
  N  N1811  1  0.316310  0.715210  0.962480  1.0  -0.2279
  N  N1812  1  0.297780  0.666470  0.935240  1.0  -0.2947
  N  N1813  1  0.792320  0.811720  0.037360  1.0  -0.0438
  N  N1814  1  0.816310  0.784790  0.037520  1.0  -0.2284
  N  N1815  1  0.797780  0.833530  0.064760  1.0  -0.2938
  N  N1816  1  0.792320  0.311720  0.537360  1.0  -0.0438
  N  N1817  1  0.816310  0.284790  0.537520  1.0  -0.2284
  N  N1818  1  0.797780  0.333530  0.564760  1.0  -0.2938
  N  N1819  1  0.292320  0.811720  0.537360  1.0  -0.0438
  N  N1820  1  0.316310  0.784790  0.537520  1.0  -0.2284
  N  N1821  1  0.297780  0.833530  0.564760  1.0  -0.2938
  N  N1822  1  0.292320  0.311720  0.037360  1.0  -0.0438
  N  N1823  1  0.316310  0.284790  0.037520  1.0  -0.2284
  N  N1824  1  0.297780  0.333530  0.064760  1.0  -0.2938
  Cl  Cl1825  1  0.500000  0.250000  0.250000  1.0  -0.1526
  Cl  Cl1826  1  0.000000  0.250000  0.750000  1.0  -0.1526
  Cl  Cl1827  1  0.000000  0.750000  0.250000  1.0  -0.1526
  Cl  Cl1828  1  0.500000  0.750000  0.250000  1.0  -0.1526
  Cl  Cl1829  1  0.000000  0.250000  0.250000  1.0  -0.1526
  Cl  Cl1830  1  0.500000  0.250000  0.750000  1.0  -0.1526
  Cl  Cl1831  1  0.500000  0.750000  0.750000  1.0  -0.1526
  Cl  Cl1832  1  0.250000  0.500000  0.250000  1.0  -0.1526
  Cl  Cl1833  1  0.250000  0.000000  0.750000  1.0  -0.1526
  Cl  Cl1834  1  0.750000  0.000000  0.250000  1.0  -0.1526
  Cl  Cl1835  1  0.250000  0.500000  0.750000  1.0  -0.1526
  Cl  Cl1836  1  0.250000  0.000000  0.250000  1.0  -0.1526
  Cl  Cl1837  1  0.750000  0.500000  0.250000  1.0  -0.1526
  Cl  Cl1838  1  0.750000  0.500000  0.750000  1.0  -0.1526
  Cl  Cl1839  1  0.250000  0.250000  0.500000  1.0  -0.1526
  Cl  Cl1840  1  0.250000  0.750000  0.000000  1.0  -0.1526
  Cl  Cl1841  1  0.750000  0.250000  0.000000  1.0  -0.1526
  Cl  Cl1842  1  0.750000  0.250000  0.500000  1.0  -0.1526
  Cl  Cl1843  1  0.250000  0.250000  0.000000  1.0  -0.1526
  Cl  Cl1844  1  0.250000  0.750000  0.500000  1.0  -0.1526
  Cl  Cl1845  1  0.750000  0.750000  0.500000  1.0  -0.1526
  Cl  Cl1846  1  0.750000  0.000000  0.750000  1.0  -0.1526
  Cl  Cl1847  1  0.000000  0.750000  0.750000  1.0  -0.1526
  Cl  Cl1848  1  0.750000  0.750000  0.000000  1.0  -0.1526
