# generated using pymatgen
data_Co4H16C32N24Cl
_symmetry_space_group_name_H-M   'P 1'
_cell_length_a   37.70480000
_cell_length_b   37.70480000
_cell_length_c   37.70480000
_cell_angle_alpha   90.00000000
_cell_angle_beta   90.00000000
_cell_angle_gamma   90.00000000
_symmetry_Int_Tables_number   1
_chemical_formula_structural   Co4H16C32N24Cl
_chemical_formula_sum   'Co96 H384 C768 N576 Cl24'
_cell_volume   53603.10218193
_cell_formula_units_Z   24
loop_
 _symmetry_equiv_pos_site_id
 _symmetry_equiv_pos_as_xyz
  1  'x, y, z'
loop_
 _atom_site_type_symbol
 _atom_site_label
 _atom_site_symmetry_multiplicity
 _atom_site_fract_x
 _atom_site_fract_y
 _atom_site_fract_z
 _atom_site_occupancy
 _atom_site_charge
  Co  Co1  1  0.746010  0.500000  0.317080  1.0  0.9005
  Co  Co2  1  0.746010  0.000000  0.817080  1.0  0.9005
  Co  Co3  1  0.246010  0.500000  0.817080  1.0  0.9005
  Co  Co4  1  0.246010  0.000000  0.317080  1.0  0.9005
  Co  Co5  1  0.253990  0.500000  0.317080  1.0  0.9006
  Co  Co6  1  0.253990  0.000000  0.817080  1.0  0.9006
  Co  Co7  1  0.753990  0.500000  0.817080  1.0  0.9006
  Co  Co8  1  0.753990  0.000000  0.317080  1.0  0.9006
  Co  Co9  1  0.253990  0.500000  0.682920  1.0  0.9025
  Co  Co10  1  0.253990  0.000000  0.182920  1.0  0.9025
  Co  Co11  1  0.753990  0.500000  0.182920  1.0  0.9025
  Co  Co12  1  0.753990  0.000000  0.682920  1.0  0.9025
  Co  Co13  1  0.746010  0.500000  0.682920  1.0  0.9028
  Co  Co14  1  0.746010  0.000000  0.182920  1.0  0.9028
  Co  Co15  1  0.246010  0.500000  0.182920  1.0  0.9028
  Co  Co16  1  0.246010  0.000000  0.682920  1.0  0.9028
  Co  Co17  1  0.317080  0.746010  0.500000  1.0  0.9005
  Co  Co18  1  0.317080  0.246010  0.000000  1.0  0.9005
  Co  Co19  1  0.817080  0.746010  0.000000  1.0  0.9005
  Co  Co20  1  0.817080  0.246010  0.500000  1.0  0.9005
  Co  Co21  1  0.317080  0.253990  0.500000  1.0  0.9007
  Co  Co22  1  0.317080  0.753990  0.000000  1.0  0.9007
  Co  Co23  1  0.817080  0.253990  0.000000  1.0  0.9007
  Co  Co24  1  0.817080  0.753990  0.500000  1.0  0.9007
  Co  Co25  1  0.682920  0.253990  0.500000  1.0  0.9009
  Co  Co26  1  0.682920  0.753990  0.000000  1.0  0.9009
  Co  Co27  1  0.182920  0.253990  0.000000  1.0  0.9009
  Co  Co28  1  0.182920  0.753990  0.500000  1.0  0.9009
  Co  Co29  1  0.682920  0.746010  0.500000  1.0  0.9005
  Co  Co30  1  0.682920  0.246010  0.000000  1.0  0.9005
  Co  Co31  1  0.182920  0.746010  0.000000  1.0  0.9005
  Co  Co32  1  0.182920  0.246010  0.500000  1.0  0.9005
  Co  Co33  1  0.500000  0.317080  0.746010  1.0  0.9019
  Co  Co34  1  0.500000  0.817080  0.246010  1.0  0.9019
  Co  Co35  1  0.000000  0.317080  0.246010  1.0  0.9019
  Co  Co36  1  0.000000  0.817080  0.746010  1.0  0.9019
  Co  Co37  1  0.500000  0.317080  0.253990  1.0  0.9013
  Co  Co38  1  0.500000  0.817080  0.753990  1.0  0.9013
  Co  Co39  1  0.000000  0.317080  0.753990  1.0  0.9013
  Co  Co40  1  0.000000  0.817080  0.253990  1.0  0.9013
  Co  Co41  1  0.500000  0.682920  0.253990  1.0  0.9005
  Co  Co42  1  0.500000  0.182920  0.753990  1.0  0.9005
  Co  Co43  1  0.000000  0.682920  0.753990  1.0  0.9005
  Co  Co44  1  0.000000  0.182920  0.253990  1.0  0.9005
  Co  Co45  1  0.500000  0.682920  0.746010  1.0  0.9009
  Co  Co46  1  0.500000  0.182920  0.246010  1.0  0.9009
  Co  Co47  1  0.000000  0.682920  0.246010  1.0  0.9009
  Co  Co48  1  0.000000  0.182920  0.746010  1.0  0.9009
  Co  Co49  1  0.000000  0.246010  0.182920  1.0  0.9028
  Co  Co50  1  0.000000  0.746010  0.682920  1.0  0.9028
  Co  Co51  1  0.500000  0.246010  0.682920  1.0  0.9028
  Co  Co52  1  0.500000  0.746010  0.182920  1.0  0.9028
  Co  Co53  1  0.000000  0.753990  0.182920  1.0  0.903
  Co  Co54  1  0.000000  0.253990  0.682920  1.0  0.903
  Co  Co55  1  0.500000  0.753990  0.682920  1.0  0.903
  Co  Co56  1  0.500000  0.253990  0.182920  1.0  0.903
  Co  Co57  1  0.000000  0.753990  0.817080  1.0  0.9007
  Co  Co58  1  0.000000  0.253990  0.317080  1.0  0.9007
  Co  Co59  1  0.500000  0.753990  0.317080  1.0  0.9007
  Co  Co60  1  0.500000  0.253990  0.817080  1.0  0.9007
  Co  Co61  1  0.000000  0.246010  0.817080  1.0  0.9005
  Co  Co62  1  0.000000  0.746010  0.317080  1.0  0.9005
  Co  Co63  1  0.500000  0.246010  0.317080  1.0  0.9005
  Co  Co64  1  0.500000  0.746010  0.817080  1.0  0.9005
  Co  Co65  1  0.246010  0.817080  0.000000  1.0  0.9011
  Co  Co66  1  0.246010  0.317080  0.500000  1.0  0.9011
  Co  Co67  1  0.746010  0.817080  0.500000  1.0  0.9011
  Co  Co68  1  0.746010  0.317080  0.000000  1.0  0.9011
  Co  Co69  1  0.753990  0.817080  0.000000  1.0  0.9013
  Co  Co70  1  0.753990  0.317080  0.500000  1.0  0.9013
  Co  Co71  1  0.253990  0.817080  0.500000  1.0  0.9013
  Co  Co72  1  0.253990  0.317080  0.000000  1.0  0.9013
  Co  Co73  1  0.753990  0.182920  0.000000  1.0  0.9003
  Co  Co74  1  0.753990  0.682920  0.500000  1.0  0.9003
  Co  Co75  1  0.253990  0.182920  0.500000  1.0  0.9003
  Co  Co76  1  0.253990  0.682920  0.000000  1.0  0.9003
  Co  Co77  1  0.246010  0.182920  0.000000  1.0  0.9001
  Co  Co78  1  0.246010  0.682920  0.500000  1.0  0.9001
  Co  Co79  1  0.746010  0.182920  0.500000  1.0  0.9001
  Co  Co80  1  0.746010  0.682920  0.000000  1.0  0.9001
  Co  Co81  1  0.817080  0.000000  0.753990  1.0  0.9007
  Co  Co82  1  0.817080  0.500000  0.253990  1.0  0.9007
  Co  Co83  1  0.317080  0.000000  0.253990  1.0  0.9007
  Co  Co84  1  0.317080  0.500000  0.753990  1.0  0.9007
  Co  Co85  1  0.817080  0.000000  0.246010  1.0  0.9013
  Co  Co86  1  0.817080  0.500000  0.746010  1.0  0.9013
  Co  Co87  1  0.317080  0.000000  0.746010  1.0  0.9013
  Co  Co88  1  0.317080  0.500000  0.246010  1.0  0.9013
  Co  Co89  1  0.182920  0.000000  0.246010  1.0  0.9013
  Co  Co90  1  0.182920  0.500000  0.746010  1.0  0.9013
  Co  Co91  1  0.682920  0.000000  0.746010  1.0  0.9013
  Co  Co92  1  0.682920  0.500000  0.246010  1.0  0.9013
  Co  Co93  1  0.182920  0.000000  0.753990  1.0  0.9008
  Co  Co94  1  0.182920  0.500000  0.253990  1.0  0.9008
  Co  Co95  1  0.682920  0.000000  0.253990  1.0  0.9008
  Co  Co96  1  0.682920  0.500000  0.753990  1.0  0.9008
  H  H97  1  0.643500  0.427000  0.275600  1.0  0.0899
  H  H98  1  0.618600  0.376500  0.303900  1.0  0.0967
  H  H99  1  0.643500  0.927000  0.775600  1.0  0.0899
  H  H100  1  0.618600  0.876500  0.803900  1.0  0.0967
  H  H101  1  0.143500  0.427000  0.775600  1.0  0.0899
  H  H102  1  0.118600  0.376500  0.803900  1.0  0.0967
  H  H103  1  0.143500  0.927000  0.275600  1.0  0.0899
  H  H104  1  0.118600  0.876500  0.303900  1.0  0.0967
  H  H105  1  0.356500  0.573000  0.275600  1.0  0.0901
  H  H106  1  0.381400  0.623500  0.303900  1.0  0.0966
  H  H107  1  0.356500  0.073000  0.775600  1.0  0.0901
  H  H108  1  0.381400  0.123500  0.803900  1.0  0.0966
  H  H109  1  0.856500  0.573000  0.775600  1.0  0.0901
  H  H110  1  0.881400  0.623500  0.803900  1.0  0.0966
  H  H111  1  0.856500  0.073000  0.275600  1.0  0.0901
  H  H112  1  0.881400  0.123500  0.303900  1.0  0.0966
  H  H113  1  0.356500  0.427000  0.724400  1.0  0.0902
  H  H114  1  0.381400  0.376500  0.696100  1.0  0.0966
  H  H115  1  0.356500  0.927000  0.224400  1.0  0.0902
  H  H116  1  0.381400  0.876500  0.196100  1.0  0.0966
  H  H117  1  0.856500  0.427000  0.224400  1.0  0.0902
  H  H118  1  0.881400  0.376500  0.196100  1.0  0.0966
  H  H119  1  0.856500  0.927000  0.724400  1.0  0.0902
  H  H120  1  0.881400  0.876500  0.696100  1.0  0.0966
  H  H121  1  0.643500  0.573000  0.724400  1.0  0.0901
  H  H122  1  0.618600  0.623500  0.696100  1.0  0.0972
  H  H123  1  0.643500  0.073000  0.224400  1.0  0.0901
  H  H124  1  0.618600  0.123500  0.196100  1.0  0.0972
  H  H125  1  0.143500  0.573000  0.224400  1.0  0.0901
  H  H126  1  0.118600  0.623500  0.196100  1.0  0.0972
  H  H127  1  0.143500  0.073000  0.724400  1.0  0.0901
  H  H128  1  0.118600  0.123500  0.696100  1.0  0.0972
  H  H129  1  0.275600  0.643500  0.427000  1.0  0.0917
  H  H130  1  0.303900  0.618600  0.376500  1.0  0.0963
  H  H131  1  0.275600  0.143500  0.927000  1.0  0.0917
  H  H132  1  0.303900  0.118600  0.876500  1.0  0.0963
  H  H133  1  0.775600  0.643500  0.927000  1.0  0.0917
  H  H134  1  0.803900  0.618600  0.876500  1.0  0.0963
  H  H135  1  0.775600  0.143500  0.427000  1.0  0.0917
  H  H136  1  0.803900  0.118600  0.376500  1.0  0.0963
  H  H137  1  0.275600  0.356500  0.573000  1.0  0.0914
  H  H138  1  0.303900  0.381400  0.623500  1.0  0.0957
  H  H139  1  0.275600  0.856500  0.073000  1.0  0.0914
  H  H140  1  0.303900  0.881400  0.123500  1.0  0.0957
  H  H141  1  0.775600  0.356500  0.073000  1.0  0.0914
  H  H142  1  0.803900  0.381400  0.123500  1.0  0.0957
  H  H143  1  0.775600  0.856500  0.573000  1.0  0.0914
  H  H144  1  0.803900  0.881400  0.623500  1.0  0.0957
  H  H145  1  0.724400  0.356500  0.427000  1.0  0.0914
  H  H146  1  0.696100  0.381400  0.376500  1.0  0.0955
  H  H147  1  0.724400  0.856500  0.927000  1.0  0.0914
  H  H148  1  0.696100  0.881400  0.876500  1.0  0.0955
  H  H149  1  0.224400  0.356500  0.927000  1.0  0.0914
  H  H150  1  0.196100  0.381400  0.876500  1.0  0.0955
  H  H151  1  0.224400  0.856500  0.427000  1.0  0.0914
  H  H152  1  0.196100  0.881400  0.376500  1.0  0.0955
  H  H153  1  0.724400  0.643500  0.573000  1.0  0.092
  H  H154  1  0.696100  0.618600  0.623500  1.0  0.0953
  H  H155  1  0.724400  0.143500  0.073000  1.0  0.092
  H  H156  1  0.696100  0.118600  0.123500  1.0  0.0953
  H  H157  1  0.224400  0.643500  0.073000  1.0  0.092
  H  H158  1  0.196100  0.618600  0.123500  1.0  0.0953
  H  H159  1  0.224400  0.143500  0.573000  1.0  0.092
  H  H160  1  0.196100  0.118600  0.623500  1.0  0.0953
  H  H161  1  0.427000  0.275600  0.643500  1.0  0.0903
  H  H162  1  0.376500  0.303900  0.618600  1.0  0.0954
  H  H163  1  0.427000  0.775600  0.143500  1.0  0.0903
  H  H164  1  0.376500  0.803900  0.118600  1.0  0.0954
  H  H165  1  0.927000  0.275600  0.143500  1.0  0.0903
  H  H166  1  0.876500  0.303900  0.118600  1.0  0.0954
  H  H167  1  0.927000  0.775600  0.643500  1.0  0.0903
  H  H168  1  0.876500  0.803900  0.618600  1.0  0.0954
  H  H169  1  0.573000  0.275600  0.356500  1.0  0.0912
  H  H170  1  0.623500  0.303900  0.381400  1.0  0.0956
  H  H171  1  0.573000  0.775600  0.856500  1.0  0.0912
  H  H172  1  0.623500  0.803900  0.881400  1.0  0.0956
  H  H173  1  0.073000  0.275600  0.856500  1.0  0.0912
  H  H174  1  0.123500  0.303900  0.881400  1.0  0.0956
  H  H175  1  0.073000  0.775600  0.356500  1.0  0.0912
  H  H176  1  0.123500  0.803900  0.381400  1.0  0.0956
  H  H177  1  0.427000  0.724400  0.356500  1.0  0.0915
  H  H178  1  0.376500  0.696100  0.381400  1.0  0.0956
  H  H179  1  0.427000  0.224400  0.856500  1.0  0.0915
  H  H180  1  0.376500  0.196100  0.881400  1.0  0.0956
  H  H181  1  0.927000  0.724400  0.856500  1.0  0.0915
  H  H182  1  0.876500  0.696100  0.881400  1.0  0.0956
  H  H183  1  0.927000  0.224400  0.356500  1.0  0.0915
  H  H184  1  0.876500  0.196100  0.381400  1.0  0.0956
  H  H185  1  0.573000  0.724400  0.643500  1.0  0.0906
  H  H186  1  0.623500  0.696100  0.618600  1.0  0.0956
  H  H187  1  0.573000  0.224400  0.143500  1.0  0.0906
  H  H188  1  0.623500  0.196100  0.118600  1.0  0.0956
  H  H189  1  0.073000  0.724400  0.143500  1.0  0.0906
  H  H190  1  0.123500  0.696100  0.118600  1.0  0.0956
  H  H191  1  0.073000  0.224400  0.643500  1.0  0.0906
  H  H192  1  0.123500  0.196100  0.618600  1.0  0.0956
  H  H193  1  0.927000  0.143500  0.224400  1.0  0.0904
  H  H194  1  0.876500  0.118600  0.196100  1.0  0.0968
  H  H195  1  0.927000  0.643500  0.724400  1.0  0.0904
  H  H196  1  0.876500  0.618600  0.696100  1.0  0.0968
  H  H197  1  0.427000  0.143500  0.724400  1.0  0.0904
  H  H198  1  0.376500  0.118600  0.696100  1.0  0.0968
  H  H199  1  0.427000  0.643500  0.224400  1.0  0.0904
  H  H200  1  0.376500  0.618600  0.196100  1.0  0.0968
  H  H201  1  0.073000  0.856500  0.224400  1.0  0.0898
  H  H202  1  0.123500  0.881400  0.196100  1.0  0.0969
  H  H203  1  0.073000  0.356500  0.724400  1.0  0.0898
  H  H204  1  0.123500  0.381400  0.696100  1.0  0.0969
  H  H205  1  0.573000  0.856500  0.724400  1.0  0.0898
  H  H206  1  0.623500  0.881400  0.696100  1.0  0.0969
  H  H207  1  0.573000  0.356500  0.224400  1.0  0.0898
  H  H208  1  0.623500  0.381400  0.196100  1.0  0.0969
  H  H209  1  0.927000  0.856500  0.775600  1.0  0.0902
  H  H210  1  0.876500  0.881400  0.803900  1.0  0.0967
  H  H211  1  0.927000  0.356500  0.275600  1.0  0.0902
  H  H212  1  0.876500  0.381400  0.303900  1.0  0.0967
  H  H213  1  0.427000  0.856500  0.275600  1.0  0.0902
  H  H214  1  0.376500  0.881400  0.303900  1.0  0.0967
  H  H215  1  0.427000  0.356500  0.775600  1.0  0.0902
  H  H216  1  0.376500  0.381400  0.803900  1.0  0.0967
  H  H217  1  0.073000  0.143500  0.775600  1.0  0.0899
  H  H218  1  0.123500  0.118600  0.803900  1.0  0.0969
  H  H219  1  0.073000  0.643500  0.275600  1.0  0.0899
  H  H220  1  0.123500  0.618600  0.303900  1.0  0.0969
  H  H221  1  0.573000  0.143500  0.275600  1.0  0.0899
  H  H222  1  0.623500  0.118600  0.303900  1.0  0.0969
  H  H223  1  0.573000  0.643500  0.775600  1.0  0.0899
  H  H224  1  0.623500  0.618600  0.803900  1.0  0.0969
  H  H225  1  0.143500  0.775600  0.073000  1.0  0.0906
  H  H226  1  0.118600  0.803900  0.123500  1.0  0.0951
  H  H227  1  0.143500  0.275600  0.573000  1.0  0.0906
  H  H228  1  0.118600  0.303900  0.623500  1.0  0.0951
  H  H229  1  0.643500  0.775600  0.573000  1.0  0.0906
  H  H230  1  0.618600  0.803900  0.623500  1.0  0.0951
  H  H231  1  0.643500  0.275600  0.073000  1.0  0.0906
  H  H232  1  0.618600  0.303900  0.123500  1.0  0.0951
  H  H233  1  0.856500  0.775600  0.927000  1.0  0.0909
  H  H234  1  0.881400  0.803900  0.876500  1.0  0.0954
  H  H235  1  0.856500  0.275600  0.427000  1.0  0.0909
  H  H236  1  0.881400  0.303900  0.376500  1.0  0.0954
  H  H237  1  0.356500  0.775600  0.427000  1.0  0.0909
  H  H238  1  0.381400  0.803900  0.376500  1.0  0.0954
  H  H239  1  0.356500  0.275600  0.927000  1.0  0.0909
  H  H240  1  0.381400  0.303900  0.876500  1.0  0.0954
  H  H241  1  0.856500  0.224400  0.073000  1.0  0.0913
  H  H242  1  0.881400  0.196100  0.123500  1.0  0.0951
  H  H243  1  0.856500  0.724400  0.573000  1.0  0.0913
  H  H244  1  0.881400  0.696100  0.623500  1.0  0.0951
  H  H245  1  0.356500  0.224400  0.573000  1.0  0.0913
  H  H246  1  0.381400  0.196100  0.623500  1.0  0.0951
  H  H247  1  0.356500  0.724400  0.073000  1.0  0.0913
  H  H248  1  0.381400  0.696100  0.123500  1.0  0.0951
  H  H249  1  0.143500  0.224400  0.927000  1.0  0.0911
  H  H250  1  0.118600  0.196100  0.876500  1.0  0.0956
  H  H251  1  0.143500  0.724400  0.427000  1.0  0.0911
  H  H252  1  0.118600  0.696100  0.376500  1.0  0.0956
  H  H253  1  0.643500  0.224400  0.427000  1.0  0.0911
  H  H254  1  0.618600  0.196100  0.376500  1.0  0.0956
  H  H255  1  0.643500  0.724400  0.927000  1.0  0.0911
  H  H256  1  0.618600  0.696100  0.876500  1.0  0.0956
  H  H257  1  0.775600  0.927000  0.856500  1.0  0.0917
  H  H258  1  0.803900  0.876500  0.881400  1.0  0.096
  H  H259  1  0.775600  0.427000  0.356500  1.0  0.0917
  H  H260  1  0.803900  0.376500  0.381400  1.0  0.096
  H  H261  1  0.275600  0.927000  0.356500  1.0  0.0917
  H  H262  1  0.303900  0.876500  0.381400  1.0  0.096
  H  H263  1  0.275600  0.427000  0.856500  1.0  0.0917
  H  H264  1  0.303900  0.376500  0.881400  1.0  0.096
  H  H265  1  0.775600  0.073000  0.143500  1.0  0.0912
  H  H266  1  0.803900  0.123500  0.118600  1.0  0.0959
  H  H267  1  0.775600  0.573000  0.643500  1.0  0.0912
  H  H268  1  0.803900  0.623500  0.618600  1.0  0.0959
  H  H269  1  0.275600  0.073000  0.643500  1.0  0.0912
  H  H270  1  0.303900  0.123500  0.618600  1.0  0.0959
  H  H271  1  0.275600  0.573000  0.143500  1.0  0.0912
  H  H272  1  0.303900  0.623500  0.118600  1.0  0.0959
  H  H273  1  0.224400  0.927000  0.143500  1.0  0.0913
  H  H274  1  0.196100  0.876500  0.118600  1.0  0.0955
  H  H275  1  0.224400  0.427000  0.643500  1.0  0.0913
  H  H276  1  0.196100  0.376500  0.618600  1.0  0.0955
  H  H277  1  0.724400  0.927000  0.643500  1.0  0.0913
  H  H278  1  0.696100  0.876500  0.618600  1.0  0.0955
  H  H279  1  0.724400  0.427000  0.143500  1.0  0.0913
  H  H280  1  0.696100  0.376500  0.118600  1.0  0.0955
  H  H281  1  0.224400  0.073000  0.856500  1.0  0.0921
  H  H282  1  0.196100  0.123500  0.881400  1.0  0.0956
  H  H283  1  0.224400  0.573000  0.356500  1.0  0.0921
  H  H284  1  0.196100  0.623500  0.381400  1.0  0.0956
  H  H285  1  0.724400  0.073000  0.356500  1.0  0.0921
  H  H286  1  0.696100  0.123500  0.381400  1.0  0.0956
  H  H287  1  0.724400  0.573000  0.856500  1.0  0.0921
  H  H288  1  0.696100  0.623500  0.881400  1.0  0.0956
  H  H289  1  0.356500  0.573000  0.724400  1.0  0.0901
  H  H290  1  0.381400  0.623500  0.696100  1.0  0.0968
  H  H291  1  0.356500  0.073000  0.224400  1.0  0.0901
  H  H292  1  0.381400  0.123500  0.196100  1.0  0.0968
  H  H293  1  0.856500  0.573000  0.224400  1.0  0.0901
  H  H294  1  0.881400  0.623500  0.196100  1.0  0.0968
  H  H295  1  0.856500  0.073000  0.724400  1.0  0.0901
  H  H296  1  0.881400  0.123500  0.696100  1.0  0.0968
  H  H297  1  0.643500  0.427000  0.724400  1.0  0.0901
  H  H298  1  0.618600  0.376500  0.696100  1.0  0.0968
  H  H299  1  0.643500  0.927000  0.224400  1.0  0.0901
  H  H300  1  0.618600  0.876500  0.196100  1.0  0.0968
  H  H301  1  0.143500  0.427000  0.224400  1.0  0.0901
  H  H302  1  0.118600  0.376500  0.196100  1.0  0.0968
  H  H303  1  0.143500  0.927000  0.724400  1.0  0.0901
  H  H304  1  0.118600  0.876500  0.696100  1.0  0.0968
  H  H305  1  0.643500  0.573000  0.275600  1.0  0.0899
  H  H306  1  0.618600  0.623500  0.303900  1.0  0.0969
  H  H307  1  0.643500  0.073000  0.775600  1.0  0.0899
  H  H308  1  0.618600  0.123500  0.803900  1.0  0.0969
  H  H309  1  0.143500  0.573000  0.775600  1.0  0.0899
  H  H310  1  0.118600  0.623500  0.803900  1.0  0.0969
  H  H311  1  0.143500  0.073000  0.275600  1.0  0.0899
  H  H312  1  0.118600  0.123500  0.303900  1.0  0.0969
  H  H313  1  0.356500  0.427000  0.275600  1.0  0.0902
  H  H314  1  0.381400  0.376500  0.303900  1.0  0.0965
  H  H315  1  0.356500  0.927000  0.775600  1.0  0.0902
  H  H316  1  0.381400  0.876500  0.803900  1.0  0.0965
  H  H317  1  0.856500  0.427000  0.775600  1.0  0.0902
  H  H318  1  0.881400  0.376500  0.803900  1.0  0.0965
  H  H319  1  0.856500  0.927000  0.275600  1.0  0.0902
  H  H320  1  0.881400  0.876500  0.303900  1.0  0.0965
  H  H321  1  0.724400  0.356500  0.573000  1.0  0.0916
  H  H322  1  0.696100  0.381400  0.623500  1.0  0.0954
  H  H323  1  0.724400  0.856500  0.073000  1.0  0.0916
  H  H324  1  0.696100  0.881400  0.123500  1.0  0.0954
  H  H325  1  0.224400  0.356500  0.073000  1.0  0.0916
  H  H326  1  0.196100  0.381400  0.123500  1.0  0.0954
  H  H327  1  0.224400  0.856500  0.573000  1.0  0.0916
  H  H328  1  0.196100  0.881400  0.623500  1.0  0.0954
  H  H329  1  0.724400  0.643500  0.427000  1.0  0.0921
  H  H330  1  0.696100  0.618600  0.376500  1.0  0.0957
  H  H331  1  0.724400  0.143500  0.927000  1.0  0.0921
  H  H332  1  0.696100  0.118600  0.876500  1.0  0.0957
  H  H333  1  0.224400  0.643500  0.927000  1.0  0.0921
  H  H334  1  0.196100  0.618600  0.876500  1.0  0.0957
  H  H335  1  0.224400  0.143500  0.427000  1.0  0.0921
  H  H336  1  0.196100  0.118600  0.376500  1.0  0.0957
  H  H337  1  0.275600  0.643500  0.573000  1.0  0.0915
  H  H338  1  0.303900  0.618600  0.623500  1.0  0.0958
  H  H339  1  0.275600  0.143500  0.073000  1.0  0.0915
  H  H340  1  0.303900  0.118600  0.123500  1.0  0.0958
  H  H341  1  0.775600  0.643500  0.073000  1.0  0.0915
  H  H342  1  0.803900  0.618600  0.123500  1.0  0.0958
  H  H343  1  0.775600  0.143500  0.573000  1.0  0.0915
  H  H344  1  0.803900  0.118600  0.623500  1.0  0.0958
  H  H345  1  0.275600  0.356500  0.427000  1.0  0.0914
  H  H346  1  0.303900  0.381400  0.376500  1.0  0.0959
  H  H347  1  0.275600  0.856500  0.927000  1.0  0.0914
  H  H348  1  0.303900  0.881400  0.876500  1.0  0.0959
  H  H349  1  0.775600  0.356500  0.927000  1.0  0.0914
  H  H350  1  0.803900  0.381400  0.876500  1.0  0.0959
  H  H351  1  0.775600  0.856500  0.427000  1.0  0.0914
  H  H352  1  0.803900  0.881400  0.376500  1.0  0.0959
  H  H353  1  0.573000  0.724400  0.356500  1.0  0.0913
  H  H354  1  0.623500  0.696100  0.381400  1.0  0.0958
  H  H355  1  0.573000  0.224400  0.856500  1.0  0.0913
  H  H356  1  0.623500  0.196100  0.881400  1.0  0.0958
  H  H357  1  0.073000  0.724400  0.856500  1.0  0.0913
  H  H358  1  0.123500  0.696100  0.881400  1.0  0.0958
  H  H359  1  0.073000  0.224400  0.356500  1.0  0.0913
  H  H360  1  0.123500  0.196100  0.381400  1.0  0.0958
  H  H361  1  0.427000  0.724400  0.643500  1.0  0.0909
  H  H362  1  0.376500  0.696100  0.618600  1.0  0.0954
  H  H363  1  0.427000  0.224400  0.143500  1.0  0.0909
  H  H364  1  0.376500  0.196100  0.118600  1.0  0.0954
  H  H365  1  0.927000  0.724400  0.143500  1.0  0.0909
  H  H366  1  0.876500  0.696100  0.118600  1.0  0.0954
  H  H367  1  0.927000  0.224400  0.643500  1.0  0.0909
  H  H368  1  0.876500  0.196100  0.618600  1.0  0.0954
  H  H369  1  0.573000  0.275600  0.643500  1.0  0.0902
  H  H370  1  0.623500  0.303900  0.618600  1.0  0.0953
  H  H371  1  0.573000  0.775600  0.143500  1.0  0.0902
  H  H372  1  0.623500  0.803900  0.118600  1.0  0.0953
  H  H373  1  0.073000  0.275600  0.143500  1.0  0.0902
  H  H374  1  0.123500  0.303900  0.118600  1.0  0.0953
  H  H375  1  0.073000  0.775600  0.643500  1.0  0.0902
  H  H376  1  0.123500  0.803900  0.618600  1.0  0.0953
  H  H377  1  0.427000  0.275600  0.356500  1.0  0.0913
  H  H378  1  0.376500  0.303900  0.381400  1.0  0.0957
  H  H379  1  0.427000  0.775600  0.856500  1.0  0.0913
  H  H380  1  0.376500  0.803900  0.881400  1.0  0.0957
  H  H381  1  0.927000  0.275600  0.856500  1.0  0.0913
  H  H382  1  0.876500  0.303900  0.881400  1.0  0.0957
  H  H383  1  0.927000  0.775600  0.356500  1.0  0.0913
  H  H384  1  0.876500  0.803900  0.381400  1.0  0.0957
  H  H385  1  0.073000  0.856500  0.775600  1.0  0.0899
  H  H386  1  0.123500  0.881400  0.803900  1.0  0.0966
  H  H387  1  0.073000  0.356500  0.275600  1.0  0.0899
  H  H388  1  0.123500  0.381400  0.303900  1.0  0.0966
  H  H389  1  0.573000  0.856500  0.275600  1.0  0.0899
  H  H390  1  0.623500  0.881400  0.303900  1.0  0.0966
  H  H391  1  0.573000  0.356500  0.775600  1.0  0.0899
  H  H392  1  0.623500  0.381400  0.803900  1.0  0.0966
  H  H393  1  0.927000  0.143500  0.775600  1.0  0.09
  H  H394  1  0.876500  0.118600  0.803900  1.0  0.0968
  H  H395  1  0.927000  0.643500  0.275600  1.0  0.09
  H  H396  1  0.876500  0.618600  0.303900  1.0  0.0968
  H  H397  1  0.427000  0.143500  0.275600  1.0  0.09
  H  H398  1  0.376500  0.118600  0.303900  1.0  0.0968
  H  H399  1  0.427000  0.643500  0.775600  1.0  0.09
  H  H400  1  0.376500  0.618600  0.803900  1.0  0.0968
  H  H401  1  0.073000  0.143500  0.224400  1.0  0.0903
  H  H402  1  0.123500  0.118600  0.196100  1.0  0.0972
  H  H403  1  0.073000  0.643500  0.724400  1.0  0.0903
  H  H404  1  0.123500  0.618600  0.696100  1.0  0.0972
  H  H405  1  0.573000  0.143500  0.724400  1.0  0.0903
  H  H406  1  0.623500  0.118600  0.696100  1.0  0.0972
  H  H407  1  0.573000  0.643500  0.224400  1.0  0.0903
  H  H408  1  0.623500  0.618600  0.196100  1.0  0.0972
  H  H409  1  0.927000  0.856500  0.224400  1.0  0.0901
  H  H410  1  0.876500  0.881400  0.196100  1.0  0.0969
  H  H411  1  0.927000  0.356500  0.724400  1.0  0.0901
  H  H412  1  0.876500  0.381400  0.696100  1.0  0.0969
  H  H413  1  0.427000  0.856500  0.724400  1.0  0.0901
  H  H414  1  0.376500  0.881400  0.696100  1.0  0.0969
  H  H415  1  0.427000  0.356500  0.224400  1.0  0.0901
  H  H416  1  0.376500  0.381400  0.196100  1.0  0.0969
  H  H417  1  0.856500  0.224400  0.927000  1.0  0.0912
  H  H418  1  0.881400  0.196100  0.876500  1.0  0.0952
  H  H419  1  0.856500  0.724400  0.427000  1.0  0.0912
  H  H420  1  0.881400  0.696100  0.376500  1.0  0.0952
  H  H421  1  0.356500  0.224400  0.427000  1.0  0.0912
  H  H422  1  0.381400  0.196100  0.376500  1.0  0.0952
  H  H423  1  0.356500  0.724400  0.927000  1.0  0.0912
  H  H424  1  0.381400  0.696100  0.876500  1.0  0.0952
  H  H425  1  0.143500  0.224400  0.073000  1.0  0.0911
  H  H426  1  0.118600  0.196100  0.123500  1.0  0.0955
  H  H427  1  0.143500  0.724400  0.573000  1.0  0.0911
  H  H428  1  0.118600  0.696100  0.623500  1.0  0.0955
  H  H429  1  0.643500  0.224400  0.573000  1.0  0.0911
  H  H430  1  0.618600  0.196100  0.623500  1.0  0.0955
  H  H431  1  0.643500  0.724400  0.073000  1.0  0.0911
  H  H432  1  0.618600  0.696100  0.123500  1.0  0.0955
  H  H433  1  0.143500  0.775600  0.927000  1.0  0.0908
  H  H434  1  0.118600  0.803900  0.876500  1.0  0.0954
  H  H435  1  0.143500  0.275600  0.427000  1.0  0.0908
  H  H436  1  0.118600  0.303900  0.376500  1.0  0.0954
  H  H437  1  0.643500  0.775600  0.427000  1.0  0.0908
  H  H438  1  0.618600  0.803900  0.376500  1.0  0.0954
  H  H439  1  0.643500  0.275600  0.927000  1.0  0.0908
  H  H440  1  0.618600  0.303900  0.876500  1.0  0.0954
  H  H441  1  0.856500  0.775600  0.073000  1.0  0.0908
  H  H442  1  0.881400  0.803900  0.123500  1.0  0.0952
  H  H443  1  0.856500  0.275600  0.573000  1.0  0.0908
  H  H444  1  0.881400  0.303900  0.623500  1.0  0.0952
  H  H445  1  0.356500  0.775600  0.573000  1.0  0.0908
  H  H446  1  0.381400  0.803900  0.623500  1.0  0.0952
  H  H447  1  0.356500  0.275600  0.073000  1.0  0.0908
  H  H448  1  0.381400  0.303900  0.123500  1.0  0.0952
  H  H449  1  0.224400  0.073000  0.143500  1.0  0.0912
  H  H450  1  0.196100  0.123500  0.118600  1.0  0.0954
  H  H451  1  0.224400  0.573000  0.643500  1.0  0.0912
  H  H452  1  0.196100  0.623500  0.618600  1.0  0.0954
  H  H453  1  0.724400  0.073000  0.643500  1.0  0.0912
  H  H454  1  0.696100  0.123500  0.618600  1.0  0.0954
  H  H455  1  0.724400  0.573000  0.143500  1.0  0.0912
  H  H456  1  0.696100  0.623500  0.118600  1.0  0.0954
  H  H457  1  0.224400  0.927000  0.856500  1.0  0.0922
  H  H458  1  0.196100  0.876500  0.881400  1.0  0.0955
  H  H459  1  0.224400  0.427000  0.356500  1.0  0.0922
  H  H460  1  0.196100  0.376500  0.381400  1.0  0.0955
  H  H461  1  0.724400  0.927000  0.356500  1.0  0.0922
  H  H462  1  0.696100  0.876500  0.381400  1.0  0.0955
  H  H463  1  0.724400  0.427000  0.856500  1.0  0.0922
  H  H464  1  0.696100  0.376500  0.881400  1.0  0.0955
  H  H465  1  0.775600  0.073000  0.856500  1.0  0.0917
  H  H466  1  0.803900  0.123500  0.881400  1.0  0.0962
  H  H467  1  0.775600  0.573000  0.356500  1.0  0.0917
  H  H468  1  0.803900  0.623500  0.381400  1.0  0.0962
  H  H469  1  0.275600  0.073000  0.356500  1.0  0.0917
  H  H470  1  0.303900  0.123500  0.381400  1.0  0.0962
  H  H471  1  0.275600  0.573000  0.856500  1.0  0.0917
  H  H472  1  0.303900  0.623500  0.881400  1.0  0.0962
  H  H473  1  0.775600  0.927000  0.143500  1.0  0.0912
  H  H474  1  0.803900  0.876500  0.118600  1.0  0.0958
  H  H475  1  0.775600  0.427000  0.643500  1.0  0.0912
  H  H476  1  0.803900  0.376500  0.618600  1.0  0.0958
  H  H477  1  0.275600  0.927000  0.643500  1.0  0.0912
  H  H478  1  0.303900  0.876500  0.618600  1.0  0.0958
  H  H479  1  0.275600  0.427000  0.143500  1.0  0.0912
  H  H480  1  0.303900  0.376500  0.118600  1.0  0.0958
  C  C481  1  0.662240  0.433880  0.290140  1.0  0.0171
  C  C482  1  0.673290  0.416770  0.320530  1.0  0.0419
  C  C483  1  0.659290  0.384500  0.337750  1.0  -0.0665
  C  C484  1  0.629440  0.367630  0.324240  1.0  -0.0569
  C  C485  1  0.662240  0.933880  0.790140  1.0  0.0171
  C  C486  1  0.673290  0.916770  0.820530  1.0  0.0419
  C  C487  1  0.659290  0.884500  0.837750  1.0  -0.0665
  C  C488  1  0.629440  0.867630  0.824240  1.0  -0.0569
  C  C489  1  0.162240  0.433880  0.790140  1.0  0.0171
  C  C490  1  0.173290  0.416770  0.820530  1.0  0.0419
  C  C491  1  0.159290  0.384500  0.837750  1.0  -0.0665
  C  C492  1  0.129440  0.367630  0.824240  1.0  -0.0569
  C  C493  1  0.162240  0.933880  0.290140  1.0  0.0171
  C  C494  1  0.173290  0.916770  0.320530  1.0  0.0419
  C  C495  1  0.159290  0.884500  0.337750  1.0  -0.0665
  C  C496  1  0.129440  0.867630  0.324240  1.0  -0.0569
  C  C497  1  0.337760  0.566120  0.290140  1.0  0.0164
  C  C498  1  0.326710  0.583230  0.320530  1.0  0.0431
  C  C499  1  0.340710  0.615500  0.337750  1.0  -0.0677
  C  C500  1  0.370560  0.632370  0.324240  1.0  -0.057
  C  C501  1  0.337760  0.066120  0.790140  1.0  0.0164
  C  C502  1  0.326710  0.083230  0.820530  1.0  0.0431
  C  C503  1  0.340710  0.115500  0.837750  1.0  -0.0677
  C  C504  1  0.370560  0.132370  0.824240  1.0  -0.057
  C  C505  1  0.837760  0.566120  0.790140  1.0  0.0164
  C  C506  1  0.826710  0.583230  0.820530  1.0  0.0431
  C  C507  1  0.840710  0.615500  0.837750  1.0  -0.0677
  C  C508  1  0.870560  0.632370  0.824240  1.0  -0.057
  C  C509  1  0.837760  0.066120  0.290140  1.0  0.0164
  C  C510  1  0.826710  0.083230  0.320530  1.0  0.0431
  C  C511  1  0.840710  0.115500  0.337750  1.0  -0.0677
  C  C512  1  0.870560  0.132370  0.324240  1.0  -0.057
  C  C513  1  0.337760  0.433880  0.709860  1.0  0.0172
  C  C514  1  0.326710  0.416770  0.679470  1.0  0.0423
  C  C515  1  0.340710  0.384500  0.662250  1.0  -0.0665
  C  C516  1  0.370560  0.367630  0.675760  1.0  -0.0569
  C  C517  1  0.337760  0.933880  0.209860  1.0  0.0172
  C  C518  1  0.326710  0.916770  0.179470  1.0  0.0423
  C  C519  1  0.340710  0.884500  0.162250  1.0  -0.0665
  C  C520  1  0.370560  0.867630  0.175760  1.0  -0.0569
  C  C521  1  0.837760  0.433880  0.209860  1.0  0.0172
  C  C522  1  0.826710  0.416770  0.179470  1.0  0.0423
  C  C523  1  0.840710  0.384500  0.162250  1.0  -0.0665
  C  C524  1  0.870560  0.367630  0.175760  1.0  -0.0569
  C  C525  1  0.837760  0.933880  0.709860  1.0  0.0172
  C  C526  1  0.826710  0.916770  0.679470  1.0  0.0423
  C  C527  1  0.840710  0.884500  0.662250  1.0  -0.0665
  C  C528  1  0.870560  0.867630  0.675760  1.0  -0.0569
  C  C529  1  0.662240  0.566120  0.709860  1.0  0.017
  C  C530  1  0.673290  0.583230  0.679470  1.0  0.0425
  C  C531  1  0.659290  0.615500  0.662250  1.0  -0.0679
  C  C532  1  0.629440  0.632370  0.675760  1.0  -0.0562
  C  C533  1  0.662240  0.066120  0.209860  1.0  0.017
  C  C534  1  0.673290  0.083230  0.179470  1.0  0.0425
  C  C535  1  0.659290  0.115500  0.162250  1.0  -0.0679
  C  C536  1  0.629440  0.132370  0.175760  1.0  -0.0562
  C  C537  1  0.162240  0.566120  0.209860  1.0  0.017
  C  C538  1  0.173290  0.583230  0.179470  1.0  0.0425
  C  C539  1  0.159290  0.615500  0.162250  1.0  -0.0679
  C  C540  1  0.129440  0.632370  0.175760  1.0  -0.0562
  C  C541  1  0.162240  0.066120  0.709860  1.0  0.017
  C  C542  1  0.173290  0.083230  0.679470  1.0  0.0425
  C  C543  1  0.159290  0.115500  0.662250  1.0  -0.0679
  C  C544  1  0.129440  0.132370  0.675760  1.0  -0.0562
  C  C545  1  0.290140  0.662240  0.433880  1.0  0.0156
  C  C546  1  0.320530  0.673290  0.416770  1.0  0.0423
  C  C547  1  0.337750  0.659290  0.384500  1.0  -0.0663
  C  C548  1  0.324240  0.629440  0.367630  1.0  -0.057
  C  C549  1  0.290140  0.162240  0.933880  1.0  0.0156
  C  C550  1  0.320530  0.173290  0.916770  1.0  0.0423
  C  C551  1  0.337750  0.159290  0.884500  1.0  -0.0663
  C  C552  1  0.324240  0.129440  0.867630  1.0  -0.057
  C  C553  1  0.790140  0.662240  0.933880  1.0  0.0156
  C  C554  1  0.820530  0.673290  0.916770  1.0  0.0423
  C  C555  1  0.837750  0.659290  0.884500  1.0  -0.0663
  C  C556  1  0.824240  0.629440  0.867630  1.0  -0.057
  C  C557  1  0.790140  0.162240  0.433880  1.0  0.0156
  C  C558  1  0.820530  0.173290  0.416770  1.0  0.0423
  C  C559  1  0.837750  0.159290  0.384500  1.0  -0.0663
  C  C560  1  0.824240  0.129440  0.367630  1.0  -0.057
  C  C561  1  0.290140  0.337760  0.566120  1.0  0.0146
  C  C562  1  0.320530  0.326710  0.583230  1.0  0.0421
  C  C563  1  0.337750  0.340710  0.615500  1.0  -0.0669
  C  C564  1  0.324240  0.370560  0.632370  1.0  -0.0573
  C  C565  1  0.290140  0.837760  0.066120  1.0  0.0146
  C  C566  1  0.320530  0.826710  0.083230  1.0  0.0421
  C  C567  1  0.337750  0.840710  0.115500  1.0  -0.0669
  C  C568  1  0.324240  0.870560  0.132370  1.0  -0.0573
  C  C569  1  0.790140  0.337760  0.066120  1.0  0.0146
  C  C570  1  0.820530  0.326710  0.083230  1.0  0.0421
  C  C571  1  0.837750  0.340710  0.115500  1.0  -0.0669
  C  C572  1  0.824240  0.370560  0.132370  1.0  -0.0573
  C  C573  1  0.790140  0.837760  0.566120  1.0  0.0146
  C  C574  1  0.820530  0.826710  0.583230  1.0  0.0421
  C  C575  1  0.837750  0.840710  0.615500  1.0  -0.0669
  C  C576  1  0.824240  0.870560  0.632370  1.0  -0.0573
  C  C577  1  0.709860  0.337760  0.433880  1.0  0.0159
  C  C578  1  0.679470  0.326710  0.416770  1.0  0.0416
  C  C579  1  0.662250  0.340710  0.384500  1.0  -0.0662
  C  C580  1  0.675760  0.370560  0.367630  1.0  -0.0575
  C  C581  1  0.709860  0.837760  0.933880  1.0  0.0159
  C  C582  1  0.679470  0.826710  0.916770  1.0  0.0416
  C  C583  1  0.662250  0.840710  0.884500  1.0  -0.0662
  C  C584  1  0.675760  0.870560  0.867630  1.0  -0.0575
  C  C585  1  0.209860  0.337760  0.933880  1.0  0.0159
  C  C586  1  0.179470  0.326710  0.916770  1.0  0.0416
  C  C587  1  0.162250  0.340710  0.884500  1.0  -0.0662
  C  C588  1  0.175760  0.370560  0.867630  1.0  -0.0575
  C  C589  1  0.209860  0.837760  0.433880  1.0  0.0159
  C  C590  1  0.179470  0.826710  0.416770  1.0  0.0416
  C  C591  1  0.162250  0.840710  0.384500  1.0  -0.0662
  C  C592  1  0.175760  0.870560  0.367630  1.0  -0.0575
  C  C593  1  0.709860  0.662240  0.566120  1.0  0.0161
  C  C594  1  0.679470  0.673290  0.583230  1.0  0.0421
  C  C595  1  0.662250  0.659290  0.615500  1.0  -0.0665
  C  C596  1  0.675760  0.629440  0.632370  1.0  -0.0577
  C  C597  1  0.709860  0.162240  0.066120  1.0  0.0161
  C  C598  1  0.679470  0.173290  0.083230  1.0  0.0421
  C  C599  1  0.662250  0.159290  0.115500  1.0  -0.0665
  C  C600  1  0.675760  0.129440  0.132370  1.0  -0.0577
  C  C601  1  0.209860  0.662240  0.066120  1.0  0.0161
  C  C602  1  0.179470  0.673290  0.083230  1.0  0.0421
  C  C603  1  0.162250  0.659290  0.115500  1.0  -0.0665
  C  C604  1  0.175760  0.629440  0.132370  1.0  -0.0577
  C  C605  1  0.209860  0.162240  0.566120  1.0  0.0161
  C  C606  1  0.179470  0.173290  0.583230  1.0  0.0421
  C  C607  1  0.162250  0.159290  0.615500  1.0  -0.0665
  C  C608  1  0.175760  0.129440  0.632370  1.0  -0.0577
  C  C609  1  0.433880  0.290140  0.662240  1.0  0.0155
  C  C610  1  0.416770  0.320530  0.673290  1.0  0.0414
  C  C611  1  0.384500  0.337750  0.659290  1.0  -0.0683
  C  C612  1  0.367630  0.324240  0.629440  1.0  -0.0552
  C  C613  1  0.433880  0.790140  0.162240  1.0  0.0155
  C  C614  1  0.416770  0.820530  0.173290  1.0  0.0414
  C  C615  1  0.384500  0.837750  0.159290  1.0  -0.0683
  C  C616  1  0.367630  0.824240  0.129440  1.0  -0.0552
  C  C617  1  0.933880  0.290140  0.162240  1.0  0.0155
  C  C618  1  0.916770  0.320530  0.173290  1.0  0.0414
  C  C619  1  0.884500  0.337750  0.159290  1.0  -0.0683
  C  C620  1  0.867630  0.324240  0.129440  1.0  -0.0552
  C  C621  1  0.933880  0.790140  0.662240  1.0  0.0155
  C  C622  1  0.916770  0.820530  0.673290  1.0  0.0414
  C  C623  1  0.884500  0.837750  0.659290  1.0  -0.0683
  C  C624  1  0.867630  0.824240  0.629440  1.0  -0.0552
  C  C625  1  0.566120  0.290140  0.337760  1.0  0.0148
  C  C626  1  0.583230  0.320530  0.326710  1.0  0.0417
  C  C627  1  0.615500  0.337750  0.340710  1.0  -0.0699
  C  C628  1  0.632370  0.324240  0.370560  1.0  -0.0555
  C  C629  1  0.566120  0.790140  0.837760  1.0  0.0148
  C  C630  1  0.583230  0.820530  0.826710  1.0  0.0417
  C  C631  1  0.615500  0.837750  0.840710  1.0  -0.0699
  C  C632  1  0.632370  0.824240  0.870560  1.0  -0.0555
  C  C633  1  0.066120  0.290140  0.837760  1.0  0.0148
  C  C634  1  0.083230  0.320530  0.826710  1.0  0.0417
  C  C635  1  0.115500  0.337750  0.840710  1.0  -0.0699
  C  C636  1  0.132370  0.324240  0.870560  1.0  -0.0555
  C  C637  1  0.066120  0.790140  0.337760  1.0  0.0148
  C  C638  1  0.083230  0.820530  0.326710  1.0  0.0417
  C  C639  1  0.115500  0.837750  0.340710  1.0  -0.0699
  C  C640  1  0.132370  0.824240  0.370560  1.0  -0.0555
  C  C641  1  0.433880  0.709860  0.337760  1.0  0.0142
  C  C642  1  0.416770  0.679470  0.326710  1.0  0.0413
  C  C643  1  0.384500  0.662250  0.340710  1.0  -0.0683
  C  C644  1  0.367630  0.675760  0.370560  1.0  -0.0556
  C  C645  1  0.433880  0.209860  0.837760  1.0  0.0142
  C  C646  1  0.416770  0.179470  0.826710  1.0  0.0413
  C  C647  1  0.384500  0.162250  0.840710  1.0  -0.0683
  C  C648  1  0.367630  0.175760  0.870560  1.0  -0.0556
  C  C649  1  0.933880  0.709860  0.837760  1.0  0.0142
  C  C650  1  0.916770  0.679470  0.826710  1.0  0.0413
  C  C651  1  0.884500  0.662250  0.840710  1.0  -0.0683
  C  C652  1  0.867630  0.675760  0.870560  1.0  -0.0556
  C  C653  1  0.933880  0.209860  0.337760  1.0  0.0142
  C  C654  1  0.916770  0.179470  0.326710  1.0  0.0413
  C  C655  1  0.884500  0.162250  0.340710  1.0  -0.0683
  C  C656  1  0.867630  0.175760  0.370560  1.0  -0.0556
  C  C657  1  0.566120  0.709860  0.662240  1.0  0.0159
  C  C658  1  0.583230  0.679470  0.673290  1.0  0.0415
  C  C659  1  0.615500  0.662250  0.659290  1.0  -0.0698
  C  C660  1  0.632370  0.675760  0.629440  1.0  -0.0553
  C  C661  1  0.566120  0.209860  0.162240  1.0  0.0159
  C  C662  1  0.583230  0.179470  0.173290  1.0  0.0415
  C  C663  1  0.615500  0.162250  0.159290  1.0  -0.0698
  C  C664  1  0.632370  0.175760  0.129440  1.0  -0.0553
  C  C665  1  0.066120  0.709860  0.162240  1.0  0.0159
  C  C666  1  0.083230  0.679470  0.173290  1.0  0.0415
  C  C667  1  0.115500  0.662250  0.159290  1.0  -0.0698
  C  C668  1  0.132370  0.675760  0.129440  1.0  -0.0553
  C  C669  1  0.066120  0.209860  0.662240  1.0  0.0159
  C  C670  1  0.083230  0.179470  0.673290  1.0  0.0415
  C  C671  1  0.115500  0.162250  0.659290  1.0  -0.0698
  C  C672  1  0.132370  0.175760  0.629440  1.0  -0.0553
  C  C673  1  0.933880  0.162240  0.209860  1.0  0.0163
  C  C674  1  0.916770  0.173290  0.179470  1.0  0.0416
  C  C675  1  0.884500  0.159290  0.162250  1.0  -0.0678
  C  C676  1  0.867630  0.129440  0.175760  1.0  -0.056
  C  C677  1  0.933880  0.662240  0.709860  1.0  0.0163
  C  C678  1  0.916770  0.673290  0.679470  1.0  0.0416
  C  C679  1  0.884500  0.659290  0.662250  1.0  -0.0678
  C  C680  1  0.867630  0.629440  0.675760  1.0  -0.056
  C  C681  1  0.433880  0.162240  0.709860  1.0  0.0163
  C  C682  1  0.416770  0.173290  0.679470  1.0  0.0416
  C  C683  1  0.384500  0.159290  0.662250  1.0  -0.0678
  C  C684  1  0.367630  0.129440  0.675760  1.0  -0.056
  C  C685  1  0.433880  0.662240  0.209860  1.0  0.0163
  C  C686  1  0.416770  0.673290  0.179470  1.0  0.0416
  C  C687  1  0.384500  0.659290  0.162250  1.0  -0.0678
  C  C688  1  0.367630  0.629440  0.175760  1.0  -0.056
  C  C689  1  0.066120  0.837760  0.209860  1.0  0.0159
  C  C690  1  0.083230  0.826710  0.179470  1.0  0.0416
  C  C691  1  0.115500  0.840710  0.162250  1.0  -0.07
  C  C692  1  0.132370  0.870560  0.175760  1.0  -0.0566
  C  C693  1  0.066120  0.337760  0.709860  1.0  0.0159
  C  C694  1  0.083230  0.326710  0.679470  1.0  0.0416
  C  C695  1  0.115500  0.340710  0.662250  1.0  -0.07
  C  C696  1  0.132370  0.370560  0.675760  1.0  -0.0566
  C  C697  1  0.566120  0.837760  0.709860  1.0  0.0159
  C  C698  1  0.583230  0.826710  0.679470  1.0  0.0416
  C  C699  1  0.615500  0.840710  0.662250  1.0  -0.07
  C  C700  1  0.632370  0.870560  0.675760  1.0  -0.0566
  C  C701  1  0.566120  0.337760  0.209860  1.0  0.0159
  C  C702  1  0.583230  0.326710  0.179470  1.0  0.0416
  C  C703  1  0.615500  0.340710  0.162250  1.0  -0.07
  C  C704  1  0.632370  0.370560  0.175760  1.0  -0.0566
  C  C705  1  0.933880  0.837760  0.790140  1.0  0.0159
  C  C706  1  0.916770  0.826710  0.820530  1.0  0.0415
  C  C707  1  0.884500  0.840710  0.837750  1.0  -0.0678
  C  C708  1  0.867630  0.870560  0.824240  1.0  -0.0565
  C  C709  1  0.933880  0.337760  0.290140  1.0  0.0159
  C  C710  1  0.916770  0.326710  0.320530  1.0  0.0415
  C  C711  1  0.884500  0.340710  0.337750  1.0  -0.0678
  C  C712  1  0.867630  0.370560  0.324240  1.0  -0.0565
  C  C713  1  0.433880  0.837760  0.290140  1.0  0.0159
  C  C714  1  0.416770  0.826710  0.320530  1.0  0.0415
  C  C715  1  0.384500  0.840710  0.337750  1.0  -0.0678
  C  C716  1  0.367630  0.870560  0.324240  1.0  -0.0565
  C  C717  1  0.433880  0.337760  0.790140  1.0  0.0159
  C  C718  1  0.416770  0.326710  0.820530  1.0  0.0415
  C  C719  1  0.384500  0.340710  0.837750  1.0  -0.0678
  C  C720  1  0.367630  0.370560  0.824240  1.0  -0.0565
  C  C721  1  0.066120  0.162240  0.790140  1.0  0.0161
  C  C722  1  0.083230  0.173290  0.820530  1.0  0.0419
  C  C723  1  0.115500  0.159290  0.837750  1.0  -0.0697
  C  C724  1  0.132370  0.129440  0.824240  1.0  -0.0568
  C  C725  1  0.066120  0.662240  0.290140  1.0  0.0161
  C  C726  1  0.083230  0.673290  0.320530  1.0  0.0419
  C  C727  1  0.115500  0.659290  0.337750  1.0  -0.0697
  C  C728  1  0.132370  0.629440  0.324240  1.0  -0.0568
  C  C729  1  0.566120  0.162240  0.290140  1.0  0.0161
  C  C730  1  0.583230  0.173290  0.320530  1.0  0.0419
  C  C731  1  0.615500  0.159290  0.337750  1.0  -0.0697
  C  C732  1  0.632370  0.129440  0.324240  1.0  -0.0568
  C  C733  1  0.566120  0.662240  0.790140  1.0  0.0161
  C  C734  1  0.583230  0.673290  0.820530  1.0  0.0419
  C  C735  1  0.615500  0.659290  0.837750  1.0  -0.0697
  C  C736  1  0.632370  0.629440  0.824240  1.0  -0.0568
  C  C737  1  0.162240  0.790140  0.066120  1.0  0.0161
  C  C738  1  0.173290  0.820530  0.083230  1.0  0.0421
  C  C739  1  0.159290  0.837750  0.115500  1.0  -0.0667
  C  C740  1  0.129440  0.824240  0.132370  1.0  -0.0565
  C  C741  1  0.162240  0.290140  0.566120  1.0  0.0161
  C  C742  1  0.173290  0.320530  0.583230  1.0  0.0421
  C  C743  1  0.159290  0.337750  0.615500  1.0  -0.0667
  C  C744  1  0.129440  0.324240  0.632370  1.0  -0.0565
  C  C745  1  0.662240  0.790140  0.566120  1.0  0.0161
  C  C746  1  0.673290  0.820530  0.583230  1.0  0.0421
  C  C747  1  0.659290  0.837750  0.615500  1.0  -0.0667
  C  C748  1  0.629440  0.824240  0.632370  1.0  -0.0565
  C  C749  1  0.662240  0.290140  0.066120  1.0  0.0161
  C  C750  1  0.673290  0.320530  0.083230  1.0  0.0421
  C  C751  1  0.659290  0.337750  0.115500  1.0  -0.0667
  C  C752  1  0.629440  0.324240  0.132370  1.0  -0.0565
  C  C753  1  0.837760  0.790140  0.933880  1.0  0.0157
  C  C754  1  0.826710  0.820530  0.916770  1.0  0.0423
  C  C755  1  0.840710  0.837750  0.884500  1.0  -0.0662
  C  C756  1  0.870560  0.824240  0.867630  1.0  -0.0567
  C  C757  1  0.837760  0.290140  0.433880  1.0  0.0157
  C  C758  1  0.826710  0.320530  0.416770  1.0  0.0423
  C  C759  1  0.840710  0.337750  0.384500  1.0  -0.0662
  C  C760  1  0.870560  0.324240  0.367630  1.0  -0.0567
  C  C761  1  0.337760  0.790140  0.433880  1.0  0.0157
  C  C762  1  0.326710  0.820530  0.416770  1.0  0.0423
  C  C763  1  0.340710  0.837750  0.384500  1.0  -0.0662
  C  C764  1  0.370560  0.824240  0.367630  1.0  -0.0567
  C  C765  1  0.337760  0.290140  0.933880  1.0  0.0157
  C  C766  1  0.326710  0.320530  0.916770  1.0  0.0423
  C  C767  1  0.340710  0.337750  0.884500  1.0  -0.0662
  C  C768  1  0.370560  0.324240  0.867630  1.0  -0.0567
  C  C769  1  0.837760  0.209860  0.066120  1.0  0.0155
  C  C770  1  0.826710  0.179470  0.083230  1.0  0.0424
  C  C771  1  0.840710  0.162250  0.115500  1.0  -0.0666
  C  C772  1  0.870560  0.175760  0.132370  1.0  -0.0569
  C  C773  1  0.837760  0.709860  0.566120  1.0  0.0155
  C  C774  1  0.826710  0.679470  0.583230  1.0  0.0424
  C  C775  1  0.840710  0.662250  0.615500  1.0  -0.0666
  C  C776  1  0.870560  0.675760  0.632370  1.0  -0.0569
  C  C777  1  0.337760  0.209860  0.566120  1.0  0.0155
  C  C778  1  0.326710  0.179470  0.583230  1.0  0.0424
  C  C779  1  0.340710  0.162250  0.615500  1.0  -0.0666
  C  C780  1  0.370560  0.175760  0.632370  1.0  -0.0569
  C  C781  1  0.337760  0.709860  0.066120  1.0  0.0155
  C  C782  1  0.326710  0.679470  0.083230  1.0  0.0424
  C  C783  1  0.340710  0.662250  0.115500  1.0  -0.0666
  C  C784  1  0.370560  0.675760  0.132370  1.0  -0.0569
  C  C785  1  0.162240  0.209860  0.933880  1.0  0.0161
  C  C786  1  0.173290  0.179470  0.916770  1.0  0.0416
  C  C787  1  0.159290  0.162250  0.884500  1.0  -0.0664
  C  C788  1  0.129440  0.175760  0.867630  1.0  -0.0563
  C  C789  1  0.162240  0.709860  0.433880  1.0  0.0161
  C  C790  1  0.173290  0.679470  0.416770  1.0  0.0416
  C  C791  1  0.159290  0.662250  0.384500  1.0  -0.0664
  C  C792  1  0.129440  0.675760  0.367630  1.0  -0.0563
  C  C793  1  0.662240  0.209860  0.433880  1.0  0.0161
  C  C794  1  0.673290  0.179470  0.416770  1.0  0.0416
  C  C795  1  0.659290  0.162250  0.384500  1.0  -0.0664
  C  C796  1  0.629440  0.175760  0.367630  1.0  -0.0563
  C  C797  1  0.662240  0.709860  0.933880  1.0  0.0161
  C  C798  1  0.673290  0.679470  0.916770  1.0  0.0416
  C  C799  1  0.659290  0.662250  0.884500  1.0  -0.0664
  C  C800  1  0.629440  0.675760  0.867630  1.0  -0.0563
  C  C801  1  0.790140  0.933880  0.837760  1.0  0.0145
  C  C802  1  0.820530  0.916770  0.826710  1.0  0.0427
  C  C803  1  0.837750  0.884500  0.840710  1.0  -0.0671
  C  C804  1  0.824240  0.867630  0.870560  1.0  -0.0569
  C  C805  1  0.790140  0.433880  0.337760  1.0  0.0145
  C  C806  1  0.820530  0.416770  0.326710  1.0  0.0427
  C  C807  1  0.837750  0.384500  0.340710  1.0  -0.0671
  C  C808  1  0.824240  0.367630  0.370560  1.0  -0.0569
  C  C809  1  0.290140  0.933880  0.337760  1.0  0.0145
  C  C810  1  0.320530  0.916770  0.326710  1.0  0.0427
  C  C811  1  0.337750  0.884500  0.340710  1.0  -0.0671
  C  C812  1  0.324240  0.867630  0.370560  1.0  -0.0569
  C  C813  1  0.290140  0.433880  0.837760  1.0  0.0145
  C  C814  1  0.320530  0.416770  0.826710  1.0  0.0427
  C  C815  1  0.337750  0.384500  0.840710  1.0  -0.0671
  C  C816  1  0.324240  0.367630  0.870560  1.0  -0.0569
  C  C817  1  0.790140  0.066120  0.162240  1.0  0.0159
  C  C818  1  0.820530  0.083230  0.173290  1.0  0.0424
  C  C819  1  0.837750  0.115500  0.159290  1.0  -0.0682
  C  C820  1  0.824240  0.132370  0.129440  1.0  -0.0565
  C  C821  1  0.790140  0.566120  0.662240  1.0  0.0159
  C  C822  1  0.820530  0.583230  0.673290  1.0  0.0424
  C  C823  1  0.837750  0.615500  0.659290  1.0  -0.0682
  C  C824  1  0.824240  0.632370  0.629440  1.0  -0.0565
  C  C825  1  0.290140  0.066120  0.662240  1.0  0.0159
  C  C826  1  0.320530  0.083230  0.673290  1.0  0.0424
  C  C827  1  0.337750  0.115500  0.659290  1.0  -0.0682
  C  C828  1  0.324240  0.132370  0.629440  1.0  -0.0565
  C  C829  1  0.290140  0.566120  0.162240  1.0  0.0159
  C  C830  1  0.320530  0.583230  0.173290  1.0  0.0424
  C  C831  1  0.337750  0.615500  0.159290  1.0  -0.0682
  C  C832  1  0.324240  0.632370  0.129440  1.0  -0.0565
  C  C833  1  0.209860  0.933880  0.162240  1.0  0.0166
  C  C834  1  0.179470  0.916770  0.173290  1.0  0.0418
  C  C835  1  0.162250  0.884500  0.159290  1.0  -0.0669
  C  C836  1  0.175760  0.867630  0.129440  1.0  -0.0568
  C  C837  1  0.209860  0.433880  0.662240  1.0  0.0166
  C  C838  1  0.179470  0.416770  0.673290  1.0  0.0418
  C  C839  1  0.162250  0.384500  0.659290  1.0  -0.0669
  C  C840  1  0.175760  0.367630  0.629440  1.0  -0.0568
  C  C841  1  0.709860  0.933880  0.662240  1.0  0.0166
  C  C842  1  0.679470  0.916770  0.673290  1.0  0.0418
  C  C843  1  0.662250  0.884500  0.659290  1.0  -0.0669
  C  C844  1  0.675760  0.867630  0.629440  1.0  -0.0568
  C  C845  1  0.709860  0.433880  0.162240  1.0  0.0166
  C  C846  1  0.679470  0.416770  0.173290  1.0  0.0418
  C  C847  1  0.662250  0.384500  0.159290  1.0  -0.0669
  C  C848  1  0.675760  0.367630  0.129440  1.0  -0.0568
  C  C849  1  0.209860  0.066120  0.837760  1.0  0.015
  C  C850  1  0.179470  0.083230  0.826710  1.0  0.0425
  C  C851  1  0.162250  0.115500  0.840710  1.0  -0.0679
  C  C852  1  0.175760  0.132370  0.870560  1.0  -0.0569
  C  C853  1  0.209860  0.566120  0.337760  1.0  0.015
  C  C854  1  0.179470  0.583230  0.326710  1.0  0.0425
  C  C855  1  0.162250  0.615500  0.340710  1.0  -0.0679
  C  C856  1  0.175760  0.632370  0.370560  1.0  -0.0569
  C  C857  1  0.709860  0.066120  0.337760  1.0  0.015
  C  C858  1  0.679470  0.083230  0.326710  1.0  0.0425
  C  C859  1  0.662250  0.115500  0.340710  1.0  -0.0679
  C  C860  1  0.675760  0.132370  0.370560  1.0  -0.0569
  C  C861  1  0.709860  0.566120  0.837760  1.0  0.015
  C  C862  1  0.679470  0.583230  0.826710  1.0  0.0425
  C  C863  1  0.662250  0.615500  0.840710  1.0  -0.0679
  C  C864  1  0.675760  0.632370  0.870560  1.0  -0.0569
  C  C865  1  0.337760  0.566120  0.709860  1.0  0.0168
  C  C866  1  0.326710  0.583230  0.679470  1.0  0.0429
  C  C867  1  0.340710  0.615500  0.662250  1.0  -0.0678
  C  C868  1  0.370560  0.632370  0.675760  1.0  -0.0565
  C  C869  1  0.337760  0.066120  0.209860  1.0  0.0168
  C  C870  1  0.326710  0.083230  0.179470  1.0  0.0429
  C  C871  1  0.340710  0.115500  0.162250  1.0  -0.0678
  C  C872  1  0.370560  0.132370  0.175760  1.0  -0.0565
  C  C873  1  0.837760  0.566120  0.209860  1.0  0.0168
  C  C874  1  0.826710  0.583230  0.179470  1.0  0.0429
  C  C875  1  0.840710  0.615500  0.162250  1.0  -0.0678
  C  C876  1  0.870560  0.632370  0.175760  1.0  -0.0565
  C  C877  1  0.837760  0.066120  0.709860  1.0  0.0168
  C  C878  1  0.826710  0.083230  0.679470  1.0  0.0429
  C  C879  1  0.840710  0.115500  0.662250  1.0  -0.0678
  C  C880  1  0.870560  0.132370  0.675760  1.0  -0.0565
  C  C881  1  0.662240  0.433880  0.709860  1.0  0.0171
  C  C882  1  0.673290  0.416770  0.679470  1.0  0.0419
  C  C883  1  0.659290  0.384500  0.662250  1.0  -0.0667
  C  C884  1  0.629440  0.367630  0.675760  1.0  -0.0567
  C  C885  1  0.662240  0.933880  0.209860  1.0  0.0171
  C  C886  1  0.673290  0.916770  0.179470  1.0  0.0419
  C  C887  1  0.659290  0.884500  0.162250  1.0  -0.0667
  C  C888  1  0.629440  0.867630  0.175760  1.0  -0.0567
  C  C889  1  0.162240  0.433880  0.209860  1.0  0.0171
  C  C890  1  0.173290  0.416770  0.179470  1.0  0.0419
  C  C891  1  0.159290  0.384500  0.162250  1.0  -0.0667
  C  C892  1  0.129440  0.367630  0.175760  1.0  -0.0567
  C  C893  1  0.162240  0.933880  0.709860  1.0  0.0171
  C  C894  1  0.173290  0.916770  0.679470  1.0  0.0419
  C  C895  1  0.159290  0.884500  0.662250  1.0  -0.0667
  C  C896  1  0.129440  0.867630  0.675760  1.0  -0.0567
  C  C897  1  0.662240  0.566120  0.290140  1.0  0.0171
  C  C898  1  0.673290  0.583230  0.320530  1.0  0.0424
  C  C899  1  0.659290  0.615500  0.337750  1.0  -0.0678
  C  C900  1  0.629440  0.632370  0.324240  1.0  -0.0569
  C  C901  1  0.662240  0.066120  0.790140  1.0  0.0171
  C  C902  1  0.673290  0.083230  0.820530  1.0  0.0424
  C  C903  1  0.659290  0.115500  0.837750  1.0  -0.0678
  C  C904  1  0.629440  0.132370  0.824240  1.0  -0.0569
  C  C905  1  0.162240  0.566120  0.790140  1.0  0.0171
  C  C906  1  0.173290  0.583230  0.820530  1.0  0.0424
  C  C907  1  0.159290  0.615500  0.837750  1.0  -0.0678
  C  C908  1  0.129440  0.632370  0.824240  1.0  -0.0569
  C  C909  1  0.162240  0.066120  0.290140  1.0  0.0171
  C  C910  1  0.173290  0.083230  0.320530  1.0  0.0424
  C  C911  1  0.159290  0.115500  0.337750  1.0  -0.0678
  C  C912  1  0.129440  0.132370  0.324240  1.0  -0.0569
  C  C913  1  0.337760  0.433880  0.290140  1.0  0.0167
  C  C914  1  0.326710  0.416770  0.320530  1.0  0.0426
  C  C915  1  0.340710  0.384500  0.337750  1.0  -0.0664
  C  C916  1  0.370560  0.367630  0.324240  1.0  -0.0571
  C  C917  1  0.337760  0.933880  0.790140  1.0  0.0167
  C  C918  1  0.326710  0.916770  0.820530  1.0  0.0426
  C  C919  1  0.340710  0.884500  0.837750  1.0  -0.0664
  C  C920  1  0.370560  0.867630  0.824240  1.0  -0.0571
  C  C921  1  0.837760  0.433880  0.790140  1.0  0.0167
  C  C922  1  0.826710  0.416770  0.820530  1.0  0.0426
  C  C923  1  0.840710  0.384500  0.837750  1.0  -0.0664
  C  C924  1  0.870560  0.367630  0.824240  1.0  -0.0571
  C  C925  1  0.837760  0.933880  0.290140  1.0  0.0167
  C  C926  1  0.826710  0.916770  0.320530  1.0  0.0426
  C  C927  1  0.840710  0.884500  0.337750  1.0  -0.0664
  C  C928  1  0.870560  0.867630  0.324240  1.0  -0.0571
  C  C929  1  0.709860  0.337760  0.566120  1.0  0.0158
  C  C930  1  0.679470  0.326710  0.583230  1.0  0.042
  C  C931  1  0.662250  0.340710  0.615500  1.0  -0.0666
  C  C932  1  0.675760  0.370560  0.632370  1.0  -0.0576
  C  C933  1  0.709860  0.837760  0.066120  1.0  0.0158
  C  C934  1  0.679470  0.826710  0.083230  1.0  0.042
  C  C935  1  0.662250  0.840710  0.115500  1.0  -0.0666
  C  C936  1  0.675760  0.870560  0.132370  1.0  -0.0576
  C  C937  1  0.209860  0.337760  0.066120  1.0  0.0158
  C  C938  1  0.179470  0.326710  0.083230  1.0  0.042
  C  C939  1  0.162250  0.340710  0.115500  1.0  -0.0666
  C  C940  1  0.175760  0.370560  0.132370  1.0  -0.0576
  C  C941  1  0.209860  0.837760  0.566120  1.0  0.0158
  C  C942  1  0.179470  0.826710  0.583230  1.0  0.042
  C  C943  1  0.162250  0.840710  0.615500  1.0  -0.0666
  C  C944  1  0.175760  0.870560  0.632370  1.0  -0.0576
  C  C945  1  0.709860  0.662240  0.433880  1.0  0.0158
  C  C946  1  0.679470  0.673290  0.416770  1.0  0.0418
  C  C947  1  0.662250  0.659290  0.384500  1.0  -0.0661
  C  C948  1  0.675760  0.629440  0.367630  1.0  -0.0575
  C  C949  1  0.709860  0.162240  0.933880  1.0  0.0158
  C  C950  1  0.679470  0.173290  0.916770  1.0  0.0418
  C  C951  1  0.662250  0.159290  0.884500  1.0  -0.0661
  C  C952  1  0.675760  0.129440  0.867630  1.0  -0.0575
  C  C953  1  0.209860  0.662240  0.933880  1.0  0.0158
  C  C954  1  0.179470  0.673290  0.916770  1.0  0.0418
  C  C955  1  0.162250  0.659290  0.884500  1.0  -0.0661
  C  C956  1  0.175760  0.629440  0.867630  1.0  -0.0575
  C  C957  1  0.209860  0.162240  0.433880  1.0  0.0158
  C  C958  1  0.179470  0.173290  0.416770  1.0  0.0418
  C  C959  1  0.162250  0.159290  0.384500  1.0  -0.0661
  C  C960  1  0.175760  0.129440  0.367630  1.0  -0.0575
  C  C961  1  0.290140  0.662240  0.566120  1.0  0.0157
  C  C962  1  0.320530  0.673290  0.583230  1.0  0.0425
  C  C963  1  0.337750  0.659290  0.615500  1.0  -0.0666
  C  C964  1  0.324240  0.629440  0.632370  1.0  -0.0571
  C  C965  1  0.290140  0.162240  0.066120  1.0  0.0157
  C  C966  1  0.320530  0.173290  0.083230  1.0  0.0425
  C  C967  1  0.337750  0.159290  0.115500  1.0  -0.0666
  C  C968  1  0.324240  0.129440  0.132370  1.0  -0.0571
  C  C969  1  0.790140  0.662240  0.066120  1.0  0.0157
  C  C970  1  0.820530  0.673290  0.083230  1.0  0.0425
  C  C971  1  0.837750  0.659290  0.115500  1.0  -0.0666
  C  C972  1  0.824240  0.629440  0.132370  1.0  -0.0571
  C  C973  1  0.790140  0.162240  0.566120  1.0  0.0157
  C  C974  1  0.820530  0.173290  0.583230  1.0  0.0425
  C  C975  1  0.837750  0.159290  0.615500  1.0  -0.0666
  C  C976  1  0.824240  0.129440  0.632370  1.0  -0.0571
  C  C977  1  0.290140  0.337760  0.433880  1.0  0.0148
  C  C978  1  0.320530  0.326710  0.416770  1.0  0.0418
  C  C979  1  0.337750  0.340710  0.384500  1.0  -0.0664
  C  C980  1  0.324240  0.370560  0.367630  1.0  -0.0574
  C  C981  1  0.290140  0.837760  0.933880  1.0  0.0148
  C  C982  1  0.320530  0.826710  0.916770  1.0  0.0418
  C  C983  1  0.337750  0.840710  0.884500  1.0  -0.0664
  C  C984  1  0.324240  0.870560  0.867630  1.0  -0.0574
  C  C985  1  0.790140  0.337760  0.933880  1.0  0.0148
  C  C986  1  0.820530  0.326710  0.916770  1.0  0.0418
  C  C987  1  0.837750  0.340710  0.884500  1.0  -0.0664
  C  C988  1  0.824240  0.370560  0.867630  1.0  -0.0574
  C  C989  1  0.790140  0.837760  0.433880  1.0  0.0148
  C  C990  1  0.820530  0.826710  0.416770  1.0  0.0418
  C  C991  1  0.837750  0.840710  0.384500  1.0  -0.0664
  C  C992  1  0.824240  0.870560  0.367630  1.0  -0.0574
  C  C993  1  0.566120  0.709860  0.337760  1.0  0.0146
  C  C994  1  0.583230  0.679470  0.326710  1.0  0.0417
  C  C995  1  0.615500  0.662250  0.340710  1.0  -0.0698
  C  C996  1  0.632370  0.675760  0.370560  1.0  -0.0557
  C  C997  1  0.566120  0.209860  0.837760  1.0  0.0146
  C  C998  1  0.583230  0.179470  0.826710  1.0  0.0417
  C  C999  1  0.615500  0.162250  0.840710  1.0  -0.0698
  C  C1000  1  0.632370  0.175760  0.870560  1.0  -0.0557
  C  C1001  1  0.066120  0.709860  0.837760  1.0  0.0146
  C  C1002  1  0.083230  0.679470  0.826710  1.0  0.0417
  C  C1003  1  0.115500  0.662250  0.840710  1.0  -0.0698
  C  C1004  1  0.132370  0.675760  0.870560  1.0  -0.0557
  C  C1005  1  0.066120  0.209860  0.337760  1.0  0.0146
  C  C1006  1  0.083230  0.179470  0.326710  1.0  0.0417
  C  C1007  1  0.115500  0.162250  0.340710  1.0  -0.0698
  C  C1008  1  0.132370  0.175760  0.370560  1.0  -0.0557
  C  C1009  1  0.433880  0.709860  0.662240  1.0  0.0155
  C  C1010  1  0.416770  0.679470  0.673290  1.0  0.0412
  C  C1011  1  0.384500  0.662250  0.659290  1.0  -0.0684
  C  C1012  1  0.367630  0.675760  0.629440  1.0  -0.0556
  C  C1013  1  0.433880  0.209860  0.162240  1.0  0.0155
  C  C1014  1  0.416770  0.179470  0.173290  1.0  0.0412
  C  C1015  1  0.384500  0.162250  0.159290  1.0  -0.0684
  C  C1016  1  0.367630  0.175760  0.129440  1.0  -0.0556
  C  C1017  1  0.933880  0.709860  0.162240  1.0  0.0155
  C  C1018  1  0.916770  0.679470  0.173290  1.0  0.0412
  C  C1019  1  0.884500  0.662250  0.159290  1.0  -0.0684
  C  C1020  1  0.867630  0.675760  0.129440  1.0  -0.0556
  C  C1021  1  0.933880  0.209860  0.662240  1.0  0.0155
  C  C1022  1  0.916770  0.179470  0.673290  1.0  0.0412
  C  C1023  1  0.884500  0.162250  0.659290  1.0  -0.0684
  C  C1024  1  0.867630  0.175760  0.629440  1.0  -0.0556
  C  C1025  1  0.566120  0.290140  0.662240  1.0  0.0159
  C  C1026  1  0.583230  0.320530  0.673290  1.0  0.0415
  C  C1027  1  0.615500  0.337750  0.659290  1.0  -0.0698
  C  C1028  1  0.632370  0.324240  0.629440  1.0  -0.0551
  C  C1029  1  0.566120  0.790140  0.162240  1.0  0.0159
  C  C1030  1  0.583230  0.820530  0.173290  1.0  0.0415
  C  C1031  1  0.615500  0.837750  0.159290  1.0  -0.0698
  C  C1032  1  0.632370  0.824240  0.129440  1.0  -0.0551
  C  C1033  1  0.066120  0.290140  0.162240  1.0  0.0159
  C  C1034  1  0.083230  0.320530  0.173290  1.0  0.0415
  C  C1035  1  0.115500  0.337750  0.159290  1.0  -0.0698
  C  C1036  1  0.132370  0.324240  0.129440  1.0  -0.0551
  C  C1037  1  0.066120  0.790140  0.662240  1.0  0.0159
  C  C1038  1  0.083230  0.820530  0.673290  1.0  0.0415
  C  C1039  1  0.115500  0.837750  0.659290  1.0  -0.0698
  C  C1040  1  0.132370  0.824240  0.629440  1.0  -0.0551
  C  C1041  1  0.433880  0.290140  0.337760  1.0  0.0144
  C  C1042  1  0.416770  0.320530  0.326710  1.0  0.0416
  C  C1043  1  0.384500  0.337750  0.340710  1.0  -0.0683
  C  C1044  1  0.367630  0.324240  0.370560  1.0  -0.0553
  C  C1045  1  0.433880  0.790140  0.837760  1.0  0.0144
  C  C1046  1  0.416770  0.820530  0.826710  1.0  0.0416
  C  C1047  1  0.384500  0.837750  0.840710  1.0  -0.0683
  C  C1048  1  0.367630  0.824240  0.870560  1.0  -0.0553
  C  C1049  1  0.933880  0.290140  0.837760  1.0  0.0144
  C  C1050  1  0.916770  0.320530  0.826710  1.0  0.0416
  C  C1051  1  0.884500  0.337750  0.840710  1.0  -0.0683
  C  C1052  1  0.867630  0.324240  0.870560  1.0  -0.0553
  C  C1053  1  0.933880  0.790140  0.337760  1.0  0.0144
  C  C1054  1  0.916770  0.820530  0.326710  1.0  0.0416
  C  C1055  1  0.884500  0.837750  0.340710  1.0  -0.0683
  C  C1056  1  0.867630  0.824240  0.370560  1.0  -0.0553
  C  C1057  1  0.066120  0.837760  0.790140  1.0  0.0164
  C  C1058  1  0.083230  0.826710  0.820530  1.0  0.0417
  C  C1059  1  0.115500  0.840710  0.837750  1.0  -0.0701
  C  C1060  1  0.132370  0.870560  0.824240  1.0  -0.0565
  C  C1061  1  0.066120  0.337760  0.290140  1.0  0.0164
  C  C1062  1  0.083230  0.326710  0.320530  1.0  0.0417
  C  C1063  1  0.115500  0.340710  0.337750  1.0  -0.0701
  C  C1064  1  0.132370  0.370560  0.324240  1.0  -0.0565
  C  C1065  1  0.566120  0.837760  0.290140  1.0  0.0164
  C  C1066  1  0.583230  0.826710  0.320530  1.0  0.0417
  C  C1067  1  0.615500  0.840710  0.337750  1.0  -0.0701
  C  C1068  1  0.632370  0.870560  0.324240  1.0  -0.0565
  C  C1069  1  0.566120  0.337760  0.790140  1.0  0.0164
  C  C1070  1  0.583230  0.326710  0.820530  1.0  0.0417
  C  C1071  1  0.615500  0.340710  0.837750  1.0  -0.0701
  C  C1072  1  0.632370  0.370560  0.824240  1.0  -0.0565
  C  C1073  1  0.933880  0.162240  0.790140  1.0  0.0158
  C  C1074  1  0.916770  0.173290  0.820530  1.0  0.0417
  C  C1075  1  0.884500  0.159290  0.837750  1.0  -0.0676
  C  C1076  1  0.867630  0.129440  0.824240  1.0  -0.0566
  C  C1077  1  0.933880  0.662240  0.290140  1.0  0.0158
  C  C1078  1  0.916770  0.673290  0.320530  1.0  0.0417
  C  C1079  1  0.884500  0.659290  0.337750  1.0  -0.0676
  C  C1080  1  0.867630  0.629440  0.324240  1.0  -0.0566
  C  C1081  1  0.433880  0.162240  0.290140  1.0  0.0158
  C  C1082  1  0.416770  0.173290  0.320530  1.0  0.0417
  C  C1083  1  0.384500  0.159290  0.337750  1.0  -0.0676
  C  C1084  1  0.367630  0.129440  0.324240  1.0  -0.0566
  C  C1085  1  0.433880  0.662240  0.790140  1.0  0.0158
  C  C1086  1  0.416770  0.673290  0.820530  1.0  0.0417
  C  C1087  1  0.384500  0.659290  0.837750  1.0  -0.0676
  C  C1088  1  0.367630  0.629440  0.824240  1.0  -0.0566
  C  C1089  1  0.066120  0.162240  0.209860  1.0  0.0166
  C  C1090  1  0.083230  0.173290  0.179470  1.0  0.0419
  C  C1091  1  0.115500  0.159290  0.162250  1.0  -0.0697
  C  C1092  1  0.132370  0.129440  0.175760  1.0  -0.0562
  C  C1093  1  0.066120  0.662240  0.709860  1.0  0.0166
  C  C1094  1  0.083230  0.673290  0.679470  1.0  0.0419
  C  C1095  1  0.115500  0.659290  0.662250  1.0  -0.0697
  C  C1096  1  0.132370  0.629440  0.675760  1.0  -0.0562
  C  C1097  1  0.566120  0.162240  0.709860  1.0  0.0166
  C  C1098  1  0.583230  0.173290  0.679470  1.0  0.0419
  C  C1099  1  0.615500  0.159290  0.662250  1.0  -0.0697
  C  C1100  1  0.632370  0.129440  0.675760  1.0  -0.0562
  C  C1101  1  0.566120  0.662240  0.209860  1.0  0.0166
  C  C1102  1  0.583230  0.673290  0.179470  1.0  0.0419
  C  C1103  1  0.615500  0.659290  0.162250  1.0  -0.0697
  C  C1104  1  0.632370  0.629440  0.175760  1.0  -0.0562
  C  C1105  1  0.933880  0.837760  0.209860  1.0  0.0154
  C  C1106  1  0.916770  0.826710  0.179470  1.0  0.0413
  C  C1107  1  0.884500  0.840710  0.162250  1.0  -0.0679
  C  C1108  1  0.867630  0.870560  0.175760  1.0  -0.0564
  C  C1109  1  0.933880  0.337760  0.709860  1.0  0.0154
  C  C1110  1  0.916770  0.326710  0.679470  1.0  0.0413
  C  C1111  1  0.884500  0.340710  0.662250  1.0  -0.0679
  C  C1112  1  0.867630  0.370560  0.675760  1.0  -0.0564
  C  C1113  1  0.433880  0.837760  0.709860  1.0  0.0154
  C  C1114  1  0.416770  0.826710  0.679470  1.0  0.0413
  C  C1115  1  0.384500  0.840710  0.662250  1.0  -0.0679
  C  C1116  1  0.367630  0.870560  0.675760  1.0  -0.0564
  C  C1117  1  0.433880  0.337760  0.209860  1.0  0.0154
  C  C1118  1  0.416770  0.326710  0.179470  1.0  0.0413
  C  C1119  1  0.384500  0.340710  0.162250  1.0  -0.0679
  C  C1120  1  0.367630  0.370560  0.175760  1.0  -0.0564
  C  C1121  1  0.837760  0.209860  0.933880  1.0  0.0155
  C  C1122  1  0.826710  0.179470  0.916770  1.0  0.0421
  C  C1123  1  0.840710  0.162250  0.884500  1.0  -0.0663
  C  C1124  1  0.870560  0.175760  0.867630  1.0  -0.0568
  C  C1125  1  0.837760  0.709860  0.433880  1.0  0.0155
  C  C1126  1  0.826710  0.679470  0.416770  1.0  0.0421
  C  C1127  1  0.840710  0.662250  0.384500  1.0  -0.0663
  C  C1128  1  0.870560  0.675760  0.367630  1.0  -0.0568
  C  C1129  1  0.337760  0.209860  0.433880  1.0  0.0155
  C  C1130  1  0.326710  0.179470  0.416770  1.0  0.0421
  C  C1131  1  0.340710  0.162250  0.384500  1.0  -0.0663
  C  C1132  1  0.370560  0.175760  0.367630  1.0  -0.0568
  C  C1133  1  0.337760  0.709860  0.933880  1.0  0.0155
  C  C1134  1  0.326710  0.679470  0.916770  1.0  0.0421
  C  C1135  1  0.340710  0.662250  0.884500  1.0  -0.0663
  C  C1136  1  0.370560  0.675760  0.867630  1.0  -0.0568
  C  C1137  1  0.162240  0.209860  0.066120  1.0  0.016
  C  C1138  1  0.173290  0.179470  0.083230  1.0  0.0417
  C  C1139  1  0.159290  0.162250  0.115500  1.0  -0.0667
  C  C1140  1  0.129440  0.175760  0.132370  1.0  -0.0563
  C  C1141  1  0.162240  0.709860  0.566120  1.0  0.016
  C  C1142  1  0.173290  0.679470  0.583230  1.0  0.0417
  C  C1143  1  0.159290  0.662250  0.615500  1.0  -0.0667
  C  C1144  1  0.129440  0.675760  0.632370  1.0  -0.0563
  C  C1145  1  0.662240  0.209860  0.566120  1.0  0.016
  C  C1146  1  0.673290  0.179470  0.583230  1.0  0.0417
  C  C1147  1  0.659290  0.162250  0.615500  1.0  -0.0667
  C  C1148  1  0.629440  0.175760  0.632370  1.0  -0.0563
  C  C1149  1  0.662240  0.709860  0.066120  1.0  0.016
  C  C1150  1  0.673290  0.679470  0.083230  1.0  0.0417
  C  C1151  1  0.659290  0.662250  0.115500  1.0  -0.0667
  C  C1152  1  0.629440  0.675760  0.132370  1.0  -0.0563
  C  C1153  1  0.162240  0.790140  0.933880  1.0  0.0161
  C  C1154  1  0.173290  0.820530  0.916770  1.0  0.042
  C  C1155  1  0.159290  0.837750  0.884500  1.0  -0.0664
  C  C1156  1  0.129440  0.824240  0.867630  1.0  -0.0566
  C  C1157  1  0.162240  0.290140  0.433880  1.0  0.0161
  C  C1158  1  0.173290  0.320530  0.416770  1.0  0.042
  C  C1159  1  0.159290  0.337750  0.384500  1.0  -0.0664
  C  C1160  1  0.129440  0.324240  0.367630  1.0  -0.0566
  C  C1161  1  0.662240  0.790140  0.433880  1.0  0.0161
  C  C1162  1  0.673290  0.820530  0.416770  1.0  0.042
  C  C1163  1  0.659290  0.837750  0.384500  1.0  -0.0664
  C  C1164  1  0.629440  0.824240  0.367630  1.0  -0.0566
  C  C1165  1  0.662240  0.290140  0.933880  1.0  0.0161
  C  C1166  1  0.673290  0.320530  0.916770  1.0  0.042
  C  C1167  1  0.659290  0.337750  0.884500  1.0  -0.0664
  C  C1168  1  0.629440  0.324240  0.867630  1.0  -0.0566
  C  C1169  1  0.837760  0.790140  0.066120  1.0  0.0158
  C  C1170  1  0.826710  0.820530  0.083230  1.0  0.0426
  C  C1171  1  0.840710  0.837750  0.115500  1.0  -0.0667
  C  C1172  1  0.870560  0.824240  0.132370  1.0  -0.0567
  C  C1173  1  0.837760  0.290140  0.566120  1.0  0.0158
  C  C1174  1  0.826710  0.320530  0.583230  1.0  0.0426
  C  C1175  1  0.840710  0.337750  0.615500  1.0  -0.0667
  C  C1176  1  0.870560  0.324240  0.632370  1.0  -0.0567
  C  C1177  1  0.337760  0.790140  0.566120  1.0  0.0158
  C  C1178  1  0.326710  0.820530  0.583230  1.0  0.0426
  C  C1179  1  0.340710  0.837750  0.615500  1.0  -0.0667
  C  C1180  1  0.370560  0.824240  0.632370  1.0  -0.0567
  C  C1181  1  0.337760  0.290140  0.066120  1.0  0.0158
  C  C1182  1  0.326710  0.320530  0.083230  1.0  0.0426
  C  C1183  1  0.340710  0.337750  0.115500  1.0  -0.0667
  C  C1184  1  0.370560  0.324240  0.132370  1.0  -0.0567
  C  C1185  1  0.209860  0.066120  0.162240  1.0  0.0165
  C  C1186  1  0.179470  0.083230  0.173290  1.0  0.0423
  C  C1187  1  0.162250  0.115500  0.159290  1.0  -0.0679
  C  C1188  1  0.175760  0.132370  0.129440  1.0  -0.057
  C  C1189  1  0.209860  0.566120  0.662240  1.0  0.0165
  C  C1190  1  0.179470  0.583230  0.673290  1.0  0.0423
  C  C1191  1  0.162250  0.615500  0.659290  1.0  -0.0679
  C  C1192  1  0.175760  0.632370  0.629440  1.0  -0.057
  C  C1193  1  0.709860  0.066120  0.662240  1.0  0.0165
  C  C1194  1  0.679470  0.083230  0.673290  1.0  0.0423
  C  C1195  1  0.662250  0.115500  0.659290  1.0  -0.0679
  C  C1196  1  0.675760  0.132370  0.629440  1.0  -0.057
  C  C1197  1  0.709860  0.566120  0.162240  1.0  0.0165
  C  C1198  1  0.679470  0.583230  0.173290  1.0  0.0423
  C  C1199  1  0.662250  0.615500  0.159290  1.0  -0.0679
  C  C1200  1  0.675760  0.632370  0.129440  1.0  -0.057
  C  C1201  1  0.209860  0.933880  0.837760  1.0  0.0151
  C  C1202  1  0.179470  0.916770  0.826710  1.0  0.042
  C  C1203  1  0.162250  0.884500  0.840710  1.0  -0.0668
  C  C1204  1  0.175760  0.867630  0.870560  1.0  -0.0569
  C  C1205  1  0.209860  0.433880  0.337760  1.0  0.0151
  C  C1206  1  0.179470  0.416770  0.326710  1.0  0.042
  C  C1207  1  0.162250  0.384500  0.340710  1.0  -0.0668
  C  C1208  1  0.175760  0.367630  0.370560  1.0  -0.0569
  C  C1209  1  0.709860  0.933880  0.337760  1.0  0.0151
  C  C1210  1  0.679470  0.916770  0.326710  1.0  0.042
  C  C1211  1  0.662250  0.884500  0.340710  1.0  -0.0668
  C  C1212  1  0.675760  0.867630  0.370560  1.0  -0.0569
  C  C1213  1  0.709860  0.433880  0.837760  1.0  0.0151
  C  C1214  1  0.679470  0.416770  0.826710  1.0  0.042
  C  C1215  1  0.662250  0.384500  0.840710  1.0  -0.0668
  C  C1216  1  0.675760  0.367630  0.870560  1.0  -0.0569
  C  C1217  1  0.790140  0.066120  0.837760  1.0  0.0143
  C  C1218  1  0.820530  0.083230  0.826710  1.0  0.0427
  C  C1219  1  0.837750  0.115500  0.840710  1.0  -0.0683
  C  C1220  1  0.824240  0.132370  0.870560  1.0  -0.0566
  C  C1221  1  0.790140  0.566120  0.337760  1.0  0.0143
  C  C1222  1  0.820530  0.583230  0.326710  1.0  0.0427
  C  C1223  1  0.837750  0.615500  0.340710  1.0  -0.0683
  C  C1224  1  0.824240  0.632370  0.370560  1.0  -0.0566
  C  C1225  1  0.290140  0.066120  0.337760  1.0  0.0143
  C  C1226  1  0.320530  0.083230  0.326710  1.0  0.0427
  C  C1227  1  0.337750  0.115500  0.340710  1.0  -0.0683
  C  C1228  1  0.324240  0.132370  0.370560  1.0  -0.0566
  C  C1229  1  0.290140  0.566120  0.837760  1.0  0.0143
  C  C1230  1  0.320530  0.583230  0.826710  1.0  0.0427
  C  C1231  1  0.337750  0.615500  0.840710  1.0  -0.0683
  C  C1232  1  0.324240  0.632370  0.870560  1.0  -0.0566
  C  C1233  1  0.790140  0.933880  0.162240  1.0  0.0161
  C  C1234  1  0.820530  0.916770  0.173290  1.0  0.0424
  C  C1235  1  0.837750  0.884500  0.159290  1.0  -0.0672
  C  C1236  1  0.824240  0.867630  0.129440  1.0  -0.0564
  C  C1237  1  0.790140  0.433880  0.662240  1.0  0.0161
  C  C1238  1  0.820530  0.416770  0.673290  1.0  0.0424
  C  C1239  1  0.837750  0.384500  0.659290  1.0  -0.0672
  C  C1240  1  0.824240  0.367630  0.629440  1.0  -0.0564
  C  C1241  1  0.290140  0.933880  0.662240  1.0  0.0161
  C  C1242  1  0.320530  0.916770  0.673290  1.0  0.0424
  C  C1243  1  0.337750  0.884500  0.659290  1.0  -0.0672
  C  C1244  1  0.324240  0.867630  0.629440  1.0  -0.0564
  C  C1245  1  0.290140  0.433880  0.162240  1.0  0.0161
  C  C1246  1  0.320530  0.416770  0.173290  1.0  0.0424
  C  C1247  1  0.337750  0.384500  0.159290  1.0  -0.0672
  C  C1248  1  0.324240  0.367630  0.129440  1.0  -0.0564
  N  N1249  1  0.682990  0.461940  0.285270  1.0  -0.2254
  N  N1250  1  0.706780  0.461940  0.312110  1.0  -0.0444
  N  N1251  1  0.701310  0.434920  0.333770  1.0  -0.2709
  N  N1252  1  0.682990  0.961940  0.785270  1.0  -0.2254
  N  N1253  1  0.706780  0.961940  0.812110  1.0  -0.0444
  N  N1254  1  0.701310  0.934920  0.833770  1.0  -0.2709
  N  N1255  1  0.182990  0.461940  0.785270  1.0  -0.2254
  N  N1256  1  0.206780  0.461940  0.812110  1.0  -0.0444
  N  N1257  1  0.201310  0.434920  0.833770  1.0  -0.2709
  N  N1258  1  0.182990  0.961940  0.285270  1.0  -0.2254
  N  N1259  1  0.206780  0.961940  0.312110  1.0  -0.0444
  N  N1260  1  0.201310  0.934920  0.333770  1.0  -0.2709
  N  N1261  1  0.317010  0.538060  0.285270  1.0  -0.2262
  N  N1262  1  0.293220  0.538060  0.312110  1.0  -0.0442
  N  N1263  1  0.298690  0.565080  0.333770  1.0  -0.2722
  N  N1264  1  0.317010  0.038060  0.785270  1.0  -0.2262
  N  N1265  1  0.293220  0.038060  0.812110  1.0  -0.0442
  N  N1266  1  0.298690  0.065080  0.833770  1.0  -0.2722
  N  N1267  1  0.817010  0.538060  0.785270  1.0  -0.2262
  N  N1268  1  0.793220  0.538060  0.812110  1.0  -0.0442
  N  N1269  1  0.798690  0.565080  0.833770  1.0  -0.2722
  N  N1270  1  0.817010  0.038060  0.285270  1.0  -0.2262
  N  N1271  1  0.793220  0.038060  0.312110  1.0  -0.0442
  N  N1272  1  0.798690  0.065080  0.333770  1.0  -0.2722
  N  N1273  1  0.317010  0.461940  0.714730  1.0  -0.2257
  N  N1274  1  0.293220  0.461940  0.687890  1.0  -0.0445
  N  N1275  1  0.298690  0.434920  0.666230  1.0  -0.2716
  N  N1276  1  0.317010  0.961940  0.214730  1.0  -0.2257
  N  N1277  1  0.293220  0.961940  0.187890  1.0  -0.0445
  N  N1278  1  0.298690  0.934920  0.166230  1.0  -0.2716
  N  N1279  1  0.817010  0.461940  0.214730  1.0  -0.2257
  N  N1280  1  0.793220  0.461940  0.187890  1.0  -0.0445
  N  N1281  1  0.798690  0.434920  0.166230  1.0  -0.2716
  N  N1282  1  0.817010  0.961940  0.714730  1.0  -0.2257
  N  N1283  1  0.793220  0.961940  0.687890  1.0  -0.0445
  N  N1284  1  0.798690  0.934920  0.666230  1.0  -0.2716
  N  N1285  1  0.682990  0.538060  0.714730  1.0  -0.2255
  N  N1286  1  0.706780  0.538060  0.687890  1.0  -0.0446
  N  N1287  1  0.701310  0.565080  0.666230  1.0  -0.2716
  N  N1288  1  0.682990  0.038060  0.214730  1.0  -0.2255
  N  N1289  1  0.706780  0.038060  0.187890  1.0  -0.0446
  N  N1290  1  0.701310  0.065080  0.166230  1.0  -0.2716
  N  N1291  1  0.182990  0.538060  0.214730  1.0  -0.2255
  N  N1292  1  0.206780  0.538060  0.187890  1.0  -0.0446
  N  N1293  1  0.201310  0.565080  0.166230  1.0  -0.2716
  N  N1294  1  0.182990  0.038060  0.714730  1.0  -0.2255
  N  N1295  1  0.206780  0.038060  0.687890  1.0  -0.0446
  N  N1296  1  0.201310  0.065080  0.666230  1.0  -0.2716
  N  N1297  1  0.285270  0.682990  0.461940  1.0  -0.2261
  N  N1298  1  0.312110  0.706780  0.461940  1.0  -0.0456
  N  N1299  1  0.333770  0.701310  0.434920  1.0  -0.2759
  N  N1300  1  0.285270  0.182990  0.961940  1.0  -0.2261
  N  N1301  1  0.312110  0.206780  0.961940  1.0  -0.0456
  N  N1302  1  0.333770  0.201310  0.934920  1.0  -0.2759
  N  N1303  1  0.785270  0.682990  0.961940  1.0  -0.2261
  N  N1304  1  0.812110  0.706780  0.961940  1.0  -0.0456
  N  N1305  1  0.833770  0.701310  0.934920  1.0  -0.2759
  N  N1306  1  0.785270  0.182990  0.461940  1.0  -0.2261
  N  N1307  1  0.812110  0.206780  0.461940  1.0  -0.0456
  N  N1308  1  0.833770  0.201310  0.434920  1.0  -0.2759
  N  N1309  1  0.285270  0.317010  0.538060  1.0  -0.226
  N  N1310  1  0.312110  0.293220  0.538060  1.0  -0.0458
  N  N1311  1  0.333770  0.298690  0.565080  1.0  -0.2753
  N  N1312  1  0.285270  0.817010  0.038060  1.0  -0.226
  N  N1313  1  0.312110  0.793220  0.038060  1.0  -0.0458
  N  N1314  1  0.333770  0.798690  0.065080  1.0  -0.2753
  N  N1315  1  0.785270  0.317010  0.038060  1.0  -0.226
  N  N1316  1  0.812110  0.293220  0.038060  1.0  -0.0458
  N  N1317  1  0.833770  0.298690  0.065080  1.0  -0.2753
  N  N1318  1  0.785270  0.817010  0.538060  1.0  -0.226
  N  N1319  1  0.812110  0.793220  0.538060  1.0  -0.0458
  N  N1320  1  0.833770  0.798690  0.565080  1.0  -0.2753
  N  N1321  1  0.714730  0.317010  0.461940  1.0  -0.2252
  N  N1322  1  0.687890  0.293220  0.461940  1.0  -0.045
  N  N1323  1  0.666230  0.298690  0.434920  1.0  -0.2755
  N  N1324  1  0.714730  0.817010  0.961940  1.0  -0.2252
  N  N1325  1  0.687890  0.793220  0.961940  1.0  -0.045
  N  N1326  1  0.666230  0.798690  0.934920  1.0  -0.2755
  N  N1327  1  0.214730  0.317010  0.961940  1.0  -0.2252
  N  N1328  1  0.187890  0.293220  0.961940  1.0  -0.045
  N  N1329  1  0.166230  0.298690  0.934920  1.0  -0.2755
  N  N1330  1  0.214730  0.817010  0.461940  1.0  -0.2252
  N  N1331  1  0.187890  0.793220  0.461940  1.0  -0.045
  N  N1332  1  0.166230  0.798690  0.434920  1.0  -0.2755
  N  N1333  1  0.714730  0.682990  0.538060  1.0  -0.2252
  N  N1334  1  0.687890  0.706780  0.538060  1.0  -0.044
  N  N1335  1  0.666230  0.701310  0.565080  1.0  -0.2752
  N  N1336  1  0.714730  0.182990  0.038060  1.0  -0.2252
  N  N1337  1  0.687890  0.206780  0.038060  1.0  -0.044
  N  N1338  1  0.666230  0.201310  0.065080  1.0  -0.2752
  N  N1339  1  0.214730  0.682990  0.038060  1.0  -0.2252
  N  N1340  1  0.187890  0.706780  0.038060  1.0  -0.044
  N  N1341  1  0.166230  0.701310  0.065080  1.0  -0.2752
  N  N1342  1  0.214730  0.182990  0.538060  1.0  -0.2252
  N  N1343  1  0.187890  0.206780  0.538060  1.0  -0.044
  N  N1344  1  0.166230  0.201310  0.565080  1.0  -0.2752
  N  N1345  1  0.461940  0.285270  0.682990  1.0  -0.2253
  N  N1346  1  0.461940  0.312110  0.706780  1.0  -0.0449
  N  N1347  1  0.434920  0.333770  0.701310  1.0  -0.2704
  N  N1348  1  0.461940  0.785270  0.182990  1.0  -0.2253
  N  N1349  1  0.461940  0.812110  0.206780  1.0  -0.0449
  N  N1350  1  0.434920  0.833770  0.201310  1.0  -0.2704
  N  N1351  1  0.961940  0.285270  0.182990  1.0  -0.2253
  N  N1352  1  0.961940  0.312110  0.206780  1.0  -0.0449
  N  N1353  1  0.934920  0.333770  0.201310  1.0  -0.2704
  N  N1354  1  0.961940  0.785270  0.682990  1.0  -0.2253
  N  N1355  1  0.961940  0.812110  0.706780  1.0  -0.0449
  N  N1356  1  0.934920  0.833770  0.701310  1.0  -0.2704
  N  N1357  1  0.538060  0.285270  0.317010  1.0  -0.226
  N  N1358  1  0.538060  0.312110  0.293220  1.0  -0.0447
  N  N1359  1  0.565080  0.333770  0.298690  1.0  -0.2714
  N  N1360  1  0.538060  0.785270  0.817010  1.0  -0.226
  N  N1361  1  0.538060  0.812110  0.793220  1.0  -0.0447
  N  N1362  1  0.565080  0.833770  0.798690  1.0  -0.2714
  N  N1363  1  0.038060  0.285270  0.817010  1.0  -0.226
  N  N1364  1  0.038060  0.312110  0.793220  1.0  -0.0447
  N  N1365  1  0.065080  0.333770  0.798690  1.0  -0.2714
  N  N1366  1  0.038060  0.785270  0.317010  1.0  -0.226
  N  N1367  1  0.038060  0.812110  0.293220  1.0  -0.0447
  N  N1368  1  0.065080  0.833770  0.298690  1.0  -0.2714
  N  N1369  1  0.461940  0.714730  0.317010  1.0  -0.2251
  N  N1370  1  0.461940  0.687890  0.293220  1.0  -0.0445
  N  N1371  1  0.434920  0.666230  0.298690  1.0  -0.2711
  N  N1372  1  0.461940  0.214730  0.817010  1.0  -0.2251
  N  N1373  1  0.461940  0.187890  0.793220  1.0  -0.0445
  N  N1374  1  0.434920  0.166230  0.798690  1.0  -0.2711
  N  N1375  1  0.961940  0.714730  0.817010  1.0  -0.2251
  N  N1376  1  0.961940  0.687890  0.793220  1.0  -0.0445
  N  N1377  1  0.934920  0.666230  0.798690  1.0  -0.2711
  N  N1378  1  0.961940  0.214730  0.317010  1.0  -0.2251
  N  N1379  1  0.961940  0.187890  0.293220  1.0  -0.0445
  N  N1380  1  0.934920  0.166230  0.298690  1.0  -0.2711
  N  N1381  1  0.538060  0.714730  0.682990  1.0  -0.2254
  N  N1382  1  0.538060  0.687890  0.706780  1.0  -0.0456
  N  N1383  1  0.565080  0.666230  0.701310  1.0  -0.2716
  N  N1384  1  0.538060  0.214730  0.182990  1.0  -0.2254
  N  N1385  1  0.538060  0.187890  0.206780  1.0  -0.0456
  N  N1386  1  0.565080  0.166230  0.201310  1.0  -0.2716
  N  N1387  1  0.038060  0.714730  0.182990  1.0  -0.2254
  N  N1388  1  0.038060  0.687890  0.206780  1.0  -0.0456
  N  N1389  1  0.065080  0.666230  0.201310  1.0  -0.2716
  N  N1390  1  0.038060  0.214730  0.682990  1.0  -0.2254
  N  N1391  1  0.038060  0.187890  0.706780  1.0  -0.0456
  N  N1392  1  0.065080  0.166230  0.701310  1.0  -0.2716
  N  N1393  1  0.961940  0.182990  0.214730  1.0  -0.2254
  N  N1394  1  0.961940  0.206780  0.187890  1.0  -0.0439
  N  N1395  1  0.934920  0.201310  0.166230  1.0  -0.2721
  N  N1396  1  0.961940  0.682990  0.714730  1.0  -0.2254
  N  N1397  1  0.961940  0.706780  0.687890  1.0  -0.0439
  N  N1398  1  0.934920  0.701310  0.666230  1.0  -0.2721
  N  N1399  1  0.461940  0.182990  0.714730  1.0  -0.2254
  N  N1400  1  0.461940  0.206780  0.687890  1.0  -0.0439
  N  N1401  1  0.434920  0.201310  0.666230  1.0  -0.2721
  N  N1402  1  0.461940  0.682990  0.214730  1.0  -0.2254
  N  N1403  1  0.461940  0.706780  0.187890  1.0  -0.0439
  N  N1404  1  0.434920  0.701310  0.166230  1.0  -0.2721
  N  N1405  1  0.038060  0.817010  0.214730  1.0  -0.2264
  N  N1406  1  0.038060  0.793220  0.187890  1.0  -0.0453
  N  N1407  1  0.065080  0.798690  0.166230  1.0  -0.2724
  N  N1408  1  0.038060  0.317010  0.714730  1.0  -0.2264
  N  N1409  1  0.038060  0.293220  0.687890  1.0  -0.0453
  N  N1410  1  0.065080  0.298690  0.666230  1.0  -0.2724
  N  N1411  1  0.538060  0.817010  0.714730  1.0  -0.2264
  N  N1412  1  0.538060  0.793220  0.687890  1.0  -0.0453
  N  N1413  1  0.565080  0.798690  0.666230  1.0  -0.2724
  N  N1414  1  0.538060  0.317010  0.214730  1.0  -0.2264
  N  N1415  1  0.538060  0.293220  0.187890  1.0  -0.0453
  N  N1416  1  0.565080  0.298690  0.166230  1.0  -0.2724
  N  N1417  1  0.961940  0.817010  0.785270  1.0  -0.2258
  N  N1418  1  0.961940  0.793220  0.812110  1.0  -0.044
  N  N1419  1  0.934920  0.798690  0.833770  1.0  -0.2726
  N  N1420  1  0.961940  0.317010  0.285270  1.0  -0.2258
  N  N1421  1  0.961940  0.293220  0.312110  1.0  -0.044
  N  N1422  1  0.934920  0.298690  0.333770  1.0  -0.2726
  N  N1423  1  0.461940  0.817010  0.285270  1.0  -0.2258
  N  N1424  1  0.461940  0.793220  0.312110  1.0  -0.044
  N  N1425  1  0.434920  0.798690  0.333770  1.0  -0.2726
  N  N1426  1  0.461940  0.317010  0.785270  1.0  -0.2258
  N  N1427  1  0.461940  0.293220  0.812110  1.0  -0.044
  N  N1428  1  0.434920  0.298690  0.833770  1.0  -0.2726
  N  N1429  1  0.038060  0.182990  0.785270  1.0  -0.2262
  N  N1430  1  0.038060  0.206780  0.812110  1.0  -0.0445
  N  N1431  1  0.065080  0.201310  0.833770  1.0  -0.2726
  N  N1432  1  0.038060  0.682990  0.285270  1.0  -0.2262
  N  N1433  1  0.038060  0.706780  0.312110  1.0  -0.0445
  N  N1434  1  0.065080  0.701310  0.333770  1.0  -0.2726
  N  N1435  1  0.538060  0.182990  0.285270  1.0  -0.2262
  N  N1436  1  0.538060  0.206780  0.312110  1.0  -0.0445
  N  N1437  1  0.565080  0.201310  0.333770  1.0  -0.2726
  N  N1438  1  0.538060  0.682990  0.785270  1.0  -0.2262
  N  N1439  1  0.538060  0.706780  0.812110  1.0  -0.0445
  N  N1440  1  0.565080  0.701310  0.833770  1.0  -0.2726
  N  N1441  1  0.182990  0.785270  0.038060  1.0  -0.2251
  N  N1442  1  0.206780  0.812110  0.038060  1.0  -0.0446
  N  N1443  1  0.201310  0.833770  0.065080  1.0  -0.2724
  N  N1444  1  0.182990  0.285270  0.538060  1.0  -0.2251
  N  N1445  1  0.206780  0.312110  0.538060  1.0  -0.0446
  N  N1446  1  0.201310  0.333770  0.565080  1.0  -0.2724
  N  N1447  1  0.682990  0.785270  0.538060  1.0  -0.2251
  N  N1448  1  0.706780  0.812110  0.538060  1.0  -0.0446
  N  N1449  1  0.701310  0.833770  0.565080  1.0  -0.2724
  N  N1450  1  0.682990  0.285270  0.038060  1.0  -0.2251
  N  N1451  1  0.706780  0.312110  0.038060  1.0  -0.0446
  N  N1452  1  0.701310  0.333770  0.065080  1.0  -0.2724
  N  N1453  1  0.817010  0.785270  0.961940  1.0  -0.2257
  N  N1454  1  0.793220  0.812110  0.961940  1.0  -0.0455
  N  N1455  1  0.798690  0.833770  0.934920  1.0  -0.2732
  N  N1456  1  0.817010  0.285270  0.461940  1.0  -0.2257
  N  N1457  1  0.793220  0.312110  0.461940  1.0  -0.0455
  N  N1458  1  0.798690  0.333770  0.434920  1.0  -0.2732
  N  N1459  1  0.317010  0.785270  0.461940  1.0  -0.2257
  N  N1460  1  0.293220  0.812110  0.461940  1.0  -0.0455
  N  N1461  1  0.298690  0.833770  0.434920  1.0  -0.2732
  N  N1462  1  0.317010  0.285270  0.961940  1.0  -0.2257
  N  N1463  1  0.293220  0.312110  0.961940  1.0  -0.0455
  N  N1464  1  0.298690  0.333770  0.934920  1.0  -0.2732
  N  N1465  1  0.817010  0.214730  0.038060  1.0  -0.2252
  N  N1466  1  0.793220  0.187890  0.038060  1.0  -0.0449
  N  N1467  1  0.798690  0.166230  0.065080  1.0  -0.274
  N  N1468  1  0.817010  0.714730  0.538060  1.0  -0.2252
  N  N1469  1  0.793220  0.687890  0.538060  1.0  -0.0449
  N  N1470  1  0.798690  0.666230  0.565080  1.0  -0.274
  N  N1471  1  0.317010  0.214730  0.538060  1.0  -0.2252
  N  N1472  1  0.293220  0.187890  0.538060  1.0  -0.0449
  N  N1473  1  0.298690  0.166230  0.565080  1.0  -0.274
  N  N1474  1  0.317010  0.714730  0.038060  1.0  -0.2252
  N  N1475  1  0.293220  0.687890  0.038060  1.0  -0.0449
  N  N1476  1  0.298690  0.666230  0.065080  1.0  -0.274
  N  N1477  1  0.182990  0.214730  0.961940  1.0  -0.2248
  N  N1478  1  0.206780  0.187890  0.961940  1.0  -0.045
  N  N1479  1  0.201310  0.166230  0.934920  1.0  -0.2724
  N  N1480  1  0.182990  0.714730  0.461940  1.0  -0.2248
  N  N1481  1  0.206780  0.687890  0.461940  1.0  -0.045
  N  N1482  1  0.201310  0.666230  0.434920  1.0  -0.2724
  N  N1483  1  0.682990  0.214730  0.461940  1.0  -0.2248
  N  N1484  1  0.706780  0.187890  0.461940  1.0  -0.045
  N  N1485  1  0.701310  0.166230  0.434920  1.0  -0.2724
  N  N1486  1  0.682990  0.714730  0.961940  1.0  -0.2248
  N  N1487  1  0.706780  0.687890  0.961940  1.0  -0.045
  N  N1488  1  0.701310  0.666230  0.934920  1.0  -0.2724
  N  N1489  1  0.785270  0.961940  0.817010  1.0  -0.226
  N  N1490  1  0.812110  0.961940  0.793220  1.0  -0.0452
  N  N1491  1  0.833770  0.934920  0.798690  1.0  -0.2744
  N  N1492  1  0.785270  0.461940  0.317010  1.0  -0.226
  N  N1493  1  0.812110  0.461940  0.293220  1.0  -0.0452
  N  N1494  1  0.833770  0.434920  0.298690  1.0  -0.2744
  N  N1495  1  0.285270  0.961940  0.317010  1.0  -0.226
  N  N1496  1  0.312110  0.961940  0.293220  1.0  -0.0452
  N  N1497  1  0.333770  0.934920  0.298690  1.0  -0.2744
  N  N1498  1  0.285270  0.461940  0.817010  1.0  -0.226
  N  N1499  1  0.312110  0.461940  0.793220  1.0  -0.0452
  N  N1500  1  0.333770  0.434920  0.798690  1.0  -0.2744
  N  N1501  1  0.785270  0.038060  0.182990  1.0  -0.2258
  N  N1502  1  0.812110  0.038060  0.206780  1.0  -0.0459
  N  N1503  1  0.833770  0.065080  0.201310  1.0  -0.2736
  N  N1504  1  0.785270  0.538060  0.682990  1.0  -0.2258
  N  N1505  1  0.812110  0.538060  0.706780  1.0  -0.0459
  N  N1506  1  0.833770  0.565080  0.701310  1.0  -0.2736
  N  N1507  1  0.285270  0.038060  0.682990  1.0  -0.2258
  N  N1508  1  0.312110  0.038060  0.706780  1.0  -0.0459
  N  N1509  1  0.333770  0.065080  0.701310  1.0  -0.2736
  N  N1510  1  0.285270  0.538060  0.182990  1.0  -0.2258
  N  N1511  1  0.312110  0.538060  0.206780  1.0  -0.0459
  N  N1512  1  0.333770  0.565080  0.201310  1.0  -0.2736
  N  N1513  1  0.214730  0.961940  0.182990  1.0  -0.225
  N  N1514  1  0.187890  0.961940  0.206780  1.0  -0.0441
  N  N1515  1  0.166230  0.934920  0.201310  1.0  -0.2742
  N  N1516  1  0.214730  0.461940  0.682990  1.0  -0.225
  N  N1517  1  0.187890  0.461940  0.706780  1.0  -0.0441
  N  N1518  1  0.166230  0.434920  0.701310  1.0  -0.2742
  N  N1519  1  0.714730  0.961940  0.682990  1.0  -0.225
  N  N1520  1  0.687890  0.961940  0.706780  1.0  -0.0441
  N  N1521  1  0.666230  0.934920  0.701310  1.0  -0.2742
  N  N1522  1  0.714730  0.461940  0.182990  1.0  -0.225
  N  N1523  1  0.687890  0.461940  0.206780  1.0  -0.0441
  N  N1524  1  0.666230  0.434920  0.201310  1.0  -0.2742
  N  N1525  1  0.214730  0.038060  0.817010  1.0  -0.225
  N  N1526  1  0.187890  0.038060  0.793220  1.0  -0.0445
  N  N1527  1  0.166230  0.065080  0.798690  1.0  -0.2734
  N  N1528  1  0.214730  0.538060  0.317010  1.0  -0.225
  N  N1529  1  0.187890  0.538060  0.293220  1.0  -0.0445
  N  N1530  1  0.166230  0.565080  0.298690  1.0  -0.2734
  N  N1531  1  0.714730  0.038060  0.317010  1.0  -0.225
  N  N1532  1  0.687890  0.038060  0.293220  1.0  -0.0445
  N  N1533  1  0.666230  0.065080  0.298690  1.0  -0.2734
  N  N1534  1  0.714730  0.538060  0.817010  1.0  -0.225
  N  N1535  1  0.687890  0.538060  0.793220  1.0  -0.0445
  N  N1536  1  0.666230  0.565080  0.798690  1.0  -0.2734
  N  N1537  1  0.317010  0.538060  0.714730  1.0  -0.2263
  N  N1538  1  0.293220  0.538060  0.687890  1.0  -0.045
  N  N1539  1  0.298690  0.565080  0.666230  1.0  -0.2716
  N  N1540  1  0.317010  0.038060  0.214730  1.0  -0.2263
  N  N1541  1  0.293220  0.038060  0.187890  1.0  -0.045
  N  N1542  1  0.298690  0.065080  0.166230  1.0  -0.2716
  N  N1543  1  0.817010  0.538060  0.214730  1.0  -0.2263
  N  N1544  1  0.793220  0.538060  0.187890  1.0  -0.045
  N  N1545  1  0.798690  0.565080  0.166230  1.0  -0.2716
  N  N1546  1  0.817010  0.038060  0.714730  1.0  -0.2263
  N  N1547  1  0.793220  0.038060  0.687890  1.0  -0.045
  N  N1548  1  0.798690  0.065080  0.666230  1.0  -0.2716
  N  N1549  1  0.682990  0.461940  0.714730  1.0  -0.2254
  N  N1550  1  0.706780  0.461940  0.687890  1.0  -0.0443
  N  N1551  1  0.701310  0.434920  0.666230  1.0  -0.2717
  N  N1552  1  0.682990  0.961940  0.214730  1.0  -0.2254
  N  N1553  1  0.706780  0.961940  0.187890  1.0  -0.0443
  N  N1554  1  0.701310  0.934920  0.166230  1.0  -0.2717
  N  N1555  1  0.182990  0.461940  0.214730  1.0  -0.2254
  N  N1556  1  0.206780  0.461940  0.187890  1.0  -0.0443
  N  N1557  1  0.201310  0.434920  0.166230  1.0  -0.2717
  N  N1558  1  0.182990  0.961940  0.714730  1.0  -0.2254
  N  N1559  1  0.206780  0.961940  0.687890  1.0  -0.0443
  N  N1560  1  0.201310  0.934920  0.666230  1.0  -0.2717
  N  N1561  1  0.682990  0.538060  0.285270  1.0  -0.2257
  N  N1562  1  0.706780  0.538060  0.312110  1.0  -0.0443
  N  N1563  1  0.701310  0.565080  0.333770  1.0  -0.2708
  N  N1564  1  0.682990  0.038060  0.785270  1.0  -0.2257
  N  N1565  1  0.706780  0.038060  0.812110  1.0  -0.0443
  N  N1566  1  0.701310  0.065080  0.833770  1.0  -0.2708
  N  N1567  1  0.182990  0.538060  0.785270  1.0  -0.2257
  N  N1568  1  0.206780  0.538060  0.812110  1.0  -0.0443
  N  N1569  1  0.201310  0.565080  0.833770  1.0  -0.2708
  N  N1570  1  0.182990  0.038060  0.285270  1.0  -0.2257
  N  N1571  1  0.206780  0.038060  0.312110  1.0  -0.0443
  N  N1572  1  0.201310  0.065080  0.333770  1.0  -0.2708
  N  N1573  1  0.317010  0.461940  0.285270  1.0  -0.2256
  N  N1574  1  0.293220  0.461940  0.312110  1.0  -0.0442
  N  N1575  1  0.298690  0.434920  0.333770  1.0  -0.2723
  N  N1576  1  0.317010  0.961940  0.785270  1.0  -0.2256
  N  N1577  1  0.293220  0.961940  0.812110  1.0  -0.0442
  N  N1578  1  0.298690  0.934920  0.833770  1.0  -0.2723
  N  N1579  1  0.817010  0.461940  0.785270  1.0  -0.2256
  N  N1580  1  0.793220  0.461940  0.812110  1.0  -0.0442
  N  N1581  1  0.798690  0.434920  0.833770  1.0  -0.2723
  N  N1582  1  0.817010  0.961940  0.285270  1.0  -0.2256
  N  N1583  1  0.793220  0.961940  0.312110  1.0  -0.0442
  N  N1584  1  0.798690  0.934920  0.333770  1.0  -0.2723
  N  N1585  1  0.714730  0.317010  0.538060  1.0  -0.2253
  N  N1586  1  0.687890  0.293220  0.538060  1.0  -0.0449
  N  N1587  1  0.666230  0.298690  0.565080  1.0  -0.2754
  N  N1588  1  0.714730  0.817010  0.038060  1.0  -0.2253
  N  N1589  1  0.687890  0.793220  0.038060  1.0  -0.0449
  N  N1590  1  0.666230  0.798690  0.065080  1.0  -0.2754
  N  N1591  1  0.214730  0.317010  0.038060  1.0  -0.2253
  N  N1592  1  0.187890  0.293220  0.038060  1.0  -0.0449
  N  N1593  1  0.166230  0.298690  0.065080  1.0  -0.2754
  N  N1594  1  0.214730  0.817010  0.538060  1.0  -0.2253
  N  N1595  1  0.187890  0.793220  0.538060  1.0  -0.0449
  N  N1596  1  0.166230  0.798690  0.565080  1.0  -0.2754
  N  N1597  1  0.714730  0.682990  0.461940  1.0  -0.225
  N  N1598  1  0.687890  0.706780  0.461940  1.0  -0.0445
  N  N1599  1  0.666230  0.701310  0.434920  1.0  -0.2752
  N  N1600  1  0.714730  0.182990  0.961940  1.0  -0.225
  N  N1601  1  0.687890  0.206780  0.961940  1.0  -0.0445
  N  N1602  1  0.666230  0.201310  0.934920  1.0  -0.2752
  N  N1603  1  0.214730  0.682990  0.961940  1.0  -0.225
  N  N1604  1  0.187890  0.706780  0.961940  1.0  -0.0445
  N  N1605  1  0.166230  0.701310  0.934920  1.0  -0.2752
  N  N1606  1  0.214730  0.182990  0.461940  1.0  -0.225
  N  N1607  1  0.187890  0.206780  0.461940  1.0  -0.0445
  N  N1608  1  0.166230  0.201310  0.434920  1.0  -0.2752
  N  N1609  1  0.285270  0.682990  0.538060  1.0  -0.2262
  N  N1610  1  0.312110  0.706780  0.538060  1.0  -0.0453
  N  N1611  1  0.333770  0.701310  0.565080  1.0  -0.2755
  N  N1612  1  0.285270  0.182990  0.038060  1.0  -0.2262
  N  N1613  1  0.312110  0.206780  0.038060  1.0  -0.0453
  N  N1614  1  0.333770  0.201310  0.065080  1.0  -0.2755
  N  N1615  1  0.785270  0.682990  0.038060  1.0  -0.2262
  N  N1616  1  0.812110  0.706780  0.038060  1.0  -0.0453
  N  N1617  1  0.833770  0.701310  0.065080  1.0  -0.2755
  N  N1618  1  0.785270  0.182990  0.538060  1.0  -0.2262
  N  N1619  1  0.812110  0.206780  0.538060  1.0  -0.0453
  N  N1620  1  0.833770  0.201310  0.565080  1.0  -0.2755
  N  N1621  1  0.285270  0.317010  0.461940  1.0  -0.2261
  N  N1622  1  0.312110  0.293220  0.461940  1.0  -0.046
  N  N1623  1  0.333770  0.298690  0.434920  1.0  -0.2757
  N  N1624  1  0.285270  0.817010  0.961940  1.0  -0.2261
  N  N1625  1  0.312110  0.793220  0.961940  1.0  -0.046
  N  N1626  1  0.333770  0.798690  0.934920  1.0  -0.2757
  N  N1627  1  0.785270  0.317010  0.961940  1.0  -0.2261
  N  N1628  1  0.812110  0.293220  0.961940  1.0  -0.046
  N  N1629  1  0.833770  0.298690  0.934920  1.0  -0.2757
  N  N1630  1  0.785270  0.817010  0.461940  1.0  -0.2261
  N  N1631  1  0.812110  0.793220  0.461940  1.0  -0.046
  N  N1632  1  0.833770  0.798690  0.434920  1.0  -0.2757
  N  N1633  1  0.538060  0.714730  0.317010  1.0  -0.2258
  N  N1634  1  0.538060  0.687890  0.293220  1.0  -0.0452
  N  N1635  1  0.565080  0.666230  0.298690  1.0  -0.2712
  N  N1636  1  0.538060  0.214730  0.817010  1.0  -0.2258
  N  N1637  1  0.538060  0.187890  0.793220  1.0  -0.0452
  N  N1638  1  0.565080  0.166230  0.798690  1.0  -0.2712
  N  N1639  1  0.038060  0.714730  0.817010  1.0  -0.2258
  N  N1640  1  0.038060  0.687890  0.793220  1.0  -0.0452
  N  N1641  1  0.065080  0.666230  0.798690  1.0  -0.2712
  N  N1642  1  0.038060  0.214730  0.317010  1.0  -0.2258
  N  N1643  1  0.038060  0.187890  0.293220  1.0  -0.0452
  N  N1644  1  0.065080  0.166230  0.298690  1.0  -0.2712
  N  N1645  1  0.461940  0.714730  0.682990  1.0  -0.2251
  N  N1646  1  0.461940  0.687890  0.706780  1.0  -0.0447
  N  N1647  1  0.434920  0.666230  0.701310  1.0  -0.2716
  N  N1648  1  0.461940  0.214730  0.182990  1.0  -0.2251
  N  N1649  1  0.461940  0.187890  0.206780  1.0  -0.0447
  N  N1650  1  0.434920  0.166230  0.201310  1.0  -0.2716
  N  N1651  1  0.961940  0.714730  0.182990  1.0  -0.2251
  N  N1652  1  0.961940  0.687890  0.206780  1.0  -0.0447
  N  N1653  1  0.934920  0.666230  0.201310  1.0  -0.2716
  N  N1654  1  0.961940  0.214730  0.682990  1.0  -0.2251
  N  N1655  1  0.961940  0.187890  0.706780  1.0  -0.0447
  N  N1656  1  0.934920  0.166230  0.701310  1.0  -0.2716
  N  N1657  1  0.538060  0.285270  0.682990  1.0  -0.2258
  N  N1658  1  0.538060  0.312110  0.706780  1.0  -0.0455
  N  N1659  1  0.565080  0.333770  0.701310  1.0  -0.2706
  N  N1660  1  0.538060  0.785270  0.182990  1.0  -0.2258
  N  N1661  1  0.538060  0.812110  0.206780  1.0  -0.0455
  N  N1662  1  0.565080  0.833770  0.201310  1.0  -0.2706
  N  N1663  1  0.038060  0.285270  0.182990  1.0  -0.2258
  N  N1664  1  0.038060  0.312110  0.206780  1.0  -0.0455
  N  N1665  1  0.065080  0.333770  0.201310  1.0  -0.2706
  N  N1666  1  0.038060  0.785270  0.682990  1.0  -0.2258
  N  N1667  1  0.038060  0.812110  0.706780  1.0  -0.0455
  N  N1668  1  0.065080  0.833770  0.701310  1.0  -0.2706
  N  N1669  1  0.461940  0.285270  0.317010  1.0  -0.2251
  N  N1670  1  0.461940  0.312110  0.293220  1.0  -0.0442
  N  N1671  1  0.434920  0.333770  0.298690  1.0  -0.2711
  N  N1672  1  0.461940  0.785270  0.817010  1.0  -0.2251
  N  N1673  1  0.461940  0.812110  0.793220  1.0  -0.0442
  N  N1674  1  0.434920  0.833770  0.798690  1.0  -0.2711
  N  N1675  1  0.961940  0.285270  0.817010  1.0  -0.2251
  N  N1676  1  0.961940  0.312110  0.793220  1.0  -0.0442
  N  N1677  1  0.934920  0.333770  0.798690  1.0  -0.2711
  N  N1678  1  0.961940  0.785270  0.317010  1.0  -0.2251
  N  N1679  1  0.961940  0.812110  0.293220  1.0  -0.0442
  N  N1680  1  0.934920  0.833770  0.298690  1.0  -0.2711
  N  N1681  1  0.038060  0.817010  0.785270  1.0  -0.2261
  N  N1682  1  0.038060  0.793220  0.812110  1.0  -0.0446
  N  N1683  1  0.065080  0.798690  0.833770  1.0  -0.2731
  N  N1684  1  0.038060  0.317010  0.285270  1.0  -0.2261
  N  N1685  1  0.038060  0.293220  0.312110  1.0  -0.0446
  N  N1686  1  0.065080  0.298690  0.333770  1.0  -0.2731
  N  N1687  1  0.538060  0.817010  0.285270  1.0  -0.2261
  N  N1688  1  0.538060  0.793220  0.312110  1.0  -0.0446
  N  N1689  1  0.565080  0.798690  0.333770  1.0  -0.2731
  N  N1690  1  0.538060  0.317010  0.785270  1.0  -0.2261
  N  N1691  1  0.538060  0.293220  0.812110  1.0  -0.0446
  N  N1692  1  0.565080  0.298690  0.833770  1.0  -0.2731
  N  N1693  1  0.961940  0.182990  0.785270  1.0  -0.2257
  N  N1694  1  0.961940  0.206780  0.812110  1.0  -0.0439
  N  N1695  1  0.934920  0.201310  0.833770  1.0  -0.2723
  N  N1696  1  0.961940  0.682990  0.285270  1.0  -0.2257
  N  N1697  1  0.961940  0.706780  0.312110  1.0  -0.0439
  N  N1698  1  0.934920  0.701310  0.333770  1.0  -0.2723
  N  N1699  1  0.461940  0.182990  0.285270  1.0  -0.2257
  N  N1700  1  0.461940  0.206780  0.312110  1.0  -0.0439
  N  N1701  1  0.434920  0.201310  0.333770  1.0  -0.2723
  N  N1702  1  0.461940  0.682990  0.785270  1.0  -0.2257
  N  N1703  1  0.461940  0.706780  0.812110  1.0  -0.0439
  N  N1704  1  0.434920  0.701310  0.833770  1.0  -0.2723
  N  N1705  1  0.038060  0.182990  0.214730  1.0  -0.2264
  N  N1706  1  0.038060  0.206780  0.187890  1.0  -0.0445
  N  N1707  1  0.065080  0.201310  0.166230  1.0  -0.2724
  N  N1708  1  0.038060  0.682990  0.714730  1.0  -0.2264
  N  N1709  1  0.038060  0.706780  0.687890  1.0  -0.0445
  N  N1710  1  0.065080  0.701310  0.666230  1.0  -0.2724
  N  N1711  1  0.538060  0.182990  0.714730  1.0  -0.2264
  N  N1712  1  0.538060  0.206780  0.687890  1.0  -0.0445
  N  N1713  1  0.565080  0.201310  0.666230  1.0  -0.2724
  N  N1714  1  0.538060  0.682990  0.214730  1.0  -0.2264
  N  N1715  1  0.538060  0.706780  0.187890  1.0  -0.0445
  N  N1716  1  0.565080  0.701310  0.166230  1.0  -0.2724
  N  N1717  1  0.961940  0.817010  0.214730  1.0  -0.2255
  N  N1718  1  0.961940  0.793220  0.187890  1.0  -0.0446
  N  N1719  1  0.934920  0.798690  0.166230  1.0  -0.2721
  N  N1720  1  0.961940  0.317010  0.714730  1.0  -0.2255
  N  N1721  1  0.961940  0.293220  0.687890  1.0  -0.0446
  N  N1722  1  0.934920  0.298690  0.666230  1.0  -0.2721
  N  N1723  1  0.461940  0.817010  0.714730  1.0  -0.2255
  N  N1724  1  0.461940  0.793220  0.687890  1.0  -0.0446
  N  N1725  1  0.434920  0.798690  0.666230  1.0  -0.2721
  N  N1726  1  0.461940  0.317010  0.214730  1.0  -0.2255
  N  N1727  1  0.461940  0.293220  0.187890  1.0  -0.0446
  N  N1728  1  0.434920  0.298690  0.166230  1.0  -0.2721
  N  N1729  1  0.817010  0.214730  0.961940  1.0  -0.2252
  N  N1730  1  0.793220  0.187890  0.961940  1.0  -0.0454
  N  N1731  1  0.798690  0.166230  0.934920  1.0  -0.2739
  N  N1732  1  0.817010  0.714730  0.461940  1.0  -0.2252
  N  N1733  1  0.793220  0.687890  0.461940  1.0  -0.0454
  N  N1734  1  0.798690  0.666230  0.434920  1.0  -0.2739
  N  N1735  1  0.317010  0.214730  0.461940  1.0  -0.2252
  N  N1736  1  0.293220  0.187890  0.461940  1.0  -0.0454
  N  N1737  1  0.298690  0.166230  0.434920  1.0  -0.2739
  N  N1738  1  0.317010  0.714730  0.961940  1.0  -0.2252
  N  N1739  1  0.293220  0.687890  0.961940  1.0  -0.0454
  N  N1740  1  0.298690  0.666230  0.934920  1.0  -0.2739
  N  N1741  1  0.182990  0.214730  0.038060  1.0  -0.2249
  N  N1742  1  0.206780  0.187890  0.038060  1.0  -0.0449
  N  N1743  1  0.201310  0.166230  0.065080  1.0  -0.2723
  N  N1744  1  0.182990  0.714730  0.538060  1.0  -0.2249
  N  N1745  1  0.206780  0.687890  0.538060  1.0  -0.0449
  N  N1746  1  0.201310  0.666230  0.565080  1.0  -0.2723
  N  N1747  1  0.682990  0.214730  0.538060  1.0  -0.2249
  N  N1748  1  0.706780  0.187890  0.538060  1.0  -0.0449
  N  N1749  1  0.701310  0.166230  0.565080  1.0  -0.2723
  N  N1750  1  0.682990  0.714730  0.038060  1.0  -0.2249
  N  N1751  1  0.706780  0.687890  0.038060  1.0  -0.0449
  N  N1752  1  0.701310  0.666230  0.065080  1.0  -0.2723
  N  N1753  1  0.182990  0.785270  0.961940  1.0  -0.2248
  N  N1754  1  0.206780  0.812110  0.961940  1.0  -0.0454
  N  N1755  1  0.201310  0.833770  0.934920  1.0  -0.2727
  N  N1756  1  0.182990  0.285270  0.461940  1.0  -0.2248
  N  N1757  1  0.206780  0.312110  0.461940  1.0  -0.0454
  N  N1758  1  0.201310  0.333770  0.434920  1.0  -0.2727
  N  N1759  1  0.682990  0.785270  0.461940  1.0  -0.2248
  N  N1760  1  0.706780  0.812110  0.461940  1.0  -0.0454
  N  N1761  1  0.701310  0.833770  0.434920  1.0  -0.2727
  N  N1762  1  0.682990  0.285270  0.961940  1.0  -0.2248
  N  N1763  1  0.706780  0.312110  0.961940  1.0  -0.0454
  N  N1764  1  0.701310  0.333770  0.934920  1.0  -0.2727
  N  N1765  1  0.817010  0.785270  0.038060  1.0  -0.2257
  N  N1766  1  0.793220  0.812110  0.038060  1.0  -0.0446
  N  N1767  1  0.798690  0.833770  0.065080  1.0  -0.273
  N  N1768  1  0.817010  0.285270  0.538060  1.0  -0.2257
  N  N1769  1  0.793220  0.312110  0.538060  1.0  -0.0446
  N  N1770  1  0.798690  0.333770  0.565080  1.0  -0.273
  N  N1771  1  0.317010  0.785270  0.538060  1.0  -0.2257
  N  N1772  1  0.293220  0.812110  0.538060  1.0  -0.0446
  N  N1773  1  0.298690  0.833770  0.565080  1.0  -0.273
  N  N1774  1  0.317010  0.285270  0.038060  1.0  -0.2257
  N  N1775  1  0.293220  0.312110  0.038060  1.0  -0.0446
  N  N1776  1  0.298690  0.333770  0.065080  1.0  -0.273
  N  N1777  1  0.214730  0.038060  0.182990  1.0  -0.2249
  N  N1778  1  0.187890  0.038060  0.206780  1.0  -0.0448
  N  N1779  1  0.166230  0.065080  0.201310  1.0  -0.2737
  N  N1780  1  0.214730  0.538060  0.682990  1.0  -0.2249
  N  N1781  1  0.187890  0.538060  0.706780  1.0  -0.0448
  N  N1782  1  0.166230  0.565080  0.701310  1.0  -0.2737
  N  N1783  1  0.714730  0.038060  0.682990  1.0  -0.2249
  N  N1784  1  0.687890  0.038060  0.706780  1.0  -0.0448
  N  N1785  1  0.666230  0.065080  0.701310  1.0  -0.2737
  N  N1786  1  0.714730  0.538060  0.182990  1.0  -0.2249
  N  N1787  1  0.687890  0.538060  0.206780  1.0  -0.0448
  N  N1788  1  0.666230  0.565080  0.201310  1.0  -0.2737
  N  N1789  1  0.214730  0.961940  0.817010  1.0  -0.2249
  N  N1790  1  0.187890  0.961940  0.793220  1.0  -0.0437
  N  N1791  1  0.166230  0.934920  0.798690  1.0  -0.2738
  N  N1792  1  0.214730  0.461940  0.317010  1.0  -0.2249
  N  N1793  1  0.187890  0.461940  0.293220  1.0  -0.0437
  N  N1794  1  0.166230  0.434920  0.298690  1.0  -0.2738
  N  N1795  1  0.714730  0.961940  0.317010  1.0  -0.2249
  N  N1796  1  0.687890  0.961940  0.293220  1.0  -0.0437
  N  N1797  1  0.666230  0.934920  0.298690  1.0  -0.2738
  N  N1798  1  0.714730  0.461940  0.817010  1.0  -0.2249
  N  N1799  1  0.687890  0.461940  0.793220  1.0  -0.0437
  N  N1800  1  0.666230  0.434920  0.798690  1.0  -0.2738
  N  N1801  1  0.785270  0.038060  0.817010  1.0  -0.226
  N  N1802  1  0.812110  0.038060  0.793220  1.0  -0.0455
  N  N1803  1  0.833770  0.065080  0.798690  1.0  -0.2743
  N  N1804  1  0.785270  0.538060  0.317010  1.0  -0.226
  N  N1805  1  0.812110  0.538060  0.293220  1.0  -0.0455
  N  N1806  1  0.833770  0.565080  0.298690  1.0  -0.2743
  N  N1807  1  0.285270  0.038060  0.317010  1.0  -0.226
  N  N1808  1  0.312110  0.038060  0.293220  1.0  -0.0455
  N  N1809  1  0.333770  0.065080  0.298690  1.0  -0.2743
  N  N1810  1  0.285270  0.538060  0.817010  1.0  -0.226
  N  N1811  1  0.312110  0.538060  0.793220  1.0  -0.0455
  N  N1812  1  0.333770  0.565080  0.798690  1.0  -0.2743
  N  N1813  1  0.785270  0.961940  0.182990  1.0  -0.2257
  N  N1814  1  0.812110  0.961940  0.206780  1.0  -0.0452
  N  N1815  1  0.833770  0.934920  0.201310  1.0  -0.2739
  N  N1816  1  0.785270  0.461940  0.682990  1.0  -0.2257
  N  N1817  1  0.812110  0.461940  0.706780  1.0  -0.0452
  N  N1818  1  0.833770  0.434920  0.701310  1.0  -0.2739
  N  N1819  1  0.285270  0.961940  0.682990  1.0  -0.2257
  N  N1820  1  0.312110  0.961940  0.706780  1.0  -0.0452
  N  N1821  1  0.333770  0.934920  0.701310  1.0  -0.2739
  N  N1822  1  0.285270  0.461940  0.182990  1.0  -0.2257
  N  N1823  1  0.312110  0.461940  0.206780  1.0  -0.0452
  N  N1824  1  0.333770  0.434920  0.201310  1.0  -0.2739
  Cl  Cl1825  1  0.750000  0.500000  0.250000  1.0  -0.2227
  Cl  Cl1826  1  0.250000  0.500000  0.250000  1.0  -0.2227
  Cl  Cl1827  1  0.250000  0.500000  0.750000  1.0  -0.2227
  Cl  Cl1828  1  0.750000  0.500000  0.750000  1.0  -0.2227
  Cl  Cl1829  1  0.250000  0.750000  0.500000  1.0  -0.2227
  Cl  Cl1830  1  0.250000  0.250000  0.500000  1.0  -0.2227
  Cl  Cl1831  1  0.750000  0.250000  0.500000  1.0  -0.2227
  Cl  Cl1832  1  0.750000  0.750000  0.500000  1.0  -0.2227
  Cl  Cl1833  1  0.500000  0.250000  0.750000  1.0  -0.2227
  Cl  Cl1834  1  0.500000  0.250000  0.250000  1.0  -0.2227
  Cl  Cl1835  1  0.500000  0.750000  0.250000  1.0  -0.2227
  Cl  Cl1836  1  0.500000  0.750000  0.750000  1.0  -0.2227
  Cl  Cl1837  1  0.000000  0.250000  0.250000  1.0  -0.2227
  Cl  Cl1838  1  0.000000  0.750000  0.250000  1.0  -0.2227
  Cl  Cl1839  1  0.000000  0.750000  0.750000  1.0  -0.2227
  Cl  Cl1840  1  0.000000  0.250000  0.750000  1.0  -0.2227
  Cl  Cl1841  1  0.250000  0.750000  0.000000  1.0  -0.2227
  Cl  Cl1842  1  0.750000  0.750000  0.000000  1.0  -0.2227
  Cl  Cl1843  1  0.750000  0.250000  0.000000  1.0  -0.2227
  Cl  Cl1844  1  0.250000  0.250000  0.000000  1.0  -0.2227
  Cl  Cl1845  1  0.750000  0.000000  0.750000  1.0  -0.2227
  Cl  Cl1846  1  0.750000  0.000000  0.250000  1.0  -0.2227
  Cl  Cl1847  1  0.250000  0.000000  0.250000  1.0  -0.2227
  Cl  Cl1848  1  0.250000  0.000000  0.750000  1.0  -0.2227
