# generated using pymatgen
data_CuH8(C5N3)2
_symmetry_space_group_name_H-M   'P 1'
_cell_length_a   35.10440000
_cell_length_b   35.10440000
_cell_length_c   11.73520000
_cell_angle_alpha   90.00000000
_cell_angle_beta   90.00000000
_cell_angle_gamma   90.00000000
_symmetry_Int_Tables_number   1
_chemical_formula_structural   CuH8(C5N3)2
_chemical_formula_sum   'Cu32 H256 C320 N192'
_cell_volume   14461.50874777
_cell_formula_units_Z   32
loop_
 _symmetry_equiv_pos_site_id
 _symmetry_equiv_pos_as_xyz
  1  'x, y, z'
loop_
 _atom_site_type_symbol
 _atom_site_label
 _atom_site_symmetry_multiplicity
 _atom_site_fract_x
 _atom_site_fract_y
 _atom_site_fract_z
 _atom_site_occupancy
 _atom_site_charge
  Cu  Cu1  1  0.969050  0.708420  0.472600  1.0  0.3783
  Cu  Cu2  1  0.786270  0.511520  0.244100  1.0  0.3528
  Cu  Cu3  1  0.469050  0.208420  0.972600  1.0  0.3783
  Cu  Cu4  1  0.286270  0.011520  0.744100  1.0  0.3528
  Cu  Cu5  1  0.530950  0.291580  0.972600  1.0  0.3787
  Cu  Cu6  1  0.713730  0.488480  0.744100  1.0  0.3538
  Cu  Cu7  1  0.030950  0.791580  0.472600  1.0  0.3787
  Cu  Cu8  1  0.213730  0.988480  0.244100  1.0  0.3538
  Cu  Cu9  1  0.041580  0.219050  0.722600  1.0  0.3781
  Cu  Cu10  1  0.238480  0.036270  0.494100  1.0  0.3548
  Cu  Cu11  1  0.541580  0.719050  0.222600  1.0  0.3781
  Cu  Cu12  1  0.738480  0.536270  0.994100  1.0  0.3548
  Cu  Cu13  1  0.458420  0.780950  0.222600  1.0  0.378
  Cu  Cu14  1  0.261520  0.963730  0.994100  1.0  0.3537
  Cu  Cu15  1  0.958420  0.280950  0.722600  1.0  0.378
  Cu  Cu16  1  0.761520  0.463730  0.494100  1.0  0.3537
  Cu  Cu17  1  0.030950  0.291580  0.527400  1.0  0.3787
  Cu  Cu18  1  0.213730  0.488480  0.755900  1.0  0.3537
  Cu  Cu19  1  0.530950  0.791580  0.027400  1.0  0.3787
  Cu  Cu20  1  0.713730  0.988480  0.255900  1.0  0.3537
  Cu  Cu21  1  0.469050  0.708420  0.027400  1.0  0.3782
  Cu  Cu22  1  0.286270  0.511520  0.255900  1.0  0.3527
  Cu  Cu23  1  0.969050  0.208420  0.527400  1.0  0.3782
  Cu  Cu24  1  0.786270  0.011520  0.755900  1.0  0.3527
  Cu  Cu25  1  0.958420  0.780950  0.277400  1.0  0.378
  Cu  Cu26  1  0.761520  0.963730  0.505900  1.0  0.3536
  Cu  Cu27  1  0.458420  0.280950  0.777400  1.0  0.378
  Cu  Cu28  1  0.261520  0.463730  0.005900  1.0  0.3536
  Cu  Cu29  1  0.541580  0.219050  0.777400  1.0  0.3781
  Cu  Cu30  1  0.738480  0.036270  0.005900  1.0  0.3548
  Cu  Cu31  1  0.041580  0.719050  0.277400  1.0  0.3781
  Cu  Cu32  1  0.238480  0.536270  0.505900  1.0  0.3548
  H  H33  1  0.884800  0.588600  0.830900  1.0  0.0868
  H  H34  1  0.933400  0.632200  0.785800  1.0  0.1179
  H  H35  1  0.958000  0.670500  0.938100  1.0  0.0825
  H  H36  1  0.883800  0.622500  0.158200  1.0  0.1008
  H  H37  1  0.943600  0.727200  0.071700  1.0  0.0857
  H  H38  1  0.937200  0.644200  0.289600  1.0  0.0793
  H  H39  1  0.813800  0.582400  0.889500  1.0  0.081
  H  H40  1  0.862300  0.556800  0.181000  1.0  0.0825
  H  H41  1  0.857300  0.619400  0.569100  1.0  0.0993
  H  H42  1  0.748500  0.614200  0.654700  1.0  0.0764
  H  H43  1  0.756400  0.667200  0.775800  1.0  0.0938
  H  H44  1  0.811500  0.704500  0.748000  1.0  0.0937
  H  H45  1  0.879000  0.713500  0.800800  1.0  0.0803
  H  H46  1  0.891900  0.675400  0.492200  1.0  0.078
  H  H47  1  0.822700  0.586500  0.389500  1.0  0.0697
  H  H48  1  0.770300  0.540400  0.645700  1.0  0.0609
  H  H49  1  0.384800  0.088600  0.330900  1.0  0.0868
  H  H50  1  0.433400  0.132200  0.285800  1.0  0.1179
  H  H51  1  0.458000  0.170500  0.438100  1.0  0.0825
  H  H52  1  0.383800  0.122500  0.658200  1.0  0.1008
  H  H53  1  0.443600  0.227200  0.571700  1.0  0.0857
  H  H54  1  0.437200  0.144200  0.789600  1.0  0.0793
  H  H55  1  0.313800  0.082400  0.389500  1.0  0.081
  H  H56  1  0.362300  0.056800  0.681000  1.0  0.0825
  H  H57  1  0.357300  0.119400  0.069100  1.0  0.0993
  H  H58  1  0.248500  0.114200  0.154700  1.0  0.0764
  H  H59  1  0.256400  0.167200  0.275800  1.0  0.0938
  H  H60  1  0.311500  0.204500  0.248000  1.0  0.0937
  H  H61  1  0.379000  0.213500  0.300800  1.0  0.0803
  H  H62  1  0.391900  0.175400  0.992200  1.0  0.078
  H  H63  1  0.322700  0.086500  0.889500  1.0  0.0697
  H  H64  1  0.270300  0.040400  0.145700  1.0  0.0609
  H  H65  1  0.615200  0.411400  0.330900  1.0  0.086
  H  H66  1  0.566600  0.367800  0.285800  1.0  0.118
  H  H67  1  0.542000  0.329500  0.438100  1.0  0.0822
  H  H68  1  0.616200  0.377500  0.658200  1.0  0.1007
  H  H69  1  0.556400  0.272800  0.571700  1.0  0.0851
  H  H70  1  0.562800  0.355800  0.789600  1.0  0.08
  H  H71  1  0.686200  0.417600  0.389500  1.0  0.081
  H  H72  1  0.637700  0.443200  0.681000  1.0  0.0837
  H  H73  1  0.642700  0.380600  0.069100  1.0  0.1
  H  H74  1  0.751500  0.385800  0.154700  1.0  0.0766
  H  H75  1  0.743600  0.332800  0.275800  1.0  0.0939
  H  H76  1  0.688500  0.295500  0.248000  1.0  0.0931
  H  H77  1  0.621000  0.286500  0.300800  1.0  0.0799
  H  H78  1  0.608100  0.324600  0.992200  1.0  0.078
  H  H79  1  0.677300  0.413500  0.889500  1.0  0.0703
  H  H80  1  0.729700  0.459600  0.145700  1.0  0.0612
  H  H81  1  0.115200  0.911400  0.830900  1.0  0.086
  H  H82  1  0.066600  0.867800  0.785800  1.0  0.118
  H  H83  1  0.042000  0.829500  0.938100  1.0  0.0822
  H  H84  1  0.116200  0.877500  0.158200  1.0  0.1007
  H  H85  1  0.056400  0.772800  0.071700  1.0  0.0851
  H  H86  1  0.062800  0.855800  0.289600  1.0  0.08
  H  H87  1  0.186200  0.917600  0.889500  1.0  0.081
  H  H88  1  0.137700  0.943200  0.181000  1.0  0.0837
  H  H89  1  0.142700  0.880600  0.569100  1.0  0.1
  H  H90  1  0.251500  0.885800  0.654700  1.0  0.0766
  H  H91  1  0.243600  0.832800  0.775800  1.0  0.0939
  H  H92  1  0.188500  0.795500  0.748000  1.0  0.0931
  H  H93  1  0.121000  0.786500  0.800800  1.0  0.0799
  H  H94  1  0.108100  0.824600  0.492200  1.0  0.078
  H  H95  1  0.177300  0.913500  0.389500  1.0  0.0703
  H  H96  1  0.229700  0.959600  0.645700  1.0  0.0612
  H  H97  1  0.161400  0.134800  0.080900  1.0  0.0859
  H  H98  1  0.117800  0.183400  0.035800  1.0  0.118
  H  H99  1  0.079500  0.208000  0.188100  1.0  0.0829
  H  H100  1  0.127500  0.133800  0.408200  1.0  0.1002
  H  H101  1  0.022800  0.193600  0.321700  1.0  0.0841
  H  H102  1  0.105800  0.187200  0.539600  1.0  0.0784
  H  H103  1  0.167600  0.063800  0.139500  1.0  0.0809
  H  H104  1  0.193200  0.112300  0.431000  1.0  0.0835
  H  H105  1  0.130600  0.107300  0.819100  1.0  0.0997
  H  H106  1  0.135800  0.998500  0.904700  1.0  0.0772
  H  H107  1  0.082800  0.006400  0.025800  1.0  0.0933
  H  H108  1  0.045500  0.061500  0.998000  1.0  0.0928
  H  H109  1  0.036500  0.129000  0.050800  1.0  0.0804
  H  H110  1  0.074600  0.141900  0.742200  1.0  0.0787
  H  H111  1  0.163500  0.072700  0.639500  1.0  0.0703
  H  H112  1  0.209600  0.020300  0.895700  1.0  0.0605
  H  H113  1  0.661400  0.634800  0.580900  1.0  0.0859
  H  H114  1  0.617800  0.683400  0.535800  1.0  0.118
  H  H115  1  0.579500  0.708000  0.688100  1.0  0.0829
  H  H116  1  0.627500  0.633800  0.908200  1.0  0.1002
  H  H117  1  0.522800  0.693600  0.821700  1.0  0.0841
  H  H118  1  0.605800  0.687200  0.039600  1.0  0.0784
  H  H119  1  0.667600  0.563800  0.639500  1.0  0.0809
  H  H120  1  0.693200  0.612300  0.931000  1.0  0.0835
  H  H121  1  0.630600  0.607300  0.319100  1.0  0.0997
  H  H122  1  0.635800  0.498500  0.404700  1.0  0.0772
  H  H123  1  0.582800  0.506400  0.525800  1.0  0.0933
  H  H124  1  0.545500  0.561500  0.498000  1.0  0.0928
  H  H125  1  0.536500  0.629000  0.550800  1.0  0.0804
  H  H126  1  0.574600  0.641900  0.242200  1.0  0.0787
  H  H127  1  0.663500  0.572700  0.139500  1.0  0.0703
  H  H128  1  0.709600  0.520300  0.395700  1.0  0.0605
  H  H129  1  0.338600  0.865200  0.580900  1.0  0.086
  H  H130  1  0.382200  0.816600  0.535800  1.0  0.1183
  H  H131  1  0.420500  0.792000  0.688100  1.0  0.0831
  H  H132  1  0.372500  0.866200  0.908200  1.0  0.0996
  H  H133  1  0.477200  0.806400  0.821700  1.0  0.0845
  H  H134  1  0.394200  0.812800  0.039600  1.0  0.079
  H  H135  1  0.332400  0.936200  0.639500  1.0  0.081
  H  H136  1  0.306800  0.887700  0.931000  1.0  0.0837
  H  H137  1  0.369400  0.892700  0.319100  1.0  0.1005
  H  H138  1  0.364200  0.001500  0.404700  1.0  0.0775
  H  H139  1  0.417200  0.993600  0.525800  1.0  0.093
  H  H140  1  0.454500  0.938500  0.498000  1.0  0.0928
  H  H141  1  0.463500  0.871000  0.550800  1.0  0.0804
  H  H142  1  0.425400  0.858100  0.242200  1.0  0.0787
  H  H143  1  0.336500  0.927300  0.139500  1.0  0.0699
  H  H144  1  0.290400  0.979700  0.395700  1.0  0.0603
  H  H145  1  0.838600  0.365200  0.080900  1.0  0.086
  H  H146  1  0.882200  0.316600  0.035800  1.0  0.1183
  H  H147  1  0.920500  0.292000  0.188100  1.0  0.0831
  H  H148  1  0.872500  0.366200  0.408200  1.0  0.0996
  H  H149  1  0.977200  0.306400  0.321700  1.0  0.0845
  H  H150  1  0.894200  0.312800  0.539600  1.0  0.079
  H  H151  1  0.832400  0.436200  0.139500  1.0  0.081
  H  H152  1  0.806800  0.387700  0.431000  1.0  0.0837
  H  H153  1  0.869400  0.392700  0.819100  1.0  0.1005
  H  H154  1  0.864200  0.501500  0.904700  1.0  0.0775
  H  H155  1  0.917200  0.493600  0.025800  1.0  0.093
  H  H156  1  0.954500  0.438500  0.998000  1.0  0.0928
  H  H157  1  0.963500  0.371000  0.050800  1.0  0.0804
  H  H158  1  0.925400  0.358100  0.742200  1.0  0.0787
  H  H159  1  0.836500  0.427300  0.639500  1.0  0.0699
  H  H160  1  0.790400  0.479700  0.895700  1.0  0.0603
  H  H161  1  0.115200  0.411400  0.169100  1.0  0.0864
  H  H162  1  0.066600  0.367800  0.214200  1.0  0.1181
  H  H163  1  0.042000  0.329500  0.061900  1.0  0.0828
  H  H164  1  0.116200  0.377500  0.841800  1.0  0.1013
  H  H165  1  0.056400  0.272800  0.928300  1.0  0.0854
  H  H166  1  0.062800  0.355800  0.710400  1.0  0.0799
  H  H167  1  0.186200  0.417600  0.110500  1.0  0.0807
  H  H168  1  0.137700  0.443200  0.819000  1.0  0.0832
  H  H169  1  0.142700  0.380600  0.430900  1.0  0.1002
  H  H170  1  0.251500  0.385800  0.345300  1.0  0.0768
  H  H171  1  0.243600  0.332800  0.224200  1.0  0.0938
  H  H172  1  0.188500  0.295500  0.252000  1.0  0.0933
  H  H173  1  0.121000  0.286500  0.199200  1.0  0.0807
  H  H174  1  0.108100  0.324600  0.507800  1.0  0.0793
  H  H175  1  0.177300  0.413500  0.610500  1.0  0.0705
  H  H176  1  0.229700  0.459600  0.354300  1.0  0.0613
  H  H177  1  0.615200  0.911400  0.669100  1.0  0.0864
  H  H178  1  0.566600  0.867800  0.714200  1.0  0.1181
  H  H179  1  0.542000  0.829500  0.561900  1.0  0.0828
  H  H180  1  0.616200  0.877500  0.341800  1.0  0.1013
  H  H181  1  0.556400  0.772800  0.428300  1.0  0.0854
  H  H182  1  0.562800  0.855800  0.210400  1.0  0.0799
  H  H183  1  0.686200  0.917600  0.610500  1.0  0.0807
  H  H184  1  0.637700  0.943200  0.319000  1.0  0.0832
  H  H185  1  0.642700  0.880600  0.930900  1.0  0.1002
  H  H186  1  0.751500  0.885800  0.845300  1.0  0.0768
  H  H187  1  0.743600  0.832800  0.724200  1.0  0.0938
  H  H188  1  0.688500  0.795500  0.752000  1.0  0.0933
  H  H189  1  0.621000  0.786500  0.699200  1.0  0.0807
  H  H190  1  0.608100  0.824600  0.007800  1.0  0.0793
  H  H191  1  0.677300  0.913500  0.110500  1.0  0.0705
  H  H192  1  0.729700  0.959600  0.854300  1.0  0.0613
  H  H193  1  0.384800  0.588600  0.669100  1.0  0.0868
  H  H194  1  0.433400  0.632200  0.714200  1.0  0.1171
  H  H195  1  0.458000  0.670500  0.561900  1.0  0.0826
  H  H196  1  0.383800  0.622500  0.341800  1.0  0.1013
  H  H197  1  0.443600  0.727200  0.428300  1.0  0.0859
  H  H198  1  0.437200  0.644200  0.210400  1.0  0.0789
  H  H199  1  0.313800  0.582400  0.610500  1.0  0.0806
  H  H200  1  0.362300  0.556800  0.319000  1.0  0.0822
  H  H201  1  0.357300  0.619400  0.930900  1.0  0.0994
  H  H202  1  0.248500  0.614200  0.845300  1.0  0.0765
  H  H203  1  0.256400  0.667200  0.724200  1.0  0.0942
  H  H204  1  0.311500  0.704500  0.752000  1.0  0.0936
  H  H205  1  0.379000  0.713500  0.699200  1.0  0.0805
  H  H206  1  0.391900  0.675400  0.007800  1.0  0.0796
  H  H207  1  0.322700  0.586500  0.110500  1.0  0.0698
  H  H208  1  0.270300  0.540400  0.854300  1.0  0.0611
  H  H209  1  0.884800  0.088600  0.169100  1.0  0.0868
  H  H210  1  0.933400  0.132200  0.214200  1.0  0.1171
  H  H211  1  0.958000  0.170500  0.061900  1.0  0.0826
  H  H212  1  0.883800  0.122500  0.841800  1.0  0.1013
  H  H213  1  0.943600  0.227200  0.928300  1.0  0.0859
  H  H214  1  0.937200  0.144200  0.710400  1.0  0.0789
  H  H215  1  0.813800  0.082400  0.110500  1.0  0.0806
  H  H216  1  0.862300  0.056800  0.819000  1.0  0.0822
  H  H217  1  0.857300  0.119400  0.430900  1.0  0.0994
  H  H218  1  0.748500  0.114200  0.345300  1.0  0.0765
  H  H219  1  0.756400  0.167200  0.224200  1.0  0.0942
  H  H220  1  0.811500  0.204500  0.252000  1.0  0.0936
  H  H221  1  0.879000  0.213500  0.199200  1.0  0.0805
  H  H222  1  0.891900  0.175400  0.507800  1.0  0.0796
  H  H223  1  0.822700  0.086500  0.610500  1.0  0.0698
  H  H224  1  0.770300  0.040400  0.354300  1.0  0.0611
  H  H225  1  0.838600  0.865200  0.919100  1.0  0.0862
  H  H226  1  0.882200  0.816600  0.964200  1.0  0.1182
  H  H227  1  0.920500  0.792000  0.811900  1.0  0.0835
  H  H228  1  0.872500  0.866200  0.591800  1.0  0.1004
  H  H229  1  0.977200  0.806400  0.678300  1.0  0.0847
  H  H230  1  0.894200  0.812800  0.460400  1.0  0.0788
  H  H231  1  0.832400  0.936200  0.860500  1.0  0.0807
  H  H232  1  0.806800  0.887700  0.569000  1.0  0.0834
  H  H233  1  0.869400  0.892700  0.180900  1.0  0.1009
  H  H234  1  0.864200  0.001500  0.095300  1.0  0.0771
  H  H235  1  0.917200  0.993600  0.974200  1.0  0.0936
  H  H236  1  0.954500  0.938500  0.002000  1.0  0.0931
  H  H237  1  0.963500  0.871000  0.949200  1.0  0.0813
  H  H238  1  0.925400  0.858100  0.257800  1.0  0.0801
  H  H239  1  0.836500  0.927300  0.360500  1.0  0.0701
  H  H240  1  0.790400  0.979700  0.104300  1.0  0.0603
  H  H241  1  0.338600  0.365200  0.419100  1.0  0.0862
  H  H242  1  0.382200  0.316600  0.464200  1.0  0.1182
  H  H243  1  0.420500  0.292000  0.311900  1.0  0.0835
  H  H244  1  0.372500  0.366200  0.091800  1.0  0.1004
  H  H245  1  0.477200  0.306400  0.178300  1.0  0.0847
  H  H246  1  0.394200  0.312800  0.960400  1.0  0.0788
  H  H247  1  0.332400  0.436200  0.360500  1.0  0.0807
  H  H248  1  0.306800  0.387700  0.069000  1.0  0.0834
  H  H249  1  0.369400  0.392700  0.680900  1.0  0.1009
  H  H250  1  0.364200  0.501500  0.595300  1.0  0.0771
  H  H251  1  0.417200  0.493600  0.474200  1.0  0.0936
  H  H252  1  0.454500  0.438500  0.502000  1.0  0.0931
  H  H253  1  0.463500  0.371000  0.449200  1.0  0.0813
  H  H254  1  0.425400  0.358100  0.757800  1.0  0.0801
  H  H255  1  0.336500  0.427300  0.860500  1.0  0.0701
  H  H256  1  0.290400  0.479700  0.604300  1.0  0.0603
  H  H257  1  0.661400  0.134800  0.419100  1.0  0.0863
  H  H258  1  0.617800  0.183400  0.464200  1.0  0.1172
  H  H259  1  0.579500  0.208000  0.311900  1.0  0.083
  H  H260  1  0.627500  0.133800  0.091800  1.0  0.1006
  H  H261  1  0.522800  0.193600  0.178300  1.0  0.0848
  H  H262  1  0.605800  0.187200  0.960400  1.0  0.0782
  H  H263  1  0.667600  0.063800  0.360500  1.0  0.0806
  H  H264  1  0.693200  0.112300  0.069000  1.0  0.0829
  H  H265  1  0.630600  0.107300  0.680900  1.0  0.1
  H  H266  1  0.635800  0.998500  0.595300  1.0  0.0777
  H  H267  1  0.582800  0.006400  0.474200  1.0  0.0927
  H  H268  1  0.545500  0.061500  0.502000  1.0  0.0927
  H  H269  1  0.536500  0.129000  0.449200  1.0  0.0808
  H  H270  1  0.574600  0.141900  0.757800  1.0  0.0799
  H  H271  1  0.663500  0.072700  0.860500  1.0  0.0703
  H  H272  1  0.709600  0.020300  0.604300  1.0  0.061
  H  H273  1  0.161400  0.634800  0.919100  1.0  0.0863
  H  H274  1  0.117800  0.683400  0.964200  1.0  0.1172
  H  H275  1  0.079500  0.708000  0.811900  1.0  0.083
  H  H276  1  0.127500  0.633800  0.591800  1.0  0.1006
  H  H277  1  0.022800  0.693600  0.678300  1.0  0.0848
  H  H278  1  0.105800  0.687200  0.460400  1.0  0.0782
  H  H279  1  0.167600  0.563800  0.860500  1.0  0.0806
  H  H280  1  0.193200  0.612300  0.569000  1.0  0.0829
  H  H281  1  0.130600  0.607300  0.180900  1.0  0.1
  H  H282  1  0.135800  0.498500  0.095300  1.0  0.0777
  H  H283  1  0.082800  0.506400  0.974200  1.0  0.0927
  H  H284  1  0.045500  0.561500  0.002000  1.0  0.0927
  H  H285  1  0.036500  0.629000  0.949200  1.0  0.0808
  H  H286  1  0.074600  0.641900  0.257800  1.0  0.0799
  H  H287  1  0.163500  0.572700  0.360500  1.0  0.0703
  H  H288  1  0.209600  0.520300  0.104300  1.0  0.061
  C  C289  1  0.880300  0.603100  0.999000  1.0  0.147
  C  C290  1  0.894700  0.604700  0.887000  1.0  -0.1692
  C  C291  1  0.923800  0.630300  0.859000  1.0  -0.1484
  C  C292  1  0.938100  0.653500  0.951000  1.0  -0.1927
  C  C293  1  0.921900  0.650300  0.059000  1.0  0.1263
  C  C294  1  0.893400  0.624700  0.085000  1.0  -0.1515
  C  C295  1  0.945100  0.713000  0.138000  1.0  0.1184
  C  C296  1  0.941600  0.667900  0.257000  1.0  0.1169
  C  C297  1  0.818400  0.571700  0.961000  1.0  0.1801
  C  C298  1  0.845200  0.557100  0.120000  1.0  0.1017
  C  C299  1  0.838300  0.664300  0.666000  1.0  0.1344
  C  C300  1  0.836200  0.629500  0.606400  1.0  -0.2494
  C  C301  1  0.802600  0.611700  0.606000  1.0  0.1823
  C  C302  1  0.772000  0.626100  0.661000  1.0  -0.2178
  C  C303  1  0.775800  0.659300  0.727000  1.0  -0.1361
  C  C304  1  0.809600  0.680100  0.718000  1.0  -0.1818
  C  C305  1  0.889300  0.709000  0.729000  1.0  0.1042
  C  C306  1  0.896400  0.688700  0.559000  1.0  0.1793
  C  C307  1  0.809100  0.569700  0.435000  1.0  0.1116
  C  C308  1  0.780300  0.544600  0.573000  1.0  0.1665
  C  C309  1  0.380300  0.103100  0.499000  1.0  0.147
  C  C310  1  0.394700  0.104700  0.387000  1.0  -0.1692
  C  C311  1  0.423800  0.130300  0.359000  1.0  -0.1484
  C  C312  1  0.438100  0.153500  0.451000  1.0  -0.1927
  C  C313  1  0.421900  0.150300  0.559000  1.0  0.1263
  C  C314  1  0.393400  0.124700  0.585000  1.0  -0.1515
  C  C315  1  0.445100  0.213000  0.638000  1.0  0.1184
  C  C316  1  0.441600  0.167900  0.757000  1.0  0.1169
  C  C317  1  0.318400  0.071700  0.461000  1.0  0.1801
  C  C318  1  0.345200  0.057100  0.620000  1.0  0.1017
  C  C319  1  0.338300  0.164300  0.166000  1.0  0.1344
  C  C320  1  0.336200  0.129500  0.106400  1.0  -0.2494
  C  C321  1  0.302600  0.111700  0.106000  1.0  0.1823
  C  C322  1  0.272000  0.126100  0.161000  1.0  -0.2178
  C  C323  1  0.275800  0.159300  0.227000  1.0  -0.1361
  C  C324  1  0.309600  0.180100  0.218000  1.0  -0.1818
  C  C325  1  0.389300  0.209000  0.229000  1.0  0.1042
  C  C326  1  0.396400  0.188700  0.059000  1.0  0.1793
  C  C327  1  0.309100  0.069700  0.935000  1.0  0.1116
  C  C328  1  0.280300  0.044600  0.073000  1.0  0.1665
  C  C329  1  0.619700  0.396900  0.499000  1.0  0.1478
  C  C330  1  0.605300  0.395300  0.387000  1.0  -0.17
  C  C331  1  0.576200  0.369700  0.359000  1.0  -0.1495
  C  C332  1  0.561900  0.346500  0.451000  1.0  -0.1922
  C  C333  1  0.578100  0.349700  0.559000  1.0  0.126
  C  C334  1  0.606600  0.375300  0.585000  1.0  -0.1507
  C  C335  1  0.554900  0.287000  0.638000  1.0  0.1178
  C  C336  1  0.558400  0.332100  0.757000  1.0  0.1165
  C  C337  1  0.681600  0.428300  0.461000  1.0  0.1801
  C  C338  1  0.654800  0.442900  0.620000  1.0  0.1015
  C  C339  1  0.661700  0.335700  0.166000  1.0  0.1346
  C  C340  1  0.663800  0.370500  0.106400  1.0  -0.2534
  C  C341  1  0.697400  0.388300  0.106000  1.0  0.1827
  C  C342  1  0.728000  0.373900  0.161000  1.0  -0.2157
  C  C343  1  0.724200  0.340700  0.227000  1.0  -0.1342
  C  C344  1  0.690400  0.319900  0.218000  1.0  -0.1825
  C  C345  1  0.610700  0.291000  0.229000  1.0  0.1043
  C  C346  1  0.603600  0.311300  0.059000  1.0  0.1791
  C  C347  1  0.690900  0.430300  0.935000  1.0  0.1139
  C  C348  1  0.719700  0.455400  0.073000  1.0  0.1662
  C  C349  1  0.119700  0.896900  0.999000  1.0  0.1478
  C  C350  1  0.105300  0.895300  0.887000  1.0  -0.17
  C  C351  1  0.076200  0.869700  0.859000  1.0  -0.1495
  C  C352  1  0.061900  0.846500  0.951000  1.0  -0.1922
  C  C353  1  0.078100  0.849700  0.059000  1.0  0.126
  C  C354  1  0.106600  0.875300  0.085000  1.0  -0.1507
  C  C355  1  0.054900  0.787000  0.138000  1.0  0.1178
  C  C356  1  0.058400  0.832100  0.257000  1.0  0.1165
  C  C357  1  0.181600  0.928300  0.961000  1.0  0.1801
  C  C358  1  0.154800  0.942900  0.120000  1.0  0.1015
  C  C359  1  0.161700  0.835700  0.666000  1.0  0.1346
  C  C360  1  0.163800  0.870500  0.606400  1.0  -0.2534
  C  C361  1  0.197400  0.888300  0.606000  1.0  0.1827
  C  C362  1  0.228000  0.873900  0.661000  1.0  -0.2157
  C  C363  1  0.224200  0.840700  0.727000  1.0  -0.1342
  C  C364  1  0.190400  0.819900  0.718000  1.0  -0.1825
  C  C365  1  0.110700  0.791000  0.729000  1.0  0.1043
  C  C366  1  0.103600  0.811300  0.559000  1.0  0.1791
  C  C367  1  0.190900  0.930300  0.435000  1.0  0.1139
  C  C368  1  0.219700  0.955400  0.573000  1.0  0.1662
  C  C369  1  0.146900  0.130300  0.249000  1.0  0.1472
  C  C370  1  0.145300  0.144700  0.137000  1.0  -0.1678
  C  C371  1  0.119700  0.173800  0.109000  1.0  -0.1492
  C  C372  1  0.096500  0.188100  0.201000  1.0  -0.192
  C  C373  1  0.099700  0.171900  0.309000  1.0  0.127
  C  C374  1  0.125300  0.143400  0.335000  1.0  -0.1489
  C  C375  1  0.037000  0.195100  0.388000  1.0  0.115
  C  C376  1  0.082100  0.191600  0.507000  1.0  0.1188
  C  C377  1  0.178300  0.068400  0.211000  1.0  0.1802
  C  C378  1  0.192900  0.095200  0.370000  1.0  0.1011
  C  C379  1  0.085700  0.088300  0.916000  1.0  0.1359
  C  C380  1  0.120500  0.086200  0.856400  1.0  -0.2482
  C  C381  1  0.138300  0.052600  0.856000  1.0  0.1811
  C  C382  1  0.123900  0.022000  0.911000  1.0  -0.2137
  C  C383  1  0.090700  0.025800  0.977000  1.0  -0.1359
  C  C384  1  0.069900  0.059600  0.968000  1.0  -0.1825
  C  C385  1  0.041000  0.139300  0.979000  1.0  0.1037
  C  C386  1  0.061300  0.146400  0.809000  1.0  0.1794
  C  C387  1  0.180300  0.059100  0.685000  1.0  0.1125
  C  C388  1  0.205400  0.030300  0.823000  1.0  0.1657
  C  C389  1  0.646900  0.630300  0.749000  1.0  0.1472
  C  C390  1  0.645300  0.644700  0.637000  1.0  -0.1678
  C  C391  1  0.619700  0.673800  0.609000  1.0  -0.1492
  C  C392  1  0.596500  0.688100  0.701000  1.0  -0.192
  C  C393  1  0.599700  0.671900  0.809000  1.0  0.127
  C  C394  1  0.625300  0.643400  0.835000  1.0  -0.1489
  C  C395  1  0.537000  0.695100  0.888000  1.0  0.115
  C  C396  1  0.582100  0.691600  0.007000  1.0  0.1188
  C  C397  1  0.678300  0.568400  0.711000  1.0  0.1802
  C  C398  1  0.692900  0.595200  0.870000  1.0  0.1011
  C  C399  1  0.585700  0.588300  0.416000  1.0  0.1359
  C  C400  1  0.620500  0.586200  0.356400  1.0  -0.2482
  C  C401  1  0.638300  0.552600  0.356000  1.0  0.1811
  C  C402  1  0.623900  0.522000  0.411000  1.0  -0.2137
  C  C403  1  0.590700  0.525800  0.477000  1.0  -0.1359
  C  C404  1  0.569900  0.559600  0.468000  1.0  -0.1825
  C  C405  1  0.541000  0.639300  0.479000  1.0  0.1037
  C  C406  1  0.561300  0.646400  0.309000  1.0  0.1794
  C  C407  1  0.680300  0.559100  0.185000  1.0  0.1125
  C  C408  1  0.705400  0.530300  0.323000  1.0  0.1657
  C  C409  1  0.353100  0.869700  0.749000  1.0  0.1471
  C  C410  1  0.354700  0.855300  0.637000  1.0  -0.1682
  C  C411  1  0.380300  0.826200  0.609000  1.0  -0.1494
  C  C412  1  0.403500  0.811900  0.701000  1.0  -0.192
  C  C413  1  0.400300  0.828100  0.809000  1.0  0.1272
  C  C414  1  0.374700  0.856600  0.835000  1.0  -0.1494
  C  C415  1  0.463000  0.804900  0.888000  1.0  0.117
  C  C416  1  0.417900  0.808400  0.007000  1.0  0.1185
  C  C417  1  0.321700  0.931600  0.711000  1.0  0.181
  C  C418  1  0.307100  0.904800  0.870000  1.0  0.1018
  C  C419  1  0.414300  0.911700  0.416000  1.0  0.1357
  C  C420  1  0.379500  0.913800  0.356400  1.0  -0.2511
  C  C421  1  0.361700  0.947400  0.356000  1.0  0.1813
  C  C422  1  0.376100  0.978000  0.411000  1.0  -0.214
  C  C423  1  0.409300  0.974200  0.477000  1.0  -0.1347
  C  C424  1  0.430100  0.940400  0.468000  1.0  -0.1798
  C  C425  1  0.459000  0.860700  0.479000  1.0  0.1054
  C  C426  1  0.438700  0.853600  0.309000  1.0  0.1798
  C  C427  1  0.319700  0.940900  0.185000  1.0  0.1105
  C  C428  1  0.294600  0.969700  0.323000  1.0  0.1666
  C  C429  1  0.853100  0.369700  0.249000  1.0  0.1471
  C  C430  1  0.854700  0.355300  0.137000  1.0  -0.1682
  C  C431  1  0.880300  0.326200  0.109000  1.0  -0.1494
  C  C432  1  0.903500  0.311900  0.201000  1.0  -0.192
  C  C433  1  0.900300  0.328100  0.309000  1.0  0.1272
  C  C434  1  0.874700  0.356600  0.335000  1.0  -0.1494
  C  C435  1  0.963000  0.304900  0.388000  1.0  0.117
  C  C436  1  0.917900  0.308400  0.507000  1.0  0.1185
  C  C437  1  0.821700  0.431600  0.211000  1.0  0.181
  C  C438  1  0.807100  0.404800  0.370000  1.0  0.1018
  C  C439  1  0.914300  0.411700  0.916000  1.0  0.1357
  C  C440  1  0.879500  0.413800  0.856400  1.0  -0.2511
  C  C441  1  0.861700  0.447400  0.856000  1.0  0.1813
  C  C442  1  0.876100  0.478000  0.911000  1.0  -0.214
  C  C443  1  0.909300  0.474200  0.977000  1.0  -0.1347
  C  C444  1  0.930100  0.440400  0.968000  1.0  -0.1798
  C  C445  1  0.959000  0.360700  0.979000  1.0  0.1054
  C  C446  1  0.938700  0.353600  0.809000  1.0  0.1798
  C  C447  1  0.819700  0.440900  0.685000  1.0  0.1105
  C  C448  1  0.794600  0.469700  0.823000  1.0  0.1666
  C  C449  1  0.119700  0.396900  0.001000  1.0  0.1476
  C  C450  1  0.105300  0.395300  0.113000  1.0  -0.1718
  C  C451  1  0.076200  0.369700  0.141000  1.0  -0.1506
  C  C452  1  0.061900  0.346500  0.049000  1.0  -0.1926
  C  C453  1  0.078100  0.349700  0.941000  1.0  0.1262
  C  C454  1  0.106600  0.375300  0.915000  1.0  -0.1512
  C  C455  1  0.054900  0.287000  0.862000  1.0  0.1178
  C  C456  1  0.058400  0.332100  0.743000  1.0  0.1162
  C  C457  1  0.181600  0.428300  0.039000  1.0  0.182
  C  C458  1  0.154800  0.442900  0.880000  1.0  0.1031
  C  C459  1  0.161700  0.335700  0.334000  1.0  0.1343
  C  C460  1  0.163800  0.370500  0.393600  1.0  -0.2543
  C  C461  1  0.197400  0.388300  0.394000  1.0  0.1826
  C  C462  1  0.228000  0.373900  0.339000  1.0  -0.216
  C  C463  1  0.224200  0.340700  0.273000  1.0  -0.1349
  C  C464  1  0.190400  0.319900  0.282000  1.0  -0.1821
  C  C465  1  0.110700  0.291000  0.271000  1.0  0.1032
  C  C466  1  0.103600  0.311300  0.441000  1.0  0.1783
  C  C467  1  0.190900  0.430300  0.565000  1.0  0.1132
  C  C468  1  0.219700  0.455400  0.427000  1.0  0.1654
  C  C469  1  0.619700  0.896900  0.501000  1.0  0.1476
  C  C470  1  0.605300  0.895300  0.613000  1.0  -0.1718
  C  C471  1  0.576200  0.869700  0.641000  1.0  -0.1506
  C  C472  1  0.561900  0.846500  0.549000  1.0  -0.1926
  C  C473  1  0.578100  0.849700  0.441000  1.0  0.1262
  C  C474  1  0.606600  0.875300  0.415000  1.0  -0.1512
  C  C475  1  0.554900  0.787000  0.362000  1.0  0.1178
  C  C476  1  0.558400  0.832100  0.243000  1.0  0.1162
  C  C477  1  0.681600  0.928300  0.539000  1.0  0.182
  C  C478  1  0.654800  0.942900  0.380000  1.0  0.1031
  C  C479  1  0.661700  0.835700  0.834000  1.0  0.1343
  C  C480  1  0.663800  0.870500  0.893600  1.0  -0.2543
  C  C481  1  0.697400  0.888300  0.894000  1.0  0.1826
  C  C482  1  0.728000  0.873900  0.839000  1.0  -0.216
  C  C483  1  0.724200  0.840700  0.773000  1.0  -0.1349
  C  C484  1  0.690400  0.819900  0.782000  1.0  -0.1821
  C  C485  1  0.610700  0.791000  0.771000  1.0  0.1032
  C  C486  1  0.603600  0.811300  0.941000  1.0  0.1783
  C  C487  1  0.690900  0.930300  0.065000  1.0  0.1132
  C  C488  1  0.719700  0.955400  0.927000  1.0  0.1654
  C  C489  1  0.380300  0.603100  0.501000  1.0  0.1468
  C  C490  1  0.394700  0.604700  0.613000  1.0  -0.1704
  C  C491  1  0.423800  0.630300  0.641000  1.0  -0.1497
  C  C492  1  0.438100  0.653500  0.549000  1.0  -0.1929
  C  C493  1  0.421900  0.650300  0.441000  1.0  0.1265
  C  C494  1  0.393400  0.624700  0.415000  1.0  -0.1509
  C  C495  1  0.445100  0.713000  0.362000  1.0  0.1177
  C  C496  1  0.441600  0.667900  0.243000  1.0  0.116
  C  C497  1  0.318400  0.571700  0.539000  1.0  0.1808
  C  C498  1  0.345200  0.557100  0.380000  1.0  0.102
  C  C499  1  0.338300  0.664300  0.834000  1.0  0.1343
  C  C500  1  0.336200  0.629500  0.893600  1.0  -0.2498
  C  C501  1  0.302600  0.611700  0.894000  1.0  0.1822
  C  C502  1  0.272000  0.626100  0.839000  1.0  -0.218
  C  C503  1  0.275800  0.659300  0.773000  1.0  -0.1361
  C  C504  1  0.309600  0.680100  0.782000  1.0  -0.1823
  C  C505  1  0.389300  0.709000  0.771000  1.0  0.1046
  C  C506  1  0.396400  0.688700  0.941000  1.0  0.1779
  C  C507  1  0.309100  0.569700  0.065000  1.0  0.1117
  C  C508  1  0.280300  0.544600  0.927000  1.0  0.165
  C  C509  1  0.880300  0.103100  0.001000  1.0  0.1468
  C  C510  1  0.894700  0.104700  0.113000  1.0  -0.1704
  C  C511  1  0.923800  0.130300  0.141000  1.0  -0.1497
  C  C512  1  0.938100  0.153500  0.049000  1.0  -0.1929
  C  C513  1  0.921900  0.150300  0.941000  1.0  0.1265
  C  C514  1  0.893400  0.124700  0.915000  1.0  -0.1509
  C  C515  1  0.945100  0.213000  0.862000  1.0  0.1177
  C  C516  1  0.941600  0.167900  0.743000  1.0  0.116
  C  C517  1  0.818400  0.071700  0.039000  1.0  0.1808
  C  C518  1  0.845200  0.057100  0.880000  1.0  0.102
  C  C519  1  0.838300  0.164300  0.334000  1.0  0.1343
  C  C520  1  0.836200  0.129500  0.393600  1.0  -0.2498
  C  C521  1  0.802600  0.111700  0.394000  1.0  0.1822
  C  C522  1  0.772000  0.126100  0.339000  1.0  -0.218
  C  C523  1  0.775800  0.159300  0.273000  1.0  -0.1361
  C  C524  1  0.809600  0.180100  0.282000  1.0  -0.1823
  C  C525  1  0.889300  0.209000  0.271000  1.0  0.1046
  C  C526  1  0.896400  0.188700  0.441000  1.0  0.1779
  C  C527  1  0.809100  0.069700  0.565000  1.0  0.1117
  C  C528  1  0.780300  0.044600  0.427000  1.0  0.165
  C  C529  1  0.853100  0.869700  0.751000  1.0  0.1469
  C  C530  1  0.854700  0.855300  0.863000  1.0  -0.1699
  C  C531  1  0.880300  0.826200  0.891000  1.0  -0.1509
  C  C532  1  0.903500  0.811900  0.799000  1.0  -0.1921
  C  C533  1  0.900300  0.828100  0.691000  1.0  0.1274
  C  C534  1  0.874700  0.856600  0.665000  1.0  -0.1488
  C  C535  1  0.963000  0.804900  0.612000  1.0  0.1161
  C  C536  1  0.917900  0.808400  0.493000  1.0  0.118
  C  C537  1  0.821700  0.931600  0.789000  1.0  0.1816
  C  C538  1  0.807100  0.904800  0.630000  1.0  0.1026
  C  C539  1  0.914300  0.911700  0.084000  1.0  0.1357
  C  C540  1  0.879500  0.913800  0.143600  1.0  -0.2516
  C  C541  1  0.861700  0.947400  0.144000  1.0  0.1812
  C  C542  1  0.876100  0.978000  0.089000  1.0  -0.214
  C  C543  1  0.909300  0.974200  0.023000  1.0  -0.1343
  C  C544  1  0.930100  0.940400  0.032000  1.0  -0.18
  C  C545  1  0.959000  0.860700  0.021000  1.0  0.1051
  C  C546  1  0.938700  0.853600  0.191000  1.0  0.1786
  C  C547  1  0.819700  0.940900  0.315000  1.0  0.1106
  C  C548  1  0.794600  0.969700  0.177000  1.0  0.1654
  C  C549  1  0.353100  0.369700  0.251000  1.0  0.1469
  C  C550  1  0.354700  0.355300  0.363000  1.0  -0.1699
  C  C551  1  0.380300  0.326200  0.391000  1.0  -0.1509
  C  C552  1  0.403500  0.311900  0.299000  1.0  -0.1921
  C  C553  1  0.400300  0.328100  0.191000  1.0  0.1274
  C  C554  1  0.374700  0.356600  0.165000  1.0  -0.1488
  C  C555  1  0.463000  0.304900  0.112000  1.0  0.1161
  C  C556  1  0.417900  0.308400  0.993000  1.0  0.118
  C  C557  1  0.321700  0.431600  0.289000  1.0  0.1816
  C  C558  1  0.307100  0.404800  0.130000  1.0  0.1026
  C  C559  1  0.414300  0.411700  0.584000  1.0  0.1357
  C  C560  1  0.379500  0.413800  0.643600  1.0  -0.2516
  C  C561  1  0.361700  0.447400  0.644000  1.0  0.1812
  C  C562  1  0.376100  0.478000  0.589000  1.0  -0.214
  C  C563  1  0.409300  0.474200  0.523000  1.0  -0.1343
  C  C564  1  0.430100  0.440400  0.532000  1.0  -0.18
  C  C565  1  0.459000  0.360700  0.521000  1.0  0.1051
  C  C566  1  0.438700  0.353600  0.691000  1.0  0.1786
  C  C567  1  0.319700  0.440900  0.815000  1.0  0.1106
  C  C568  1  0.294600  0.469700  0.677000  1.0  0.1654
  C  C569  1  0.646900  0.130300  0.251000  1.0  0.147
  C  C570  1  0.645300  0.144700  0.363000  1.0  -0.1694
  C  C571  1  0.619700  0.173800  0.391000  1.0  -0.15
  C  C572  1  0.596500  0.188100  0.299000  1.0  -0.1925
  C  C573  1  0.599700  0.171900  0.191000  1.0  0.1272
  C  C574  1  0.625300  0.143400  0.165000  1.0  -0.1492
  C  C575  1  0.537000  0.195100  0.112000  1.0  0.1147
  C  C576  1  0.582100  0.191600  0.993000  1.0  0.1178
  C  C577  1  0.678300  0.068400  0.289000  1.0  0.1815
  C  C578  1  0.692900  0.095200  0.130000  1.0  0.1023
  C  C579  1  0.585700  0.088300  0.584000  1.0  0.136
  C  C580  1  0.620500  0.086200  0.643600  1.0  -0.2491
  C  C581  1  0.638300  0.052600  0.644000  1.0  0.1811
  C  C582  1  0.623900  0.022000  0.589000  1.0  -0.2139
  C  C583  1  0.590700  0.025800  0.523000  1.0  -0.1368
  C  C584  1  0.569900  0.059600  0.532000  1.0  -0.1817
  C  C585  1  0.541000  0.139300  0.521000  1.0  0.1036
  C  C586  1  0.561300  0.146400  0.691000  1.0  0.1785
  C  C587  1  0.680300  0.059100  0.815000  1.0  0.1116
  C  C588  1  0.705400  0.030300  0.677000  1.0  0.1648
  C  C589  1  0.146900  0.630300  0.751000  1.0  0.147
  C  C590  1  0.145300  0.644700  0.863000  1.0  -0.1694
  C  C591  1  0.119700  0.673800  0.891000  1.0  -0.15
  C  C592  1  0.096500  0.688100  0.799000  1.0  -0.1925
  C  C593  1  0.099700  0.671900  0.691000  1.0  0.1272
  C  C594  1  0.125300  0.643400  0.665000  1.0  -0.1492
  C  C595  1  0.037000  0.695100  0.612000  1.0  0.1147
  C  C596  1  0.082100  0.691600  0.493000  1.0  0.1178
  C  C597  1  0.178300  0.568400  0.789000  1.0  0.1815
  C  C598  1  0.192900  0.595200  0.630000  1.0  0.1023
  C  C599  1  0.085700  0.588300  0.084000  1.0  0.136
  C  C600  1  0.120500  0.586200  0.143600  1.0  -0.2491
  C  C601  1  0.138300  0.552600  0.144000  1.0  0.1811
  C  C602  1  0.123900  0.522000  0.089000  1.0  -0.2139
  C  C603  1  0.090700  0.525800  0.023000  1.0  -0.1368
  C  C604  1  0.069900  0.559600  0.032000  1.0  -0.1817
  C  C605  1  0.041000  0.639300  0.021000  1.0  0.1036
  C  C606  1  0.061300  0.646400  0.191000  1.0  0.1785
  C  C607  1  0.180300  0.559100  0.315000  1.0  0.1116
  C  C608  1  0.205400  0.530300  0.177000  1.0  0.1648
  N  N609  1  0.936100  0.675800  0.145400  1.0  -0.0069
  N  N610  1  0.953800  0.697400  0.311800  1.0  -0.1859
  N  N611  1  0.956200  0.726600  0.235000  1.0  -0.2791
  N  N612  1  0.849400  0.578100  0.021200  1.0  0.0126
  N  N613  1  0.813100  0.537500  0.115100  1.0  -0.2402
  N  N614  1  0.794500  0.547900  0.014300  1.0  -0.3781
  N  N615  1  0.798500  0.577300  0.542900  1.0  -0.0426
  N  N616  1  0.798100  0.536300  0.403600  1.0  -0.322
  N  N617  1  0.778400  0.520300  0.492500  1.0  -0.2679
  N  N618  1  0.874400  0.685900  0.651200  1.0  0.0234
  N  N619  1  0.925100  0.712100  0.573200  1.0  -0.3665
  N  N620  1  0.921500  0.724800  0.688000  1.0  -0.2753
  N  N621  1  0.436100  0.175800  0.645400  1.0  -0.0069
  N  N622  1  0.453800  0.197400  0.811800  1.0  -0.1859
  N  N623  1  0.456200  0.226600  0.735000  1.0  -0.2791
  N  N624  1  0.349400  0.078100  0.521200  1.0  0.0126
  N  N625  1  0.313100  0.037500  0.615100  1.0  -0.2402
  N  N626  1  0.294500  0.047900  0.514300  1.0  -0.3781
  N  N627  1  0.298500  0.077300  0.042900  1.0  -0.0426
  N  N628  1  0.298100  0.036300  0.903600  1.0  -0.322
  N  N629  1  0.278400  0.020300  0.992500  1.0  -0.2679
  N  N630  1  0.374400  0.185900  0.151200  1.0  0.0234
  N  N631  1  0.425100  0.212100  0.073200  1.0  -0.3665
  N  N632  1  0.421500  0.224800  0.188000  1.0  -0.2753
  N  N633  1  0.563900  0.324200  0.645400  1.0  -0.007
  N  N634  1  0.546200  0.302600  0.811800  1.0  -0.1862
  N  N635  1  0.543800  0.273400  0.735000  1.0  -0.2794
  N  N636  1  0.650600  0.421900  0.521200  1.0  0.0129
  N  N637  1  0.686900  0.462500  0.615100  1.0  -0.2398
  N  N638  1  0.705500  0.452100  0.514300  1.0  -0.3766
  N  N639  1  0.701500  0.422700  0.042900  1.0  -0.0439
  N  N640  1  0.701900  0.463700  0.903600  1.0  -0.3216
  N  N641  1  0.721600  0.479700  0.992500  1.0  -0.2679
  N  N642  1  0.625600  0.314100  0.151200  1.0  0.0233
  N  N643  1  0.574900  0.287900  0.073200  1.0  -0.3672
  N  N644  1  0.578500  0.275200  0.188000  1.0  -0.2746
  N  N645  1  0.063900  0.824200  0.145400  1.0  -0.007
  N  N646  1  0.046200  0.802600  0.311800  1.0  -0.1862
  N  N647  1  0.043800  0.773400  0.235000  1.0  -0.2794
  N  N648  1  0.150600  0.921900  0.021200  1.0  0.0129
  N  N649  1  0.186900  0.962500  0.115100  1.0  -0.2398
  N  N650  1  0.205500  0.952100  0.014300  1.0  -0.3766
  N  N651  1  0.201500  0.922700  0.542900  1.0  -0.0439
  N  N652  1  0.201900  0.963700  0.403600  1.0  -0.3216
  N  N653  1  0.221600  0.979700  0.492500  1.0  -0.2679
  N  N654  1  0.125600  0.814100  0.651200  1.0  0.0233
  N  N655  1  0.074900  0.787900  0.573200  1.0  -0.3672
  N  N656  1  0.078500  0.775200  0.688000  1.0  -0.2746
  N  N657  1  0.074200  0.186100  0.395400  1.0  -0.0064
  N  N658  1  0.052600  0.203800  0.561800  1.0  -0.1864
  N  N659  1  0.023400  0.206200  0.485000  1.0  -0.2823
  N  N660  1  0.171900  0.099400  0.271200  1.0  0.0131
  N  N661  1  0.212500  0.063100  0.365100  1.0  -0.2406
  N  N662  1  0.202100  0.044500  0.264300  1.0  -0.3782
  N  N663  1  0.172700  0.048500  0.792900  1.0  -0.0435
  N  N664  1  0.213700  0.048100  0.653600  1.0  -0.3229
  N  N665  1  0.229700  0.028400  0.742500  1.0  -0.266
  N  N666  1  0.064100  0.124400  0.901200  1.0  0.0232
  N  N667  1  0.037900  0.175100  0.823200  1.0  -0.3686
  N  N668  1  0.025200  0.171500  0.938000  1.0  -0.2723
  N  N669  1  0.574200  0.686100  0.895400  1.0  -0.0064
  N  N670  1  0.552600  0.703800  0.061800  1.0  -0.1864
  N  N671  1  0.523400  0.706200  0.985000  1.0  -0.2823
  N  N672  1  0.671900  0.599400  0.771200  1.0  0.0131
  N  N673  1  0.712500  0.563100  0.865100  1.0  -0.2406
  N  N674  1  0.702100  0.544500  0.764300  1.0  -0.3782
  N  N675  1  0.672700  0.548500  0.292900  1.0  -0.0435
  N  N676  1  0.713700  0.548100  0.153600  1.0  -0.3229
  N  N677  1  0.729700  0.528400  0.242500  1.0  -0.266
  N  N678  1  0.564100  0.624400  0.401200  1.0  0.0232
  N  N679  1  0.537900  0.675100  0.323200  1.0  -0.3686
  N  N680  1  0.525200  0.671500  0.438000  1.0  -0.2723
  N  N681  1  0.425800  0.813900  0.895400  1.0  -0.0065
  N  N682  1  0.447400  0.796200  0.061800  1.0  -0.1869
  N  N683  1  0.476600  0.793800  0.985000  1.0  -0.281
  N  N684  1  0.328100  0.900600  0.771200  1.0  0.0131
  N  N685  1  0.287500  0.936900  0.865100  1.0  -0.2405
  N  N686  1  0.297900  0.955500  0.764300  1.0  -0.376
  N  N687  1  0.327300  0.951500  0.292900  1.0  -0.0431
  N  N688  1  0.286300  0.951900  0.153600  1.0  -0.3222
  N  N689  1  0.270300  0.971600  0.242500  1.0  -0.2663
  N  N690  1  0.435900  0.875600  0.401200  1.0  0.0239
  N  N691  1  0.462100  0.824900  0.323200  1.0  -0.3675
  N  N692  1  0.474800  0.828500  0.438000  1.0  -0.2718
  N  N693  1  0.925800  0.313900  0.395400  1.0  -0.0065
  N  N694  1  0.947400  0.296200  0.561800  1.0  -0.1869
  N  N695  1  0.976600  0.293800  0.485000  1.0  -0.281
  N  N696  1  0.828100  0.400600  0.271200  1.0  0.0131
  N  N697  1  0.787500  0.436900  0.365100  1.0  -0.2405
  N  N698  1  0.797900  0.455500  0.264300  1.0  -0.376
  N  N699  1  0.827300  0.451500  0.792900  1.0  -0.0431
  N  N700  1  0.786300  0.451900  0.653600  1.0  -0.3222
  N  N701  1  0.770300  0.471600  0.742500  1.0  -0.2663
  N  N702  1  0.935900  0.375600  0.901200  1.0  0.0239
  N  N703  1  0.962100  0.324900  0.823200  1.0  -0.3675
  N  N704  1  0.974800  0.328500  0.938000  1.0  -0.2718
  N  N705  1  0.063900  0.324200  0.854600  1.0  -0.0073
  N  N706  1  0.046200  0.302600  0.688200  1.0  -0.1841
  N  N707  1  0.043800  0.273400  0.765000  1.0  -0.2796
  N  N708  1  0.150600  0.421900  0.978800  1.0  0.0132
  N  N709  1  0.186900  0.462500  0.884900  1.0  -0.2392
  N  N710  1  0.205500  0.452100  0.985700  1.0  -0.3766
  N  N711  1  0.201500  0.422700  0.457100  1.0  -0.0437
  N  N712  1  0.201900  0.463700  0.596400  1.0  -0.3198
  N  N713  1  0.221600  0.479700  0.507500  1.0  -0.2676
  N  N714  1  0.125600  0.314100  0.348800  1.0  0.0231
  N  N715  1  0.074900  0.287900  0.426800  1.0  -0.3679
  N  N716  1  0.078500  0.275200  0.312000  1.0  -0.2728
  N  N717  1  0.563900  0.824200  0.354600  1.0  -0.0073
  N  N718  1  0.546200  0.802600  0.188200  1.0  -0.1841
  N  N719  1  0.543800  0.773400  0.265000  1.0  -0.2796
  N  N720  1  0.650600  0.921900  0.478800  1.0  0.0132
  N  N721  1  0.686900  0.962500  0.384900  1.0  -0.2392
  N  N722  1  0.705500  0.952100  0.485700  1.0  -0.3766
  N  N723  1  0.701500  0.922700  0.957100  1.0  -0.0437
  N  N724  1  0.701900  0.963700  0.096400  1.0  -0.3198
  N  N725  1  0.721600  0.979700  0.007500  1.0  -0.2676
  N  N726  1  0.625600  0.814100  0.848800  1.0  0.0231
  N  N727  1  0.574900  0.787900  0.926800  1.0  -0.3679
  N  N728  1  0.578500  0.775200  0.812000  1.0  -0.2728
  N  N729  1  0.436100  0.675800  0.354600  1.0  -0.0069
  N  N730  1  0.453800  0.697400  0.188200  1.0  -0.1841
  N  N731  1  0.456200  0.726600  0.265000  1.0  -0.2792
  N  N732  1  0.349400  0.578100  0.478800  1.0  0.0134
  N  N733  1  0.313100  0.537500  0.384900  1.0  -0.2401
  N  N734  1  0.294500  0.547900  0.485700  1.0  -0.3784
  N  N735  1  0.298500  0.577300  0.957100  1.0  -0.0427
  N  N736  1  0.298100  0.536300  0.096400  1.0  -0.3206
  N  N737  1  0.278400  0.520300  0.007500  1.0  -0.2677
  N  N738  1  0.374400  0.685900  0.848800  1.0  0.0233
  N  N739  1  0.425100  0.712100  0.926800  1.0  -0.3669
  N  N740  1  0.421500  0.724800  0.812000  1.0  -0.274
  N  N741  1  0.936100  0.175800  0.854600  1.0  -0.0069
  N  N742  1  0.953800  0.197400  0.688200  1.0  -0.1841
  N  N743  1  0.956200  0.226600  0.765000  1.0  -0.2792
  N  N744  1  0.849400  0.078100  0.978800  1.0  0.0134
  N  N745  1  0.813100  0.037500  0.884900  1.0  -0.2401
  N  N746  1  0.794500  0.047900  0.985700  1.0  -0.3784
  N  N747  1  0.798500  0.077300  0.457100  1.0  -0.0427
  N  N748  1  0.798100  0.036300  0.596400  1.0  -0.3206
  N  N749  1  0.778400  0.020300  0.507500  1.0  -0.2677
  N  N750  1  0.874400  0.185900  0.348800  1.0  0.0233
  N  N751  1  0.925100  0.212100  0.426800  1.0  -0.3669
  N  N752  1  0.921500  0.224800  0.312000  1.0  -0.274
  N  N753  1  0.925800  0.813900  0.604600  1.0  -0.0067
  N  N754  1  0.947400  0.796200  0.438200  1.0  -0.1847
  N  N755  1  0.976600  0.793800  0.515000  1.0  -0.281
  N  N756  1  0.828100  0.900600  0.728800  1.0  0.0138
  N  N757  1  0.787500  0.936900  0.634900  1.0  -0.2396
  N  N758  1  0.797900  0.955500  0.735700  1.0  -0.3763
  N  N759  1  0.827300  0.951500  0.207100  1.0  -0.0431
  N  N760  1  0.786300  0.951900  0.346400  1.0  -0.3216
  N  N761  1  0.770300  0.971600  0.257500  1.0  -0.2665
  N  N762  1  0.935900  0.875600  0.098800  1.0  0.0237
  N  N763  1  0.962100  0.824900  0.176800  1.0  -0.3681
  N  N764  1  0.974800  0.828500  0.062000  1.0  -0.2708
  N  N765  1  0.425800  0.313900  0.104600  1.0  -0.0067
  N  N766  1  0.447400  0.296200  0.938200  1.0  -0.1847
  N  N767  1  0.476600  0.293800  0.015000  1.0  -0.281
  N  N768  1  0.328100  0.400600  0.228800  1.0  0.0138
  N  N769  1  0.287500  0.436900  0.134900  1.0  -0.2396
  N  N770  1  0.297900  0.455500  0.235700  1.0  -0.3763
  N  N771  1  0.327300  0.451500  0.707100  1.0  -0.0431
  N  N772  1  0.286300  0.451900  0.846400  1.0  -0.3216
  N  N773  1  0.270300  0.471600  0.757500  1.0  -0.2665
  N  N774  1  0.435900  0.375600  0.598800  1.0  0.0237
  N  N775  1  0.462100  0.324900  0.676800  1.0  -0.3681
  N  N776  1  0.474800  0.328500  0.562000  1.0  -0.2708
  N  N777  1  0.574200  0.186100  0.104600  1.0  -0.0067
  N  N778  1  0.552600  0.203800  0.938200  1.0  -0.1846
  N  N779  1  0.523400  0.206200  0.015000  1.0  -0.2818
  N  N780  1  0.671900  0.099400  0.228800  1.0  0.0136
  N  N781  1  0.712500  0.063100  0.134900  1.0  -0.2406
  N  N782  1  0.702100  0.044500  0.235700  1.0  -0.3782
  N  N783  1  0.672700  0.048500  0.707100  1.0  -0.0435
  N  N784  1  0.713700  0.048100  0.846400  1.0  -0.3202
  N  N785  1  0.729700  0.028400  0.757500  1.0  -0.2661
  N  N786  1  0.564100  0.124400  0.598800  1.0  0.023
  N  N787  1  0.537900  0.175100  0.676800  1.0  -0.3696
  N  N788  1  0.525200  0.171500  0.562000  1.0  -0.2707
  N  N789  1  0.074200  0.686100  0.604600  1.0  -0.0067
  N  N790  1  0.052600  0.703800  0.438200  1.0  -0.1846
  N  N791  1  0.023400  0.706200  0.515000  1.0  -0.2818
  N  N792  1  0.171900  0.599400  0.728800  1.0  0.0136
  N  N793  1  0.212500  0.563100  0.634900  1.0  -0.2406
  N  N794  1  0.202100  0.544500  0.735700  1.0  -0.3782
  N  N795  1  0.172700  0.548500  0.207100  1.0  -0.0435
  N  N796  1  0.213700  0.548100  0.346400  1.0  -0.3202
  N  N797  1  0.229700  0.528400  0.257500  1.0  -0.2661
  N  N798  1  0.064100  0.624400  0.098800  1.0  0.023
  N  N799  1  0.037900  0.675100  0.176800  1.0  -0.3696
  N  N800  1  0.025200  0.671500  0.062000  1.0  -0.2707
