# generated using pymatgen
data_Zn3H58C90(N2O3)4
_symmetry_space_group_name_H-M   'P 1'
_cell_length_a   74.91000000
_cell_length_b   29.61400000
_cell_length_c   29.75500000
_cell_angle_alpha   90.00000000
_cell_angle_beta   90.00000000
_cell_angle_gamma   90.00000000
_symmetry_Int_Tables_number   1
_chemical_formula_structural   Zn3H58C90(N2O3)4
_chemical_formula_sum   'Zn48 H928 C1440 N128 O192'
_cell_volume   66008.03793870
_cell_formula_units_Z   16
loop_
 _symmetry_equiv_pos_site_id
 _symmetry_equiv_pos_as_xyz
  1  'x, y, z'
loop_
 _atom_site_type_symbol
 _atom_site_label
 _atom_site_symmetry_multiplicity
 _atom_site_fract_x
 _atom_site_fract_y
 _atom_site_fract_z
 _atom_site_occupancy
 _atom_site_charge
  Zn  Zn1  1  0.087330  0.190710  0.685500  1.0  1.0057
  Zn  Zn2  1  0.093030  0.271470  0.767900  1.0  1.0508
  Zn  Zn3  1  0.104480  0.814730  0.387700  1.0  0.945
  Zn  Zn4  1  0.087330  0.690710  0.185500  1.0  1.0057
  Zn  Zn5  1  0.093030  0.771470  0.267900  1.0  1.0508
  Zn  Zn6  1  0.104480  0.314730  0.887700  1.0  0.945
  Zn  Zn7  1  0.587330  0.190710  0.185500  1.0  1.0057
  Zn  Zn8  1  0.593030  0.271470  0.267900  1.0  1.0508
  Zn  Zn9  1  0.604480  0.814730  0.887700  1.0  0.945
  Zn  Zn10  1  0.587330  0.690710  0.685500  1.0  1.0057
  Zn  Zn11  1  0.593030  0.771470  0.767900  1.0  1.0508
  Zn  Zn12  1  0.604480  0.314730  0.387700  1.0  0.945
  Zn  Zn13  1  0.337330  0.059290  0.935500  1.0  1.0056
  Zn  Zn14  1  0.343030  0.978530  0.017900  1.0  1.0488
  Zn  Zn15  1  0.354480  0.435270  0.637700  1.0  0.9451
  Zn  Zn16  1  0.337330  0.559290  0.435500  1.0  1.0056
  Zn  Zn17  1  0.343030  0.478530  0.517900  1.0  1.0488
  Zn  Zn18  1  0.354480  0.935270  0.137700  1.0  0.9451
  Zn  Zn19  1  0.837330  0.059290  0.435500  1.0  1.0056
  Zn  Zn20  1  0.843030  0.978530  0.517900  1.0  1.0488
  Zn  Zn21  1  0.854480  0.435270  0.137700  1.0  0.9451
  Zn  Zn22  1  0.837330  0.559290  0.935500  1.0  1.0056
  Zn  Zn23  1  0.843030  0.478530  0.017900  1.0  1.0488
  Zn  Zn24  1  0.854480  0.935270  0.637700  1.0  0.9451
  Zn  Zn25  1  0.912670  0.809290  0.685500  1.0  1.0064
  Zn  Zn26  1  0.906970  0.728530  0.767900  1.0  1.0479
  Zn  Zn27  1  0.895520  0.185270  0.387700  1.0  0.946
  Zn  Zn28  1  0.912670  0.309290  0.185500  1.0  1.0064
  Zn  Zn29  1  0.906970  0.228530  0.267900  1.0  1.0479
  Zn  Zn30  1  0.895520  0.685270  0.887700  1.0  0.946
  Zn  Zn31  1  0.412670  0.809290  0.185500  1.0  1.0064
  Zn  Zn32  1  0.406970  0.728530  0.267900  1.0  1.0479
  Zn  Zn33  1  0.395520  0.185270  0.887700  1.0  0.946
  Zn  Zn34  1  0.412670  0.309290  0.685500  1.0  1.0064
  Zn  Zn35  1  0.406970  0.228530  0.767900  1.0  1.0479
  Zn  Zn36  1  0.395520  0.685270  0.387700  1.0  0.946
  Zn  Zn37  1  0.162670  0.440710  0.935500  1.0  1.0065
  Zn  Zn38  1  0.156970  0.521470  0.017900  1.0  1.0502
  Zn  Zn39  1  0.145520  0.064730  0.637700  1.0  0.9458
  Zn  Zn40  1  0.162670  0.940710  0.435500  1.0  1.0065
  Zn  Zn41  1  0.156970  0.021470  0.517900  1.0  1.0502
  Zn  Zn42  1  0.145520  0.564730  0.137700  1.0  0.9458
  Zn  Zn43  1  0.662670  0.440710  0.435500  1.0  1.0065
  Zn  Zn44  1  0.656970  0.521470  0.517900  1.0  1.0502
  Zn  Zn45  1  0.645520  0.064730  0.137700  1.0  0.9458
  Zn  Zn46  1  0.662670  0.940710  0.935500  1.0  1.0065
  Zn  Zn47  1  0.656970  0.021470  0.017900  1.0  1.0502
  Zn  Zn48  1  0.645520  0.564730  0.637700  1.0  0.9458
  H  H49  1  0.063200  0.918400  0.466000  1.0  0.114
  H  H50  1  0.120000  0.901500  0.418500  1.0  0.0595
  H  H51  1  0.071400  0.848900  0.429600  1.0  0.114
  H  H52  1  0.197700  0.476500  0.533300  1.0  0.12
  H  H53  1  0.229100  0.479800  0.530500  1.0  0.0849
  H  H54  1  0.163000  0.605400  0.402200  1.0  0.1058
  H  H55  1  0.112100  0.969500  0.455800  1.0  0.1154
  H  H56  1  0.100000  0.098400  0.665300  1.0  0.0921
  H  H57  1  0.119500  0.689600  0.342900  1.0  0.1021
  H  H58  1  0.135100  0.645100  0.391000  1.0  0.1005
  H  H59  1  0.126600  0.538100  0.310000  1.0  0.1012
  H  H60  1  0.110200  0.584200  0.261700  1.0  0.1112
  H  H61  1  0.096700  0.044000  0.613800  1.0  0.1329
  H  H62  1  0.178700  0.558300  0.451000  1.0  0.0726
  H  H63  1  0.062200  0.123500  0.545100  1.0  0.1284
  H  H64  1  0.147600  0.451600  0.415000  1.0  0.1254
  H  H65  1  0.130300  0.500000  0.376800  1.0  0.094
  H  H66  1  0.283500  0.533300  0.405600  1.0  0.1134
  H  H67  1  0.253000  0.517900  0.403300  1.0  0.1189
  H  H68  1  0.256700  0.457300  0.524200  1.0  0.0952
  H  H69  1  0.286800  0.462300  0.523200  1.0  0.1234
  H  H70  1  0.227400  0.482200  0.395900  1.0  0.1251
  H  H71  1  0.197300  0.478900  0.400100  1.0  0.0929
  H  H72  1  0.065500  0.176200  0.604900  1.0  0.0871
  H  H73  1  0.131800  0.251000  0.607500  1.0  0.1189
  H  H74  1  0.147000  0.298100  0.562400  1.0  0.0843
  H  H75  1  0.121000  0.404900  0.611400  1.0  0.1155
  H  H76  1  0.105800  0.357000  0.658300  1.0  0.1052
  H  H77  1  0.169500  0.345800  0.542300  1.0  0.11
  H  H78  1  0.183600  0.389800  0.493700  1.0  0.1098
  H  H79  1  0.146300  0.486900  0.506700  1.0  0.1059
  H  H80  1  0.129900  0.439300  0.554400  1.0  0.1168
  H  H81  1  0.103400  0.002000  0.579700  1.0  0.3536
  H  H82  1  0.105600  0.963900  0.545800  1.0  0.3089
  H  H83  1  0.134900  0.328100  0.722800  1.0  0.1117
  H  H84  1  0.152800  0.379100  0.681100  1.0  0.1128
  H  H85  1  0.152300  0.467800  0.783600  1.0  0.1161
  H  H86  1  0.132700  0.419600  0.824900  1.0  0.1095
  H  H87  1  0.152200  0.449600  0.640100  1.0  0.1151
  H  H88  1  0.169000  0.500600  0.600400  1.0  0.1076
  H  H89  1  0.198100  0.530800  0.709500  1.0  0.1168
  H  H90  1  0.181100  0.483300  0.754200  1.0  0.1327
  H  H91  1  0.151500  0.736600  0.430900  1.0  0.1016
  H  H92  1  0.171200  0.692000  0.477100  1.0  0.1126
  H  H93  1  0.130300  0.666400  0.560700  1.0  0.125
  H  H94  1  0.111900  0.709800  0.514500  1.0  0.1012
  H  H95  1  0.182700  0.631000  0.501800  1.0  0.099
  H  H96  1  0.198000  0.572900  0.538900  1.0  0.1169
  H  H97  1  0.169200  0.604600  0.650700  1.0  0.1189
  H  H98  1  0.152700  0.655000  0.612000  1.0  0.1237
  H  H99  1  0.298100  0.441600  0.645300  1.0  0.1154
  H  H100  1  0.267700  0.460400  0.647000  1.0  0.1141
  H  H101  1  0.276600  0.572600  0.575800  1.0  0.116
  H  H102  1  0.308500  0.555700  0.573100  1.0  0.131
  H  H103  1  0.242500  0.462800  0.626400  1.0  0.1337
  H  H104  1  0.212100  0.476400  0.628500  1.0  0.1085
  H  H105  1  0.220500  0.608700  0.608700  1.0  0.1072
  H  H106  1  0.251900  0.595700  0.601800  1.0  0.1147
  H  H107  1  0.063200  0.418400  0.966000  1.0  0.114
  H  H108  1  0.120000  0.401500  0.918500  1.0  0.0595
  H  H109  1  0.071400  0.348900  0.929600  1.0  0.114
  H  H110  1  0.197700  0.976500  0.033300  1.0  0.12
  H  H111  1  0.229100  0.979800  0.030500  1.0  0.0847
  H  H112  1  0.163000  0.105400  0.902200  1.0  0.1058
  H  H113  1  0.112100  0.469500  0.955800  1.0  0.1154
  H  H114  1  0.100000  0.598400  0.165300  1.0  0.0921
  H  H115  1  0.119500  0.189600  0.842900  1.0  0.1021
  H  H116  1  0.135100  0.145100  0.891000  1.0  0.1005
  H  H117  1  0.126600  0.038100  0.810000  1.0  0.1012
  H  H118  1  0.110200  0.084200  0.761700  1.0  0.1112
  H  H119  1  0.096700  0.544000  0.113800  1.0  0.1329
  H  H120  1  0.178700  0.058300  0.951000  1.0  0.0726
  H  H121  1  0.062200  0.623500  0.045100  1.0  0.1278
  H  H122  1  0.147600  0.951600  0.915000  1.0  0.1235
  H  H123  1  0.130300  0.000000  0.876800  1.0  0.094
  H  H124  1  0.283500  0.033300  0.905600  1.0  0.1134
  H  H125  1  0.253000  0.017900  0.903300  1.0  0.1189
  H  H126  1  0.256700  0.957300  0.024200  1.0  0.0952
  H  H127  1  0.286800  0.962300  0.023200  1.0  0.1234
  H  H128  1  0.227400  0.982200  0.895900  1.0  0.1255
  H  H129  1  0.197300  0.978900  0.900100  1.0  0.0929
  H  H130  1  0.065500  0.676200  0.104900  1.0  0.0871
  H  H131  1  0.131800  0.751000  0.107500  1.0  0.1189
  H  H132  1  0.147000  0.798100  0.062400  1.0  0.0843
  H  H133  1  0.121000  0.904900  0.111400  1.0  0.1175
  H  H134  1  0.105800  0.857000  0.158300  1.0  0.1052
  H  H135  1  0.169500  0.845800  0.042300  1.0  0.11
  H  H136  1  0.183600  0.889800  0.993700  1.0  0.1098
  H  H137  1  0.146300  0.986900  0.006700  1.0  0.1059
  H  H138  1  0.129900  0.939300  0.054400  1.0  0.1195
  H  H139  1  0.103400  0.502000  0.079700  1.0  0.3536
  H  H140  1  0.105600  0.463900  0.045800  1.0  0.3092
  H  H141  1  0.134900  0.828100  0.222800  1.0  0.1117
  H  H142  1  0.152800  0.879100  0.181100  1.0  0.1128
  H  H143  1  0.152300  0.967800  0.283600  1.0  0.1161
  H  H144  1  0.132700  0.919600  0.324900  1.0  0.1095
  H  H145  1  0.152200  0.949600  0.140100  1.0  0.1148
  H  H146  1  0.169000  0.000600  0.100400  1.0  0.1076
  H  H147  1  0.198100  0.030800  0.209500  1.0  0.1168
  H  H148  1  0.181100  0.983300  0.254200  1.0  0.1327
  H  H149  1  0.151500  0.236600  0.930900  1.0  0.1016
  H  H150  1  0.171200  0.192000  0.977100  1.0  0.1126
  H  H151  1  0.130300  0.166400  0.060700  1.0  0.125
  H  H152  1  0.111900  0.209800  0.014500  1.0  0.1012
  H  H153  1  0.182700  0.131000  0.001800  1.0  0.099
  H  H154  1  0.198000  0.072900  0.038900  1.0  0.1169
  H  H155  1  0.169200  0.104600  0.150700  1.0  0.1189
  H  H156  1  0.152700  0.155000  0.112000  1.0  0.1237
  H  H157  1  0.298100  0.941600  0.145300  1.0  0.1154
  H  H158  1  0.267700  0.960400  0.147000  1.0  0.1141
  H  H159  1  0.276600  0.072600  0.075800  1.0  0.116
  H  H160  1  0.308500  0.055700  0.073100  1.0  0.131
  H  H161  1  0.242500  0.962800  0.126400  1.0  0.1337
  H  H162  1  0.212100  0.976400  0.128500  1.0  0.1085
  H  H163  1  0.220500  0.108700  0.108700  1.0  0.1072
  H  H164  1  0.251900  0.095700  0.101800  1.0  0.1147
  H  H165  1  0.563200  0.918400  0.966000  1.0  0.114
  H  H166  1  0.620000  0.901500  0.918500  1.0  0.0595
  H  H167  1  0.571400  0.848900  0.929600  1.0  0.114
  H  H168  1  0.697700  0.476500  0.033300  1.0  0.1186
  H  H169  1  0.729100  0.479800  0.030500  1.0  0.0847
  H  H170  1  0.663000  0.605400  0.902200  1.0  0.1058
  H  H171  1  0.612100  0.969500  0.955800  1.0  0.1154
  H  H172  1  0.600000  0.098400  0.165300  1.0  0.0921
  H  H173  1  0.619500  0.689600  0.842900  1.0  0.1021
  H  H174  1  0.635100  0.645100  0.891000  1.0  0.1005
  H  H175  1  0.626600  0.538100  0.810000  1.0  0.1012
  H  H176  1  0.610200  0.584200  0.761700  1.0  0.1112
  H  H177  1  0.596700  0.044000  0.113800  1.0  0.1329
  H  H178  1  0.678700  0.558300  0.951000  1.0  0.0726
  H  H179  1  0.562200  0.123500  0.045100  1.0  0.1276
  H  H180  1  0.647600  0.451600  0.915000  1.0  0.1254
  H  H181  1  0.630300  0.500000  0.876800  1.0  0.094
  H  H182  1  0.783500  0.533300  0.905600  1.0  0.1134
  H  H183  1  0.753000  0.517900  0.903300  1.0  0.1189
  H  H184  1  0.756700  0.457300  0.024200  1.0  0.0952
  H  H185  1  0.786800  0.462300  0.023200  1.0  0.1234
  H  H186  1  0.727400  0.482200  0.895900  1.0  0.1251
  H  H187  1  0.697300  0.478900  0.900100  1.0  0.0928
  H  H188  1  0.565500  0.176200  0.104900  1.0  0.0871
  H  H189  1  0.631800  0.251000  0.107500  1.0  0.1189
  H  H190  1  0.647000  0.298100  0.062400  1.0  0.0843
  H  H191  1  0.621000  0.404900  0.111400  1.0  0.1154
  H  H192  1  0.605800  0.357000  0.158300  1.0  0.1052
  H  H193  1  0.669500  0.345800  0.042300  1.0  0.11
  H  H194  1  0.683600  0.389800  0.993700  1.0  0.1095
  H  H195  1  0.646300  0.486900  0.006700  1.0  0.1068
  H  H196  1  0.629900  0.439300  0.054400  1.0  0.1167
  H  H197  1  0.603400  0.002000  0.079700  1.0  0.3536
  H  H198  1  0.605600  0.963900  0.045800  1.0  0.3089
  H  H199  1  0.634900  0.328100  0.222800  1.0  0.1117
  H  H200  1  0.652800  0.379100  0.181100  1.0  0.1128
  H  H201  1  0.652300  0.467800  0.283600  1.0  0.1161
  H  H202  1  0.632700  0.419600  0.324900  1.0  0.1095
  H  H203  1  0.652200  0.449600  0.140100  1.0  0.1151
  H  H204  1  0.669000  0.500600  0.100400  1.0  0.1076
  H  H205  1  0.698100  0.530800  0.209500  1.0  0.1168
  H  H206  1  0.681100  0.483300  0.254200  1.0  0.1327
  H  H207  1  0.651500  0.736600  0.930900  1.0  0.1016
  H  H208  1  0.671200  0.692000  0.977100  1.0  0.1126
  H  H209  1  0.630300  0.666400  0.060700  1.0  0.125
  H  H210  1  0.611900  0.709800  0.014500  1.0  0.1012
  H  H211  1  0.682700  0.631000  0.001800  1.0  0.099
  H  H212  1  0.698000  0.572900  0.038900  1.0  0.1169
  H  H213  1  0.669200  0.604600  0.150700  1.0  0.1189
  H  H214  1  0.652700  0.655000  0.112000  1.0  0.1237
  H  H215  1  0.798100  0.441600  0.145300  1.0  0.1154
  H  H216  1  0.767700  0.460400  0.147000  1.0  0.1141
  H  H217  1  0.776600  0.572600  0.075800  1.0  0.116
  H  H218  1  0.808500  0.555700  0.073100  1.0  0.131
  H  H219  1  0.742500  0.462800  0.126400  1.0  0.1337
  H  H220  1  0.712100  0.476400  0.128500  1.0  0.1085
  H  H221  1  0.720500  0.608700  0.108700  1.0  0.1072
  H  H222  1  0.751900  0.595700  0.101800  1.0  0.1147
  H  H223  1  0.563200  0.418400  0.466000  1.0  0.114
  H  H224  1  0.620000  0.401500  0.418500  1.0  0.0595
  H  H225  1  0.571400  0.348900  0.429600  1.0  0.114
  H  H226  1  0.697700  0.976500  0.533300  1.0  0.1186
  H  H227  1  0.729100  0.979800  0.530500  1.0  0.0849
  H  H228  1  0.663000  0.105400  0.402200  1.0  0.1058
  H  H229  1  0.612100  0.469500  0.455800  1.0  0.1154
  H  H230  1  0.600000  0.598400  0.665300  1.0  0.0921
  H  H231  1  0.619500  0.189600  0.342900  1.0  0.1021
  H  H232  1  0.635100  0.145100  0.391000  1.0  0.1005
  H  H233  1  0.626600  0.038100  0.310000  1.0  0.1012
  H  H234  1  0.610200  0.084200  0.261700  1.0  0.1112
  H  H235  1  0.596700  0.544000  0.613800  1.0  0.1329
  H  H236  1  0.678700  0.058300  0.451000  1.0  0.0726
  H  H237  1  0.562200  0.623500  0.545100  1.0  0.1276
  H  H238  1  0.647600  0.951600  0.415000  1.0  0.1241
  H  H239  1  0.630300  0.000000  0.376800  1.0  0.094
  H  H240  1  0.783500  0.033300  0.405600  1.0  0.1134
  H  H241  1  0.753000  0.017900  0.403300  1.0  0.1189
  H  H242  1  0.756700  0.957300  0.524200  1.0  0.0952
  H  H243  1  0.786800  0.962300  0.523200  1.0  0.1234
  H  H244  1  0.727400  0.982200  0.395900  1.0  0.1255
  H  H245  1  0.697300  0.978900  0.400100  1.0  0.0928
  H  H246  1  0.565500  0.676200  0.604900  1.0  0.0871
  H  H247  1  0.631800  0.751000  0.607500  1.0  0.1189
  H  H248  1  0.647000  0.798100  0.562400  1.0  0.0843
  H  H249  1  0.621000  0.904900  0.611400  1.0  0.1174
  H  H250  1  0.605800  0.857000  0.658300  1.0  0.1052
  H  H251  1  0.669500  0.845800  0.542300  1.0  0.11
  H  H252  1  0.683600  0.889800  0.493700  1.0  0.1095
  H  H253  1  0.646300  0.986900  0.506700  1.0  0.1068
  H  H254  1  0.629900  0.939300  0.554400  1.0  0.1176
  H  H255  1  0.603400  0.502000  0.579700  1.0  0.3536
  H  H256  1  0.605600  0.463900  0.545800  1.0  0.3092
  H  H257  1  0.634900  0.828100  0.722800  1.0  0.1117
  H  H258  1  0.652800  0.879100  0.681100  1.0  0.1128
  H  H259  1  0.652300  0.967800  0.783600  1.0  0.1161
  H  H260  1  0.632700  0.919600  0.824900  1.0  0.1095
  H  H261  1  0.652200  0.949600  0.640100  1.0  0.1148
  H  H262  1  0.669000  0.000600  0.600400  1.0  0.1076
  H  H263  1  0.698100  0.030800  0.709500  1.0  0.1168
  H  H264  1  0.681100  0.983300  0.754200  1.0  0.1327
  H  H265  1  0.651500  0.236600  0.430900  1.0  0.1016
  H  H266  1  0.671200  0.192000  0.477100  1.0  0.1126
  H  H267  1  0.630300  0.166400  0.560700  1.0  0.125
  H  H268  1  0.611900  0.209800  0.514500  1.0  0.1012
  H  H269  1  0.682700  0.131000  0.501800  1.0  0.099
  H  H270  1  0.698000  0.072900  0.538900  1.0  0.1169
  H  H271  1  0.669200  0.104600  0.650700  1.0  0.1189
  H  H272  1  0.652700  0.155000  0.612000  1.0  0.1237
  H  H273  1  0.798100  0.941600  0.645300  1.0  0.1154
  H  H274  1  0.767700  0.960400  0.647000  1.0  0.1141
  H  H275  1  0.776600  0.072600  0.575800  1.0  0.116
  H  H276  1  0.808500  0.055700  0.573100  1.0  0.131
  H  H277  1  0.742500  0.962800  0.626400  1.0  0.1337
  H  H278  1  0.712100  0.976400  0.628500  1.0  0.1085
  H  H279  1  0.720500  0.108700  0.608700  1.0  0.1072
  H  H280  1  0.751900  0.095700  0.601800  1.0  0.1147
  H  H281  1  0.313200  0.331600  0.716000  1.0  0.1138
  H  H282  1  0.370000  0.348500  0.668500  1.0  0.0592
  H  H283  1  0.321400  0.401100  0.679600  1.0  0.1138
  H  H284  1  0.447700  0.773500  0.783300  1.0  0.1206
  H  H285  1  0.479100  0.770200  0.780500  1.0  0.0844
  H  H286  1  0.413000  0.644600  0.652200  1.0  0.1058
  H  H287  1  0.362100  0.280500  0.705800  1.0  0.1158
  H  H288  1  0.350000  0.151600  0.915300  1.0  0.0919
  H  H289  1  0.369500  0.560400  0.592900  1.0  0.1021
  H  H290  1  0.385100  0.604900  0.641000  1.0  0.1006
  H  H291  1  0.376600  0.711900  0.560000  1.0  0.1012
  H  H292  1  0.360200  0.665800  0.511700  1.0  0.1112
  H  H293  1  0.346700  0.206000  0.863800  1.0  0.1343
  H  H294  1  0.428700  0.691700  0.701000  1.0  0.0723
  H  H295  1  0.312200  0.126500  0.795100  1.0  0.1274
  H  H296  1  0.397600  0.798400  0.665000  1.0  0.1227
  H  H297  1  0.380300  0.750000  0.626800  1.0  0.0941
  H  H298  1  0.533500  0.716700  0.655600  1.0  0.1137
  H  H299  1  0.503000  0.732100  0.653300  1.0  0.1187
  H  H300  1  0.506700  0.792700  0.774200  1.0  0.0949
  H  H301  1  0.536800  0.787700  0.773200  1.0  0.1233
  H  H302  1  0.477400  0.767800  0.645900  1.0  0.1247
  H  H303  1  0.447300  0.771100  0.650100  1.0  0.0929
  H  H304  1  0.315500  0.073800  0.854900  1.0  0.0865
  H  H305  1  0.381800  0.999000  0.857500  1.0  0.119
  H  H306  1  0.397000  0.951900  0.812400  1.0  0.0848
  H  H307  1  0.371000  0.845100  0.861400  1.0  0.1149
  H  H308  1  0.355800  0.893000  0.908300  1.0  0.1051
  H  H309  1  0.419500  0.904200  0.792300  1.0  0.1106
  H  H310  1  0.433600  0.860200  0.743700  1.0  0.1108
  H  H311  1  0.396300  0.763100  0.756700  1.0  0.1054
  H  H312  1  0.379900  0.810700  0.804400  1.0  0.115
  H  H313  1  0.353400  0.248000  0.829700  1.0  0.3519
  H  H314  1  0.355600  0.286100  0.795800  1.0  0.3099
  H  H315  1  0.384900  0.921900  0.972800  1.0  0.1116
  H  H316  1  0.402800  0.870900  0.931100  1.0  0.1138
  H  H317  1  0.402300  0.782200  0.033600  1.0  0.116
  H  H318  1  0.382700  0.830400  0.074900  1.0  0.1101
  H  H319  1  0.402200  0.800400  0.890100  1.0  0.1132
  H  H320  1  0.419000  0.749400  0.850400  1.0  0.1076
  H  H321  1  0.448100  0.719200  0.959500  1.0  0.118
  H  H322  1  0.431100  0.766700  0.004200  1.0  0.1319
  H  H323  1  0.401500  0.513400  0.680900  1.0  0.1018
  H  H324  1  0.421200  0.558000  0.727100  1.0  0.1126
  H  H325  1  0.380300  0.583600  0.810700  1.0  0.1248
  H  H326  1  0.361900  0.540200  0.764500  1.0  0.1013
  H  H327  1  0.432700  0.619000  0.751800  1.0  0.0988
  H  H328  1  0.448000  0.677100  0.788900  1.0  0.1163
  H  H329  1  0.419200  0.645400  0.900700  1.0  0.1182
  H  H330  1  0.402700  0.595000  0.862000  1.0  0.1236
  H  H331  1  0.548100  0.808400  0.895300  1.0  0.1166
  H  H332  1  0.517700  0.789600  0.897000  1.0  0.1142
  H  H333  1  0.526600  0.677400  0.825800  1.0  0.1148
  H  H334  1  0.558500  0.694300  0.823100  1.0  0.1308
  H  H335  1  0.492500  0.787200  0.876400  1.0  0.1349
  H  H336  1  0.462100  0.773600  0.878500  1.0  0.1086
  H  H337  1  0.470500  0.641300  0.858700  1.0  0.1073
  H  H338  1  0.501900  0.654300  0.851800  1.0  0.1138
  H  H339  1  0.313200  0.831600  0.216000  1.0  0.1138
  H  H340  1  0.370000  0.848500  0.168500  1.0  0.0592
  H  H341  1  0.321400  0.901100  0.179600  1.0  0.1138
  H  H342  1  0.447700  0.273500  0.283300  1.0  0.1206
  H  H343  1  0.479100  0.270200  0.280500  1.0  0.0844
  H  H344  1  0.413000  0.144600  0.152200  1.0  0.1058
  H  H345  1  0.362100  0.780500  0.205800  1.0  0.1158
  H  H346  1  0.350000  0.651600  0.415300  1.0  0.0919
  H  H347  1  0.369500  0.060400  0.092900  1.0  0.1021
  H  H348  1  0.385100  0.104900  0.141000  1.0  0.1006
  H  H349  1  0.376600  0.211900  0.060000  1.0  0.1012
  H  H350  1  0.360200  0.165800  0.011700  1.0  0.1112
  H  H351  1  0.346700  0.706000  0.363800  1.0  0.1343
  H  H352  1  0.428700  0.191700  0.201000  1.0  0.0723
  H  H353  1  0.312200  0.626500  0.295100  1.0  0.1274
  H  H354  1  0.397600  0.298400  0.165000  1.0  0.1227
  H  H355  1  0.380300  0.250000  0.126800  1.0  0.0941
  H  H356  1  0.533500  0.216700  0.155600  1.0  0.1137
  H  H357  1  0.503000  0.232100  0.153300  1.0  0.1187
  H  H358  1  0.506700  0.292700  0.274200  1.0  0.0949
  H  H359  1  0.536800  0.287700  0.273200  1.0  0.1233
  H  H360  1  0.477400  0.267800  0.145900  1.0  0.1251
  H  H361  1  0.447300  0.271100  0.150100  1.0  0.0929
  H  H362  1  0.315500  0.573800  0.354900  1.0  0.0865
  H  H363  1  0.381800  0.499000  0.357500  1.0  0.119
  H  H364  1  0.397000  0.451900  0.312400  1.0  0.0848
  H  H365  1  0.371000  0.345100  0.361400  1.0  0.1149
  H  H366  1  0.355800  0.393000  0.408300  1.0  0.1051
  H  H367  1  0.419500  0.404200  0.292300  1.0  0.1106
  H  H368  1  0.433600  0.360200  0.243700  1.0  0.1105
  H  H369  1  0.396300  0.263100  0.256700  1.0  0.1054
  H  H370  1  0.379900  0.310700  0.304400  1.0  0.115
  H  H371  1  0.353400  0.748000  0.329700  1.0  0.3519
  H  H372  1  0.355600  0.786100  0.295800  1.0  0.3099
  H  H373  1  0.384900  0.421900  0.472800  1.0  0.1116
  H  H374  1  0.402800  0.370900  0.431100  1.0  0.1138
  H  H375  1  0.402300  0.282200  0.533600  1.0  0.116
  H  H376  1  0.382700  0.330400  0.574900  1.0  0.1101
  H  H377  1  0.402200  0.300400  0.390100  1.0  0.1132
  H  H378  1  0.419000  0.249400  0.350400  1.0  0.1076
  H  H379  1  0.448100  0.219200  0.459500  1.0  0.1172
  H  H380  1  0.431100  0.266700  0.504200  1.0  0.1319
  H  H381  1  0.401500  0.013400  0.180900  1.0  0.1018
  H  H382  1  0.421200  0.058000  0.227100  1.0  0.1122
  H  H383  1  0.380300  0.083600  0.310700  1.0  0.1248
  H  H384  1  0.361900  0.040200  0.264500  1.0  0.1013
  H  H385  1  0.432700  0.119000  0.251800  1.0  0.0988
  H  H386  1  0.448000  0.177100  0.288900  1.0  0.1163
  H  H387  1  0.419200  0.145400  0.400700  1.0  0.1181
  H  H388  1  0.402700  0.095000  0.362000  1.0  0.1236
  H  H389  1  0.548100  0.308400  0.395300  1.0  0.1166
  H  H390  1  0.517700  0.289600  0.397000  1.0  0.1142
  H  H391  1  0.526600  0.177400  0.325800  1.0  0.1148
  H  H392  1  0.558500  0.194300  0.323100  1.0  0.1308
  H  H393  1  0.492500  0.287200  0.376400  1.0  0.1349
  H  H394  1  0.462100  0.273600  0.378500  1.0  0.1086
  H  H395  1  0.470500  0.141300  0.358700  1.0  0.1066
  H  H396  1  0.501900  0.154300  0.351800  1.0  0.1138
  H  H397  1  0.813200  0.331600  0.216000  1.0  0.1138
  H  H398  1  0.870000  0.348500  0.168500  1.0  0.0592
  H  H399  1  0.821400  0.401100  0.179600  1.0  0.1138
  H  H400  1  0.947700  0.773500  0.283300  1.0  0.1206
  H  H401  1  0.979100  0.770200  0.280500  1.0  0.0844
  H  H402  1  0.913000  0.644600  0.152200  1.0  0.1058
  H  H403  1  0.862100  0.280500  0.205800  1.0  0.1158
  H  H404  1  0.850000  0.151600  0.415300  1.0  0.0919
  H  H405  1  0.869500  0.560400  0.092900  1.0  0.1021
  H  H406  1  0.885100  0.604900  0.141000  1.0  0.1006
  H  H407  1  0.876600  0.711900  0.060000  1.0  0.1012
  H  H408  1  0.860200  0.665800  0.011700  1.0  0.1112
  H  H409  1  0.846700  0.206000  0.363800  1.0  0.1343
  H  H410  1  0.928700  0.691700  0.201000  1.0  0.0723
  H  H411  1  0.812200  0.126500  0.295100  1.0  0.1274
  H  H412  1  0.897600  0.798400  0.165000  1.0  0.1227
  H  H413  1  0.880300  0.750000  0.126800  1.0  0.0941
  H  H414  1  0.033500  0.716700  0.155600  1.0  0.1137
  H  H415  1  0.003000  0.732100  0.153300  1.0  0.1187
  H  H416  1  0.006700  0.792700  0.274200  1.0  0.0945
  H  H417  1  0.036800  0.787700  0.273200  1.0  0.1233
  H  H418  1  0.977400  0.767800  0.145900  1.0  0.1248
  H  H419  1  0.947300  0.771100  0.150100  1.0  0.0928
  H  H420  1  0.815500  0.073800  0.354900  1.0  0.0865
  H  H421  1  0.881800  0.999000  0.357500  1.0  0.119
  H  H422  1  0.897000  0.951900  0.312400  1.0  0.0848
  H  H423  1  0.871000  0.845100  0.361400  1.0  0.1149
  H  H424  1  0.855800  0.893000  0.408300  1.0  0.1051
  H  H425  1  0.919500  0.904200  0.292300  1.0  0.1106
  H  H426  1  0.933600  0.860200  0.243700  1.0  0.1111
  H  H427  1  0.896300  0.763100  0.256700  1.0  0.1054
  H  H428  1  0.879900  0.810700  0.304400  1.0  0.115
  H  H429  1  0.853400  0.248000  0.329700  1.0  0.3519
  H  H430  1  0.855600  0.286100  0.295800  1.0  0.3099
  H  H431  1  0.884900  0.921900  0.472800  1.0  0.1116
  H  H432  1  0.902800  0.870900  0.431100  1.0  0.1138
  H  H433  1  0.902300  0.782200  0.533600  1.0  0.116
  H  H434  1  0.882700  0.830400  0.574900  1.0  0.1101
  H  H435  1  0.902200  0.800400  0.390100  1.0  0.1132
  H  H436  1  0.919000  0.749400  0.350400  1.0  0.1076
  H  H437  1  0.948100  0.719200  0.459500  1.0  0.118
  H  H438  1  0.931100  0.766700  0.504200  1.0  0.1319
  H  H439  1  0.901500  0.513400  0.180900  1.0  0.1018
  H  H440  1  0.921200  0.558000  0.227100  1.0  0.1126
  H  H441  1  0.880300  0.583600  0.310700  1.0  0.1248
  H  H442  1  0.861900  0.540200  0.264500  1.0  0.1013
  H  H443  1  0.932700  0.619000  0.251800  1.0  0.0988
  H  H444  1  0.948000  0.677100  0.288900  1.0  0.1163
  H  H445  1  0.919200  0.645400  0.400700  1.0  0.1182
  H  H446  1  0.902700  0.595000  0.362000  1.0  0.1236
  H  H447  1  0.048100  0.808400  0.395300  1.0  0.1166
  H  H448  1  0.017700  0.789600  0.397000  1.0  0.1142
  H  H449  1  0.026600  0.677400  0.325800  1.0  0.1148
  H  H450  1  0.058500  0.694300  0.323100  1.0  0.1308
  H  H451  1  0.992500  0.787200  0.376400  1.0  0.1349
  H  H452  1  0.962100  0.773600  0.378500  1.0  0.1086
  H  H453  1  0.970500  0.641300  0.358700  1.0  0.1073
  H  H454  1  0.001900  0.654300  0.351800  1.0  0.1138
  H  H455  1  0.813200  0.831600  0.716000  1.0  0.1138
  H  H456  1  0.870000  0.848500  0.668500  1.0  0.0592
  H  H457  1  0.821400  0.901100  0.679600  1.0  0.1138
  H  H458  1  0.947700  0.273500  0.783300  1.0  0.1206
  H  H459  1  0.979100  0.270200  0.780500  1.0  0.0844
  H  H460  1  0.913000  0.144600  0.652200  1.0  0.1058
  H  H461  1  0.862100  0.780500  0.705800  1.0  0.1158
  H  H462  1  0.850000  0.651600  0.915300  1.0  0.0919
  H  H463  1  0.869500  0.060400  0.592900  1.0  0.1021
  H  H464  1  0.885100  0.104900  0.641000  1.0  0.1006
  H  H465  1  0.876600  0.211900  0.560000  1.0  0.1012
  H  H466  1  0.860200  0.165800  0.511700  1.0  0.1112
  H  H467  1  0.846700  0.706000  0.863800  1.0  0.1343
  H  H468  1  0.928700  0.191700  0.701000  1.0  0.0723
  H  H469  1  0.812200  0.626500  0.795100  1.0  0.1274
  H  H470  1  0.897600  0.298400  0.665000  1.0  0.1227
  H  H471  1  0.880300  0.250000  0.626800  1.0  0.0941
  H  H472  1  0.033500  0.216700  0.655600  1.0  0.1137
  H  H473  1  0.003000  0.232100  0.653300  1.0  0.1187
  H  H474  1  0.006700  0.292700  0.774200  1.0  0.0949
  H  H475  1  0.036800  0.287700  0.773200  1.0  0.1233
  H  H476  1  0.977400  0.267800  0.645900  1.0  0.1251
  H  H477  1  0.947300  0.271100  0.650100  1.0  0.0929
  H  H478  1  0.815500  0.573800  0.854900  1.0  0.0865
  H  H479  1  0.881800  0.499000  0.857500  1.0  0.119
  H  H480  1  0.897000  0.451900  0.812400  1.0  0.0848
  H  H481  1  0.871000  0.345100  0.861400  1.0  0.1149
  H  H482  1  0.855800  0.393000  0.908300  1.0  0.1051
  H  H483  1  0.919500  0.404200  0.792300  1.0  0.1106
  H  H484  1  0.933600  0.360200  0.743700  1.0  0.1105
  H  H485  1  0.896300  0.263100  0.756700  1.0  0.1054
  H  H486  1  0.879900  0.310700  0.804400  1.0  0.115
  H  H487  1  0.853400  0.748000  0.829700  1.0  0.3519
  H  H488  1  0.855600  0.786100  0.795800  1.0  0.3099
  H  H489  1  0.884900  0.421900  0.972800  1.0  0.1116
  H  H490  1  0.902800  0.370900  0.931100  1.0  0.1138
  H  H491  1  0.902300  0.282200  0.033600  1.0  0.116
  H  H492  1  0.882700  0.330400  0.074900  1.0  0.1101
  H  H493  1  0.902200  0.300400  0.890100  1.0  0.1132
  H  H494  1  0.919000  0.249400  0.850400  1.0  0.1076
  H  H495  1  0.948100  0.219200  0.959500  1.0  0.1189
  H  H496  1  0.931100  0.266700  0.004200  1.0  0.1319
  H  H497  1  0.901500  0.013400  0.680900  1.0  0.1018
  H  H498  1  0.921200  0.058000  0.727100  1.0  0.1127
  H  H499  1  0.880300  0.083600  0.810700  1.0  0.1248
  H  H500  1  0.861900  0.040200  0.764500  1.0  0.1013
  H  H501  1  0.932700  0.119000  0.751800  1.0  0.1009
  H  H502  1  0.948000  0.177100  0.788900  1.0  0.1163
  H  H503  1  0.919200  0.145400  0.900700  1.0  0.1184
  H  H504  1  0.902700  0.095000  0.862000  1.0  0.1236
  H  H505  1  0.048100  0.308400  0.895300  1.0  0.1166
  H  H506  1  0.017700  0.289600  0.897000  1.0  0.1142
  H  H507  1  0.026600  0.177400  0.825800  1.0  0.1148
  H  H508  1  0.058500  0.194300  0.823100  1.0  0.1308
  H  H509  1  0.992500  0.287200  0.876400  1.0  0.1349
  H  H510  1  0.962100  0.273600  0.878500  1.0  0.1086
  H  H511  1  0.970500  0.141300  0.858700  1.0  0.1066
  H  H512  1  0.001900  0.154300  0.851800  1.0  0.1138
  H  H513  1  0.936800  0.081600  0.466000  1.0  0.1126
  H  H514  1  0.880000  0.098500  0.418500  1.0  0.0586
  H  H515  1  0.928600  0.151100  0.429600  1.0  0.113
  H  H516  1  0.802300  0.523500  0.533300  1.0  0.1202
  H  H517  1  0.770900  0.520200  0.530500  1.0  0.0845
  H  H518  1  0.837000  0.394600  0.402200  1.0  0.1058
  H  H519  1  0.887900  0.030500  0.455800  1.0  0.116
  H  H520  1  0.900000  0.901600  0.665300  1.0  0.0913
  H  H521  1  0.880500  0.310400  0.342900  1.0  0.1025
  H  H522  1  0.864900  0.354900  0.391000  1.0  0.1008
  H  H523  1  0.873400  0.461900  0.310000  1.0  0.1015
  H  H524  1  0.889800  0.415800  0.261700  1.0  0.1114
  H  H525  1  0.903300  0.956000  0.613800  1.0  0.1335
  H  H526  1  0.821300  0.441700  0.451000  1.0  0.073
  H  H527  1  0.937800  0.876500  0.545100  1.0  0.1281
  H  H528  1  0.852400  0.548400  0.415000  1.0  0.1236
  H  H529  1  0.869700  0.500000  0.376800  1.0  0.0934
  H  H530  1  0.716500  0.466700  0.405600  1.0  0.1144
  H  H531  1  0.747000  0.482100  0.403300  1.0  0.1185
  H  H532  1  0.743300  0.542700  0.524200  1.0  0.0947
  H  H533  1  0.713200  0.537700  0.523200  1.0  0.1234
  H  H534  1  0.772600  0.517800  0.395900  1.0  0.1254
  H  H535  1  0.802700  0.521100  0.400100  1.0  0.0926
  H  H536  1  0.934500  0.823800  0.604900  1.0  0.0869
  H  H537  1  0.868200  0.749000  0.607500  1.0  0.1188
  H  H538  1  0.853000  0.701900  0.562400  1.0  0.0842
  H  H539  1  0.879000  0.595100  0.611400  1.0  0.1145
  H  H540  1  0.894200  0.643000  0.658300  1.0  0.1049
  H  H541  1  0.830500  0.654200  0.542300  1.0  0.1107
  H  H542  1  0.816400  0.610200  0.493700  1.0  0.1105
  H  H543  1  0.853700  0.513100  0.506700  1.0  0.106
  H  H544  1  0.870100  0.560700  0.554400  1.0  0.1149
  H  H545  1  0.896600  0.998000  0.579700  1.0  0.3515
  H  H546  1  0.894400  0.036100  0.545800  1.0  0.3089
  H  H547  1  0.865100  0.671900  0.722800  1.0  0.1115
  H  H548  1  0.847200  0.620900  0.681100  1.0  0.1135
  H  H549  1  0.847700  0.532200  0.783600  1.0  0.1158
  H  H550  1  0.867300  0.580400  0.824900  1.0  0.1088
  H  H551  1  0.847800  0.550400  0.640100  1.0  0.1148
  H  H552  1  0.831000  0.499400  0.600400  1.0  0.107
  H  H553  1  0.801900  0.469200  0.709500  1.0  0.1185
  H  H554  1  0.818900  0.516700  0.754200  1.0  0.1322
  H  H555  1  0.848500  0.263400  0.430900  1.0  0.1009
  H  H556  1  0.828800  0.308000  0.477100  1.0  0.1126
  H  H557  1  0.869700  0.333600  0.560700  1.0  0.1244
  H  H558  1  0.888100  0.290200  0.514500  1.0  0.1008
  H  H559  1  0.817300  0.369000  0.501800  1.0  0.0965
  H  H560  1  0.802000  0.427100  0.538900  1.0  0.1163
  H  H561  1  0.830800  0.395400  0.650700  1.0  0.1178
  H  H562  1  0.847300  0.345000  0.612000  1.0  0.1239
  H  H563  1  0.701900  0.558400  0.645300  1.0  0.1172
  H  H564  1  0.732300  0.539600  0.647000  1.0  0.1148
  H  H565  1  0.723400  0.427400  0.575800  1.0  0.1154
  H  H566  1  0.691500  0.444300  0.573100  1.0  0.1306
  H  H567  1  0.757500  0.537200  0.626400  1.0  0.1353
  H  H568  1  0.787900  0.523600  0.628500  1.0  0.1081
  H  H569  1  0.779500  0.391300  0.608700  1.0  0.1073
  H  H570  1  0.748100  0.404300  0.601800  1.0  0.1132
  H  H571  1  0.936800  0.581600  0.966000  1.0  0.1126
  H  H572  1  0.880000  0.598500  0.918500  1.0  0.0586
  H  H573  1  0.928600  0.651100  0.929600  1.0  0.113
  H  H574  1  0.802300  0.023500  0.033300  1.0  0.1202
  H  H575  1  0.770900  0.020200  0.030500  1.0  0.0844
  H  H576  1  0.837000  0.894600  0.902200  1.0  0.1058
  H  H577  1  0.887900  0.530500  0.955800  1.0  0.116
  H  H578  1  0.900000  0.401600  0.165300  1.0  0.0913
  H  H579  1  0.880500  0.810400  0.842900  1.0  0.1025
  H  H580  1  0.864900  0.854900  0.891000  1.0  0.1008
  H  H581  1  0.873400  0.961900  0.810000  1.0  0.1015
  H  H582  1  0.889800  0.915800  0.761700  1.0  0.1114
  H  H583  1  0.903300  0.456000  0.113800  1.0  0.1335
  H  H584  1  0.821300  0.941700  0.951000  1.0  0.073
  H  H585  1  0.937800  0.376500  0.045100  1.0  0.1274
  H  H586  1  0.852400  0.048400  0.915000  1.0  0.1249
  H  H587  1  0.869700  0.000000  0.876800  1.0  0.0934
  H  H588  1  0.716500  0.966700  0.905600  1.0  0.1144
  H  H589  1  0.747000  0.982100  0.903300  1.0  0.1185
  H  H590  1  0.743300  0.042700  0.024200  1.0  0.0947
  H  H591  1  0.713200  0.037700  0.023200  1.0  0.1234
  H  H592  1  0.772600  0.017800  0.895900  1.0  0.1254
  H  H593  1  0.802700  0.021100  0.900100  1.0  0.0926
  H  H594  1  0.934500  0.323800  0.104900  1.0  0.0869
  H  H595  1  0.868200  0.249000  0.107500  1.0  0.1188
  H  H596  1  0.853000  0.201900  0.062400  1.0  0.0842
  H  H597  1  0.879000  0.095100  0.111400  1.0  0.1171
  H  H598  1  0.894200  0.143000  0.158300  1.0  0.1049
  H  H599  1  0.830500  0.154200  0.042300  1.0  0.1107
  H  H600  1  0.816400  0.110200  0.993700  1.0  0.1105
  H  H601  1  0.853700  0.013100  0.006700  1.0  0.106
  H  H602  1  0.870100  0.060700  0.054400  1.0  0.1175
  H  H603  1  0.896600  0.498000  0.079700  1.0  0.3515
  H  H604  1  0.894400  0.536100  0.045800  1.0  0.309
  H  H605  1  0.865100  0.171900  0.222800  1.0  0.1115
  H  H606  1  0.847200  0.120900  0.181100  1.0  0.1135
  H  H607  1  0.847700  0.032200  0.283600  1.0  0.1158
  H  H608  1  0.867300  0.080400  0.324900  1.0  0.1088
  H  H609  1  0.847800  0.050400  0.140100  1.0  0.1148
  H  H610  1  0.831000  0.999400  0.100400  1.0  0.107
  H  H611  1  0.801900  0.969200  0.209500  1.0  0.1187
  H  H612  1  0.818900  0.016700  0.254200  1.0  0.1322
  H  H613  1  0.848500  0.763400  0.930900  1.0  0.1009
  H  H614  1  0.828800  0.808000  0.977100  1.0  0.1126
  H  H615  1  0.869700  0.833600  0.060700  1.0  0.1244
  H  H616  1  0.888100  0.790200  0.014500  1.0  0.1008
  H  H617  1  0.817300  0.869000  0.001800  1.0  0.0965
  H  H618  1  0.802000  0.927100  0.038900  1.0  0.1163
  H  H619  1  0.830800  0.895400  0.150700  1.0  0.1178
  H  H620  1  0.847300  0.845000  0.112000  1.0  0.1239
  H  H621  1  0.701900  0.058400  0.145300  1.0  0.1172
  H  H622  1  0.732300  0.039600  0.147000  1.0  0.1148
  H  H623  1  0.723400  0.927400  0.075800  1.0  0.1154
  H  H624  1  0.691500  0.944300  0.073100  1.0  0.1306
  H  H625  1  0.757500  0.037200  0.126400  1.0  0.1353
  H  H626  1  0.787900  0.023600  0.128500  1.0  0.1085
  H  H627  1  0.779500  0.891300  0.108700  1.0  0.1073
  H  H628  1  0.748100  0.904300  0.101800  1.0  0.1132
  H  H629  1  0.436800  0.081600  0.966000  1.0  0.1126
  H  H630  1  0.380000  0.098500  0.918500  1.0  0.0586
  H  H631  1  0.428600  0.151100  0.929600  1.0  0.113
  H  H632  1  0.302300  0.523500  0.033300  1.0  0.1202
  H  H633  1  0.270900  0.520200  0.030500  1.0  0.0844
  H  H634  1  0.337000  0.394600  0.902200  1.0  0.1058
  H  H635  1  0.387900  0.030500  0.955800  1.0  0.116
  H  H636  1  0.400000  0.901600  0.165300  1.0  0.0913
  H  H637  1  0.380500  0.310400  0.842900  1.0  0.1025
  H  H638  1  0.364900  0.354900  0.891000  1.0  0.1008
  H  H639  1  0.373400  0.461900  0.810000  1.0  0.1015
  H  H640  1  0.389800  0.415800  0.761700  1.0  0.1114
  H  H641  1  0.403300  0.956000  0.113800  1.0  0.1335
  H  H642  1  0.321300  0.441700  0.951000  1.0  0.073
  H  H643  1  0.437800  0.876500  0.045100  1.0  0.1272
  H  H644  1  0.352400  0.548400  0.915000  1.0  0.1229
  H  H645  1  0.369700  0.500000  0.876800  1.0  0.0934
  H  H646  1  0.216500  0.466700  0.905600  1.0  0.1144
  H  H647  1  0.247000  0.482100  0.903300  1.0  0.1185
  H  H648  1  0.243300  0.542700  0.024200  1.0  0.0947
  H  H649  1  0.213200  0.537700  0.023200  1.0  0.1234
  H  H650  1  0.272600  0.517800  0.895900  1.0  0.1254
  H  H651  1  0.302700  0.521100  0.900100  1.0  0.0926
  H  H652  1  0.434500  0.823800  0.104900  1.0  0.0869
  H  H653  1  0.368200  0.749000  0.107500  1.0  0.1188
  H  H654  1  0.353000  0.701900  0.062400  1.0  0.0842
  H  H655  1  0.379000  0.595100  0.111400  1.0  0.1145
  H  H656  1  0.394200  0.643000  0.158300  1.0  0.1049
  H  H657  1  0.330500  0.654200  0.042300  1.0  0.1107
  H  H658  1  0.316400  0.610200  0.993700  1.0  0.1105
  H  H659  1  0.353700  0.513100  0.006700  1.0  0.106
  H  H660  1  0.370100  0.560700  0.054400  1.0  0.1149
  H  H661  1  0.396600  0.998000  0.079700  1.0  0.3515
  H  H662  1  0.394400  0.036100  0.045800  1.0  0.3089
  H  H663  1  0.365100  0.671900  0.222800  1.0  0.1115
  H  H664  1  0.347200  0.620900  0.181100  1.0  0.1135
  H  H665  1  0.347700  0.532200  0.283600  1.0  0.1158
  H  H666  1  0.367300  0.580400  0.324900  1.0  0.1088
  H  H667  1  0.347800  0.550400  0.140100  1.0  0.1148
  H  H668  1  0.331000  0.499400  0.100400  1.0  0.107
  H  H669  1  0.301900  0.469200  0.209500  1.0  0.1185
  H  H670  1  0.318900  0.516700  0.254200  1.0  0.1322
  H  H671  1  0.348500  0.263400  0.930900  1.0  0.1009
  H  H672  1  0.328800  0.308000  0.977100  1.0  0.1126
  H  H673  1  0.369700  0.333600  0.060700  1.0  0.1244
  H  H674  1  0.388100  0.290200  0.014500  1.0  0.1008
  H  H675  1  0.317300  0.369000  0.001800  1.0  0.0965
  H  H676  1  0.302000  0.427100  0.038900  1.0  0.1163
  H  H677  1  0.330800  0.395400  0.150700  1.0  0.1178
  H  H678  1  0.347300  0.345000  0.112000  1.0  0.1239
  H  H679  1  0.201900  0.558400  0.145300  1.0  0.1172
  H  H680  1  0.232300  0.539600  0.147000  1.0  0.1148
  H  H681  1  0.223400  0.427400  0.075800  1.0  0.1154
  H  H682  1  0.191500  0.444300  0.073100  1.0  0.1306
  H  H683  1  0.257500  0.537200  0.126400  1.0  0.1353
  H  H684  1  0.287900  0.523600  0.128500  1.0  0.1081
  H  H685  1  0.279500  0.391300  0.108700  1.0  0.1073
  H  H686  1  0.248100  0.404300  0.101800  1.0  0.1132
  H  H687  1  0.436800  0.581600  0.466000  1.0  0.1126
  H  H688  1  0.380000  0.598500  0.418500  1.0  0.0586
  H  H689  1  0.428600  0.651100  0.429600  1.0  0.113
  H  H690  1  0.302300  0.023500  0.533300  1.0  0.1202
  H  H691  1  0.270900  0.020200  0.530500  1.0  0.0845
  H  H692  1  0.337000  0.894600  0.402200  1.0  0.1058
  H  H693  1  0.387900  0.530500  0.455800  1.0  0.116
  H  H694  1  0.400000  0.401600  0.665300  1.0  0.0913
  H  H695  1  0.380500  0.810400  0.342900  1.0  0.1025
  H  H696  1  0.364900  0.854900  0.391000  1.0  0.1008
  H  H697  1  0.373400  0.961900  0.310000  1.0  0.1015
  H  H698  1  0.389800  0.915800  0.261700  1.0  0.1114
  H  H699  1  0.403300  0.456000  0.613800  1.0  0.1335
  H  H700  1  0.321300  0.941700  0.451000  1.0  0.073
  H  H701  1  0.437800  0.376500  0.545100  1.0  0.1272
  H  H702  1  0.352400  0.048400  0.415000  1.0  0.1249
  H  H703  1  0.369700  0.000000  0.376800  1.0  0.0934
  H  H704  1  0.216500  0.966700  0.405600  1.0  0.1144
  H  H705  1  0.247000  0.982100  0.403300  1.0  0.1185
  H  H706  1  0.243300  0.042700  0.524200  1.0  0.0947
  H  H707  1  0.213200  0.037700  0.523200  1.0  0.1234
  H  H708  1  0.272600  0.017800  0.395900  1.0  0.1254
  H  H709  1  0.302700  0.021100  0.400100  1.0  0.0926
  H  H710  1  0.434500  0.323800  0.604900  1.0  0.0869
  H  H711  1  0.368200  0.249000  0.607500  1.0  0.1188
  H  H712  1  0.353000  0.201900  0.562400  1.0  0.0842
  H  H713  1  0.379000  0.095100  0.611400  1.0  0.1171
  H  H714  1  0.394200  0.143000  0.658300  1.0  0.1049
  H  H715  1  0.330500  0.154200  0.542300  1.0  0.1107
  H  H716  1  0.316400  0.110200  0.493700  1.0  0.1105
  H  H717  1  0.353700  0.013100  0.506700  1.0  0.106
  H  H718  1  0.370100  0.060700  0.554400  1.0  0.1159
  H  H719  1  0.396600  0.498000  0.579700  1.0  0.3515
  H  H720  1  0.394400  0.536100  0.545800  1.0  0.309
  H  H721  1  0.365100  0.171900  0.722800  1.0  0.1115
  H  H722  1  0.347200  0.120900  0.681100  1.0  0.1135
  H  H723  1  0.347700  0.032200  0.783600  1.0  0.1158
  H  H724  1  0.367300  0.080400  0.824900  1.0  0.1088
  H  H725  1  0.347800  0.050400  0.640100  1.0  0.1148
  H  H726  1  0.331000  0.999400  0.600400  1.0  0.107
  H  H727  1  0.301900  0.969200  0.709500  1.0  0.1187
  H  H728  1  0.318900  0.016700  0.754200  1.0  0.1322
  H  H729  1  0.348500  0.763400  0.430900  1.0  0.1009
  H  H730  1  0.328800  0.808000  0.477100  1.0  0.1126
  H  H731  1  0.369700  0.833600  0.560700  1.0  0.1244
  H  H732  1  0.388100  0.790200  0.514500  1.0  0.1008
  H  H733  1  0.317300  0.869000  0.501800  1.0  0.0965
  H  H734  1  0.302000  0.927100  0.538900  1.0  0.1163
  H  H735  1  0.330800  0.895400  0.650700  1.0  0.1178
  H  H736  1  0.347300  0.845000  0.612000  1.0  0.1239
  H  H737  1  0.201900  0.058400  0.645300  1.0  0.1172
  H  H738  1  0.232300  0.039600  0.647000  1.0  0.1148
  H  H739  1  0.223400  0.927400  0.575800  1.0  0.1154
  H  H740  1  0.191500  0.944300  0.573100  1.0  0.1306
  H  H741  1  0.257500  0.037200  0.626400  1.0  0.1353
  H  H742  1  0.287900  0.023600  0.628500  1.0  0.1085
  H  H743  1  0.279500  0.891300  0.608700  1.0  0.1073
  H  H744  1  0.248100  0.904300  0.601800  1.0  0.1132
  H  H745  1  0.186800  0.168400  0.716000  1.0  0.1126
  H  H746  1  0.130000  0.151500  0.668500  1.0  0.0587
  H  H747  1  0.178600  0.098900  0.679600  1.0  0.114
  H  H748  1  0.052300  0.726500  0.783300  1.0  0.1198
  H  H749  1  0.020900  0.729800  0.780500  1.0  0.0847
  H  H750  1  0.087000  0.855400  0.652200  1.0  0.1061
  H  H751  1  0.137900  0.219500  0.705800  1.0  0.1161
  H  H752  1  0.150000  0.348400  0.915300  1.0  0.0918
  H  H753  1  0.130500  0.939600  0.592900  1.0  0.1023
  H  H754  1  0.114900  0.895100  0.641000  1.0  0.1007
  H  H755  1  0.123400  0.788100  0.560000  1.0  0.1016
  H  H756  1  0.139800  0.834200  0.511700  1.0  0.1114
  H  H757  1  0.153300  0.294000  0.863800  1.0  0.1322
  H  H758  1  0.071300  0.808300  0.701000  1.0  0.0728
  H  H759  1  0.187800  0.373500  0.795100  1.0  0.127
  H  H760  1  0.102400  0.701600  0.665000  1.0  0.1254
  H  H761  1  0.119700  0.750000  0.626800  1.0  0.0932
  H  H762  1  0.966500  0.783300  0.655600  1.0  0.1142
  H  H763  1  0.997000  0.767900  0.653300  1.0  0.1187
  H  H764  1  0.993300  0.707300  0.774200  1.0  0.0953
  H  H765  1  0.963200  0.712300  0.773200  1.0  0.1216
  H  H766  1  0.022600  0.732200  0.645900  1.0  0.1262
  H  H767  1  0.052700  0.728900  0.650100  1.0  0.0927
  H  H768  1  0.184500  0.426200  0.854900  1.0  0.0857
  H  H769  1  0.118200  0.501000  0.857500  1.0  0.1185
  H  H770  1  0.103000  0.548100  0.812400  1.0  0.0836
  H  H771  1  0.129000  0.654900  0.861400  1.0  0.1144
  H  H772  1  0.144200  0.607000  0.908300  1.0  0.1052
  H  H773  1  0.080500  0.595800  0.792300  1.0  0.1097
  H  H774  1  0.066400  0.639800  0.743700  1.0  0.1097
  H  H775  1  0.103700  0.736900  0.756700  1.0  0.106
  H  H776  1  0.120100  0.689300  0.804400  1.0  0.1172
  H  H777  1  0.146600  0.252000  0.829700  1.0  0.353
  H  H778  1  0.144400  0.213900  0.795800  1.0  0.309
  H  H779  1  0.115100  0.578100  0.972800  1.0  0.1118
  H  H780  1  0.097200  0.629100  0.931100  1.0  0.1135
  H  H781  1  0.097700  0.717800  0.033600  1.0  0.1161
  H  H782  1  0.117300  0.669600  0.074900  1.0  0.1087
  H  H783  1  0.097800  0.699600  0.890100  1.0  0.1152
  H  H784  1  0.081000  0.750600  0.850400  1.0  0.1071
  H  H785  1  0.051900  0.780800  0.959500  1.0  0.1183
  H  H786  1  0.068900  0.733300  0.004200  1.0  0.1324
  H  H787  1  0.098500  0.986600  0.680900  1.0  0.1005
  H  H788  1  0.078800  0.942000  0.727100  1.0  0.1128
  H  H789  1  0.119700  0.916400  0.810700  1.0  0.1244
  H  H790  1  0.138100  0.959800  0.764500  1.0  0.1008
  H  H791  1  0.067300  0.881000  0.751800  1.0  0.0987
  H  H792  1  0.052000  0.822900  0.788900  1.0  0.1164
  H  H793  1  0.080800  0.854600  0.900700  1.0  0.1183
  H  H794  1  0.097300  0.905000  0.862000  1.0  0.1239
  H  H795  1  0.951900  0.691600  0.895300  1.0  0.1161
  H  H796  1  0.982300  0.710400  0.897000  1.0  0.1147
  H  H797  1  0.973400  0.822600  0.825800  1.0  0.1162
  H  H798  1  0.941500  0.805700  0.823100  1.0  0.1316
  H  H799  1  0.007500  0.712800  0.876400  1.0  0.1336
  H  H800  1  0.037900  0.726400  0.878500  1.0  0.1088
  H  H801  1  0.029500  0.858700  0.858700  1.0  0.1065
  H  H802  1  0.998100  0.845700  0.851800  1.0  0.1144
  H  H803  1  0.186800  0.668400  0.216000  1.0  0.1126
  H  H804  1  0.130000  0.651500  0.168500  1.0  0.0587
  H  H805  1  0.178600  0.598900  0.179600  1.0  0.114
  H  H806  1  0.052300  0.226500  0.283300  1.0  0.1198
  H  H807  1  0.020900  0.229800  0.280500  1.0  0.0847
  H  H808  1  0.087000  0.355400  0.152200  1.0  0.1061
  H  H809  1  0.137900  0.719500  0.205800  1.0  0.1161
  H  H810  1  0.150000  0.848400  0.415300  1.0  0.0918
  H  H811  1  0.130500  0.439600  0.092900  1.0  0.1023
  H  H812  1  0.114900  0.395100  0.141000  1.0  0.1007
  H  H813  1  0.123400  0.288100  0.060000  1.0  0.1016
  H  H814  1  0.139800  0.334200  0.011700  1.0  0.1114
  H  H815  1  0.153300  0.794000  0.363800  1.0  0.1322
  H  H816  1  0.071300  0.308300  0.201000  1.0  0.0728
  H  H817  1  0.187800  0.873500  0.295100  1.0  0.127
  H  H818  1  0.102400  0.201600  0.165000  1.0  0.1254
  H  H819  1  0.119700  0.250000  0.126800  1.0  0.0932
  H  H820  1  0.966500  0.283300  0.155600  1.0  0.1142
  H  H821  1  0.997000  0.267900  0.153300  1.0  0.1187
  H  H822  1  0.993300  0.207300  0.274200  1.0  0.0948
  H  H823  1  0.963200  0.212300  0.273200  1.0  0.1216
  H  H824  1  0.022600  0.232200  0.145900  1.0  0.126
  H  H825  1  0.052700  0.228900  0.150100  1.0  0.0925
  H  H826  1  0.184500  0.926200  0.354900  1.0  0.0857
  H  H827  1  0.118200  0.001000  0.357500  1.0  0.1185
  H  H828  1  0.103000  0.048100  0.312400  1.0  0.0836
  H  H829  1  0.129000  0.154900  0.361400  1.0  0.1144
  H  H830  1  0.144200  0.107000  0.408300  1.0  0.1052
  H  H831  1  0.080500  0.095800  0.292300  1.0  0.1097
  H  H832  1  0.066400  0.139800  0.243700  1.0  0.1101
  H  H833  1  0.103700  0.236900  0.256700  1.0  0.106
  H  H834  1  0.120100  0.189300  0.304400  1.0  0.1172
  H  H835  1  0.146600  0.752000  0.329700  1.0  0.353
  H  H836  1  0.144400  0.713900  0.295800  1.0  0.309
  H  H837  1  0.115100  0.078100  0.472800  1.0  0.1118
  H  H838  1  0.097200  0.129100  0.431100  1.0  0.1135
  H  H839  1  0.097700  0.217800  0.533600  1.0  0.1161
  H  H840  1  0.117300  0.169600  0.574900  1.0  0.1087
  H  H841  1  0.097800  0.199600  0.390100  1.0  0.1152
  H  H842  1  0.081000  0.250600  0.350400  1.0  0.1071
  H  H843  1  0.051900  0.280800  0.459500  1.0  0.1176
  H  H844  1  0.068900  0.233300  0.504200  1.0  0.1324
  H  H845  1  0.098500  0.486600  0.180900  1.0  0.1005
  H  H846  1  0.078800  0.442000  0.227100  1.0  0.1123
  H  H847  1  0.119700  0.416400  0.310700  1.0  0.1244
  H  H848  1  0.138100  0.459800  0.264500  1.0  0.1008
  H  H849  1  0.067300  0.381000  0.251800  1.0  0.0965
  H  H850  1  0.052000  0.322900  0.288900  1.0  0.1164
  H  H851  1  0.080800  0.354600  0.400700  1.0  0.1185
  H  H852  1  0.097300  0.405000  0.362000  1.0  0.1239
  H  H853  1  0.951900  0.191600  0.395300  1.0  0.1161
  H  H854  1  0.982300  0.210400  0.397000  1.0  0.1147
  H  H855  1  0.973400  0.322600  0.325800  1.0  0.1162
  H  H856  1  0.941500  0.305700  0.323100  1.0  0.1316
  H  H857  1  0.007500  0.212800  0.376400  1.0  0.1336
  H  H858  1  0.037900  0.226400  0.378500  1.0  0.1088
  H  H859  1  0.029500  0.358700  0.358700  1.0  0.1071
  H  H860  1  0.998100  0.345700  0.351800  1.0  0.1144
  H  H861  1  0.686800  0.168400  0.216000  1.0  0.1126
  H  H862  1  0.630000  0.151500  0.168500  1.0  0.0587
  H  H863  1  0.678600  0.098900  0.179600  1.0  0.114
  H  H864  1  0.552300  0.726500  0.283300  1.0  0.1198
  H  H865  1  0.520900  0.729800  0.280500  1.0  0.0847
  H  H866  1  0.587000  0.855400  0.152200  1.0  0.1061
  H  H867  1  0.637900  0.219500  0.205800  1.0  0.1161
  H  H868  1  0.650000  0.348400  0.415300  1.0  0.0918
  H  H869  1  0.630500  0.939600  0.092900  1.0  0.1023
  H  H870  1  0.614900  0.895100  0.141000  1.0  0.1007
  H  H871  1  0.623400  0.788100  0.060000  1.0  0.1016
  H  H872  1  0.639800  0.834200  0.011700  1.0  0.1114
  H  H873  1  0.653300  0.294000  0.363800  1.0  0.1322
  H  H874  1  0.571300  0.808300  0.201000  1.0  0.0728
  H  H875  1  0.687800  0.373500  0.295100  1.0  0.127
  H  H876  1  0.602400  0.701600  0.165000  1.0  0.1254
  H  H877  1  0.619700  0.750000  0.126800  1.0  0.0932
  H  H878  1  0.466500  0.783300  0.155600  1.0  0.1142
  H  H879  1  0.497000  0.767900  0.153300  1.0  0.1187
  H  H880  1  0.493300  0.707300  0.274200  1.0  0.0953
  H  H881  1  0.463200  0.712300  0.273200  1.0  0.1216
  H  H882  1  0.522600  0.732200  0.145900  1.0  0.1262
  H  H883  1  0.552700  0.728900  0.150100  1.0  0.0927
  H  H884  1  0.684500  0.426200  0.354900  1.0  0.0857
  H  H885  1  0.618200  0.501000  0.357500  1.0  0.1185
  H  H886  1  0.603000  0.548100  0.312400  1.0  0.0836
  H  H887  1  0.629000  0.654900  0.361400  1.0  0.1144
  H  H888  1  0.644200  0.607000  0.408300  1.0  0.1052
  H  H889  1  0.580500  0.595800  0.292300  1.0  0.1097
  H  H890  1  0.566400  0.639800  0.243700  1.0  0.1097
  H  H891  1  0.603700  0.736900  0.256700  1.0  0.106
  H  H892  1  0.620100  0.689300  0.304400  1.0  0.1172
  H  H893  1  0.646600  0.252000  0.329700  1.0  0.353
  H  H894  1  0.644400  0.213900  0.295800  1.0  0.309
  H  H895  1  0.615100  0.578100  0.472800  1.0  0.1118
  H  H896  1  0.597200  0.629100  0.431100  1.0  0.1135
  H  H897  1  0.597700  0.717800  0.533600  1.0  0.1161
  H  H898  1  0.617300  0.669600  0.574900  1.0  0.1087
  H  H899  1  0.597800  0.699600  0.390100  1.0  0.1152
  H  H900  1  0.581000  0.750600  0.350400  1.0  0.1071
  H  H901  1  0.551900  0.780800  0.459500  1.0  0.117
  H  H902  1  0.568900  0.733300  0.504200  1.0  0.1324
  H  H903  1  0.598500  0.986600  0.180900  1.0  0.1005
  H  H904  1  0.578800  0.942000  0.227100  1.0  0.1119
  H  H905  1  0.619700  0.916400  0.310700  1.0  0.1244
  H  H906  1  0.638100  0.959800  0.264500  1.0  0.1008
  H  H907  1  0.567300  0.881000  0.251800  1.0  0.0965
  H  H908  1  0.552000  0.822900  0.288900  1.0  0.1164
  H  H909  1  0.580800  0.854600  0.400700  1.0  0.1181
  H  H910  1  0.597300  0.905000  0.362000  1.0  0.1239
  H  H911  1  0.451900  0.691600  0.395300  1.0  0.1161
  H  H912  1  0.482300  0.710400  0.397000  1.0  0.1147
  H  H913  1  0.473400  0.822600  0.325800  1.0  0.1162
  H  H914  1  0.441500  0.805700  0.323100  1.0  0.1316
  H  H915  1  0.507500  0.712800  0.376400  1.0  0.1336
  H  H916  1  0.537900  0.726400  0.378500  1.0  0.1088
  H  H917  1  0.529500  0.858700  0.358700  1.0  0.1062
  H  H918  1  0.498100  0.845700  0.351800  1.0  0.1144
  H  H919  1  0.686800  0.668400  0.716000  1.0  0.1126
  H  H920  1  0.630000  0.651500  0.668500  1.0  0.0587
  H  H921  1  0.678600  0.598900  0.679600  1.0  0.114
  H  H922  1  0.552300  0.226500  0.783300  1.0  0.1198
  H  H923  1  0.520900  0.229800  0.780500  1.0  0.0847
  H  H924  1  0.587000  0.355400  0.652200  1.0  0.1061
  H  H925  1  0.637900  0.719500  0.705800  1.0  0.1161
  H  H926  1  0.650000  0.848400  0.915300  1.0  0.0918
  H  H927  1  0.630500  0.439600  0.592900  1.0  0.1023
  H  H928  1  0.614900  0.395100  0.641000  1.0  0.1007
  H  H929  1  0.623400  0.288100  0.560000  1.0  0.1016
  H  H930  1  0.639800  0.334200  0.511700  1.0  0.1114
  H  H931  1  0.653300  0.794000  0.863800  1.0  0.1322
  H  H932  1  0.571300  0.308300  0.701000  1.0  0.0728
  H  H933  1  0.687800  0.873500  0.795100  1.0  0.127
  H  H934  1  0.602400  0.201600  0.665000  1.0  0.1254
  H  H935  1  0.619700  0.250000  0.626800  1.0  0.0932
  H  H936  1  0.466500  0.283300  0.655600  1.0  0.1142
  H  H937  1  0.497000  0.267900  0.653300  1.0  0.1187
  H  H938  1  0.493300  0.207300  0.774200  1.0  0.0953
  H  H939  1  0.463200  0.212300  0.773200  1.0  0.1216
  H  H940  1  0.522600  0.232200  0.645900  1.0  0.1259
  H  H941  1  0.552700  0.228900  0.650100  1.0  0.0927
  H  H942  1  0.684500  0.926200  0.854900  1.0  0.0857
  H  H943  1  0.618200  0.001000  0.857500  1.0  0.1185
  H  H944  1  0.603000  0.048100  0.812400  1.0  0.0836
  H  H945  1  0.629000  0.154900  0.861400  1.0  0.1144
  H  H946  1  0.644200  0.107000  0.908300  1.0  0.1052
  H  H947  1  0.580500  0.095800  0.792300  1.0  0.1097
  H  H948  1  0.566400  0.139800  0.743700  1.0  0.1096
  H  H949  1  0.603700  0.236900  0.756700  1.0  0.106
  H  H950  1  0.620100  0.189300  0.804400  1.0  0.1172
  H  H951  1  0.646600  0.752000  0.829700  1.0  0.353
  H  H952  1  0.644400  0.713900  0.795800  1.0  0.309
  H  H953  1  0.615100  0.078100  0.972800  1.0  0.1118
  H  H954  1  0.597200  0.129100  0.931100  1.0  0.1135
  H  H955  1  0.597700  0.217800  0.033600  1.0  0.1161
  H  H956  1  0.617300  0.169600  0.074900  1.0  0.1087
  H  H957  1  0.597800  0.199600  0.890100  1.0  0.1152
  H  H958  1  0.581000  0.250600  0.850400  1.0  0.1071
  H  H959  1  0.551900  0.280800  0.959500  1.0  0.1175
  H  H960  1  0.568900  0.233300  0.004200  1.0  0.1324
  H  H961  1  0.598500  0.486600  0.680900  1.0  0.1005
  H  H962  1  0.578800  0.442000  0.727100  1.0  0.1123
  H  H963  1  0.619700  0.416400  0.810700  1.0  0.1244
  H  H964  1  0.638100  0.459800  0.764500  1.0  0.1008
  H  H965  1  0.567300  0.381000  0.751800  1.0  0.0965
  H  H966  1  0.552000  0.322900  0.788900  1.0  0.1164
  H  H967  1  0.580800  0.354600  0.900700  1.0  0.1185
  H  H968  1  0.597300  0.405000  0.862000  1.0  0.1239
  H  H969  1  0.451900  0.191600  0.895300  1.0  0.1161
  H  H970  1  0.482300  0.210400  0.897000  1.0  0.1147
  H  H971  1  0.473400  0.322600  0.825800  1.0  0.1162
  H  H972  1  0.441500  0.305700  0.823100  1.0  0.1316
  H  H973  1  0.507500  0.212800  0.876400  1.0  0.1336
  H  H974  1  0.537900  0.226400  0.878500  1.0  0.1088
  H  H975  1  0.529500  0.358700  0.858700  1.0  0.1071
  H  H976  1  0.498100  0.345700  0.851800  1.0  0.1144
  C  C977  1  0.075200  0.914900  0.456200  1.0  -0.0632
  C  C978  1  0.108070  0.904300  0.428800  1.0  0.1946
  C  C979  1  0.144180  0.560000  0.383400  1.0  0.0328
  C  C980  1  0.079600  0.872800  0.434600  1.0  0.0999
  C  C981  1  0.203980  0.476600  0.505600  1.0  -0.2078
  C  C982  1  0.086920  0.951400  0.464100  1.0  0.0927
  C  C983  1  0.080290  0.991700  0.488400  1.0  0.3225
  C  C984  1  0.165960  0.502000  0.438000  1.0  0.1447
  C  C985  1  0.222620  0.479400  0.503000  1.0  -0.1038
  C  C986  1  0.159260  0.575000  0.405800  1.0  -0.1912
  C  C987  1  0.103460  0.946500  0.451000  1.0  -0.1939
  C  C988  1  0.091940  0.103100  0.641100  1.0  0.1787
  C  C989  1  0.105310  0.672300  0.263100  1.0  0.6723
  C  C990  1  0.114450  0.642300  0.296200  1.0  -0.1515
  C  C991  1  0.121350  0.658800  0.335500  1.0  -0.1198
  C  C992  1  0.130680  0.632300  0.363900  1.0  -0.1801
  C  C993  1  0.134050  0.587100  0.355000  1.0  0.1197
  C  C994  1  0.125590  0.569400  0.316400  1.0  -0.1335
  C  C995  1  0.115830  0.596800  0.287400  1.0  -0.0938
  C  C996  1  0.079030  0.077900  0.572400  1.0  0.0197
  C  C997  1  0.090310  0.071500  0.610500  1.0  -0.1879
  C  C998  1  0.169150  0.545800  0.433900  1.0  -0.1158
  C  C999  1  0.069800  0.117200  0.569800  1.0  -0.1067
  C  C1000  1  0.150470  0.482900  0.413900  1.0  -0.1606
  C  C1001  1  0.140780  0.511900  0.390600  1.0  -0.1396
  C  C1002  1  0.308740  0.511200  0.466300  1.0  0.7199
  C  C1003  1  0.288130  0.501000  0.465200  1.0  -0.132
  C  C1004  1  0.277990  0.516900  0.429300  1.0  -0.039
  C  C1005  1  0.259910  0.508600  0.428500  1.0  -0.1006
  C  C1006  1  0.251510  0.486600  0.464600  1.0  0.0468
  C  C1007  1  0.262310  0.471600  0.499300  1.0  -0.0985
  C  C1008  1  0.279900  0.475800  0.500000  1.0  -0.13
  C  C1009  1  0.232000  0.481400  0.464600  1.0  0.0693
  C  C1010  1  0.221730  0.480700  0.424400  1.0  -0.1948
  C  C1011  1  0.203930  0.478000  0.427300  1.0  -0.0905
  C  C1012  1  0.195300  0.474200  0.464200  1.0  0.2283
  C  C1013  1  0.072030  0.148700  0.605600  1.0  0.1681
  C  C1014  1  0.077690  0.046400  0.534900  1.0  0.195
  C  C1015  1  0.105480  0.268700  0.667300  1.0  0.6562
  C  C1016  1  0.116750  0.299200  0.637400  1.0  -0.161
  C  C1017  1  0.129460  0.282600  0.608700  1.0  -0.2012
  C  C1018  1  0.138560  0.311000  0.582500  1.0  -0.1286
  C  C1019  1  0.136910  0.356100  0.581700  1.0  0.0819
  C  C1020  1  0.123480  0.373400  0.610900  1.0  -0.2067
  C  C1021  1  0.114290  0.344800  0.638000  1.0  -0.0501
  C  C1022  1  0.147540  0.385500  0.553100  1.0  0.0347
  C  C1023  1  0.164250  0.373900  0.534300  1.0  -0.1696
  C  C1024  1  0.172760  0.400300  0.506400  1.0  -0.1124
  C  C1025  1  0.166730  0.443100  0.494500  1.0  0.1982
  C  C1026  1  0.150700  0.457500  0.513400  1.0  -0.1696
  C  C1027  1  0.140950  0.429200  0.542200  1.0  -0.1374
  C  C1028  1  0.120870  0.337100  0.803600  1.0  0.684
  C  C1029  1  0.132230  0.369400  0.777300  1.0  -0.13
  C  C1030  1  0.138040  0.356700  0.735000  1.0  -0.0324
  C  C1031  1  0.148780  0.387000  0.710400  1.0  -0.1176
  C  C1032  1  0.153530  0.428100  0.728500  1.0  0.0568
  C  C1033  1  0.148330  0.440100  0.770900  1.0  -0.1054
  C  C1034  1  0.136930  0.411000  0.796100  1.0  -0.0538
  C  C1035  1  0.164560  0.461000  0.701600  1.0  -0.0633
  C  C1036  1  0.161290  0.466600  0.654700  1.0  -0.084
  C  C1037  1  0.171220  0.496200  0.631500  1.0  -0.072
  C  C1038  1  0.184620  0.520500  0.652400  1.0  0.1653
  C  C1039  1  0.188430  0.514700  0.696600  1.0  -0.1384
  C  C1040  1  0.178680  0.486300  0.723000  1.0  -0.1493
  C  C1041  1  0.119050  0.760600  0.443200  1.0  0.6113
  C  C1042  1  0.130770  0.729900  0.471100  1.0  -0.1125
  C  C1043  1  0.147280  0.723300  0.457900  1.0  -0.0998
  C  C1044  1  0.159080  0.695300  0.485500  1.0  -0.1489
  C  C1045  1  0.153210  0.674900  0.521100  1.0  -0.0065
  C  C1046  1  0.134870  0.680500  0.534400  1.0  -0.1592
  C  C1047  1  0.124230  0.707100  0.507500  1.0  -0.0995
  C  C1048  1  0.165400  0.644200  0.549000  1.0  -0.0011
  C  C1049  1  0.179290  0.623400  0.531600  1.0  -0.1053
  C  C1050  1  0.189290  0.590700  0.554100  1.0  -0.2449
  C  C1051  1  0.186010  0.585600  0.598700  1.0  0.1798
  C  C1052  1  0.171630  0.609700  0.619800  1.0  -0.1876
  C  C1053  1  0.161870  0.638400  0.597500  1.0  -0.1553
  C  C1054  1  0.325100  0.483100  0.605500  1.0  0.6792
  C  C1055  1  0.305610  0.496500  0.608300  1.0  -0.1276
  C  C1056  1  0.293940  0.468200  0.630900  1.0  -0.1119
  C  C1057  1  0.275880  0.479700  0.631900  1.0  -0.1225
  C  C1058  1  0.269790  0.517300  0.612200  1.0  0.0296
  C  C1059  1  0.281200  0.546200  0.589800  1.0  -0.114
  C  C1060  1  0.300270  0.536200  0.587700  1.0  -0.0789
  C  C1061  1  0.250160  0.528400  0.613900  1.0  0.0048
  C  C1062  1  0.238130  0.492600  0.622100  1.0  -0.1531
  C  C1063  1  0.220170  0.500700  0.624000  1.0  -0.1184
  C  C1064  1  0.213730  0.544800  0.619300  1.0  0.1643
  C  C1065  1  0.225050  0.578900  0.611700  1.0  -0.1546
  C  C1066  1  0.243970  0.571500  0.608100  1.0  -0.129
  C  C1067  1  0.075200  0.414900  0.956200  1.0  -0.0632
  C  C1068  1  0.108070  0.404300  0.928800  1.0  0.1946
  C  C1069  1  0.144180  0.060000  0.883400  1.0  0.0328
  C  C1070  1  0.079600  0.372800  0.934600  1.0  0.0999
  C  C1071  1  0.203980  0.976600  0.005600  1.0  -0.2075
  C  C1072  1  0.086920  0.451400  0.964100  1.0  0.0927
  C  C1073  1  0.080290  0.491700  0.988400  1.0  0.3225
  C  C1074  1  0.165960  0.002000  0.938000  1.0  0.1447
  C  C1075  1  0.222620  0.979400  0.003000  1.0  -0.1038
  C  C1076  1  0.159260  0.075000  0.905800  1.0  -0.1912
  C  C1077  1  0.103460  0.446500  0.951000  1.0  -0.1939
  C  C1078  1  0.091940  0.603100  0.141100  1.0  0.1787
  C  C1079  1  0.105310  0.172300  0.763100  1.0  0.6723
  C  C1080  1  0.114450  0.142300  0.796200  1.0  -0.1515
  C  C1081  1  0.121350  0.158800  0.835500  1.0  -0.1198
  C  C1082  1  0.130680  0.132300  0.863900  1.0  -0.1801
  C  C1083  1  0.134050  0.087100  0.855000  1.0  0.1197
  C  C1084  1  0.125590  0.069400  0.816400  1.0  -0.1335
  C  C1085  1  0.115830  0.096800  0.787400  1.0  -0.0938
  C  C1086  1  0.079030  0.577900  0.072400  1.0  0.0197
  C  C1087  1  0.090310  0.571500  0.110500  1.0  -0.1879
  C  C1088  1  0.169150  0.045800  0.933900  1.0  -0.1158
  C  C1089  1  0.069800  0.617200  0.069800  1.0  -0.1067
  C  C1090  1  0.150470  0.982900  0.913900  1.0  -0.1606
  C  C1091  1  0.140780  0.011900  0.890600  1.0  -0.1396
  C  C1092  1  0.308740  0.011200  0.966300  1.0  0.7199
  C  C1093  1  0.288130  0.001000  0.965200  1.0  -0.132
  C  C1094  1  0.277990  0.016900  0.929300  1.0  -0.039
  C  C1095  1  0.259910  0.008600  0.928500  1.0  -0.1006
  C  C1096  1  0.251510  0.986600  0.964600  1.0  0.0468
  C  C1097  1  0.262310  0.971600  0.999300  1.0  -0.0982
  C  C1098  1  0.279900  0.975800  0.000000  1.0  -0.1297
  C  C1099  1  0.232000  0.981400  0.964600  1.0  0.0693
  C  C1100  1  0.221730  0.980700  0.924400  1.0  -0.1944
  C  C1101  1  0.203930  0.978000  0.927300  1.0  -0.0873
  C  C1102  1  0.195300  0.974200  0.964200  1.0  0.2283
  C  C1103  1  0.072030  0.648700  0.105600  1.0  0.1681
  C  C1104  1  0.077690  0.546400  0.034900  1.0  0.195
  C  C1105  1  0.105480  0.768700  0.167300  1.0  0.6562
  C  C1106  1  0.116750  0.799200  0.137400  1.0  -0.161
  C  C1107  1  0.129460  0.782600  0.108700  1.0  -0.2012
  C  C1108  1  0.138560  0.811000  0.082500  1.0  -0.1286
  C  C1109  1  0.136910  0.856100  0.081700  1.0  0.0819
  C  C1110  1  0.123480  0.873400  0.110900  1.0  -0.2067
  C  C1111  1  0.114290  0.844800  0.138000  1.0  -0.0501
  C  C1112  1  0.147540  0.885500  0.053100  1.0  0.0347
  C  C1113  1  0.164250  0.873900  0.034300  1.0  -0.1696
  C  C1114  1  0.172760  0.900300  0.006400  1.0  -0.1124
  C  C1115  1  0.166730  0.943100  0.994500  1.0  0.1982
  C  C1116  1  0.150700  0.957500  0.013400  1.0  -0.1701
  C  C1117  1  0.140950  0.929200  0.042200  1.0  -0.1368
  C  C1118  1  0.120870  0.837100  0.303600  1.0  0.684
  C  C1119  1  0.132230  0.869400  0.277300  1.0  -0.13
  C  C1120  1  0.138040  0.856700  0.235000  1.0  -0.0324
  C  C1121  1  0.148780  0.887000  0.210400  1.0  -0.1176
  C  C1122  1  0.153530  0.928100  0.228500  1.0  0.0568
  C  C1123  1  0.148330  0.940100  0.270900  1.0  -0.1054
  C  C1124  1  0.136930  0.911000  0.296100  1.0  -0.0538
  C  C1125  1  0.164560  0.961000  0.201600  1.0  -0.0633
  C  C1126  1  0.161290  0.966600  0.154700  1.0  -0.084
  C  C1127  1  0.171220  0.996200  0.131500  1.0  -0.072
  C  C1128  1  0.184620  0.020500  0.152400  1.0  0.1653
  C  C1129  1  0.188430  0.014700  0.196600  1.0  -0.1384
  C  C1130  1  0.178680  0.986300  0.223000  1.0  -0.1493
  C  C1131  1  0.119050  0.260600  0.943200  1.0  0.6113
  C  C1132  1  0.130770  0.229900  0.971100  1.0  -0.1125
  C  C1133  1  0.147280  0.223300  0.957900  1.0  -0.0998
  C  C1134  1  0.159080  0.195300  0.985500  1.0  -0.1489
  C  C1135  1  0.153210  0.174900  0.021100  1.0  -0.0065
  C  C1136  1  0.134870  0.180500  0.034400  1.0  -0.1592
  C  C1137  1  0.124230  0.207100  0.007500  1.0  -0.0995
  C  C1138  1  0.165400  0.144200  0.049000  1.0  -0.0011
  C  C1139  1  0.179290  0.123400  0.031600  1.0  -0.1053
  C  C1140  1  0.189290  0.090700  0.054100  1.0  -0.2449
  C  C1141  1  0.186010  0.085600  0.098700  1.0  0.1798
  C  C1142  1  0.171630  0.109700  0.119800  1.0  -0.1876
  C  C1143  1  0.161870  0.138400  0.097500  1.0  -0.1553
  C  C1144  1  0.325100  0.983100  0.105500  1.0  0.6792
  C  C1145  1  0.305610  0.996500  0.108300  1.0  -0.1276
  C  C1146  1  0.293940  0.968200  0.130900  1.0  -0.1119
  C  C1147  1  0.275880  0.979700  0.131900  1.0  -0.1225
  C  C1148  1  0.269790  0.017300  0.112200  1.0  0.0296
  C  C1149  1  0.281200  0.046200  0.089800  1.0  -0.114
  C  C1150  1  0.300270  0.036200  0.087700  1.0  -0.0789
  C  C1151  1  0.250160  0.028400  0.113900  1.0  0.0048
  C  C1152  1  0.238130  0.992600  0.122100  1.0  -0.1531
  C  C1153  1  0.220170  0.000700  0.124000  1.0  -0.1184
  C  C1154  1  0.213730  0.044800  0.119300  1.0  0.1643
  C  C1155  1  0.225050  0.078900  0.111700  1.0  -0.1552
  C  C1156  1  0.243970  0.071500  0.108100  1.0  -0.129
  C  C1157  1  0.575200  0.914900  0.956200  1.0  -0.0632
  C  C1158  1  0.608070  0.904300  0.928800  1.0  0.1946
  C  C1159  1  0.644180  0.560000  0.883400  1.0  0.0328
  C  C1160  1  0.579600  0.872800  0.934600  1.0  0.0999
  C  C1161  1  0.703980  0.476600  0.005600  1.0  -0.2085
  C  C1162  1  0.586920  0.951400  0.964100  1.0  0.0927
  C  C1163  1  0.580290  0.991700  0.988400  1.0  0.3225
  C  C1164  1  0.665960  0.502000  0.938000  1.0  0.1448
  C  C1165  1  0.722620  0.479400  0.003000  1.0  -0.1038
  C  C1166  1  0.659260  0.575000  0.905800  1.0  -0.1912
  C  C1167  1  0.603460  0.946500  0.951000  1.0  -0.1939
  C  C1168  1  0.591940  0.103100  0.141100  1.0  0.1787
  C  C1169  1  0.605310  0.672300  0.763100  1.0  0.6723
  C  C1170  1  0.614450  0.642300  0.796200  1.0  -0.1515
  C  C1171  1  0.621350  0.658800  0.835500  1.0  -0.1198
  C  C1172  1  0.630680  0.632300  0.863900  1.0  -0.1801
  C  C1173  1  0.634050  0.587100  0.855000  1.0  0.1197
  C  C1174  1  0.625590  0.569400  0.816400  1.0  -0.1335
  C  C1175  1  0.615830  0.596800  0.787400  1.0  -0.0938
  C  C1176  1  0.579030  0.077900  0.072400  1.0  0.0197
  C  C1177  1  0.590310  0.071500  0.110500  1.0  -0.1879
  C  C1178  1  0.669150  0.545800  0.933900  1.0  -0.1158
  C  C1179  1  0.569800  0.117200  0.069800  1.0  -0.1067
  C  C1180  1  0.650470  0.482900  0.913900  1.0  -0.1632
  C  C1181  1  0.640780  0.511900  0.890600  1.0  -0.1396
  C  C1182  1  0.808740  0.511200  0.966300  1.0  0.7199
  C  C1183  1  0.788130  0.501000  0.965200  1.0  -0.132
  C  C1184  1  0.777990  0.516900  0.929300  1.0  -0.039
  C  C1185  1  0.759910  0.508600  0.928500  1.0  -0.1006
  C  C1186  1  0.751510  0.486600  0.964600  1.0  0.0468
  C  C1187  1  0.762310  0.471600  0.999300  1.0  -0.0985
  C  C1188  1  0.779900  0.475800  0.000000  1.0  -0.13
  C  C1189  1  0.732000  0.481400  0.964600  1.0  0.0692
  C  C1190  1  0.721730  0.480700  0.924400  1.0  -0.1948
  C  C1191  1  0.703930  0.478000  0.927300  1.0  -0.0872
  C  C1192  1  0.695300  0.474200  0.964200  1.0  0.2273
  C  C1193  1  0.572030  0.148700  0.105600  1.0  0.1681
  C  C1194  1  0.577690  0.046400  0.034900  1.0  0.195
  C  C1195  1  0.605480  0.268700  0.167300  1.0  0.6562
  C  C1196  1  0.616750  0.299200  0.137400  1.0  -0.161
  C  C1197  1  0.629460  0.282600  0.108700  1.0  -0.2012
  C  C1198  1  0.638560  0.311000  0.082500  1.0  -0.1287
  C  C1199  1  0.636910  0.356100  0.081700  1.0  0.0819
  C  C1200  1  0.623480  0.373400  0.110900  1.0  -0.2067
  C  C1201  1  0.614290  0.344800  0.138000  1.0  -0.0501
  C  C1202  1  0.647540  0.385500  0.053100  1.0  0.0344
  C  C1203  1  0.664250  0.373900  0.034300  1.0  -0.1696
  C  C1204  1  0.672760  0.400300  0.006400  1.0  -0.1104
  C  C1205  1  0.666667  0.443100  0.994500  1.0  0.2064
  C  C1206  1  0.650700  0.457500  0.013400  1.0  -0.1691
  C  C1207  1  0.640950  0.429200  0.042200  1.0  -0.1374
  C  C1208  1  0.620870  0.337100  0.303600  1.0  0.684
  C  C1209  1  0.632230  0.369400  0.277300  1.0  -0.13
  C  C1210  1  0.638040  0.356700  0.235000  1.0  -0.0324
  C  C1211  1  0.648780  0.387000  0.210400  1.0  -0.1176
  C  C1212  1  0.653530  0.428100  0.228500  1.0  0.0568
  C  C1213  1  0.648330  0.440100  0.270900  1.0  -0.1054
  C  C1214  1  0.636930  0.411000  0.296100  1.0  -0.0538
  C  C1215  1  0.664560  0.461000  0.201600  1.0  -0.0633
  C  C1216  1  0.661290  0.466600  0.154700  1.0  -0.084
  C  C1217  1  0.671220  0.496200  0.131500  1.0  -0.072
  C  C1218  1  0.684620  0.520500  0.152400  1.0  0.1653
  C  C1219  1  0.688430  0.514700  0.196600  1.0  -0.1384
  C  C1220  1  0.678680  0.486300  0.223000  1.0  -0.1493
  C  C1221  1  0.619050  0.760600  0.943200  1.0  0.6113
  C  C1222  1  0.630770  0.729900  0.971100  1.0  -0.1125
  C  C1223  1  0.647280  0.723300  0.957900  1.0  -0.0998
  C  C1224  1  0.659080  0.695300  0.985500  1.0  -0.1489
  C  C1225  1  0.653210  0.674900  0.021100  1.0  -0.0065
  C  C1226  1  0.634870  0.680500  0.034400  1.0  -0.1592
  C  C1227  1  0.624230  0.707100  0.007500  1.0  -0.0995
  C  C1228  1  0.665400  0.644200  0.049000  1.0  -0.0011
  C  C1229  1  0.679290  0.623400  0.031600  1.0  -0.1053
  C  C1230  1  0.689290  0.590700  0.054100  1.0  -0.2449
  C  C1231  1  0.686010  0.585600  0.098700  1.0  0.1798
  C  C1232  1  0.671630  0.609700  0.119800  1.0  -0.1876
  C  C1233  1  0.661870  0.638400  0.097500  1.0  -0.1553
  C  C1234  1  0.825100  0.483100  0.105500  1.0  0.6792
  C  C1235  1  0.805610  0.496500  0.108300  1.0  -0.1276
  C  C1236  1  0.793940  0.468200  0.130900  1.0  -0.1119
  C  C1237  1  0.775880  0.479700  0.131900  1.0  -0.1225
  C  C1238  1  0.769790  0.517300  0.112200  1.0  0.0296
  C  C1239  1  0.781200  0.546200  0.089800  1.0  -0.114
  C  C1240  1  0.800270  0.536200  0.087700  1.0  -0.0789
  C  C1241  1  0.750160  0.528400  0.113900  1.0  0.0048
  C  C1242  1  0.738130  0.492600  0.122100  1.0  -0.1531
  C  C1243  1  0.720170  0.500700  0.124000  1.0  -0.1184
  C  C1244  1  0.713730  0.544800  0.119300  1.0  0.1643
  C  C1245  1  0.725050  0.578900  0.111700  1.0  -0.1546
  C  C1246  1  0.743970  0.571500  0.108100  1.0  -0.129
  C  C1247  1  0.575200  0.414900  0.456200  1.0  -0.0632
  C  C1248  1  0.608070  0.404300  0.428800  1.0  0.1946
  C  C1249  1  0.644180  0.060000  0.383400  1.0  0.0328
  C  C1250  1  0.579600  0.372800  0.434600  1.0  0.0999
  C  C1251  1  0.703980  0.976600  0.505600  1.0  -0.2087
  C  C1252  1  0.586920  0.451400  0.464100  1.0  0.0927
  C  C1253  1  0.580290  0.491700  0.488400  1.0  0.3225
  C  C1254  1  0.665960  0.002000  0.438000  1.0  0.1448
  C  C1255  1  0.722620  0.979400  0.503000  1.0  -0.1038
  C  C1256  1  0.659260  0.075000  0.405800  1.0  -0.1912
  C  C1257  1  0.603460  0.446500  0.451000  1.0  -0.1939
  C  C1258  1  0.591940  0.603100  0.641100  1.0  0.1787
  C  C1259  1  0.605310  0.172300  0.263100  1.0  0.6723
  C  C1260  1  0.614450  0.142300  0.296200  1.0  -0.1515
  C  C1261  1  0.621350  0.158800  0.335500  1.0  -0.1198
  C  C1262  1  0.630680  0.132300  0.363900  1.0  -0.1801
  C  C1263  1  0.634050  0.087100  0.355000  1.0  0.1197
  C  C1264  1  0.625590  0.069400  0.316400  1.0  -0.1335
  C  C1265  1  0.615830  0.096800  0.287400  1.0  -0.0938
  C  C1266  1  0.579030  0.577900  0.572400  1.0  0.0197
  C  C1267  1  0.590310  0.571500  0.610500  1.0  -0.1879
  C  C1268  1  0.669150  0.045800  0.433900  1.0  -0.1158
  C  C1269  1  0.569800  0.617200  0.569800  1.0  -0.1067
  C  C1270  1  0.650470  0.982900  0.413900  1.0  -0.1632
  C  C1271  1  0.640780  0.011900  0.390600  1.0  -0.1396
  C  C1272  1  0.808740  0.011200  0.466300  1.0  0.7199
  C  C1273  1  0.788130  0.001000  0.465200  1.0  -0.132
  C  C1274  1  0.777990  0.016900  0.429300  1.0  -0.039
  C  C1275  1  0.759910  0.008600  0.428500  1.0  -0.1006
  C  C1276  1  0.751510  0.986600  0.464600  1.0  0.0468
  C  C1277  1  0.762310  0.971600  0.499300  1.0  -0.0982
  C  C1278  1  0.779900  0.975800  0.500000  1.0  -0.1297
  C  C1279  1  0.732000  0.981400  0.464600  1.0  0.0692
  C  C1280  1  0.721730  0.980700  0.424400  1.0  -0.1944
  C  C1281  1  0.703930  0.978000  0.427300  1.0  -0.0904
  C  C1282  1  0.695300  0.974200  0.464200  1.0  0.2273
  C  C1283  1  0.572030  0.648700  0.605600  1.0  0.1681
  C  C1284  1  0.577690  0.546400  0.534900  1.0  0.195
  C  C1285  1  0.605480  0.768700  0.667300  1.0  0.6562
  C  C1286  1  0.616750  0.799200  0.637400  1.0  -0.161
  C  C1287  1  0.629460  0.782600  0.608700  1.0  -0.2012
  C  C1288  1  0.638560  0.811000  0.582500  1.0  -0.1287
  C  C1289  1  0.636910  0.856100  0.581700  1.0  0.0819
  C  C1290  1  0.623480  0.873400  0.610900  1.0  -0.2067
  C  C1291  1  0.614290  0.844800  0.638000  1.0  -0.0501
  C  C1292  1  0.647540  0.885500  0.553100  1.0  0.0344
  C  C1293  1  0.664250  0.873900  0.534300  1.0  -0.1696
  C  C1294  1  0.672760  0.900300  0.506400  1.0  -0.1104
  C  C1295  1  0.666667  0.943100  0.494500  1.0  0.2064
  C  C1296  1  0.650700  0.957500  0.513400  1.0  -0.1685
  C  C1297  1  0.640950  0.929200  0.542200  1.0  -0.1381
  C  C1298  1  0.620870  0.837100  0.803600  1.0  0.684
  C  C1299  1  0.632230  0.869400  0.777300  1.0  -0.13
  C  C1300  1  0.638040  0.856700  0.735000  1.0  -0.0324
  C  C1301  1  0.648780  0.887000  0.710400  1.0  -0.1176
  C  C1302  1  0.653530  0.928100  0.728500  1.0  0.0568
  C  C1303  1  0.648330  0.940100  0.770900  1.0  -0.1054
  C  C1304  1  0.636930  0.911000  0.796100  1.0  -0.0538
  C  C1305  1  0.664560  0.961000  0.701600  1.0  -0.0633
  C  C1306  1  0.661290  0.966600  0.654700  1.0  -0.084
  C  C1307  1  0.671220  0.996200  0.631500  1.0  -0.072
  C  C1308  1  0.684620  0.020500  0.652400  1.0  0.1653
  C  C1309  1  0.688430  0.014700  0.696600  1.0  -0.1384
  C  C1310  1  0.678680  0.986300  0.723000  1.0  -0.1493
  C  C1311  1  0.619050  0.260600  0.443200  1.0  0.6113
  C  C1312  1  0.630770  0.229900  0.471100  1.0  -0.1125
  C  C1313  1  0.647280  0.223300  0.457900  1.0  -0.0998
  C  C1314  1  0.659080  0.195300  0.485500  1.0  -0.1489
  C  C1315  1  0.653210  0.174900  0.521100  1.0  -0.0065
  C  C1316  1  0.634870  0.180500  0.534400  1.0  -0.1592
  C  C1317  1  0.624230  0.207100  0.507500  1.0  -0.0995
  C  C1318  1  0.665400  0.144200  0.549000  1.0  -0.0011
  C  C1319  1  0.679290  0.123400  0.531600  1.0  -0.1053
  C  C1320  1  0.689290  0.090700  0.554100  1.0  -0.2449
  C  C1321  1  0.686010  0.085600  0.598700  1.0  0.1798
  C  C1322  1  0.671630  0.109700  0.619800  1.0  -0.1876
  C  C1323  1  0.661870  0.138400  0.597500  1.0  -0.1553
  C  C1324  1  0.825100  0.983100  0.605500  1.0  0.6792
  C  C1325  1  0.805610  0.996500  0.608300  1.0  -0.1276
  C  C1326  1  0.793940  0.968200  0.630900  1.0  -0.1119
  C  C1327  1  0.775880  0.979700  0.631900  1.0  -0.1225
  C  C1328  1  0.769790  0.017300  0.612200  1.0  0.0296
  C  C1329  1  0.781200  0.046200  0.589800  1.0  -0.114
  C  C1330  1  0.800270  0.036200  0.587700  1.0  -0.0789
  C  C1331  1  0.750160  0.028400  0.613900  1.0  0.0048
  C  C1332  1  0.738130  0.992600  0.622100  1.0  -0.1531
  C  C1333  1  0.720170  0.000700  0.624000  1.0  -0.1184
  C  C1334  1  0.713730  0.044800  0.619300  1.0  0.1643
  C  C1335  1  0.725050  0.078900  0.611700  1.0  -0.1552
  C  C1336  1  0.743970  0.071500  0.608100  1.0  -0.129
  C  C1337  1  0.325200  0.335100  0.706200  1.0  -0.0631
  C  C1338  1  0.358070  0.345700  0.678800  1.0  0.1968
  C  C1339  1  0.394180  0.690000  0.633400  1.0  0.0327
  C  C1340  1  0.329600  0.377200  0.684600  1.0  0.1019
  C  C1341  1  0.453980  0.773400  0.755600  1.0  -0.2077
  C  C1342  1  0.336920  0.298600  0.714100  1.0  0.093
  C  C1343  1  0.330290  0.258300  0.738400  1.0  0.3232
  C  C1344  1  0.415960  0.748000  0.688000  1.0  0.145
  C  C1345  1  0.472620  0.770600  0.753000  1.0  -0.1029
  C  C1346  1  0.409260  0.675000  0.655800  1.0  -0.1903
  C  C1347  1  0.353460  0.303500  0.701000  1.0  -0.1939
  C  C1348  1  0.341940  0.146900  0.891100  1.0  0.1786
  C  C1349  1  0.355310  0.577700  0.513100  1.0  0.6723
  C  C1350  1  0.364450  0.607700  0.546200  1.0  -0.1521
  C  C1351  1  0.371350  0.591200  0.585500  1.0  -0.1226
  C  C1352  1  0.380680  0.617700  0.613900  1.0  -0.1808
  C  C1353  1  0.384050  0.662900  0.605000  1.0  0.1203
  C  C1354  1  0.375590  0.680600  0.566400  1.0  -0.1341
  C  C1355  1  0.365830  0.653200  0.537400  1.0  -0.099
  C  C1356  1  0.329030  0.172100  0.822400  1.0  0.0258
  C  C1357  1  0.340310  0.178500  0.860500  1.0  -0.1884
  C  C1358  1  0.419150  0.704200  0.683900  1.0  -0.1164
  C  C1359  1  0.319800  0.132800  0.819800  1.0  -0.1068
  C  C1360  1  0.400470  0.767100  0.663900  1.0  -0.1606
  C  C1361  1  0.390780  0.738100  0.640600  1.0  -0.1364
  C  C1362  1  0.558740  0.738800  0.716300  1.0  0.7194
  C  C1363  1  0.538130  0.749000  0.715200  1.0  -0.1325
  C  C1364  1  0.527990  0.733100  0.679300  1.0  -0.0391
  C  C1365  1  0.509910  0.741400  0.678500  1.0  -0.0996
  C  C1366  1  0.501510  0.763400  0.714600  1.0  0.0469
  C  C1367  1  0.512310  0.778400  0.749300  1.0  -0.0976
  C  C1368  1  0.529900  0.774200  0.750000  1.0  -0.1286
  C  C1369  1  0.482000  0.768600  0.714600  1.0  0.0691
  C  C1370  1  0.471730  0.769300  0.674400  1.0  -0.1948
  C  C1371  1  0.453930  0.772000  0.677300  1.0  -0.0885
  C  C1372  1  0.445300  0.775800  0.714200  1.0  0.2281
  C  C1373  1  0.322030  0.101300  0.855600  1.0  0.168
  C  C1374  1  0.327690  0.203600  0.784900  1.0  0.1944
  C  C1375  1  0.355480  0.981300  0.917300  1.0  0.6439
  C  C1376  1  0.366750  0.950800  0.887400  1.0  -0.1609
  C  C1377  1  0.379460  0.967400  0.858700  1.0  -0.1974
  C  C1378  1  0.388560  0.939000  0.832500  1.0  -0.1293
  C  C1379  1  0.386910  0.893900  0.831700  1.0  0.082
  C  C1380  1  0.373480  0.876600  0.860900  1.0  -0.2072
  C  C1381  1  0.364290  0.905200  0.888000  1.0  -0.0517
  C  C1382  1  0.397540  0.864500  0.803100  1.0  0.0354
  C  C1383  1  0.414250  0.876100  0.784300  1.0  -0.1701
  C  C1384  1  0.422760  0.849700  0.756400  1.0  -0.1115
  C  C1385  1  0.416730  0.806900  0.744500  1.0  0.1985
  C  C1386  1  0.400700  0.792500  0.763400  1.0  -0.1706
  C  C1387  1  0.390950  0.820800  0.792200  1.0  -0.1365
  C  C1388  1  0.370870  0.912900  0.053600  1.0  0.685
  C  C1389  1  0.382230  0.880600  0.027300  1.0  -0.1296
  C  C1390  1  0.388040  0.893300  0.985000  1.0  -0.0345
  C  C1391  1  0.398780  0.863000  0.960400  1.0  -0.1178
  C  C1392  1  0.403530  0.821900  0.978500  1.0  0.0574
  C  C1393  1  0.398330  0.809900  0.020900  1.0  -0.1066
  C  C1394  1  0.386930  0.839000  0.046100  1.0  -0.0525
  C  C1395  1  0.414560  0.789000  0.951600  1.0  -0.0632
  C  C1396  1  0.411290  0.783400  0.904700  1.0  -0.0836
  C  C1397  1  0.421220  0.753800  0.881500  1.0  -0.0728
  C  C1398  1  0.434620  0.729500  0.902400  1.0  0.166
  C  C1399  1  0.438430  0.735300  0.946600  1.0  -0.1382
  C  C1400  1  0.428680  0.763700  0.973000  1.0  -0.1489
  C  C1401  1  0.369050  0.489400  0.693200  1.0  0.6109
  C  C1402  1  0.380770  0.520100  0.721100  1.0  -0.1122
  C  C1403  1  0.397280  0.526700  0.707900  1.0  -0.0998
  C  C1404  1  0.409080  0.554700  0.735500  1.0  -0.1483
  C  C1405  1  0.403210  0.575100  0.771100  1.0  -0.0061
  C  C1406  1  0.384870  0.569500  0.784400  1.0  -0.161
  C  C1407  1  0.374230  0.542900  0.757500  1.0  -0.0984
  C  C1408  1  0.415400  0.605800  0.799000  1.0  -0.0011
  C  C1409  1  0.429290  0.626600  0.781600  1.0  -0.1048
  C  C1410  1  0.439290  0.659300  0.804100  1.0  -0.2446
  C  C1411  1  0.436010  0.664400  0.848700  1.0  0.1804
  C  C1412  1  0.421630  0.640300  0.869800  1.0  -0.1876
  C  C1413  1  0.411870  0.611600  0.847500  1.0  -0.1572
  C  C1414  1  0.575100  0.766900  0.855500  1.0  0.6784
  C  C1415  1  0.555610  0.753500  0.858300  1.0  -0.1278
  C  C1416  1  0.543940  0.781800  0.880900  1.0  -0.1134
  C  C1417  1  0.525880  0.770300  0.881900  1.0  -0.1214
  C  C1418  1  0.519790  0.732700  0.862200  1.0  0.0304
  C  C1419  1  0.531200  0.703800  0.839800  1.0  -0.114
  C  C1420  1  0.550270  0.713800  0.837700  1.0  -0.0796
  C  C1421  1  0.500160  0.721600  0.863900  1.0  0.0043
  C  C1422  1  0.488130  0.757400  0.872100  1.0  -0.153
  C  C1423  1  0.470170  0.749300  0.874000  1.0  -0.1185
  C  C1424  1  0.463730  0.705200  0.869300  1.0  0.1637
  C  C1425  1  0.475050  0.671100  0.861700  1.0  -0.1548
  C  C1426  1  0.493970  0.678500  0.858100  1.0  -0.1309
  C  C1427  1  0.325200  0.835100  0.206200  1.0  -0.0631
  C  C1428  1  0.358070  0.845700  0.178800  1.0  0.1968
  C  C1429  1  0.394180  0.190000  0.133400  1.0  0.0327
  C  C1430  1  0.329600  0.877200  0.184600  1.0  0.1019
  C  C1431  1  0.453980  0.273400  0.255600  1.0  -0.2077
  C  C1432  1  0.336920  0.798600  0.214100  1.0  0.093
  C  C1433  1  0.330290  0.758300  0.238400  1.0  0.3232
  C  C1434  1  0.415960  0.248000  0.188000  1.0  0.145
  C  C1435  1  0.472620  0.270600  0.253000  1.0  -0.1029
  C  C1436  1  0.409260  0.175000  0.155800  1.0  -0.1903
  C  C1437  1  0.353460  0.803500  0.201000  1.0  -0.1939
  C  C1438  1  0.341940  0.646900  0.391100  1.0  0.1786
  C  C1439  1  0.355310  0.077700  0.013100  1.0  0.6723
  C  C1440  1  0.364450  0.107700  0.046200  1.0  -0.1521
  C  C1441  1  0.371350  0.091200  0.085500  1.0  -0.1226
  C  C1442  1  0.380680  0.117700  0.113900  1.0  -0.1808
  C  C1443  1  0.384050  0.162900  0.105000  1.0  0.1203
  C  C1444  1  0.375590  0.180600  0.066400  1.0  -0.1341
  C  C1445  1  0.365830  0.153200  0.037400  1.0  -0.099
  C  C1446  1  0.329030  0.672100  0.322400  1.0  0.0258
  C  C1447  1  0.340310  0.678500  0.360500  1.0  -0.1884
  C  C1448  1  0.419150  0.204200  0.183900  1.0  -0.1164
  C  C1449  1  0.319800  0.632800  0.319800  1.0  -0.1068
  C  C1450  1  0.400470  0.267100  0.163900  1.0  -0.1606
  C  C1451  1  0.390780  0.238100  0.140600  1.0  -0.1364
  C  C1452  1  0.558740  0.238800  0.216300  1.0  0.7194
  C  C1453  1  0.538130  0.249000  0.215200  1.0  -0.1325
  C  C1454  1  0.527990  0.233100  0.179300  1.0  -0.0391
  C  C1455  1  0.509910  0.241400  0.178500  1.0  -0.0996
  C  C1456  1  0.501510  0.263400  0.214600  1.0  0.0469
  C  C1457  1  0.512310  0.278400  0.249300  1.0  -0.0976
  C  C1458  1  0.529900  0.274200  0.250000  1.0  -0.1286
  C  C1459  1  0.482000  0.268600  0.214600  1.0  0.0691
  C  C1460  1  0.471730  0.269300  0.174400  1.0  -0.1948
  C  C1461  1  0.453930  0.272000  0.177300  1.0  -0.0885
  C  C1462  1  0.445300  0.275800  0.214200  1.0  0.2281
  C  C1463  1  0.322030  0.601300  0.355600  1.0  0.168
  C  C1464  1  0.327690  0.703600  0.284900  1.0  0.1944
  C  C1465  1  0.355480  0.481300  0.417300  1.0  0.6439
  C  C1466  1  0.366750  0.450800  0.387400  1.0  -0.1609
  C  C1467  1  0.379460  0.467400  0.358700  1.0  -0.1974
  C  C1468  1  0.388560  0.439000  0.332500  1.0  -0.1293
  C  C1469  1  0.386910  0.393900  0.331700  1.0  0.082
  C  C1470  1  0.373480  0.376600  0.360900  1.0  -0.2072
  C  C1471  1  0.364290  0.405200  0.388000  1.0  -0.0517
  C  C1472  1  0.397540  0.364500  0.303100  1.0  0.0354
  C  C1473  1  0.414250  0.376100  0.284300  1.0  -0.1701
  C  C1474  1  0.422760  0.349700  0.256400  1.0  -0.1115
  C  C1475  1  0.416730  0.306900  0.244500  1.0  0.1985
  C  C1476  1  0.400700  0.292500  0.263400  1.0  -0.1706
  C  C1477  1  0.390950  0.320800  0.292200  1.0  -0.1365
  C  C1478  1  0.370870  0.412900  0.553600  1.0  0.6854
  C  C1479  1  0.382230  0.380600  0.527300  1.0  -0.1296
  C  C1480  1  0.388040  0.393300  0.485000  1.0  -0.0345
  C  C1481  1  0.398780  0.363000  0.460400  1.0  -0.1178
  C  C1482  1  0.403530  0.321900  0.478500  1.0  0.0574
  C  C1483  1  0.398330  0.309900  0.520900  1.0  -0.1066
  C  C1484  1  0.386930  0.339000  0.546100  1.0  -0.0525
  C  C1485  1  0.414560  0.289000  0.451600  1.0  -0.0632
  C  C1486  1  0.411290  0.283400  0.404700  1.0  -0.0836
  C  C1487  1  0.421220  0.253800  0.381500  1.0  -0.0728
  C  C1488  1  0.434620  0.229500  0.402400  1.0  0.166
  C  C1489  1  0.438430  0.235300  0.446600  1.0  -0.1383
  C  C1490  1  0.428680  0.263700  0.473000  1.0  -0.1489
  C  C1491  1  0.369050  0.989400  0.193200  1.0  0.6109
  C  C1492  1  0.380770  0.020100  0.221100  1.0  -0.1122
  C  C1493  1  0.397280  0.026700  0.207900  1.0  -0.0998
  C  C1494  1  0.409080  0.054700  0.235500  1.0  -0.1483
  C  C1495  1  0.403210  0.075100  0.271100  1.0  -0.0061
  C  C1496  1  0.384870  0.069500  0.284400  1.0  -0.161
  C  C1497  1  0.374230  0.042900  0.257500  1.0  -0.0984
  C  C1498  1  0.415400  0.105800  0.299000  1.0  -0.0011
  C  C1499  1  0.429290  0.126600  0.281600  1.0  -0.1048
  C  C1500  1  0.439290  0.159300  0.304100  1.0  -0.2446
  C  C1501  1  0.436010  0.164400  0.348700  1.0  0.1804
  C  C1502  1  0.421630  0.140300  0.369800  1.0  -0.1876
  C  C1503  1  0.411870  0.111600  0.347500  1.0  -0.1572
  C  C1504  1  0.575100  0.266900  0.355500  1.0  0.6784
  C  C1505  1  0.555610  0.253500  0.358300  1.0  -0.1278
  C  C1506  1  0.543940  0.281800  0.380900  1.0  -0.1134
  C  C1507  1  0.525880  0.270300  0.381900  1.0  -0.1214
  C  C1508  1  0.519790  0.232700  0.362200  1.0  0.0304
  C  C1509  1  0.531200  0.203800  0.339800  1.0  -0.114
  C  C1510  1  0.550270  0.213800  0.337700  1.0  -0.0796
  C  C1511  1  0.500160  0.221600  0.363900  1.0  0.0043
  C  C1512  1  0.488130  0.257400  0.372100  1.0  -0.153
  C  C1513  1  0.470170  0.249300  0.374000  1.0  -0.1185
  C  C1514  1  0.463730  0.205200  0.369300  1.0  0.1637
  C  C1515  1  0.475050  0.171100  0.361700  1.0  -0.1548
  C  C1516  1  0.493970  0.178500  0.358100  1.0  -0.1309
  C  C1517  1  0.825200  0.335100  0.206200  1.0  -0.0631
  C  C1518  1  0.858070  0.345700  0.178800  1.0  0.1968
  C  C1519  1  0.894180  0.690000  0.133400  1.0  0.0327
  C  C1520  1  0.829600  0.377200  0.184600  1.0  0.1019
  C  C1521  1  0.953980  0.773400  0.255600  1.0  -0.2077
  C  C1522  1  0.836920  0.298600  0.214100  1.0  0.093
  C  C1523  1  0.830290  0.258300  0.238400  1.0  0.3232
  C  C1524  1  0.915960  0.748000  0.188000  1.0  0.145
  C  C1525  1  0.972620  0.770600  0.253000  1.0  -0.1029
  C  C1526  1  0.909260  0.675000  0.155800  1.0  -0.1903
  C  C1527  1  0.853460  0.303500  0.201000  1.0  -0.1939
  C  C1528  1  0.841940  0.146900  0.391100  1.0  0.1786
  C  C1529  1  0.855310  0.577700  0.013100  1.0  0.6723
  C  C1530  1  0.864450  0.607700  0.046200  1.0  -0.1521
  C  C1531  1  0.871350  0.591200  0.085500  1.0  -0.1226
  C  C1532  1  0.880680  0.617700  0.113900  1.0  -0.1808
  C  C1533  1  0.884050  0.662900  0.105000  1.0  0.1203
  C  C1534  1  0.875590  0.680600  0.066400  1.0  -0.1341
  C  C1535  1  0.865830  0.653200  0.037400  1.0  -0.099
  C  C1536  1  0.829030  0.172100  0.322400  1.0  0.0258
  C  C1537  1  0.840310  0.178500  0.360500  1.0  -0.1884
  C  C1538  1  0.919150  0.704200  0.183900  1.0  -0.1164
  C  C1539  1  0.819800  0.132800  0.319800  1.0  -0.1068
  C  C1540  1  0.900470  0.767100  0.163900  1.0  -0.1606
  C  C1541  1  0.890780  0.738100  0.140600  1.0  -0.1364
  C  C1542  1  0.058740  0.738800  0.216300  1.0  0.7194
  C  C1543  1  0.038130  0.749000  0.215200  1.0  -0.1325
  C  C1544  1  0.027990  0.733100  0.179300  1.0  -0.0391
  C  C1545  1  0.009910  0.741400  0.178500  1.0  -0.0996
  C  C1546  1  0.001510  0.763400  0.214600  1.0  0.0469
  C  C1547  1  0.012310  0.778400  0.249300  1.0  -0.098
  C  C1548  1  0.029900  0.774200  0.250000  1.0  -0.1286
  C  C1549  1  0.982000  0.768600  0.214600  1.0  0.0691
  C  C1550  1  0.971730  0.769300  0.174400  1.0  -0.1948
  C  C1551  1  0.953930  0.772000  0.177300  1.0  -0.0885
  C  C1552  1  0.945300  0.775800  0.214200  1.0  0.2281
  C  C1553  1  0.822030  0.101300  0.355600  1.0  0.168
  C  C1554  1  0.827690  0.203600  0.284900  1.0  0.1944
  C  C1555  1  0.855480  0.981300  0.417300  1.0  0.6439
  C  C1556  1  0.866750  0.950800  0.387400  1.0  -0.1609
  C  C1557  1  0.879460  0.967400  0.358700  1.0  -0.1974
  C  C1558  1  0.888560  0.939000  0.332500  1.0  -0.1293
  C  C1559  1  0.886910  0.893900  0.331700  1.0  0.082
  C  C1560  1  0.873480  0.876600  0.360900  1.0  -0.2072
  C  C1561  1  0.864290  0.905200  0.388000  1.0  -0.0517
  C  C1562  1  0.897540  0.864500  0.303100  1.0  0.0354
  C  C1563  1  0.914250  0.876100  0.284300  1.0  -0.1701
  C  C1564  1  0.922760  0.849700  0.256400  1.0  -0.1115
  C  C1565  1  0.916730  0.806900  0.244500  1.0  0.1985
  C  C1566  1  0.900700  0.792500  0.263400  1.0  -0.1706
  C  C1567  1  0.890950  0.820800  0.292200  1.0  -0.1365
  C  C1568  1  0.870870  0.912900  0.553600  1.0  0.6854
  C  C1569  1  0.882230  0.880600  0.527300  1.0  -0.1296
  C  C1570  1  0.888040  0.893300  0.485000  1.0  -0.0345
  C  C1571  1  0.898780  0.863000  0.460400  1.0  -0.1178
  C  C1572  1  0.903530  0.821900  0.478500  1.0  0.0574
  C  C1573  1  0.898330  0.809900  0.520900  1.0  -0.1066
  C  C1574  1  0.886930  0.839000  0.546100  1.0  -0.0525
  C  C1575  1  0.914560  0.789000  0.451600  1.0  -0.0632
  C  C1576  1  0.911290  0.783400  0.404700  1.0  -0.0836
  C  C1577  1  0.921220  0.753800  0.381500  1.0  -0.0728
  C  C1578  1  0.934620  0.729500  0.402400  1.0  0.166
  C  C1579  1  0.938430  0.735300  0.446600  1.0  -0.1383
  C  C1580  1  0.928680  0.763700  0.473000  1.0  -0.1489
  C  C1581  1  0.869050  0.489400  0.193200  1.0  0.6109
  C  C1582  1  0.880770  0.520100  0.221100  1.0  -0.1122
  C  C1583  1  0.897280  0.526700  0.207900  1.0  -0.0998
  C  C1584  1  0.909080  0.554700  0.235500  1.0  -0.1483
  C  C1585  1  0.903210  0.575100  0.271100  1.0  -0.0061
  C  C1586  1  0.884870  0.569500  0.284400  1.0  -0.161
  C  C1587  1  0.874230  0.542900  0.257500  1.0  -0.0984
  C  C1588  1  0.915400  0.605800  0.299000  1.0  -0.0011
  C  C1589  1  0.929290  0.626600  0.281600  1.0  -0.1048
  C  C1590  1  0.939290  0.659300  0.304100  1.0  -0.2446
  C  C1591  1  0.936010  0.664400  0.348700  1.0  0.1804
  C  C1592  1  0.921630  0.640300  0.369800  1.0  -0.1876
  C  C1593  1  0.911870  0.611600  0.347500  1.0  -0.1572
  C  C1594  1  0.075100  0.766900  0.355500  1.0  0.6784
  C  C1595  1  0.055610  0.753500  0.358300  1.0  -0.1278
  C  C1596  1  0.043940  0.781800  0.380900  1.0  -0.1134
  C  C1597  1  0.025880  0.770300  0.381900  1.0  -0.1214
  C  C1598  1  0.019790  0.732700  0.362200  1.0  0.0304
  C  C1599  1  0.031200  0.703800  0.339800  1.0  -0.114
  C  C1600  1  0.050270  0.713800  0.337700  1.0  -0.0796
  C  C1601  1  0.000160  0.721600  0.363900  1.0  0.0043
  C  C1602  1  0.988130  0.757400  0.372100  1.0  -0.1535
  C  C1603  1  0.970170  0.749300  0.374000  1.0  -0.1185
  C  C1604  1  0.963730  0.705200  0.369300  1.0  0.1637
  C  C1605  1  0.975050  0.671100  0.361700  1.0  -0.1554
  C  C1606  1  0.993970  0.678500  0.358100  1.0  -0.1309
  C  C1607  1  0.825200  0.835100  0.706200  1.0  -0.0631
  C  C1608  1  0.858070  0.845700  0.678800  1.0  0.1968
  C  C1609  1  0.894180  0.190000  0.633400  1.0  0.0327
  C  C1610  1  0.829600  0.877200  0.684600  1.0  0.1019
  C  C1611  1  0.953980  0.273400  0.755600  1.0  -0.2077
  C  C1612  1  0.836920  0.798600  0.714100  1.0  0.093
  C  C1613  1  0.830290  0.758300  0.738400  1.0  0.3232
  C  C1614  1  0.915960  0.248000  0.688000  1.0  0.145
  C  C1615  1  0.972620  0.270600  0.753000  1.0  -0.1029
  C  C1616  1  0.909260  0.175000  0.655800  1.0  -0.1903
  C  C1617  1  0.853460  0.803500  0.701000  1.0  -0.1939
  C  C1618  1  0.841940  0.646900  0.891100  1.0  0.1786
  C  C1619  1  0.855310  0.077700  0.513100  1.0  0.6723
  C  C1620  1  0.864450  0.107700  0.546200  1.0  -0.1521
  C  C1621  1  0.871350  0.091200  0.585500  1.0  -0.1226
  C  C1622  1  0.880680  0.117700  0.613900  1.0  -0.1808
  C  C1623  1  0.884050  0.162900  0.605000  1.0  0.1203
  C  C1624  1  0.875590  0.180600  0.566400  1.0  -0.1341
  C  C1625  1  0.865830  0.153200  0.537400  1.0  -0.099
  C  C1626  1  0.829030  0.672100  0.822400  1.0  0.0258
  C  C1627  1  0.840310  0.678500  0.860500  1.0  -0.1884
  C  C1628  1  0.919150  0.204200  0.683900  1.0  -0.1164
  C  C1629  1  0.819800  0.632800  0.819800  1.0  -0.1068
  C  C1630  1  0.900470  0.267100  0.663900  1.0  -0.1606
  C  C1631  1  0.890780  0.238100  0.640600  1.0  -0.1364
  C  C1632  1  0.058740  0.238800  0.716300  1.0  0.7194
  C  C1633  1  0.038130  0.249000  0.715200  1.0  -0.1325
  C  C1634  1  0.027990  0.233100  0.679300  1.0  -0.0391
  C  C1635  1  0.009910  0.241400  0.678500  1.0  -0.0996
  C  C1636  1  0.001510  0.263400  0.714600  1.0  0.0469
  C  C1637  1  0.012310  0.278400  0.749300  1.0  -0.098
  C  C1638  1  0.029900  0.274200  0.750000  1.0  -0.1286
  C  C1639  1  0.982000  0.268600  0.714600  1.0  0.0691
  C  C1640  1  0.971730  0.269300  0.674400  1.0  -0.1948
  C  C1641  1  0.953930  0.272000  0.677300  1.0  -0.0885
  C  C1642  1  0.945300  0.275800  0.714200  1.0  0.2281
  C  C1643  1  0.822030  0.601300  0.855600  1.0  0.168
  C  C1644  1  0.827690  0.703600  0.784900  1.0  0.1944
  C  C1645  1  0.855480  0.481300  0.917300  1.0  0.6439
  C  C1646  1  0.866750  0.450800  0.887400  1.0  -0.1609
  C  C1647  1  0.879460  0.467400  0.858700  1.0  -0.1974
  C  C1648  1  0.888560  0.439000  0.832500  1.0  -0.1293
  C  C1649  1  0.886910  0.393900  0.831700  1.0  0.082
  C  C1650  1  0.873480  0.376600  0.860900  1.0  -0.2072
  C  C1651  1  0.864290  0.405200  0.888000  1.0  -0.0517
  C  C1652  1  0.897540  0.364500  0.803100  1.0  0.0354
  C  C1653  1  0.914250  0.376100  0.784300  1.0  -0.1701
  C  C1654  1  0.922760  0.349700  0.756400  1.0  -0.1115
  C  C1655  1  0.916730  0.306900  0.744500  1.0  0.1985
  C  C1656  1  0.900700  0.292500  0.763400  1.0  -0.1706
  C  C1657  1  0.890950  0.320800  0.792200  1.0  -0.1365
  C  C1658  1  0.870870  0.412900  0.053600  1.0  0.685
  C  C1659  1  0.882230  0.380600  0.027300  1.0  -0.1296
  C  C1660  1  0.888040  0.393300  0.985000  1.0  -0.0345
  C  C1661  1  0.898780  0.363000  0.960400  1.0  -0.1178
  C  C1662  1  0.903530  0.321900  0.978500  1.0  0.0574
  C  C1663  1  0.898330  0.309900  0.020900  1.0  -0.1066
  C  C1664  1  0.886930  0.339000  0.046100  1.0  -0.0525
  C  C1665  1  0.914560  0.289000  0.951600  1.0  -0.0632
  C  C1666  1  0.911290  0.283400  0.904700  1.0  -0.0836
  C  C1667  1  0.921220  0.253800  0.881500  1.0  -0.0728
  C  C1668  1  0.934620  0.229500  0.902400  1.0  0.166
  C  C1669  1  0.938430  0.235300  0.946600  1.0  -0.1382
  C  C1670  1  0.928680  0.263700  0.973000  1.0  -0.1489
  C  C1671  1  0.869050  0.989400  0.693200  1.0  0.6109
  C  C1672  1  0.880770  0.020100  0.721100  1.0  -0.1122
  C  C1673  1  0.897280  0.026700  0.707900  1.0  -0.0998
  C  C1674  1  0.909080  0.054700  0.735500  1.0  -0.1483
  C  C1675  1  0.903210  0.075100  0.771100  1.0  -0.0061
  C  C1676  1  0.884870  0.069500  0.784400  1.0  -0.161
  C  C1677  1  0.874230  0.042900  0.757500  1.0  -0.0984
  C  C1678  1  0.915400  0.105800  0.799000  1.0  -0.0011
  C  C1679  1  0.929290  0.126600  0.781600  1.0  -0.1048
  C  C1680  1  0.939290  0.159300  0.804100  1.0  -0.2446
  C  C1681  1  0.936010  0.164400  0.848700  1.0  0.1804
  C  C1682  1  0.921630  0.140300  0.869800  1.0  -0.1876
  C  C1683  1  0.911870  0.111600  0.847500  1.0  -0.1572
  C  C1684  1  0.075100  0.266900  0.855500  1.0  0.6784
  C  C1685  1  0.055610  0.253500  0.858300  1.0  -0.1278
  C  C1686  1  0.043940  0.281800  0.880900  1.0  -0.1134
  C  C1687  1  0.025880  0.270300  0.881900  1.0  -0.1214
  C  C1688  1  0.019790  0.232700  0.862200  1.0  0.0304
  C  C1689  1  0.031200  0.203800  0.839800  1.0  -0.114
  C  C1690  1  0.050270  0.213800  0.837700  1.0  -0.0796
  C  C1691  1  0.000160  0.221600  0.863900  1.0  0.0043
  C  C1692  1  0.988130  0.257400  0.872100  1.0  -0.1535
  C  C1693  1  0.970170  0.249300  0.874000  1.0  -0.1185
  C  C1694  1  0.963730  0.205200  0.869300  1.0  0.1637
  C  C1695  1  0.975050  0.171100  0.861700  1.0  -0.1554
  C  C1696  1  0.993970  0.178500  0.858100  1.0  -0.1309
  C  C1697  1  0.924800  0.085100  0.456200  1.0  -0.0586
  C  C1698  1  0.891930  0.095700  0.428800  1.0  0.1955
  C  C1699  1  0.855820  0.440000  0.383400  1.0  0.0324
  C  C1700  1  0.920400  0.127200  0.434600  1.0  0.1029
  C  C1701  1  0.796020  0.523400  0.505600  1.0  -0.2069
  C  C1702  1  0.913080  0.048600  0.464100  1.0  0.0928
  C  C1703  1  0.919710  0.008300  0.488400  1.0  0.3221
  C  C1704  1  0.834040  0.498000  0.438000  1.0  0.1455
  C  C1705  1  0.777380  0.520600  0.503000  1.0  -0.1042
  C  C1706  1  0.840740  0.425000  0.405800  1.0  -0.1905
  C  C1707  1  0.896540  0.053500  0.451000  1.0  -0.1937
  C  C1708  1  0.908060  0.896900  0.641100  1.0  0.1804
  C  C1709  1  0.894690  0.327700  0.263100  1.0  0.6711
  C  C1710  1  0.885550  0.357700  0.296200  1.0  -0.153
  C  C1711  1  0.878650  0.341200  0.335500  1.0  -0.1241
  C  C1712  1  0.869320  0.367700  0.363900  1.0  -0.1791
  C  C1713  1  0.865950  0.412900  0.355000  1.0  0.1196
  C  C1714  1  0.874410  0.430600  0.316400  1.0  -0.1351
  C  C1715  1  0.884170  0.403200  0.287400  1.0  -0.1007
  C  C1716  1  0.920970  0.922100  0.572400  1.0  0.0202
  C  C1717  1  0.909690  0.928500  0.610500  1.0  -0.1892
  C  C1718  1  0.830850  0.454200  0.433900  1.0  -0.1169
  C  C1719  1  0.930200  0.882800  0.569800  1.0  -0.1084
  C  C1720  1  0.849530  0.517100  0.413900  1.0  -0.1608
  C  C1721  1  0.859220  0.488100  0.390600  1.0  -0.1368
  C  C1722  1  0.691260  0.488800  0.466300  1.0  0.7216
  C  C1723  1  0.711870  0.499000  0.465200  1.0  -0.1337
  C  C1724  1  0.722010  0.483100  0.429300  1.0  -0.0393
  C  C1725  1  0.740090  0.491400  0.428500  1.0  -0.0997
  C  C1726  1  0.748490  0.513400  0.464600  1.0  0.0464
  C  C1727  1  0.737690  0.528400  0.499300  1.0  -0.0999
  C  C1728  1  0.720100  0.524200  0.500000  1.0  -0.1285
  C  C1729  1  0.768000  0.518600  0.464600  1.0  0.069
  C  C1730  1  0.778270  0.519300  0.424400  1.0  -0.194
  C  C1731  1  0.796070  0.522000  0.427300  1.0  -0.0902
  C  C1732  1  0.804700  0.525800  0.464200  1.0  0.2278
  C  C1733  1  0.927970  0.851300  0.605600  1.0  0.1604
  C  C1734  1  0.922310  0.953600  0.534900  1.0  0.1934
  C  C1735  1  0.894520  0.731300  0.667300  1.0  0.6436
  C  C1736  1  0.883250  0.700800  0.637400  1.0  -0.1622
  C  C1737  1  0.870540  0.717400  0.608700  1.0  -0.1973
  C  C1738  1  0.861440  0.689000  0.582500  1.0  -0.1266
  C  C1739  1  0.863090  0.643900  0.581700  1.0  0.0815
  C  C1740  1  0.876520  0.626600  0.610900  1.0  -0.2078
  C  C1741  1  0.885710  0.655200  0.638000  1.0  -0.0458
  C  C1742  1  0.852460  0.614500  0.553100  1.0  0.0343
  C  C1743  1  0.835750  0.626100  0.534300  1.0  -0.1701
  C  C1744  1  0.827240  0.599700  0.506400  1.0  -0.1147
  C  C1745  1  0.833270  0.556900  0.494500  1.0  0.1994
  C  C1746  1  0.849300  0.542500  0.513400  1.0  -0.1693
  C  C1747  1  0.859050  0.570800  0.542200  1.0  -0.1338
  C  C1748  1  0.879130  0.662900  0.803600  1.0  0.6837
  C  C1749  1  0.867770  0.630600  0.777300  1.0  -0.1309
  C  C1750  1  0.861960  0.643300  0.735000  1.0  -0.0314
  C  C1751  1  0.851220  0.613000  0.710400  1.0  -0.1182
  C  C1752  1  0.846470  0.571900  0.728500  1.0  0.0571
  C  C1753  1  0.851670  0.559900  0.770900  1.0  -0.1067
  C  C1754  1  0.863070  0.589000  0.796100  1.0  -0.0535
  C  C1755  1  0.835440  0.539000  0.701600  1.0  -0.0636
  C  C1756  1  0.838710  0.533400  0.654700  1.0  -0.0836
  C  C1757  1  0.828780  0.503800  0.631500  1.0  -0.0656
  C  C1758  1  0.815380  0.479500  0.652400  1.0  0.1653
  C  C1759  1  0.811570  0.485300  0.696600  1.0  -0.1387
  C  C1760  1  0.821320  0.513700  0.723000  1.0  -0.1546
  C  C1761  1  0.880950  0.239400  0.443200  1.0  0.6108
  C  C1762  1  0.869230  0.270100  0.471100  1.0  -0.1104
  C  C1763  1  0.852720  0.276700  0.457900  1.0  -0.102
  C  C1764  1  0.840920  0.304700  0.485500  1.0  -0.1475
  C  C1765  1  0.846790  0.325100  0.521100  1.0  -0.0055
  C  C1766  1  0.865130  0.319500  0.534400  1.0  -0.1621
  C  C1767  1  0.875770  0.292900  0.507500  1.0  -0.0963
  C  C1768  1  0.834600  0.355800  0.549000  1.0  0.0009
  C  C1769  1  0.820710  0.376600  0.531600  1.0  -0.1054
  C  C1770  1  0.810710  0.409300  0.554100  1.0  -0.2454
  C  C1771  1  0.813990  0.414400  0.598700  1.0  0.1808
  C  C1772  1  0.828370  0.390300  0.619800  1.0  -0.187
  C  C1773  1  0.838130  0.361600  0.597500  1.0  -0.1548
  C  C1774  1  0.674900  0.516900  0.605500  1.0  0.6803
  C  C1775  1  0.694390  0.503500  0.608300  1.0  -0.1281
  C  C1776  1  0.706060  0.531800  0.630900  1.0  -0.1145
  C  C1777  1  0.724120  0.520300  0.631900  1.0  -0.1207
  C  C1778  1  0.730210  0.482700  0.612200  1.0  0.0314
  C  C1779  1  0.718800  0.453800  0.589800  1.0  -0.114
  C  C1780  1  0.699730  0.463800  0.587700  1.0  -0.0784
  C  C1781  1  0.749840  0.471600  0.613900  1.0  0.0034
  C  C1782  1  0.761870  0.507400  0.622100  1.0  -0.1522
  C  C1783  1  0.779830  0.499300  0.624000  1.0  -0.1189
  C  C1784  1  0.786270  0.455200  0.619300  1.0  0.1629
  C  C1785  1  0.774950  0.421100  0.611700  1.0  -0.1544
  C  C1786  1  0.756030  0.428500  0.608100  1.0  -0.13
  C  C1787  1  0.924800  0.585100  0.956200  1.0  -0.0586
  C  C1788  1  0.891930  0.595700  0.928800  1.0  0.1955
  C  C1789  1  0.855820  0.940000  0.883400  1.0  0.0324
  C  C1790  1  0.920400  0.627200  0.934600  1.0  0.1029
  C  C1791  1  0.796020  0.023400  0.005600  1.0  -0.2068
  C  C1792  1  0.913080  0.548600  0.964100  1.0  0.0928
  C  C1793  1  0.919710  0.508300  0.988400  1.0  0.3221
  C  C1794  1  0.834040  0.998000  0.938000  1.0  0.1455
  C  C1795  1  0.777380  0.020600  0.003000  1.0  -0.1042
  C  C1796  1  0.840740  0.925000  0.905800  1.0  -0.1905
  C  C1797  1  0.896540  0.553500  0.951000  1.0  -0.1937
  C  C1798  1  0.908060  0.396900  0.141100  1.0  0.1804
  C  C1799  1  0.894690  0.827700  0.763100  1.0  0.6711
  C  C1800  1  0.885550  0.857700  0.796200  1.0  -0.153
  C  C1801  1  0.878650  0.841200  0.835500  1.0  -0.1241
  C  C1802  1  0.869320  0.867700  0.863900  1.0  -0.1791
  C  C1803  1  0.865950  0.912900  0.855000  1.0  0.1196
  C  C1804  1  0.874410  0.930600  0.816400  1.0  -0.1351
  C  C1805  1  0.884170  0.903200  0.787400  1.0  -0.1007
  C  C1806  1  0.920970  0.422100  0.072400  1.0  0.0202
  C  C1807  1  0.909690  0.428500  0.110500  1.0  -0.1892
  C  C1808  1  0.830850  0.954200  0.933900  1.0  -0.1173
  C  C1809  1  0.930200  0.382800  0.069800  1.0  -0.1084
  C  C1810  1  0.849530  0.017100  0.913900  1.0  -0.1608
  C  C1811  1  0.859220  0.988100  0.890600  1.0  -0.1372
  C  C1812  1  0.691260  0.988800  0.966300  1.0  0.7216
  C  C1813  1  0.711870  0.999000  0.965200  1.0  -0.1337
  C  C1814  1  0.722010  0.983100  0.929300  1.0  -0.0393
  C  C1815  1  0.740090  0.991400  0.928500  1.0  -0.0997
  C  C1816  1  0.748490  0.013400  0.964600  1.0  0.0464
  C  C1817  1  0.737690  0.028400  0.999300  1.0  -0.0999
  C  C1818  1  0.720100  0.024200  0.000000  1.0  -0.1285
  C  C1819  1  0.768000  0.018600  0.964600  1.0  0.069
  C  C1820  1  0.778270  0.019300  0.924400  1.0  -0.194
  C  C1821  1  0.796070  0.022000  0.927300  1.0  -0.0917
  C  C1822  1  0.804700  0.025800  0.964200  1.0  0.2278
  C  C1823  1  0.927970  0.351300  0.105600  1.0  0.1604
  C  C1824  1  0.922310  0.453600  0.034900  1.0  0.1933
  C  C1825  1  0.894520  0.231300  0.167300  1.0  0.6436
  C  C1826  1  0.883250  0.200800  0.137400  1.0  -0.1622
  C  C1827  1  0.870540  0.217400  0.108700  1.0  -0.1973
  C  C1828  1  0.861440  0.189000  0.082500  1.0  -0.1266
  C  C1829  1  0.863090  0.143900  0.081700  1.0  0.0815
  C  C1830  1  0.876520  0.126600  0.110900  1.0  -0.2078
  C  C1831  1  0.885710  0.155200  0.138000  1.0  -0.0458
  C  C1832  1  0.852460  0.114500  0.053100  1.0  0.0343
  C  C1833  1  0.835750  0.126100  0.034300  1.0  -0.1701
  C  C1834  1  0.827240  0.099700  0.006400  1.0  -0.1147
  C  C1835  1  0.833270  0.056900  0.994500  1.0  0.1994
  C  C1836  1  0.849300  0.042500  0.013400  1.0  -0.1693
  C  C1837  1  0.859050  0.070800  0.042200  1.0  -0.1335
  C  C1838  1  0.879130  0.162900  0.303600  1.0  0.6837
  C  C1839  1  0.867770  0.130600  0.277300  1.0  -0.1309
  C  C1840  1  0.861960  0.143300  0.235000  1.0  -0.0314
  C  C1841  1  0.851220  0.113000  0.210400  1.0  -0.1182
  C  C1842  1  0.846470  0.071900  0.228500  1.0  0.0571
  C  C1843  1  0.851670  0.059900  0.270900  1.0  -0.1067
  C  C1844  1  0.863070  0.089000  0.296100  1.0  -0.0535
  C  C1845  1  0.835440  0.039000  0.201600  1.0  -0.0636
  C  C1846  1  0.838710  0.033400  0.154700  1.0  -0.0836
  C  C1847  1  0.828780  0.003800  0.131500  1.0  -0.0656
  C  C1848  1  0.815380  0.979500  0.152400  1.0  0.1653
  C  C1849  1  0.811570  0.985300  0.196600  1.0  -0.1387
  C  C1850  1  0.821320  0.013700  0.223000  1.0  -0.1546
  C  C1851  1  0.880950  0.739400  0.943200  1.0  0.6108
  C  C1852  1  0.869230  0.770100  0.971100  1.0  -0.1104
  C  C1853  1  0.852720  0.776700  0.957900  1.0  -0.102
  C  C1854  1  0.840920  0.804700  0.985500  1.0  -0.1475
  C  C1855  1  0.846790  0.825100  0.021100  1.0  -0.0055
  C  C1856  1  0.865130  0.819500  0.034400  1.0  -0.1621
  C  C1857  1  0.875770  0.792900  0.007500  1.0  -0.0963
  C  C1858  1  0.834600  0.855800  0.049000  1.0  0.0009
  C  C1859  1  0.820710  0.876600  0.031600  1.0  -0.1054
  C  C1860  1  0.810710  0.909300  0.054100  1.0  -0.2454
  C  C1861  1  0.813990  0.914400  0.098700  1.0  0.1808
  C  C1862  1  0.828370  0.890300  0.119800  1.0  -0.187
  C  C1863  1  0.838130  0.861600  0.097500  1.0  -0.1548
  C  C1864  1  0.674900  0.016900  0.105500  1.0  0.6803
  C  C1865  1  0.694390  0.003500  0.108300  1.0  -0.1281
  C  C1866  1  0.706060  0.031800  0.130900  1.0  -0.1141
  C  C1867  1  0.724120  0.020300  0.131900  1.0  -0.1207
  C  C1868  1  0.730210  0.982700  0.112200  1.0  0.0314
  C  C1869  1  0.718800  0.953800  0.089800  1.0  -0.1128
  C  C1870  1  0.699730  0.963800  0.087700  1.0  -0.0784
  C  C1871  1  0.749840  0.971600  0.113900  1.0  0.0034
  C  C1872  1  0.761870  0.007400  0.122100  1.0  -0.1522
  C  C1873  1  0.779830  0.999300  0.124000  1.0  -0.1189
  C  C1874  1  0.786270  0.955200  0.119300  1.0  0.1629
  C  C1875  1  0.774950  0.921100  0.111700  1.0  -0.1544
  C  C1876  1  0.756030  0.928500  0.108100  1.0  -0.13
  C  C1877  1  0.424800  0.085100  0.956200  1.0  -0.0586
  C  C1878  1  0.391930  0.095700  0.928800  1.0  0.1955
  C  C1879  1  0.355820  0.440000  0.883400  1.0  0.0324
  C  C1880  1  0.420400  0.127200  0.934600  1.0  0.1029
  C  C1881  1  0.296020  0.523400  0.005600  1.0  -0.2068
  C  C1882  1  0.413080  0.048600  0.964100  1.0  0.0928
  C  C1883  1  0.419710  0.008300  0.988400  1.0  0.3221
  C  C1884  1  0.334040  0.498000  0.938000  1.0  0.1455
  C  C1885  1  0.277380  0.520600  0.003000  1.0  -0.1042
  C  C1886  1  0.340740  0.425000  0.905800  1.0  -0.1905
  C  C1887  1  0.396540  0.053500  0.951000  1.0  -0.1937
  C  C1888  1  0.408060  0.896900  0.141100  1.0  0.1804
  C  C1889  1  0.394690  0.327700  0.763100  1.0  0.6711
  C  C1890  1  0.385550  0.357700  0.796200  1.0  -0.153
  C  C1891  1  0.378650  0.341200  0.835500  1.0  -0.1241
  C  C1892  1  0.369320  0.367700  0.863900  1.0  -0.1791
  C  C1893  1  0.365950  0.412900  0.855000  1.0  0.1196
  C  C1894  1  0.374410  0.430600  0.816400  1.0  -0.1351
  C  C1895  1  0.384170  0.403200  0.787400  1.0  -0.1007
  C  C1896  1  0.420970  0.922100  0.072400  1.0  0.0202
  C  C1897  1  0.409690  0.928500  0.110500  1.0  -0.1892
  C  C1898  1  0.330850  0.454200  0.933900  1.0  -0.1169
  C  C1899  1  0.430200  0.882800  0.069800  1.0  -0.1084
  C  C1900  1  0.349530  0.517100  0.913900  1.0  -0.1608
  C  C1901  1  0.359220  0.488100  0.890600  1.0  -0.1368
  C  C1902  1  0.191260  0.488800  0.966300  1.0  0.7216
  C  C1903  1  0.211870  0.499000  0.965200  1.0  -0.1337
  C  C1904  1  0.222010  0.483100  0.929300  1.0  -0.0393
  C  C1905  1  0.240090  0.491400  0.928500  1.0  -0.0997
  C  C1906  1  0.248490  0.513400  0.964600  1.0  0.0464
  C  C1907  1  0.237690  0.528400  0.999300  1.0  -0.0999
  C  C1908  1  0.220100  0.524200  0.000000  1.0  -0.1285
  C  C1909  1  0.268000  0.518600  0.964600  1.0  0.069
  C  C1910  1  0.278270  0.519300  0.924400  1.0  -0.194
  C  C1911  1  0.296070  0.522000  0.927300  1.0  -0.0917
  C  C1912  1  0.304700  0.525800  0.964200  1.0  0.2278
  C  C1913  1  0.427970  0.851300  0.105600  1.0  0.1604
  C  C1914  1  0.422310  0.953600  0.034900  1.0  0.1934
  C  C1915  1  0.394520  0.731300  0.167300  1.0  0.6436
  C  C1916  1  0.383250  0.700800  0.137400  1.0  -0.1622
  C  C1917  1  0.370540  0.717400  0.108700  1.0  -0.1973
  C  C1918  1  0.361440  0.689000  0.082500  1.0  -0.1266
  C  C1919  1  0.363090  0.643900  0.081700  1.0  0.0815
  C  C1920  1  0.376520  0.626600  0.110900  1.0  -0.2078
  C  C1921  1  0.385710  0.655200  0.138000  1.0  -0.0458
  C  C1922  1  0.352460  0.614500  0.053100  1.0  0.0343
  C  C1923  1  0.335750  0.626100  0.034300  1.0  -0.1701
  C  C1924  1  0.327240  0.599700  0.006400  1.0  -0.1147
  C  C1925  1  0.333270  0.556900  0.994500  1.0  0.1994
  C  C1926  1  0.349300  0.542500  0.013400  1.0  -0.1693
  C  C1927  1  0.359050  0.570800  0.042200  1.0  -0.1335
  C  C1928  1  0.379130  0.662900  0.303600  1.0  0.6837
  C  C1929  1  0.367770  0.630600  0.277300  1.0  -0.1309
  C  C1930  1  0.361960  0.643300  0.235000  1.0  -0.0314
  C  C1931  1  0.351220  0.613000  0.210400  1.0  -0.1182
  C  C1932  1  0.346470  0.571900  0.228500  1.0  0.0571
  C  C1933  1  0.351670  0.559900  0.270900  1.0  -0.1067
  C  C1934  1  0.363070  0.589000  0.296100  1.0  -0.0535
  C  C1935  1  0.335440  0.539000  0.201600  1.0  -0.0636
  C  C1936  1  0.338710  0.533400  0.154700  1.0  -0.0836
  C  C1937  1  0.328780  0.503800  0.131500  1.0  -0.0656
  C  C1938  1  0.315380  0.479500  0.152400  1.0  0.1653
  C  C1939  1  0.311570  0.485300  0.196600  1.0  -0.1387
  C  C1940  1  0.321320  0.513700  0.223000  1.0  -0.1546
  C  C1941  1  0.380950  0.239400  0.943200  1.0  0.6108
  C  C1942  1  0.369230  0.270100  0.971100  1.0  -0.1104
  C  C1943  1  0.352720  0.276700  0.957900  1.0  -0.102
  C  C1944  1  0.340920  0.304700  0.985500  1.0  -0.1475
  C  C1945  1  0.346790  0.325100  0.021100  1.0  -0.0055
  C  C1946  1  0.365130  0.319500  0.034400  1.0  -0.1621
  C  C1947  1  0.375770  0.292900  0.007500  1.0  -0.0963
  C  C1948  1  0.334600  0.355800  0.049000  1.0  0.0009
  C  C1949  1  0.320710  0.376600  0.031600  1.0  -0.1054
  C  C1950  1  0.310710  0.409300  0.054100  1.0  -0.2454
  C  C1951  1  0.313990  0.414400  0.098700  1.0  0.1808
  C  C1952  1  0.328370  0.390300  0.119800  1.0  -0.187
  C  C1953  1  0.338130  0.361600  0.097500  1.0  -0.1548
  C  C1954  1  0.174900  0.516900  0.105500  1.0  0.6803
  C  C1955  1  0.194390  0.503500  0.108300  1.0  -0.1281
  C  C1956  1  0.206060  0.531800  0.130900  1.0  -0.1145
  C  C1957  1  0.224120  0.520300  0.131900  1.0  -0.1207
  C  C1958  1  0.230210  0.482700  0.112200  1.0  0.0314
  C  C1959  1  0.218800  0.453800  0.089800  1.0  -0.114
  C  C1960  1  0.199730  0.463800  0.087700  1.0  -0.0784
  C  C1961  1  0.249840  0.471600  0.113900  1.0  0.0034
  C  C1962  1  0.261870  0.507400  0.122100  1.0  -0.1522
  C  C1963  1  0.279830  0.499300  0.124000  1.0  -0.1189
  C  C1964  1  0.286270  0.455200  0.119300  1.0  0.1629
  C  C1965  1  0.274950  0.421100  0.111700  1.0  -0.1544
  C  C1966  1  0.256030  0.428500  0.108100  1.0  -0.13
  C  C1967  1  0.424800  0.585100  0.456200  1.0  -0.0586
  C  C1968  1  0.391930  0.595700  0.428800  1.0  0.1955
  C  C1969  1  0.355820  0.940000  0.383400  1.0  0.0324
  C  C1970  1  0.420400  0.627200  0.434600  1.0  0.1029
  C  C1971  1  0.296020  0.023400  0.505600  1.0  -0.2069
  C  C1972  1  0.413080  0.548600  0.464100  1.0  0.0928
  C  C1973  1  0.419710  0.508300  0.488400  1.0  0.3221
  C  C1974  1  0.334040  0.998000  0.438000  1.0  0.1455
  C  C1975  1  0.277380  0.020600  0.503000  1.0  -0.1042
  C  C1976  1  0.340740  0.925000  0.405800  1.0  -0.1905
  C  C1977  1  0.396540  0.553500  0.451000  1.0  -0.1937
  C  C1978  1  0.408060  0.396900  0.641100  1.0  0.1804
  C  C1979  1  0.394690  0.827700  0.263100  1.0  0.6711
  C  C1980  1  0.385550  0.857700  0.296200  1.0  -0.153
  C  C1981  1  0.378650  0.841200  0.335500  1.0  -0.1241
  C  C1982  1  0.369320  0.867700  0.363900  1.0  -0.1791
  C  C1983  1  0.365950  0.912900  0.355000  1.0  0.1196
  C  C1984  1  0.374410  0.930600  0.316400  1.0  -0.1351
  C  C1985  1  0.384170  0.903200  0.287400  1.0  -0.1007
  C  C1986  1  0.420970  0.422100  0.572400  1.0  0.0202
  C  C1987  1  0.409690  0.428500  0.610500  1.0  -0.1892
  C  C1988  1  0.330850  0.954200  0.433900  1.0  -0.1173
  C  C1989  1  0.430200  0.382800  0.569800  1.0  -0.1084
  C  C1990  1  0.349530  0.017100  0.413900  1.0  -0.1608
  C  C1991  1  0.359220  0.988100  0.390600  1.0  -0.1372
  C  C1992  1  0.191260  0.988800  0.466300  1.0  0.7216
  C  C1993  1  0.211870  0.999000  0.465200  1.0  -0.1337
  C  C1994  1  0.222010  0.983100  0.429300  1.0  -0.0393
  C  C1995  1  0.240090  0.991400  0.428500  1.0  -0.0997
  C  C1996  1  0.248490  0.013400  0.464600  1.0  0.0464
  C  C1997  1  0.237690  0.028400  0.499300  1.0  -0.0999
  C  C1998  1  0.220100  0.024200  0.500000  1.0  -0.1285
  C  C1999  1  0.268000  0.018600  0.464600  1.0  0.069
  C  C2000  1  0.278270  0.019300  0.424400  1.0  -0.194
  C  C2001  1  0.296070  0.022000  0.427300  1.0  -0.0902
  C  C2002  1  0.304700  0.025800  0.464200  1.0  0.2278
  C  C2003  1  0.427970  0.351300  0.605600  1.0  0.1604
  C  C2004  1  0.422310  0.453600  0.534900  1.0  0.1933
  C  C2005  1  0.394520  0.231300  0.667300  1.0  0.6436
  C  C2006  1  0.383250  0.200800  0.637400  1.0  -0.1622
  C  C2007  1  0.370540  0.217400  0.608700  1.0  -0.1973
  C  C2008  1  0.361440  0.189000  0.582500  1.0  -0.1266
  C  C2009  1  0.363090  0.143900  0.581700  1.0  0.0815
  C  C2010  1  0.376520  0.126600  0.610900  1.0  -0.2078
  C  C2011  1  0.385710  0.155200  0.638000  1.0  -0.0458
  C  C2012  1  0.352460  0.114500  0.553100  1.0  0.0343
  C  C2013  1  0.335750  0.126100  0.534300  1.0  -0.1701
  C  C2014  1  0.327240  0.099700  0.506400  1.0  -0.1147
  C  C2015  1  0.333270  0.056900  0.494500  1.0  0.1994
  C  C2016  1  0.349300  0.042500  0.513400  1.0  -0.1693
  C  C2017  1  0.359050  0.070800  0.542200  1.0  -0.1338
  C  C2018  1  0.379130  0.162900  0.803600  1.0  0.6837
  C  C2019  1  0.367770  0.130600  0.777300  1.0  -0.1309
  C  C2020  1  0.361960  0.143300  0.735000  1.0  -0.0314
  C  C2021  1  0.351220  0.113000  0.710400  1.0  -0.1182
  C  C2022  1  0.346470  0.071900  0.728500  1.0  0.0571
  C  C2023  1  0.351670  0.059900  0.770900  1.0  -0.1067
  C  C2024  1  0.363070  0.089000  0.796100  1.0  -0.0535
  C  C2025  1  0.335440  0.039000  0.701600  1.0  -0.0636
  C  C2026  1  0.338710  0.033400  0.654700  1.0  -0.0836
  C  C2027  1  0.328780  0.003800  0.631500  1.0  -0.0656
  C  C2028  1  0.315380  0.979500  0.652400  1.0  0.1653
  C  C2029  1  0.311570  0.985300  0.696600  1.0  -0.1387
  C  C2030  1  0.321320  0.013700  0.723000  1.0  -0.1546
  C  C2031  1  0.380950  0.739400  0.443200  1.0  0.6108
  C  C2032  1  0.369230  0.770100  0.471100  1.0  -0.1104
  C  C2033  1  0.352720  0.776700  0.457900  1.0  -0.102
  C  C2034  1  0.340920  0.804700  0.485500  1.0  -0.1475
  C  C2035  1  0.346790  0.825100  0.521100  1.0  -0.0055
  C  C2036  1  0.365130  0.819500  0.534400  1.0  -0.1621
  C  C2037  1  0.375770  0.792900  0.507500  1.0  -0.0963
  C  C2038  1  0.334600  0.855800  0.549000  1.0  0.0009
  C  C2039  1  0.320710  0.876600  0.531600  1.0  -0.1054
  C  C2040  1  0.310710  0.909300  0.554100  1.0  -0.2454
  C  C2041  1  0.313990  0.914400  0.598700  1.0  0.1808
  C  C2042  1  0.328370  0.890300  0.619800  1.0  -0.187
  C  C2043  1  0.338130  0.861600  0.597500  1.0  -0.1548
  C  C2044  1  0.174900  0.016900  0.605500  1.0  0.6803
  C  C2045  1  0.194390  0.003500  0.608300  1.0  -0.1281
  C  C2046  1  0.206060  0.031800  0.630900  1.0  -0.1141
  C  C2047  1  0.224120  0.020300  0.631900  1.0  -0.1207
  C  C2048  1  0.230210  0.982700  0.612200  1.0  0.0314
  C  C2049  1  0.218800  0.953800  0.589800  1.0  -0.1128
  C  C2050  1  0.199730  0.963800  0.587700  1.0  -0.0784
  C  C2051  1  0.249840  0.971600  0.613900  1.0  0.0034
  C  C2052  1  0.261870  0.007400  0.622100  1.0  -0.1522
  C  C2053  1  0.279830  0.999300  0.624000  1.0  -0.1189
  C  C2054  1  0.286270  0.955200  0.619300  1.0  0.1629
  C  C2055  1  0.274950  0.921100  0.611700  1.0  -0.1544
  C  C2056  1  0.256030  0.928500  0.608100  1.0  -0.13
  C  C2057  1  0.174800  0.164900  0.706200  1.0  -0.0587
  C  C2058  1  0.141930  0.154300  0.678800  1.0  0.198
  C  C2059  1  0.105820  0.810000  0.633400  1.0  0.0326
  C  C2060  1  0.170400  0.122800  0.684600  1.0  0.1003
  C  C2061  1  0.046020  0.726600  0.755600  1.0  -0.2072
  C  C2062  1  0.163080  0.201400  0.714100  1.0  0.0928
  C  C2063  1  0.169710  0.241700  0.738400  1.0  0.322
  C  C2064  1  0.084040  0.752000  0.688000  1.0  0.1456
  C  C2065  1  0.027380  0.729400  0.753000  1.0  -0.1038
  C  C2066  1  0.090740  0.825000  0.655800  1.0  -0.1911
  C  C2067  1  0.146540  0.196500  0.701000  1.0  -0.1936
  C  C2068  1  0.158060  0.353100  0.891100  1.0  0.1798
  C  C2069  1  0.144690  0.922300  0.513100  1.0  0.671
  C  C2070  1  0.135550  0.892300  0.546200  1.0  -0.1525
  C  C2071  1  0.128650  0.908800  0.585500  1.0  -0.1232
  C  C2072  1  0.119320  0.882300  0.613900  1.0  -0.1809
  C  C2073  1  0.115950  0.837100  0.605000  1.0  0.1192
  C  C2074  1  0.124410  0.819400  0.566400  1.0  -0.1347
  C  C2075  1  0.134170  0.846800  0.537400  1.0  -0.0992
  C  C2076  1  0.170970  0.327900  0.822400  1.0  0.0155
  C  C2077  1  0.159690  0.321500  0.860500  1.0  -0.1878
  C  C2078  1  0.080850  0.795800  0.683900  1.0  -0.1161
  C  C2079  1  0.180200  0.367200  0.819800  1.0  -0.1081
  C  C2080  1  0.099530  0.732900  0.663900  1.0  -0.1618
  C  C2081  1  0.109220  0.761900  0.640600  1.0  -0.1372
  C  C2082  1  0.941260  0.761200  0.716300  1.0  0.7212
  C  C2083  1  0.961870  0.751000  0.715200  1.0  -0.1334
  C  C2084  1  0.972010  0.766900  0.679300  1.0  -0.0394
  C  C2085  1  0.990090  0.758600  0.678500  1.0  -0.1007
  C  C2086  1  0.998490  0.736600  0.714600  1.0  0.0465
  C  C2087  1  0.987690  0.721600  0.749300  1.0  -0.1024
  C  C2088  1  0.970100  0.725800  0.750000  1.0  -0.1292
  C  C2089  1  0.018000  0.731400  0.714600  1.0  0.0687
  C  C2090  1  0.028270  0.730700  0.674400  1.0  -0.1936
  C  C2091  1  0.046070  0.728000  0.677300  1.0  -0.0876
  C  C2092  1  0.054700  0.724200  0.714200  1.0  0.2266
  C  C2093  1  0.177970  0.398700  0.855600  1.0  0.1607
  C  C2094  1  0.172310  0.296400  0.784900  1.0  0.1929
  C  C2095  1  0.144520  0.518700  0.917300  1.0  0.6559
  C  C2096  1  0.133250  0.549200  0.887400  1.0  -0.1618
  C  C2097  1  0.120540  0.532600  0.858700  1.0  -0.2005
  C  C2098  1  0.111440  0.561000  0.832500  1.0  -0.1242
  C  C2099  1  0.113090  0.606100  0.831700  1.0  0.0814
  C  C2100  1  0.126520  0.623400  0.860900  1.0  -0.2065
  C  C2101  1  0.135710  0.594800  0.888000  1.0  -0.043
  C  C2102  1  0.102460  0.635500  0.803100  1.0  0.034
  C  C2103  1  0.085750  0.623900  0.784300  1.0  -0.1687
  C  C2104  1  0.077240  0.650300  0.756400  1.0  -0.1164
  C  C2105  1  0.083270  0.693100  0.744500  1.0  0.1992
  C  C2106  1  0.099300  0.707500  0.763400  1.0  -0.1693
  C  C2107  1  0.109050  0.679200  0.792200  1.0  -0.1348
  C  C2108  1  0.129130  0.587100  0.053600  1.0  0.6816
  C  C2109  1  0.117770  0.619400  0.027300  1.0  -0.1315
  C  C2110  1  0.111960  0.606700  0.985000  1.0  -0.0349
  C  C2111  1  0.101220  0.637000  0.960400  1.0  -0.118
  C  C2112  1  0.096470  0.678100  0.978500  1.0  0.0567
  C  C2113  1  0.101670  0.690100  0.020900  1.0  -0.1058
  C  C2114  1  0.113070  0.661000  0.046100  1.0  -0.0547
  C  C2115  1  0.085440  0.711000  0.951600  1.0  -0.0637
  C  C2116  1  0.088710  0.716600  0.904700  1.0  -0.0837
  C  C2117  1  0.078780  0.746200  0.881500  1.0  -0.0657
  C  C2118  1  0.065380  0.770500  0.902400  1.0  0.1647
  C  C2119  1  0.061570  0.764700  0.946600  1.0  -0.1401
  C  C2120  1  0.071320  0.736300  0.973000  1.0  -0.155
  C  C2121  1  0.130950  0.010600  0.693200  1.0  0.611
  C  C2122  1  0.119230  0.979900  0.721100  1.0  -0.1109
  C  C2123  1  0.102720  0.973300  0.707900  1.0  -0.1019
  C  C2124  1  0.090920  0.945300  0.735500  1.0  -0.1482
  C  C2125  1  0.096790  0.924900  0.771100  1.0  -0.0054
  C  C2126  1  0.115130  0.930500  0.784400  1.0  -0.1602
  C  C2127  1  0.125770  0.957100  0.757500  1.0  -0.0969
  C  C2128  1  0.084600  0.894200  0.799000  1.0  0.0006
  C  C2129  1  0.070710  0.873400  0.781600  1.0  -0.1056
  C  C2130  1  0.060710  0.840700  0.804100  1.0  -0.2467
  C  C2131  1  0.063990  0.835600  0.848700  1.0  0.1799
  C  C2132  1  0.078370  0.859700  0.869800  1.0  -0.1859
  C  C2133  1  0.088130  0.888400  0.847500  1.0  -0.1532
  C  C2134  1  0.924900  0.733100  0.855500  1.0  0.6802
  C  C2135  1  0.944390  0.746500  0.858300  1.0  -0.1276
  C  C2136  1  0.956060  0.718200  0.880900  1.0  -0.1133
  C  C2137  1  0.974120  0.729700  0.881900  1.0  -0.1215
  C  C2138  1  0.980210  0.767300  0.862200  1.0  0.0304
  C  C2139  1  0.968800  0.796200  0.839800  1.0  -0.1135
  C  C2140  1  0.949730  0.786200  0.837700  1.0  -0.0794
  C  C2141  1  0.999840  0.778400  0.863900  1.0  0.0039
  C  C2142  1  0.011870  0.742600  0.872100  1.0  -0.1509
  C  C2143  1  0.029830  0.750700  0.874000  1.0  -0.1195
  C  C2144  1  0.036270  0.794800  0.869300  1.0  0.1634
  C  C2145  1  0.024950  0.828900  0.861700  1.0  -0.1543
  C  C2146  1  0.006030  0.821500  0.858100  1.0  -0.1312
  C  C2147  1  0.174800  0.664900  0.206200  1.0  -0.0587
  C  C2148  1  0.141930  0.654300  0.178800  1.0  0.198
  C  C2149  1  0.105820  0.310000  0.133400  1.0  0.0326
  C  C2150  1  0.170400  0.622800  0.184600  1.0  0.1003
  C  C2151  1  0.046020  0.226600  0.255600  1.0  -0.2072
  C  C2152  1  0.163080  0.701400  0.214100  1.0  0.0928
  C  C2153  1  0.169710  0.741700  0.238400  1.0  0.322
  C  C2154  1  0.084040  0.252000  0.188000  1.0  0.1456
  C  C2155  1  0.027380  0.229400  0.253000  1.0  -0.1038
  C  C2156  1  0.090740  0.325000  0.155800  1.0  -0.1911
  C  C2157  1  0.146540  0.696500  0.201000  1.0  -0.1936
  C  C2158  1  0.158060  0.853100  0.391100  1.0  0.1798
  C  C2159  1  0.144690  0.422300  0.013100  1.0  0.671
  C  C2160  1  0.135550  0.392300  0.046200  1.0  -0.1525
  C  C2161  1  0.128650  0.408800  0.085500  1.0  -0.1232
  C  C2162  1  0.119320  0.382300  0.113900  1.0  -0.1809
  C  C2163  1  0.115950  0.337100  0.105000  1.0  0.1192
  C  C2164  1  0.124410  0.319400  0.066400  1.0  -0.1347
  C  C2165  1  0.134170  0.346800  0.037400  1.0  -0.0992
  C  C2166  1  0.170970  0.827900  0.322400  1.0  0.0155
  C  C2167  1  0.159690  0.821500  0.360500  1.0  -0.1878
  C  C2168  1  0.080850  0.295800  0.183900  1.0  -0.1161
  C  C2169  1  0.180200  0.867200  0.319800  1.0  -0.1081
  C  C2170  1  0.099530  0.232900  0.163900  1.0  -0.1618
  C  C2171  1  0.109220  0.261900  0.140600  1.0  -0.1372
  C  C2172  1  0.941260  0.261200  0.216300  1.0  0.7212
  C  C2173  1  0.961870  0.251000  0.215200  1.0  -0.1334
  C  C2174  1  0.972010  0.266900  0.179300  1.0  -0.0394
  C  C2175  1  0.990090  0.258600  0.178500  1.0  -0.1007
  C  C2176  1  0.998490  0.236600  0.214600  1.0  0.0465
  C  C2177  1  0.987690  0.221600  0.249300  1.0  -0.1024
  C  C2178  1  0.970100  0.225800  0.250000  1.0  -0.1292
  C  C2179  1  0.018000  0.231400  0.214600  1.0  0.0687
  C  C2180  1  0.028270  0.230700  0.174400  1.0  -0.1936
  C  C2181  1  0.046070  0.228000  0.177300  1.0  -0.0876
  C  C2182  1  0.054700  0.224200  0.214200  1.0  0.2266
  C  C2183  1  0.177970  0.898700  0.355600  1.0  0.1607
  C  C2184  1  0.172310  0.796400  0.284900  1.0  0.1929
  C  C2185  1  0.144520  0.018700  0.417300  1.0  0.6559
  C  C2186  1  0.133250  0.049200  0.387400  1.0  -0.1618
  C  C2187  1  0.120540  0.032600  0.358700  1.0  -0.2005
  C  C2188  1  0.111440  0.061000  0.332500  1.0  -0.1242
  C  C2189  1  0.113090  0.106100  0.331700  1.0  0.0814
  C  C2190  1  0.126520  0.123400  0.360900  1.0  -0.2065
  C  C2191  1  0.135710  0.094800  0.388000  1.0  -0.043
  C  C2192  1  0.102460  0.135500  0.303100  1.0  0.034
  C  C2193  1  0.085750  0.123900  0.284300  1.0  -0.1687
  C  C2194  1  0.077240  0.150300  0.256400  1.0  -0.1164
  C  C2195  1  0.083270  0.193100  0.244500  1.0  0.1992
  C  C2196  1  0.099300  0.207500  0.263400  1.0  -0.1693
  C  C2197  1  0.109050  0.179200  0.292200  1.0  -0.1348
  C  C2198  1  0.129130  0.087100  0.553600  1.0  0.6816
  C  C2199  1  0.117770  0.119400  0.527300  1.0  -0.1315
  C  C2200  1  0.111960  0.106700  0.485000  1.0  -0.0349
  C  C2201  1  0.101220  0.137000  0.460400  1.0  -0.118
  C  C2202  1  0.096470  0.178100  0.478500  1.0  0.0567
  C  C2203  1  0.101670  0.190100  0.520900  1.0  -0.1058
  C  C2204  1  0.113070  0.161000  0.546100  1.0  -0.0546
  C  C2205  1  0.085440  0.211000  0.451600  1.0  -0.0637
  C  C2206  1  0.088710  0.216600  0.404700  1.0  -0.0837
  C  C2207  1  0.078780  0.246200  0.381500  1.0  -0.0657
  C  C2208  1  0.065380  0.270500  0.402400  1.0  0.1647
  C  C2209  1  0.061570  0.264700  0.446600  1.0  -0.1409
  C  C2210  1  0.071320  0.236300  0.473000  1.0  -0.1553
  C  C2211  1  0.130950  0.510600  0.193200  1.0  0.611
  C  C2212  1  0.119230  0.479900  0.221100  1.0  -0.1109
  C  C2213  1  0.102720  0.473300  0.207900  1.0  -0.1019
  C  C2214  1  0.090920  0.445300  0.235500  1.0  -0.1482
  C  C2215  1  0.096790  0.424900  0.271100  1.0  -0.0054
  C  C2216  1  0.115130  0.430500  0.284400  1.0  -0.1602
  C  C2217  1  0.125770  0.457100  0.257500  1.0  -0.0969
  C  C2218  1  0.084600  0.394200  0.299000  1.0  0.0006
  C  C2219  1  0.070710  0.373400  0.281600  1.0  -0.1056
  C  C2220  1  0.060710  0.340700  0.304100  1.0  -0.2467
  C  C2221  1  0.063990  0.335600  0.348700  1.0  0.1799
  C  C2222  1  0.078370  0.359700  0.369800  1.0  -0.1859
  C  C2223  1  0.088130  0.388400  0.347500  1.0  -0.1532
  C  C2224  1  0.924900  0.233100  0.355500  1.0  0.6802
  C  C2225  1  0.944390  0.246500  0.358300  1.0  -0.1276
  C  C2226  1  0.956060  0.218200  0.380900  1.0  -0.1133
  C  C2227  1  0.974120  0.229700  0.381900  1.0  -0.1215
  C  C2228  1  0.980210  0.267300  0.362200  1.0  0.0304
  C  C2229  1  0.968800  0.296200  0.339800  1.0  -0.1135
  C  C2230  1  0.949730  0.286200  0.337700  1.0  -0.0794
  C  C2231  1  0.999840  0.278400  0.363900  1.0  0.0039
  C  C2232  1  0.011870  0.242600  0.372100  1.0  -0.1509
  C  C2233  1  0.029830  0.250700  0.374000  1.0  -0.1195
  C  C2234  1  0.036270  0.294800  0.369300  1.0  0.1634
  C  C2235  1  0.024950  0.328900  0.361700  1.0  -0.1543
  C  C2236  1  0.006030  0.321500  0.358100  1.0  -0.1312
  C  C2237  1  0.674800  0.164900  0.206200  1.0  -0.0587
  C  C2238  1  0.641930  0.154300  0.178800  1.0  0.198
  C  C2239  1  0.605820  0.810000  0.133400  1.0  0.0326
  C  C2240  1  0.670400  0.122800  0.184600  1.0  0.1003
  C  C2241  1  0.546020  0.726600  0.255600  1.0  -0.2072
  C  C2242  1  0.663080  0.201400  0.214100  1.0  0.0928
  C  C2243  1  0.669710  0.241700  0.238400  1.0  0.322
  C  C2244  1  0.584040  0.752000  0.188000  1.0  0.1456
  C  C2245  1  0.527380  0.729400  0.253000  1.0  -0.1038
  C  C2246  1  0.590740  0.825000  0.155800  1.0  -0.1911
  C  C2247  1  0.646540  0.196500  0.201000  1.0  -0.1936
  C  C2248  1  0.658060  0.353100  0.391100  1.0  0.1798
  C  C2249  1  0.644690  0.922300  0.013100  1.0  0.671
  C  C2250  1  0.635550  0.892300  0.046200  1.0  -0.1525
  C  C2251  1  0.628650  0.908800  0.085500  1.0  -0.1232
  C  C2252  1  0.619320  0.882300  0.113900  1.0  -0.1809
  C  C2253  1  0.615950  0.837100  0.105000  1.0  0.1192
  C  C2254  1  0.624410  0.819400  0.066400  1.0  -0.1347
  C  C2255  1  0.634170  0.846800  0.037400  1.0  -0.0992
  C  C2256  1  0.670970  0.327900  0.322400  1.0  0.0155
  C  C2257  1  0.659690  0.321500  0.360500  1.0  -0.1878
  C  C2258  1  0.580850  0.795800  0.183900  1.0  -0.1161
  C  C2259  1  0.680200  0.367200  0.319800  1.0  -0.1081
  C  C2260  1  0.599530  0.732900  0.163900  1.0  -0.1618
  C  C2261  1  0.609220  0.761900  0.140600  1.0  -0.1372
  C  C2262  1  0.441260  0.761200  0.216300  1.0  0.7212
  C  C2263  1  0.461870  0.751000  0.215200  1.0  -0.1334
  C  C2264  1  0.472010  0.766900  0.179300  1.0  -0.0394
  C  C2265  1  0.490090  0.758600  0.178500  1.0  -0.1007
  C  C2266  1  0.498490  0.736600  0.214600  1.0  0.0465
  C  C2267  1  0.487690  0.721600  0.249300  1.0  -0.1024
  C  C2268  1  0.470100  0.725800  0.250000  1.0  -0.1292
  C  C2269  1  0.518000  0.731400  0.214600  1.0  0.0687
  C  C2270  1  0.528270  0.730700  0.174400  1.0  -0.1936
  C  C2271  1  0.546070  0.728000  0.177300  1.0  -0.0876
  C  C2272  1  0.554700  0.724200  0.214200  1.0  0.2266
  C  C2273  1  0.677970  0.398700  0.355600  1.0  0.1607
  C  C2274  1  0.672310  0.296400  0.284900  1.0  0.1929
  C  C2275  1  0.644520  0.518700  0.417300  1.0  0.6559
  C  C2276  1  0.633250  0.549200  0.387400  1.0  -0.1618
  C  C2277  1  0.620540  0.532600  0.358700  1.0  -0.2005
  C  C2278  1  0.611440  0.561000  0.332500  1.0  -0.1242
  C  C2279  1  0.613090  0.606100  0.331700  1.0  0.0814
  C  C2280  1  0.626520  0.623400  0.360900  1.0  -0.2065
  C  C2281  1  0.635710  0.594800  0.388000  1.0  -0.043
  C  C2282  1  0.602460  0.635500  0.303100  1.0  0.034
  C  C2283  1  0.585750  0.623900  0.284300  1.0  -0.1687
  C  C2284  1  0.577240  0.650300  0.256400  1.0  -0.1164
  C  C2285  1  0.583270  0.693100  0.244500  1.0  0.1992
  C  C2286  1  0.599300  0.707500  0.263400  1.0  -0.1693
  C  C2287  1  0.609050  0.679200  0.292200  1.0  -0.1348
  C  C2288  1  0.629130  0.587100  0.553600  1.0  0.6816
  C  C2289  1  0.617770  0.619400  0.527300  1.0  -0.1315
  C  C2290  1  0.611960  0.606700  0.485000  1.0  -0.0349
  C  C2291  1  0.601220  0.637000  0.460400  1.0  -0.118
  C  C2292  1  0.596470  0.678100  0.478500  1.0  0.0567
  C  C2293  1  0.601670  0.690100  0.520900  1.0  -0.1058
  C  C2294  1  0.613070  0.661000  0.546100  1.0  -0.0546
  C  C2295  1  0.585440  0.711000  0.451600  1.0  -0.0637
  C  C2296  1  0.588710  0.716600  0.404700  1.0  -0.0837
  C  C2297  1  0.578780  0.746200  0.381500  1.0  -0.0657
  C  C2298  1  0.565380  0.770500  0.402400  1.0  0.1647
  C  C2299  1  0.561570  0.764700  0.446600  1.0  -0.1409
  C  C2300  1  0.571320  0.736300  0.473000  1.0  -0.1553
  C  C2301  1  0.630950  0.010600  0.193200  1.0  0.611
  C  C2302  1  0.619230  0.979900  0.221100  1.0  -0.1109
  C  C2303  1  0.602720  0.973300  0.207900  1.0  -0.1019
  C  C2304  1  0.590920  0.945300  0.235500  1.0  -0.1482
  C  C2305  1  0.596790  0.924900  0.271100  1.0  -0.0054
  C  C2306  1  0.615130  0.930500  0.284400  1.0  -0.1602
  C  C2307  1  0.625770  0.957100  0.257500  1.0  -0.0969
  C  C2308  1  0.584600  0.894200  0.299000  1.0  0.0006
  C  C2309  1  0.570710  0.873400  0.281600  1.0  -0.1056
  C  C2310  1  0.560710  0.840700  0.304100  1.0  -0.2467
  C  C2311  1  0.563990  0.835600  0.348700  1.0  0.1799
  C  C2312  1  0.578370  0.859700  0.369800  1.0  -0.1859
  C  C2313  1  0.588130  0.888400  0.347500  1.0  -0.1532
  C  C2314  1  0.424900  0.733100  0.355500  1.0  0.6802
  C  C2315  1  0.444390  0.746500  0.358300  1.0  -0.1276
  C  C2316  1  0.456060  0.718200  0.380900  1.0  -0.1133
  C  C2317  1  0.474120  0.729700  0.381900  1.0  -0.1215
  C  C2318  1  0.480210  0.767300  0.362200  1.0  0.0304
  C  C2319  1  0.468800  0.796200  0.339800  1.0  -0.1135
  C  C2320  1  0.449730  0.786200  0.337700  1.0  -0.0794
  C  C2321  1  0.499840  0.778400  0.363900  1.0  0.0039
  C  C2322  1  0.511870  0.742600  0.372100  1.0  -0.1509
  C  C2323  1  0.529830  0.750700  0.374000  1.0  -0.1195
  C  C2324  1  0.536270  0.794800  0.369300  1.0  0.1634
  C  C2325  1  0.524950  0.828900  0.361700  1.0  -0.1543
  C  C2326  1  0.506030  0.821500  0.358100  1.0  -0.1312
  C  C2327  1  0.674800  0.664900  0.706200  1.0  -0.0587
  C  C2328  1  0.641930  0.654300  0.678800  1.0  0.198
  C  C2329  1  0.605820  0.310000  0.633400  1.0  0.0326
  C  C2330  1  0.670400  0.622800  0.684600  1.0  0.1003
  C  C2331  1  0.546020  0.226600  0.755600  1.0  -0.2072
  C  C2332  1  0.663080  0.701400  0.714100  1.0  0.0928
  C  C2333  1  0.669710  0.741700  0.738400  1.0  0.322
  C  C2334  1  0.584040  0.252000  0.688000  1.0  0.1456
  C  C2335  1  0.527380  0.229400  0.753000  1.0  -0.1038
  C  C2336  1  0.590740  0.325000  0.655800  1.0  -0.1911
  C  C2337  1  0.646540  0.696500  0.701000  1.0  -0.1936
  C  C2338  1  0.658060  0.853100  0.891100  1.0  0.1798
  C  C2339  1  0.644690  0.422300  0.513100  1.0  0.671
  C  C2340  1  0.635550  0.392300  0.546200  1.0  -0.1525
  C  C2341  1  0.628650  0.408800  0.585500  1.0  -0.1232
  C  C2342  1  0.619320  0.382300  0.613900  1.0  -0.1809
  C  C2343  1  0.615950  0.337100  0.605000  1.0  0.1192
  C  C2344  1  0.624410  0.319400  0.566400  1.0  -0.1347
  C  C2345  1  0.634170  0.346800  0.537400  1.0  -0.0992
  C  C2346  1  0.670970  0.827900  0.822400  1.0  0.0155
  C  C2347  1  0.659690  0.821500  0.860500  1.0  -0.1878
  C  C2348  1  0.580850  0.295800  0.683900  1.0  -0.1161
  C  C2349  1  0.680200  0.867200  0.819800  1.0  -0.1081
  C  C2350  1  0.599530  0.232900  0.663900  1.0  -0.1618
  C  C2351  1  0.609220  0.261900  0.640600  1.0  -0.1372
  C  C2352  1  0.441260  0.261200  0.716300  1.0  0.7212
  C  C2353  1  0.461870  0.251000  0.715200  1.0  -0.1334
  C  C2354  1  0.472010  0.266900  0.679300  1.0  -0.0394
  C  C2355  1  0.490090  0.258600  0.678500  1.0  -0.1007
  C  C2356  1  0.498490  0.236600  0.714600  1.0  0.0465
  C  C2357  1  0.487690  0.221600  0.749300  1.0  -0.1024
  C  C2358  1  0.470100  0.225800  0.750000  1.0  -0.1292
  C  C2359  1  0.518000  0.231400  0.714600  1.0  0.0687
  C  C2360  1  0.528270  0.230700  0.674400  1.0  -0.1936
  C  C2361  1  0.546070  0.228000  0.677300  1.0  -0.0876
  C  C2362  1  0.554700  0.224200  0.714200  1.0  0.2266
  C  C2363  1  0.677970  0.898700  0.855600  1.0  0.1607
  C  C2364  1  0.672310  0.796400  0.784900  1.0  0.1929
  C  C2365  1  0.644520  0.018700  0.917300  1.0  0.6559
  C  C2366  1  0.633250  0.049200  0.887400  1.0  -0.1618
  C  C2367  1  0.620540  0.032600  0.858700  1.0  -0.2005
  C  C2368  1  0.611440  0.061000  0.832500  1.0  -0.1242
  C  C2369  1  0.613090  0.106100  0.831700  1.0  0.0814
  C  C2370  1  0.626520  0.123400  0.860900  1.0  -0.2065
  C  C2371  1  0.635710  0.094800  0.888000  1.0  -0.043
  C  C2372  1  0.602460  0.135500  0.803100  1.0  0.034
  C  C2373  1  0.585750  0.123900  0.784300  1.0  -0.1687
  C  C2374  1  0.577240  0.150300  0.756400  1.0  -0.1164
  C  C2375  1  0.583270  0.193100  0.744500  1.0  0.1992
  C  C2376  1  0.599300  0.207500  0.763400  1.0  -0.1693
  C  C2377  1  0.609050  0.179200  0.792200  1.0  -0.1348
  C  C2378  1  0.629130  0.087100  0.053600  1.0  0.6816
  C  C2379  1  0.617770  0.119400  0.027300  1.0  -0.1315
  C  C2380  1  0.611960  0.106700  0.985000  1.0  -0.0349
  C  C2381  1  0.601220  0.137000  0.960400  1.0  -0.118
  C  C2382  1  0.596470  0.178100  0.978500  1.0  0.0567
  C  C2383  1  0.601670  0.190100  0.020900  1.0  -0.1058
  C  C2384  1  0.613070  0.161000  0.046100  1.0  -0.0547
  C  C2385  1  0.585440  0.211000  0.951600  1.0  -0.0637
  C  C2386  1  0.588710  0.216600  0.904700  1.0  -0.0837
  C  C2387  1  0.578780  0.246200  0.881500  1.0  -0.0657
  C  C2388  1  0.565380  0.270500  0.902400  1.0  0.1647
  C  C2389  1  0.561570  0.264700  0.946600  1.0  -0.1401
  C  C2390  1  0.571320  0.236300  0.973000  1.0  -0.155
  C  C2391  1  0.630950  0.510600  0.693200  1.0  0.611
  C  C2392  1  0.619230  0.479900  0.721100  1.0  -0.1109
  C  C2393  1  0.602720  0.473300  0.707900  1.0  -0.1019
  C  C2394  1  0.590920  0.445300  0.735500  1.0  -0.1482
  C  C2395  1  0.596790  0.424900  0.771100  1.0  -0.0054
  C  C2396  1  0.615130  0.430500  0.784400  1.0  -0.1602
  C  C2397  1  0.625770  0.457100  0.757500  1.0  -0.0969
  C  C2398  1  0.584600  0.394200  0.799000  1.0  0.0006
  C  C2399  1  0.570710  0.373400  0.781600  1.0  -0.1056
  C  C2400  1  0.560710  0.340700  0.804100  1.0  -0.2467
  C  C2401  1  0.563990  0.335600  0.848700  1.0  0.1799
  C  C2402  1  0.578370  0.359700  0.869800  1.0  -0.1859
  C  C2403  1  0.588130  0.388400  0.847500  1.0  -0.1532
  C  C2404  1  0.424900  0.233100  0.855500  1.0  0.6802
  C  C2405  1  0.444390  0.246500  0.858300  1.0  -0.1276
  C  C2406  1  0.456060  0.218200  0.880900  1.0  -0.1133
  C  C2407  1  0.474120  0.229700  0.881900  1.0  -0.1215
  C  C2408  1  0.480210  0.267300  0.862200  1.0  0.0304
  C  C2409  1  0.468800  0.296200  0.839800  1.0  -0.1135
  C  C2410  1  0.449730  0.286200  0.837700  1.0  -0.0794
  C  C2411  1  0.499840  0.278400  0.863900  1.0  0.0039
  C  C2412  1  0.511870  0.242600  0.872100  1.0  -0.1509
  C  C2413  1  0.529830  0.250700  0.874000  1.0  -0.1195
  C  C2414  1  0.536270  0.294800  0.869300  1.0  0.1634
  C  C2415  1  0.524950  0.328900  0.861700  1.0  -0.1543
  C  C2416  1  0.506030  0.321500  0.858100  1.0  -0.1312
  N  N2417  1  0.176050  0.470100  0.463900  1.0  -0.1517
  N  N2418  1  0.082940  0.141080  0.639800  1.0  -0.3151
  N  N2419  1  0.086970  0.008570  0.527000  1.0  0.1365
  N  N2420  1  0.067750  0.016500  0.472100  1.0  -0.2853
  N  N2421  1  0.066210  0.051300  0.501300  1.0  -0.1768
  N  N2422  1  0.100350  0.989100  0.554300  1.0  -0.5634
  N  N2423  1  0.097990  0.871500  0.421800  1.0  -0.3067
  N  N2424  1  0.195080  0.553900  0.625200  1.0  -0.2241
  N  N2425  1  0.176050  0.970100  0.963900  1.0  -0.1517
  N  N2426  1  0.082940  0.641080  0.139800  1.0  -0.3151
  N  N2427  1  0.086970  0.508570  0.027000  1.0  0.1365
  N  N2428  1  0.067750  0.516500  0.972100  1.0  -0.277
  N  N2429  1  0.066210  0.551300  0.001300  1.0  -0.1775
  N  N2430  1  0.100350  0.489100  0.054300  1.0  -0.5634
  N  N2431  1  0.097990  0.371500  0.921800  1.0  -0.3067
  N  N2432  1  0.195080  0.053900  0.125200  1.0  -0.2241
  N  N2433  1  0.676050  0.470100  0.963900  1.0  -0.1557
  N  N2434  1  0.582940  0.141080  0.139800  1.0  -0.3151
  N  N2435  1  0.586970  0.008570  0.027000  1.0  0.1365
  N  N2436  1  0.567750  0.016500  0.972100  1.0  -0.277
  N  N2437  1  0.566210  0.051300  0.001300  1.0  -0.1786
  N  N2438  1  0.600350  0.989100  0.054300  1.0  -0.5634
  N  N2439  1  0.597990  0.871500  0.921800  1.0  -0.3067
  N  N2440  1  0.695080  0.553900  0.125200  1.0  -0.2241
  N  N2441  1  0.676050  0.970100  0.463900  1.0  -0.1557
  N  N2442  1  0.582940  0.641080  0.639800  1.0  -0.3151
  N  N2443  1  0.586970  0.508570  0.527000  1.0  0.1365
  N  N2444  1  0.567750  0.516500  0.472100  1.0  -0.277
  N  N2445  1  0.566210  0.551300  0.501300  1.0  -0.178
  N  N2446  1  0.600350  0.489100  0.554300  1.0  -0.5634
  N  N2447  1  0.597990  0.371500  0.421800  1.0  -0.3067
  N  N2448  1  0.695080  0.053900  0.625200  1.0  -0.2241
  N  N2449  1  0.426050  0.779900  0.713900  1.0  -0.15
  N  N2450  1  0.332940  0.108920  0.889800  1.0  -0.3149
  N  N2451  1  0.336970  0.241430  0.777000  1.0  0.1375
  N  N2452  1  0.317750  0.233500  0.722100  1.0  -0.2787
  N  N2453  1  0.316210  0.198700  0.751300  1.0  -0.1802
  N  N2454  1  0.350350  0.260900  0.804300  1.0  -0.5627
  N  N2455  1  0.347990  0.378500  0.671800  1.0  -0.3094
  N  N2456  1  0.445080  0.696100  0.875200  1.0  -0.2243
  N  N2457  1  0.426050  0.279900  0.213900  1.0  -0.15
  N  N2458  1  0.332940  0.608920  0.389800  1.0  -0.3149
  N  N2459  1  0.336970  0.741430  0.277000  1.0  0.1375
  N  N2460  1  0.317750  0.733500  0.222100  1.0  -0.2787
  N  N2461  1  0.316210  0.698700  0.251300  1.0  -0.1802
  N  N2462  1  0.350350  0.760900  0.304300  1.0  -0.5627
  N  N2463  1  0.347990  0.878500  0.171800  1.0  -0.3094
  N  N2464  1  0.445080  0.196100  0.375200  1.0  -0.2243
  N  N2465  1  0.926050  0.779900  0.213900  1.0  -0.15
  N  N2466  1  0.832940  0.108920  0.389800  1.0  -0.3149
  N  N2467  1  0.836970  0.241430  0.277000  1.0  0.1375
  N  N2468  1  0.817750  0.233500  0.222100  1.0  -0.2787
  N  N2469  1  0.816210  0.198700  0.251300  1.0  -0.1802
  N  N2470  1  0.850350  0.260900  0.304300  1.0  -0.5627
  N  N2471  1  0.847990  0.378500  0.171800  1.0  -0.3094
  N  N2472  1  0.945080  0.696100  0.375200  1.0  -0.2243
  N  N2473  1  0.926050  0.279900  0.713900  1.0  -0.15
  N  N2474  1  0.832940  0.608920  0.889800  1.0  -0.3149
  N  N2475  1  0.836970  0.741430  0.777000  1.0  0.1375
  N  N2476  1  0.817750  0.733500  0.722100  1.0  -0.2787
  N  N2477  1  0.816210  0.698700  0.751300  1.0  -0.1802
  N  N2478  1  0.850350  0.760900  0.804300  1.0  -0.5627
  N  N2479  1  0.847990  0.878500  0.671800  1.0  -0.3094
  N  N2480  1  0.945080  0.196100  0.875200  1.0  -0.2243
  N  N2481  1  0.823950  0.529900  0.463900  1.0  -0.15
  N  N2482  1  0.917060  0.858920  0.639800  1.0  -0.3134
  N  N2483  1  0.913030  0.991430  0.527000  1.0  0.1379
  N  N2484  1  0.932250  0.983500  0.472100  1.0  -0.2881
  N  N2485  1  0.933790  0.948700  0.501300  1.0  -0.1817
  N  N2486  1  0.899650  0.010900  0.554300  1.0  -0.5614
  N  N2487  1  0.902010  0.128500  0.421800  1.0  -0.3089
  N  N2488  1  0.804920  0.446100  0.625200  1.0  -0.2238
  N  N2489  1  0.823950  0.029900  0.963900  1.0  -0.15
  N  N2490  1  0.917060  0.358920  0.139800  1.0  -0.3134
  N  N2491  1  0.913030  0.491430  0.027000  1.0  0.1379
  N  N2492  1  0.932250  0.483500  0.972100  1.0  -0.2799
  N  N2493  1  0.933790  0.448700  0.001300  1.0  -0.183
  N  N2494  1  0.899650  0.510900  0.054300  1.0  -0.5614
  N  N2495  1  0.902010  0.628500  0.921800  1.0  -0.3089
  N  N2496  1  0.804920  0.946100  0.125200  1.0  -0.2238
  N  N2497  1  0.323950  0.529900  0.963900  1.0  -0.15
  N  N2498  1  0.417060  0.858920  0.139800  1.0  -0.3134
  N  N2499  1  0.413030  0.991430  0.027000  1.0  0.1379
  N  N2500  1  0.432250  0.983500  0.972100  1.0  -0.2799
  N  N2501  1  0.433790  0.948700  0.001300  1.0  -0.1833
  N  N2502  1  0.399650  0.010900  0.054300  1.0  -0.5614
  N  N2503  1  0.402010  0.128500  0.921800  1.0  -0.3089
  N  N2504  1  0.304920  0.446100  0.125200  1.0  -0.2238
  N  N2505  1  0.323950  0.029900  0.463900  1.0  -0.15
  N  N2506  1  0.417060  0.358920  0.639800  1.0  -0.3134
  N  N2507  1  0.413030  0.491430  0.527000  1.0  0.1379
  N  N2508  1  0.432250  0.483500  0.472100  1.0  -0.2799
  N  N2509  1  0.433790  0.448700  0.501300  1.0  -0.183
  N  N2510  1  0.399650  0.510900  0.554300  1.0  -0.5614
  N  N2511  1  0.402010  0.628500  0.421800  1.0  -0.3089
  N  N2512  1  0.304920  0.946100  0.625200  1.0  -0.2238
  N  N2513  1  0.073950  0.720100  0.713900  1.0  -0.1518
  N  N2514  1  0.167060  0.391080  0.889800  1.0  -0.3149
  N  N2515  1  0.163030  0.258570  0.777000  1.0  0.1371
  N  N2516  1  0.182250  0.266500  0.722100  1.0  -0.2787
  N  N2517  1  0.183790  0.301300  0.751300  1.0  -0.1841
  N  N2518  1  0.149650  0.239100  0.804300  1.0  -0.5606
  N  N2519  1  0.152010  0.121500  0.671800  1.0  -0.307
  N  N2520  1  0.054920  0.803900  0.875200  1.0  -0.2238
  N  N2521  1  0.073950  0.220100  0.213900  1.0  -0.1518
  N  N2522  1  0.167060  0.891080  0.389800  1.0  -0.3149
  N  N2523  1  0.163030  0.758570  0.277000  1.0  0.1371
  N  N2524  1  0.182250  0.766500  0.222100  1.0  -0.2787
  N  N2525  1  0.183790  0.801300  0.251300  1.0  -0.1841
  N  N2526  1  0.149650  0.739100  0.304300  1.0  -0.5606
  N  N2527  1  0.152010  0.621500  0.171800  1.0  -0.307
  N  N2528  1  0.054920  0.303900  0.375200  1.0  -0.2238
  N  N2529  1  0.573950  0.720100  0.213900  1.0  -0.1518
  N  N2530  1  0.667060  0.391080  0.389800  1.0  -0.3149
  N  N2531  1  0.663030  0.258570  0.277000  1.0  0.1371
  N  N2532  1  0.682250  0.266500  0.222100  1.0  -0.2787
  N  N2533  1  0.683790  0.301300  0.251300  1.0  -0.1841
  N  N2534  1  0.649650  0.239100  0.304300  1.0  -0.5606
  N  N2535  1  0.652010  0.121500  0.171800  1.0  -0.307
  N  N2536  1  0.554920  0.803900  0.375200  1.0  -0.2238
  N  N2537  1  0.573950  0.220100  0.713900  1.0  -0.1518
  N  N2538  1  0.667060  0.891080  0.889800  1.0  -0.3149
  N  N2539  1  0.663030  0.758570  0.777000  1.0  0.1371
  N  N2540  1  0.682250  0.766500  0.722100  1.0  -0.2787
  N  N2541  1  0.683790  0.801300  0.751300  1.0  -0.1841
  N  N2542  1  0.649650  0.739100  0.804300  1.0  -0.5606
  N  N2543  1  0.652010  0.621500  0.671800  1.0  -0.307
  N  N2544  1  0.554920  0.303900  0.875200  1.0  -0.2238
  O  O2545  1  0.094520  0.653270  0.235500  1.0  -0.6154
  O  O2546  1  0.108170  0.713480  0.265000  1.0  -0.583
  O  O2547  1  0.097750  0.286960  0.699800  1.0  -0.6121
  O  O2548  1  0.105630  0.227450  0.657400  1.0  -0.5842
  O  O2549  1  0.313770  0.532710  0.435700  1.0  -0.5536
  O  O2550  1  0.316700  0.496600  0.499000  1.0  -0.6274
  O  O2551  1  0.335510  0.504330  0.580300  1.0  -0.605
  O  O2552  1  0.329480  0.450600  0.630800  1.0  -0.5877
  O  O2553  1  0.117760  0.298960  0.787200  1.0  -0.6031
  O  O2554  1  0.116010  0.350830  0.841000  1.0  -0.6028
  O  O2555  1  0.124070  0.777080  0.409000  1.0  -0.5374
  O  O2556  1  0.102490  0.768300  0.460600  1.0  -0.6156
  O  O2557  1  0.094520  0.153270  0.735500  1.0  -0.6154
  O  O2558  1  0.108170  0.213480  0.765000  1.0  -0.583
  O  O2559  1  0.097750  0.786960  0.199800  1.0  -0.6121
  O  O2560  1  0.105630  0.727450  0.157400  1.0  -0.5842
  O  O2561  1  0.313770  0.032710  0.935700  1.0  -0.5536
  O  O2562  1  0.316700  0.996600  0.999000  1.0  -0.6274
  O  O2563  1  0.335510  0.004330  0.080300  1.0  -0.605
  O  O2564  1  0.329480  0.950600  0.130800  1.0  -0.5877
  O  O2565  1  0.117760  0.798960  0.287200  1.0  -0.6031
  O  O2566  1  0.116010  0.850830  0.341000  1.0  -0.6028
  O  O2567  1  0.124070  0.277080  0.909000  1.0  -0.5374
  O  O2568  1  0.102490  0.268300  0.960600  1.0  -0.6156
  O  O2569  1  0.594520  0.653270  0.735500  1.0  -0.6154
  O  O2570  1  0.608170  0.713480  0.765000  1.0  -0.583
  O  O2571  1  0.597750  0.286960  0.199800  1.0  -0.6121
  O  O2572  1  0.605630  0.227450  0.157400  1.0  -0.5842
  O  O2573  1  0.813770  0.532710  0.935700  1.0  -0.5536
  O  O2574  1  0.816700  0.496600  0.999000  1.0  -0.6274
  O  O2575  1  0.835510  0.504330  0.080300  1.0  -0.605
  O  O2576  1  0.829480  0.450600  0.130800  1.0  -0.5877
  O  O2577  1  0.617760  0.298960  0.287200  1.0  -0.6031
  O  O2578  1  0.616010  0.350830  0.341000  1.0  -0.6028
  O  O2579  1  0.624070  0.777080  0.909000  1.0  -0.5374
  O  O2580  1  0.602490  0.768300  0.960600  1.0  -0.6156
  O  O2581  1  0.594520  0.153270  0.235500  1.0  -0.6154
  O  O2582  1  0.608170  0.213480  0.265000  1.0  -0.583
  O  O2583  1  0.597750  0.786960  0.699800  1.0  -0.6121
  O  O2584  1  0.605630  0.727450  0.657400  1.0  -0.5842
  O  O2585  1  0.813770  0.032710  0.435700  1.0  -0.5536
  O  O2586  1  0.816700  0.996600  0.499000  1.0  -0.6274
  O  O2587  1  0.835510  0.004330  0.580300  1.0  -0.605
  O  O2588  1  0.829480  0.950600  0.630800  1.0  -0.5877
  O  O2589  1  0.617760  0.798960  0.787200  1.0  -0.6031
  O  O2590  1  0.616010  0.850830  0.841000  1.0  -0.6028
  O  O2591  1  0.624070  0.277080  0.409000  1.0  -0.5374
  O  O2592  1  0.602490  0.268300  0.460600  1.0  -0.6156
  O  O2593  1  0.344520  0.596730  0.485500  1.0  -0.6171
  O  O2594  1  0.358170  0.536520  0.515000  1.0  -0.5814
  O  O2595  1  0.347750  0.963040  0.949800  1.0  -0.6123
  O  O2596  1  0.355630  0.022550  0.907400  1.0  -0.5849
  O  O2597  1  0.563770  0.717290  0.685700  1.0  -0.5534
  O  O2598  1  0.566700  0.753400  0.749000  1.0  -0.6265
  O  O2599  1  0.585510  0.745670  0.830300  1.0  -0.6044
  O  O2600  1  0.579480  0.799400  0.880800  1.0  -0.5882
  O  O2601  1  0.367760  0.951040  0.037200  1.0  -0.6038
  O  O2602  1  0.366010  0.899170  0.091000  1.0  -0.6027
  O  O2603  1  0.374070  0.472920  0.659000  1.0  -0.5375
  O  O2604  1  0.352490  0.481700  0.710600  1.0  -0.6159
  O  O2605  1  0.344520  0.096730  0.985500  1.0  -0.6171
  O  O2606  1  0.358170  0.036520  0.015000  1.0  -0.5814
  O  O2607  1  0.347750  0.463040  0.449800  1.0  -0.6123
  O  O2608  1  0.355630  0.522550  0.407400  1.0  -0.5849
  O  O2609  1  0.563770  0.217290  0.185700  1.0  -0.5534
  O  O2610  1  0.566700  0.253400  0.249000  1.0  -0.6265
  O  O2611  1  0.585510  0.245670  0.330300  1.0  -0.6044
  O  O2612  1  0.579480  0.299400  0.380800  1.0  -0.5882
  O  O2613  1  0.367760  0.451040  0.537200  1.0  -0.6038
  O  O2614  1  0.366010  0.399170  0.591000  1.0  -0.6027
  O  O2615  1  0.374070  0.972920  0.159000  1.0  -0.5375
  O  O2616  1  0.352490  0.981700  0.210600  1.0  -0.6159
  O  O2617  1  0.844520  0.596730  0.985500  1.0  -0.6171
  O  O2618  1  0.858170  0.536520  0.015000  1.0  -0.5814
  O  O2619  1  0.847750  0.963040  0.449800  1.0  -0.6123
  O  O2620  1  0.855630  0.022550  0.407400  1.0  -0.5849
  O  O2621  1  0.063770  0.717290  0.185700  1.0  -0.5534
  O  O2622  1  0.066700  0.753400  0.249000  1.0  -0.6265
  O  O2623  1  0.085510  0.745670  0.330300  1.0  -0.6044
  O  O2624  1  0.079480  0.799400  0.380800  1.0  -0.5882
  O  O2625  1  0.867760  0.951040  0.537200  1.0  -0.6038
  O  O2626  1  0.866010  0.899170  0.591000  1.0  -0.6027
  O  O2627  1  0.874070  0.472920  0.159000  1.0  -0.5375
  O  O2628  1  0.852490  0.481700  0.210600  1.0  -0.6159
  O  O2629  1  0.844520  0.096730  0.485500  1.0  -0.6171
  O  O2630  1  0.858170  0.036520  0.515000  1.0  -0.5814
  O  O2631  1  0.847750  0.463040  0.949800  1.0  -0.6123
  O  O2632  1  0.855630  0.522550  0.907400  1.0  -0.5849
  O  O2633  1  0.063770  0.217290  0.685700  1.0  -0.5534
  O  O2634  1  0.066700  0.253400  0.749000  1.0  -0.6265
  O  O2635  1  0.085510  0.245670  0.830300  1.0  -0.6044
  O  O2636  1  0.079480  0.299400  0.880800  1.0  -0.5882
  O  O2637  1  0.867760  0.451040  0.037200  1.0  -0.6038
  O  O2638  1  0.866010  0.399170  0.091000  1.0  -0.6027
  O  O2639  1  0.874070  0.972920  0.659000  1.0  -0.5375
  O  O2640  1  0.852490  0.981700  0.710600  1.0  -0.6159
  O  O2641  1  0.905480  0.346730  0.235500  1.0  -0.6164
  O  O2642  1  0.891830  0.286520  0.265000  1.0  -0.5811
  O  O2643  1  0.902250  0.713040  0.699800  1.0  -0.611
  O  O2644  1  0.894370  0.772550  0.657400  1.0  -0.5873
  O  O2645  1  0.686230  0.467290  0.435700  1.0  -0.5539
  O  O2646  1  0.683300  0.503400  0.499000  1.0  -0.6259
  O  O2647  1  0.664490  0.495670  0.580300  1.0  -0.6045
  O  O2648  1  0.670520  0.549400  0.630800  1.0  -0.5874
  O  O2649  1  0.882240  0.701040  0.787200  1.0  -0.6034
  O  O2650  1  0.883990  0.649170  0.841000  1.0  -0.6009
  O  O2651  1  0.875930  0.222920  0.409000  1.0  -0.5386
  O  O2652  1  0.897510  0.231700  0.460600  1.0  -0.6158
  O  O2653  1  0.905480  0.846730  0.735500  1.0  -0.6164
  O  O2654  1  0.891830  0.786520  0.765000  1.0  -0.5811
  O  O2655  1  0.902250  0.213040  0.199800  1.0  -0.611
  O  O2656  1  0.894370  0.272550  0.157400  1.0  -0.5873
  O  O2657  1  0.686230  0.967290  0.935700  1.0  -0.5539
  O  O2658  1  0.683300  0.003400  0.999000  1.0  -0.6259
  O  O2659  1  0.664490  0.995670  0.080300  1.0  -0.6045
  O  O2660  1  0.670520  0.049400  0.130800  1.0  -0.5874
  O  O2661  1  0.882240  0.201040  0.287200  1.0  -0.6034
  O  O2662  1  0.883990  0.149170  0.341000  1.0  -0.6009
  O  O2663  1  0.875930  0.722920  0.909000  1.0  -0.5386
  O  O2664  1  0.897510  0.731700  0.960600  1.0  -0.6158
  O  O2665  1  0.405480  0.346730  0.735500  1.0  -0.6164
  O  O2666  1  0.391830  0.286520  0.765000  1.0  -0.5811
  O  O2667  1  0.402250  0.713040  0.199800  1.0  -0.611
  O  O2668  1  0.394370  0.772550  0.157400  1.0  -0.5873
  O  O2669  1  0.186230  0.467290  0.935700  1.0  -0.5539
  O  O2670  1  0.183300  0.503400  0.999000  1.0  -0.6259
  O  O2671  1  0.164490  0.495670  0.080300  1.0  -0.6045
  O  O2672  1  0.170520  0.549400  0.130800  1.0  -0.5874
  O  O2673  1  0.382240  0.701040  0.287200  1.0  -0.6034
  O  O2674  1  0.383990  0.649170  0.341000  1.0  -0.6009
  O  O2675  1  0.375930  0.222920  0.909000  1.0  -0.5386
  O  O2676  1  0.397510  0.231700  0.960600  1.0  -0.6158
  O  O2677  1  0.405480  0.846730  0.235500  1.0  -0.6164
  O  O2678  1  0.391830  0.786520  0.265000  1.0  -0.5811
  O  O2679  1  0.402250  0.213040  0.699800  1.0  -0.611
  O  O2680  1  0.394370  0.272550  0.657400  1.0  -0.5873
  O  O2681  1  0.186230  0.967290  0.435700  1.0  -0.5539
  O  O2682  1  0.183300  0.003400  0.499000  1.0  -0.6259
  O  O2683  1  0.164490  0.995670  0.580300  1.0  -0.6045
  O  O2684  1  0.170520  0.049400  0.630800  1.0  -0.5874
  O  O2685  1  0.382240  0.201040  0.787200  1.0  -0.6034
  O  O2686  1  0.383990  0.149170  0.841000  1.0  -0.6009
  O  O2687  1  0.375930  0.722920  0.409000  1.0  -0.5386
  O  O2688  1  0.397510  0.731700  0.460600  1.0  -0.6158
  O  O2689  1  0.155480  0.903270  0.485500  1.0  -0.6151
  O  O2690  1  0.141830  0.963480  0.515000  1.0  -0.5821
  O  O2691  1  0.152250  0.536960  0.949800  1.0  -0.6102
  O  O2692  1  0.144370  0.477450  0.907400  1.0  -0.586
  O  O2693  1  0.936230  0.782710  0.685700  1.0  -0.5539
  O  O2694  1  0.933300  0.746600  0.749000  1.0  -0.6265
  O  O2695  1  0.914490  0.754330  0.830300  1.0  -0.6046
  O  O2696  1  0.920520  0.700600  0.880800  1.0  -0.5879
  O  O2697  1  0.132240  0.548960  0.037200  1.0  -0.6057
  O  O2698  1  0.133990  0.600830  0.091000  1.0  -0.6012
  O  O2699  1  0.125930  0.027080  0.659000  1.0  -0.5388
  O  O2700  1  0.147510  0.018300  0.710600  1.0  -0.6162
  O  O2701  1  0.155480  0.403270  0.985500  1.0  -0.6151
  O  O2702  1  0.141830  0.463480  0.015000  1.0  -0.5821
  O  O2703  1  0.152250  0.036960  0.449800  1.0  -0.6102
  O  O2704  1  0.144370  0.977450  0.407400  1.0  -0.586
  O  O2705  1  0.936230  0.282710  0.185700  1.0  -0.5539
  O  O2706  1  0.933300  0.246600  0.249000  1.0  -0.6265
  O  O2707  1  0.914490  0.254330  0.330300  1.0  -0.6046
  O  O2708  1  0.920520  0.200600  0.380800  1.0  -0.5879
  O  O2709  1  0.132240  0.048960  0.537200  1.0  -0.6054
  O  O2710  1  0.133990  0.100830  0.591000  1.0  -0.6012
  O  O2711  1  0.125930  0.527080  0.159000  1.0  -0.5388
  O  O2712  1  0.147510  0.518300  0.210600  1.0  -0.6162
  O  O2713  1  0.655480  0.903270  0.985500  1.0  -0.6151
  O  O2714  1  0.641830  0.963480  0.015000  1.0  -0.5821
  O  O2715  1  0.652250  0.536960  0.449800  1.0  -0.6102
  O  O2716  1  0.644370  0.477450  0.407400  1.0  -0.586
  O  O2717  1  0.436230  0.782710  0.185700  1.0  -0.5539
  O  O2718  1  0.433300  0.746600  0.249000  1.0  -0.6265
  O  O2719  1  0.414490  0.754330  0.330300  1.0  -0.6046
  O  O2720  1  0.420520  0.700600  0.380800  1.0  -0.5879
  O  O2721  1  0.632240  0.548960  0.537200  1.0  -0.6055
  O  O2722  1  0.633990  0.600830  0.591000  1.0  -0.6012
  O  O2723  1  0.625930  0.027080  0.159000  1.0  -0.5388
  O  O2724  1  0.647510  0.018300  0.210600  1.0  -0.6162
  O  O2725  1  0.655480  0.403270  0.485500  1.0  -0.6151
  O  O2726  1  0.641830  0.463480  0.515000  1.0  -0.5821
  O  O2727  1  0.652250  0.036960  0.949800  1.0  -0.6102
  O  O2728  1  0.644370  0.977450  0.907400  1.0  -0.586
  O  O2729  1  0.436230  0.282710  0.685700  1.0  -0.5539
  O  O2730  1  0.433300  0.246600  0.749000  1.0  -0.6265
  O  O2731  1  0.414490  0.254330  0.830300  1.0  -0.6046
  O  O2732  1  0.420520  0.200600  0.880800  1.0  -0.5879
  O  O2733  1  0.632240  0.048960  0.037200  1.0  -0.6056
  O  O2734  1  0.633990  0.100830  0.091000  1.0  -0.6012
  O  O2735  1  0.625930  0.527080  0.659000  1.0  -0.5388
  O  O2736  1  0.647510  0.518300  0.710600  1.0  -0.6162
