# generated using pymatgen
data_Cu3H58C90(N2O3)4
_symmetry_space_group_name_H-M   'P 1'
_cell_length_a   75.03300000
_cell_length_b   29.38000000
_cell_length_c   29.56900000
_cell_angle_alpha   90.00000000
_cell_angle_beta   90.00000000
_cell_angle_gamma   90.00000000
_symmetry_Int_Tables_number   1
_chemical_formula_structural   Cu3H58C90(N2O3)4
_chemical_formula_sum   'Cu48 H928 C1440 N128 O192'
_cell_volume   65183.95982826
_cell_formula_units_Z   16
loop_
 _symmetry_equiv_pos_site_id
 _symmetry_equiv_pos_as_xyz
  1  'x, y, z'
loop_
 _atom_site_type_symbol
 _atom_site_label
 _atom_site_symmetry_multiplicity
 _atom_site_fract_x
 _atom_site_fract_y
 _atom_site_fract_z
 _atom_site_occupancy
 _atom_site_charge
  Cu  Cu1  1  0.086950  0.190670  0.034000  1.0  0.8915
  Cu  Cu2  1  0.104460  0.313610  0.236100  1.0  0.9269
  Cu  Cu3  1  0.093000  0.271680  0.116060  1.0  0.7262
  Cu  Cu4  1  0.086950  0.690670  0.534000  1.0  0.8915
  Cu  Cu5  1  0.104460  0.813610  0.736100  1.0  0.9269
  Cu  Cu6  1  0.093000  0.771680  0.616060  1.0  0.7262
  Cu  Cu7  1  0.586950  0.190670  0.534000  1.0  0.8915
  Cu  Cu8  1  0.604460  0.313610  0.736100  1.0  0.9269
  Cu  Cu9  1  0.593000  0.271680  0.616060  1.0  0.7262
  Cu  Cu10  1  0.586950  0.690670  0.034000  1.0  0.8915
  Cu  Cu11  1  0.604460  0.813610  0.236100  1.0  0.9269
  Cu  Cu12  1  0.593000  0.771680  0.116060  1.0  0.7262
  Cu  Cu13  1  0.336950  0.059330  0.284000  1.0  0.8916
  Cu  Cu14  1  0.354460  0.936390  0.486100  1.0  0.9276
  Cu  Cu15  1  0.343000  0.978320  0.366060  1.0  0.7253
  Cu  Cu16  1  0.336950  0.559330  0.784000  1.0  0.8916
  Cu  Cu17  1  0.354460  0.436390  0.986100  1.0  0.9276
  Cu  Cu18  1  0.343000  0.478320  0.866060  1.0  0.7253
  Cu  Cu19  1  0.836950  0.059330  0.784000  1.0  0.8916
  Cu  Cu20  1  0.854460  0.936390  0.986100  1.0  0.9276
  Cu  Cu21  1  0.843000  0.978320  0.866060  1.0  0.7253
  Cu  Cu22  1  0.836950  0.559330  0.284000  1.0  0.8916
  Cu  Cu23  1  0.854460  0.436390  0.486100  1.0  0.9276
  Cu  Cu24  1  0.843000  0.478320  0.366060  1.0  0.7253
  Cu  Cu25  1  0.913060  0.809330  0.034000  1.0  0.8921
  Cu  Cu26  1  0.895540  0.686390  0.236100  1.0  0.9281
  Cu  Cu27  1  0.907000  0.728320  0.116060  1.0  0.7239
  Cu  Cu28  1  0.913060  0.309330  0.534000  1.0  0.8921
  Cu  Cu29  1  0.895540  0.186390  0.736100  1.0  0.9281
  Cu  Cu30  1  0.907000  0.228320  0.616060  1.0  0.7239
  Cu  Cu31  1  0.413050  0.809330  0.534000  1.0  0.8925
  Cu  Cu32  1  0.395540  0.686390  0.736100  1.0  0.9281
  Cu  Cu33  1  0.407000  0.728320  0.616060  1.0  0.7239
  Cu  Cu34  1  0.413050  0.309330  0.034000  1.0  0.8925
  Cu  Cu35  1  0.395540  0.186390  0.236100  1.0  0.9281
  Cu  Cu36  1  0.407000  0.228320  0.116060  1.0  0.7239
  Cu  Cu37  1  0.163050  0.440670  0.284000  1.0  0.8925
  Cu  Cu38  1  0.145540  0.563610  0.486100  1.0  0.9275
  Cu  Cu39  1  0.157000  0.521680  0.366060  1.0  0.7248
  Cu  Cu40  1  0.163050  0.940670  0.784000  1.0  0.8925
  Cu  Cu41  1  0.145540  0.063610  0.986100  1.0  0.9275
  Cu  Cu42  1  0.157000  0.021680  0.866060  1.0  0.7248
  Cu  Cu43  1  0.663050  0.440670  0.784000  1.0  0.8925
  Cu  Cu44  1  0.645540  0.563610  0.986100  1.0  0.9275
  Cu  Cu45  1  0.657000  0.521680  0.866060  1.0  0.7248
  Cu  Cu46  1  0.663050  0.940670  0.284000  1.0  0.8925
  Cu  Cu47  1  0.645540  0.063610  0.486100  1.0  0.9275
  Cu  Cu48  1  0.657000  0.021680  0.366060  1.0  0.7248
  H  H49  1  0.933100  0.120300  0.098000  1.0  0.1187
  H  H50  1  0.857200  0.395200  0.257500  1.0  0.0892
  H  H51  1  0.948800  0.174100  0.138600  1.0  0.0973
  H  H52  1  0.929600  0.193000  0.046100  1.0  0.0806
  H  H53  1  0.870000  0.060500  0.938900  1.0  0.078
  H  H54  1  0.859800  0.167000  0.859400  1.0  0.102
  H  H55  1  0.882400  0.498300  0.209500  1.0  0.0585
  H  H56  1  0.933300  0.360100  0.089900  1.0  0.0911
  H  H57  1  0.059100  0.194800  0.172600  1.0  0.122
  H  H58  1  0.037000  0.286900  0.122500  1.0  0.1285
  H  H59  1  0.883600  0.334100  0.425800  1.0  0.1004
  H  H60  1  0.896900  0.264300  0.104200  1.0  0.121
  H  H61  1  0.871900  0.345200  0.208700  1.0  0.126
  H  H62  1  0.897100  0.455800  0.159600  1.0  0.1286
  H  H63  1  0.877200  0.213700  0.905600  1.0  0.1077
  H  H64  1  0.901700  0.283100  0.381600  1.0  0.1124
  H  H65  1  0.034400  0.216900  0.005600  1.0  0.1177
  H  H66  1  0.027000  0.175500  0.171800  1.0  0.129
  H  H67  1  0.901500  0.369000  0.278800  1.0  0.1088
  H  H68  1  0.065200  0.177800  0.951300  1.0  0.1165
  H  H69  1  0.918800  0.406600  0.137900  1.0  0.1104
  H  H70  1  0.099300  0.097200  0.013400  1.0  0.1019
  H  H71  1  0.049000  0.302600  0.250600  1.0  0.104
  H  H72  1  0.902200  0.297400  0.240700  1.0  0.0763
  H  H73  1  0.096000  0.044000  0.961200  1.0  0.1258
  H  H74  1  0.062200  0.122100  0.892600  1.0  0.1141
  H  H75  1  0.881400  0.309300  0.150200  1.0  0.1063
  H  H76  1  0.947900  0.221100  0.303400  1.0  0.0735
  H  H77  1  0.918100  0.251700  0.199900  1.0  0.1095
  H  H78  1  0.979700  0.273000  0.128600  1.0  0.0869
  H  H79  1  0.914100  0.147900  0.994400  1.0  0.1096
  H  H80  1  0.018100  0.288200  0.246500  1.0  0.1718
  H  H81  1  0.898000  0.300900  0.011800  1.0  0.1243
  H  H82  1  0.880600  0.252700  0.972800  1.0  0.0868
  H  H83  1  0.113800  0.963500  0.815800  1.0  0.1082
  H  H84  1  0.978500  0.271700  0.993700  1.0  0.1291
  H  H85  1  0.885000  0.420500  0.323000  1.0  0.0962
  H  H86  1  0.931600  0.265600  0.350400  1.0  0.1235
  H  H87  1  0.993000  0.287800  0.222500  1.0  0.1155
  H  H88  1  0.063200  0.923300  0.799200  1.0  0.1257
  H  H89  1  0.880300  0.087100  0.155900  1.0  0.1279
  H  H90  1  0.919400  0.147000  0.249100  1.0  0.1179
  H  H91  1  0.119500  0.905300  0.758300  1.0  0.0887
  H  H92  1  0.070400  0.852100  0.770000  1.0  0.1309
  H  H93  1  0.002000  0.155300  0.197500  1.0  0.1157
  H  H94  1  0.903200  0.013300  0.030800  1.0  0.1092
  H  H95  1  0.002800  0.230900  0.003200  1.0  0.1036
  H  H96  1  0.947800  0.275900  0.129200  1.0  0.1157
  H  H97  1  0.902500  0.097400  0.207900  1.0  0.1222
  H  H98  1  0.947500  0.273400  0.996000  1.0  0.1158
  H  H99  1  0.969600  0.142500  0.199500  1.0  0.1178
  H  H100  1  0.885000  0.106200  0.988700  1.0  0.1102
  H  H101  1  0.921400  0.062200  0.072900  1.0  0.1137
  H  H102  1  0.862600  0.040700  0.113000  1.0  0.0901
  H  H103  1  0.962400  0.274700  0.227800  1.0  0.1086
  H  H104  1  0.006600  0.299300  0.119100  1.0  0.1055
  H  H105  1  0.104700  0.963000  0.895400  1.0  0.3088
  H  H106  1  0.103400  0.004000  0.926800  1.0  0.318
  H  H107  1  0.933100  0.620300  0.598000  1.0  0.1204
  H  H108  1  0.857200  0.895200  0.757500  1.0  0.0892
  H  H109  1  0.948800  0.674100  0.638600  1.0  0.0976
  H  H110  1  0.929600  0.693000  0.546100  1.0  0.0806
  H  H111  1  0.870000  0.560500  0.438900  1.0  0.078
  H  H112  1  0.859800  0.667000  0.359400  1.0  0.102
  H  H113  1  0.882400  0.998300  0.709500  1.0  0.0585
  H  H114  1  0.933300  0.860100  0.589900  1.0  0.0911
  H  H115  1  0.059100  0.694800  0.672600  1.0  0.122
  H  H116  1  0.037000  0.786900  0.622500  1.0  0.1285
  H  H117  1  0.883600  0.834100  0.925800  1.0  0.1004
  H  H118  1  0.896900  0.764300  0.604200  1.0  0.121
  H  H119  1  0.871900  0.845200  0.708700  1.0  0.126
  H  H120  1  0.897100  0.955800  0.659600  1.0  0.1286
  H  H121  1  0.877200  0.713700  0.405600  1.0  0.1077
  H  H122  1  0.901700  0.783100  0.881600  1.0  0.1124
  H  H123  1  0.034400  0.716900  0.505600  1.0  0.1177
  H  H124  1  0.027000  0.675500  0.671800  1.0  0.129
  H  H125  1  0.901500  0.869000  0.778800  1.0  0.1088
  H  H126  1  0.065200  0.677800  0.451300  1.0  0.1165
  H  H127  1  0.918800  0.906600  0.637900  1.0  0.1104
  H  H128  1  0.099300  0.597200  0.513400  1.0  0.1019
  H  H129  1  0.049000  0.802600  0.750600  1.0  0.104
  H  H130  1  0.902200  0.797400  0.740700  1.0  0.0763
  H  H131  1  0.096000  0.544000  0.461200  1.0  0.1258
  H  H132  1  0.062200  0.622100  0.392600  1.0  0.1134
  H  H133  1  0.881400  0.809300  0.650200  1.0  0.1063
  H  H134  1  0.947900  0.721100  0.803400  1.0  0.0734
  H  H135  1  0.918100  0.751700  0.699900  1.0  0.1095
  H  H136  1  0.979700  0.773000  0.628600  1.0  0.0869
  H  H137  1  0.914100  0.647900  0.494400  1.0  0.1096
  H  H138  1  0.018100  0.788200  0.746500  1.0  0.1718
  H  H139  1  0.898000  0.800900  0.511800  1.0  0.1243
  H  H140  1  0.880600  0.752700  0.472800  1.0  0.0868
  H  H141  1  0.113800  0.463500  0.315800  1.0  0.1082
  H  H142  1  0.978500  0.771700  0.493700  1.0  0.1284
  H  H143  1  0.885000  0.920500  0.823000  1.0  0.0962
  H  H144  1  0.931600  0.765600  0.850400  1.0  0.1235
  H  H145  1  0.993000  0.787800  0.722500  1.0  0.1155
  H  H146  1  0.063200  0.423300  0.299200  1.0  0.1222
  H  H147  1  0.880300  0.587100  0.655900  1.0  0.1279
  H  H148  1  0.919400  0.647000  0.749100  1.0  0.118
  H  H149  1  0.119500  0.405300  0.258300  1.0  0.0887
  H  H150  1  0.070400  0.352100  0.270000  1.0  0.1338
  H  H151  1  0.002000  0.655300  0.697500  1.0  0.1138
  H  H152  1  0.903200  0.513300  0.530800  1.0  0.1092
  H  H153  1  0.002800  0.730900  0.503200  1.0  0.1029
  H  H154  1  0.947800  0.775900  0.629200  1.0  0.1157
  H  H155  1  0.902500  0.597400  0.707900  1.0  0.1222
  H  H156  1  0.947500  0.773400  0.496000  1.0  0.1158
  H  H157  1  0.969600  0.642500  0.699500  1.0  0.1185
  H  H158  1  0.885000  0.606200  0.488700  1.0  0.1102
  H  H159  1  0.921400  0.562200  0.572900  1.0  0.1128
  H  H160  1  0.862600  0.540700  0.613000  1.0  0.0901
  H  H161  1  0.962400  0.774700  0.727800  1.0  0.1086
  H  H162  1  0.006600  0.799300  0.619100  1.0  0.1037
  H  H163  1  0.104700  0.463000  0.395400  1.0  0.3088
  H  H164  1  0.103400  0.504000  0.426800  1.0  0.318
  H  H165  1  0.433100  0.120300  0.598000  1.0  0.1204
  H  H166  1  0.357200  0.395200  0.757500  1.0  0.0892
  H  H167  1  0.448800  0.174100  0.638600  1.0  0.0973
  H  H168  1  0.429600  0.193000  0.546100  1.0  0.0806
  H  H169  1  0.370000  0.060500  0.438900  1.0  0.078
  H  H170  1  0.359800  0.167000  0.359400  1.0  0.102
  H  H171  1  0.382400  0.498300  0.709500  1.0  0.0585
  H  H172  1  0.433300  0.360100  0.589900  1.0  0.0911
  H  H173  1  0.559100  0.194800  0.672600  1.0  0.122
  H  H174  1  0.537000  0.286900  0.622500  1.0  0.1285
  H  H175  1  0.383600  0.334100  0.925800  1.0  0.1004
  H  H176  1  0.396900  0.264300  0.604200  1.0  0.121
  H  H177  1  0.371900  0.345200  0.708700  1.0  0.126
  H  H178  1  0.397100  0.455800  0.659600  1.0  0.1286
  H  H179  1  0.377200  0.213700  0.405600  1.0  0.1077
  H  H180  1  0.401700  0.283100  0.881600  1.0  0.1124
  H  H181  1  0.534400  0.216900  0.505600  1.0  0.1177
  H  H182  1  0.527000  0.175500  0.671800  1.0  0.129
  H  H183  1  0.401500  0.369000  0.778800  1.0  0.1088
  H  H184  1  0.565200  0.177800  0.451300  1.0  0.1165
  H  H185  1  0.418800  0.406600  0.637900  1.0  0.1104
  H  H186  1  0.599300  0.097200  0.513400  1.0  0.1019
  H  H187  1  0.549000  0.302600  0.750600  1.0  0.104
  H  H188  1  0.402200  0.297400  0.740700  1.0  0.0763
  H  H189  1  0.596000  0.044000  0.461200  1.0  0.1258
  H  H190  1  0.562200  0.122100  0.392600  1.0  0.1134
  H  H191  1  0.381400  0.309300  0.650200  1.0  0.1063
  H  H192  1  0.447900  0.221100  0.803400  1.0  0.0735
  H  H193  1  0.418100  0.251700  0.699900  1.0  0.1095
  H  H194  1  0.479700  0.273000  0.628600  1.0  0.0869
  H  H195  1  0.414100  0.147900  0.494400  1.0  0.1096
  H  H196  1  0.518100  0.288200  0.746500  1.0  0.1718
  H  H197  1  0.398000  0.300900  0.511800  1.0  0.1243
  H  H198  1  0.380600  0.252700  0.472800  1.0  0.0868
  H  H199  1  0.613800  0.963500  0.315800  1.0  0.1082
  H  H200  1  0.478500  0.271700  0.493700  1.0  0.1287
  H  H201  1  0.385000  0.420500  0.823000  1.0  0.0962
  H  H202  1  0.431600  0.265600  0.850400  1.0  0.1235
  H  H203  1  0.493000  0.287800  0.722500  1.0  0.1155
  H  H204  1  0.563200  0.923300  0.299200  1.0  0.1222
  H  H205  1  0.380300  0.087100  0.655900  1.0  0.1279
  H  H206  1  0.419400  0.147000  0.749100  1.0  0.1179
  H  H207  1  0.619500  0.905300  0.258300  1.0  0.0887
  H  H208  1  0.570400  0.852100  0.270000  1.0  0.1309
  H  H209  1  0.502000  0.155300  0.697500  1.0  0.1157
  H  H210  1  0.403200  0.013300  0.530800  1.0  0.1092
  H  H211  1  0.502800  0.230900  0.503200  1.0  0.1029
  H  H212  1  0.447800  0.275900  0.629200  1.0  0.1157
  H  H213  1  0.402500  0.097400  0.707900  1.0  0.1222
  H  H214  1  0.447500  0.273400  0.496000  1.0  0.1158
  H  H215  1  0.469600  0.142500  0.699500  1.0  0.1178
  H  H216  1  0.385000  0.106200  0.488700  1.0  0.1102
  H  H217  1  0.421400  0.062200  0.572900  1.0  0.1126
  H  H218  1  0.362600  0.040700  0.613000  1.0  0.0901
  H  H219  1  0.462400  0.274700  0.727800  1.0  0.1086
  H  H220  1  0.506600  0.299300  0.619100  1.0  0.1055
  H  H221  1  0.604700  0.963000  0.395400  1.0  0.3088
  H  H222  1  0.603400  0.004000  0.426800  1.0  0.318
  H  H223  1  0.433100  0.620300  0.098000  1.0  0.1204
  H  H224  1  0.357200  0.895200  0.257500  1.0  0.0892
  H  H225  1  0.448800  0.674100  0.138600  1.0  0.0976
  H  H226  1  0.429600  0.693000  0.046100  1.0  0.0806
  H  H227  1  0.370000  0.560500  0.938900  1.0  0.078
  H  H228  1  0.359800  0.667000  0.859400  1.0  0.102
  H  H229  1  0.382400  0.998300  0.209500  1.0  0.0585
  H  H230  1  0.433300  0.860100  0.089900  1.0  0.091
  H  H231  1  0.559100  0.694800  0.172600  1.0  0.122
  H  H232  1  0.537000  0.786900  0.122500  1.0  0.1285
  H  H233  1  0.383600  0.834100  0.425800  1.0  0.1004
  H  H234  1  0.396900  0.764300  0.104200  1.0  0.121
  H  H235  1  0.371900  0.845200  0.208700  1.0  0.126
  H  H236  1  0.397100  0.955800  0.159600  1.0  0.1286
  H  H237  1  0.377200  0.713700  0.905600  1.0  0.1077
  H  H238  1  0.401700  0.783100  0.381600  1.0  0.1124
  H  H239  1  0.534400  0.716900  0.005600  1.0  0.1177
  H  H240  1  0.527000  0.675500  0.171800  1.0  0.129
  H  H241  1  0.401500  0.869000  0.278800  1.0  0.1088
  H  H242  1  0.565200  0.677800  0.951300  1.0  0.1165
  H  H243  1  0.418800  0.906600  0.137900  1.0  0.1104
  H  H244  1  0.599300  0.597200  0.013400  1.0  0.1019
  H  H245  1  0.549000  0.802600  0.250600  1.0  0.104
  H  H246  1  0.402200  0.797400  0.240700  1.0  0.0763
  H  H247  1  0.596000  0.544000  0.961200  1.0  0.1258
  H  H248  1  0.562200  0.622100  0.892600  1.0  0.1134
  H  H249  1  0.381400  0.809300  0.150200  1.0  0.1063
  H  H250  1  0.447900  0.721100  0.303400  1.0  0.0734
  H  H251  1  0.418100  0.751700  0.199900  1.0  0.1095
  H  H252  1  0.479700  0.773000  0.128600  1.0  0.0869
  H  H253  1  0.414100  0.647900  0.994400  1.0  0.1096
  H  H254  1  0.518100  0.788200  0.246500  1.0  0.1718
  H  H255  1  0.398000  0.800900  0.011800  1.0  0.1243
  H  H256  1  0.380600  0.752700  0.972800  1.0  0.0868
  H  H257  1  0.613800  0.463500  0.815800  1.0  0.1082
  H  H258  1  0.478500  0.771700  0.993700  1.0  0.1286
  H  H259  1  0.385000  0.920500  0.323000  1.0  0.0962
  H  H260  1  0.431600  0.765600  0.350400  1.0  0.1235
  H  H261  1  0.493000  0.787800  0.222500  1.0  0.1155
  H  H262  1  0.563200  0.423300  0.799200  1.0  0.1222
  H  H263  1  0.380300  0.587100  0.155900  1.0  0.1279
  H  H264  1  0.419400  0.647000  0.249100  1.0  0.118
  H  H265  1  0.619500  0.405300  0.758300  1.0  0.0887
  H  H266  1  0.570400  0.352100  0.770000  1.0  0.1338
  H  H267  1  0.502000  0.655300  0.197500  1.0  0.1138
  H  H268  1  0.403200  0.513300  0.030800  1.0  0.1092
  H  H269  1  0.502800  0.730900  0.003200  1.0  0.1029
  H  H270  1  0.447800  0.775900  0.129200  1.0  0.1157
  H  H271  1  0.402500  0.597400  0.207900  1.0  0.1222
  H  H272  1  0.447500  0.773400  0.996000  1.0  0.1158
  H  H273  1  0.469600  0.642500  0.199500  1.0  0.1185
  H  H274  1  0.385000  0.606200  0.988700  1.0  0.1102
  H  H275  1  0.421400  0.562200  0.072900  1.0  0.1128
  H  H276  1  0.362600  0.540700  0.113000  1.0  0.0901
  H  H277  1  0.462400  0.774700  0.227800  1.0  0.1086
  H  H278  1  0.506600  0.799300  0.119100  1.0  0.1054
  H  H279  1  0.604700  0.463000  0.895400  1.0  0.3088
  H  H280  1  0.603400  0.504000  0.926800  1.0  0.318
  H  H281  1  0.183100  0.129700  0.348000  1.0  0.1203
  H  H282  1  0.107200  0.854800  0.507500  1.0  0.0889
  H  H283  1  0.198800  0.075900  0.388600  1.0  0.0974
  H  H284  1  0.179600  0.057000  0.296100  1.0  0.0807
  H  H285  1  0.120000  0.189500  0.188900  1.0  0.0785
  H  H286  1  0.109800  0.083000  0.109400  1.0  0.1022
  H  H287  1  0.132400  0.751700  0.459500  1.0  0.0583
  H  H288  1  0.183300  0.889900  0.339900  1.0  0.0895
  H  H289  1  0.309100  0.055200  0.422600  1.0  0.1224
  H  H290  1  0.287000  0.963100  0.372500  1.0  0.1286
  H  H291  1  0.133600  0.915900  0.675800  1.0  0.1006
  H  H292  1  0.146900  0.985700  0.354200  1.0  0.1219
  H  H293  1  0.121900  0.904800  0.458700  1.0  0.1277
  H  H294  1  0.147100  0.794200  0.409600  1.0  0.1282
  H  H295  1  0.127200  0.036300  0.155600  1.0  0.1079
  H  H296  1  0.151700  0.966900  0.631600  1.0  0.1125
  H  H297  1  0.284400  0.033100  0.255600  1.0  0.1177
  H  H298  1  0.277000  0.074500  0.421800  1.0  0.1306
  H  H299  1  0.151500  0.881000  0.528800  1.0  0.1087
  H  H300  1  0.315200  0.072200  0.201300  1.0  0.1156
  H  H301  1  0.168800  0.843400  0.387900  1.0  0.1098
  H  H302  1  0.349300  0.152800  0.263400  1.0  0.1015
  H  H303  1  0.299000  0.947400  0.500600  1.0  0.1042
  H  H304  1  0.152200  0.952600  0.490700  1.0  0.0762
  H  H305  1  0.346000  0.206000  0.211200  1.0  0.1275
  H  H306  1  0.312200  0.127900  0.142600  1.0  0.1131
  H  H307  1  0.131400  0.940700  0.400200  1.0  0.1035
  H  H308  1  0.197900  0.028900  0.553400  1.0  0.0734
  H  H309  1  0.168100  0.998300  0.449900  1.0  0.1094
  H  H310  1  0.229700  0.977000  0.378600  1.0  0.0875
  H  H311  1  0.164100  0.102100  0.244400  1.0  0.1098
  H  H312  1  0.268100  0.961800  0.496500  1.0  0.1714
  H  H313  1  0.148000  0.949100  0.261800  1.0  0.1251
  H  H314  1  0.130600  0.997300  0.222800  1.0  0.0867
  H  H315  1  0.363800  0.286500  0.065800  1.0  0.1083
  H  H316  1  0.228500  0.978300  0.243700  1.0  0.1285
  H  H317  1  0.135000  0.829500  0.573000  1.0  0.0958
  H  H318  1  0.181600  0.984400  0.600400  1.0  0.1236
  H  H319  1  0.243000  0.962200  0.472500  1.0  0.1157
  H  H320  1  0.313200  0.326700  0.049200  1.0  0.1222
  H  H321  1  0.130300  0.162900  0.405900  1.0  0.128
  H  H322  1  0.169400  0.103000  0.499100  1.0  0.1179
  H  H323  1  0.369500  0.344700  0.008300  1.0  0.089
  H  H324  1  0.320400  0.397900  0.020000  1.0  0.1306
  H  H325  1  0.252000  0.094700  0.447500  1.0  0.1138
  H  H326  1  0.153200  0.236700  0.280800  1.0  0.109
  H  H327  1  0.252800  0.019100  0.253200  1.0  0.1033
  H  H328  1  0.197800  0.974100  0.379200  1.0  0.1151
  H  H329  1  0.152500  0.152600  0.457900  1.0  0.1222
  H  H330  1  0.197500  0.976600  0.246000  1.0  0.1155
  H  H331  1  0.219600  0.107500  0.449500  1.0  0.1186
  H  H332  1  0.135000  0.143800  0.238700  1.0  0.1098
  H  H333  1  0.171400  0.187800  0.322900  1.0  0.1132
  H  H334  1  0.112600  0.209300  0.363000  1.0  0.0901
  H  H335  1  0.212400  0.975300  0.477800  1.0  0.109
  H  H336  1  0.256600  0.950700  0.369100  1.0  0.1052
  H  H337  1  0.354700  0.287000  0.145400  1.0  0.3081
  H  H338  1  0.353400  0.246000  0.176800  1.0  0.3173
  H  H339  1  0.183100  0.629700  0.848000  1.0  0.1203
  H  H340  1  0.107200  0.354800  0.007500  1.0  0.0889
  H  H341  1  0.198800  0.575900  0.888600  1.0  0.0974
  H  H342  1  0.179600  0.557000  0.796100  1.0  0.0807
  H  H343  1  0.120000  0.689500  0.688900  1.0  0.0785
  H  H344  1  0.109800  0.583000  0.609400  1.0  0.1022
  H  H345  1  0.132400  0.251700  0.959500  1.0  0.0583
  H  H346  1  0.183300  0.389900  0.839900  1.0  0.0895
  H  H347  1  0.309100  0.555200  0.922600  1.0  0.1224
  H  H348  1  0.287000  0.463100  0.872500  1.0  0.1286
  H  H349  1  0.133600  0.415900  0.175800  1.0  0.1006
  H  H350  1  0.146900  0.485700  0.854200  1.0  0.1219
  H  H351  1  0.121900  0.404800  0.958700  1.0  0.1265
  H  H352  1  0.147100  0.294200  0.909600  1.0  0.1282
  H  H353  1  0.127200  0.536300  0.655600  1.0  0.1079
  H  H354  1  0.151700  0.466900  0.131600  1.0  0.1125
  H  H355  1  0.284400  0.533100  0.755600  1.0  0.1177
  H  H356  1  0.277000  0.574500  0.921800  1.0  0.1306
  H  H357  1  0.151500  0.381000  0.028800  1.0  0.1087
  H  H358  1  0.315200  0.572200  0.701300  1.0  0.1156
  H  H359  1  0.168800  0.343400  0.887900  1.0  0.1098
  H  H360  1  0.349300  0.652800  0.763400  1.0  0.1015
  H  H361  1  0.299000  0.447400  0.000600  1.0  0.1042
  H  H362  1  0.152200  0.452600  0.990700  1.0  0.0762
  H  H363  1  0.346000  0.706000  0.711200  1.0  0.1275
  H  H364  1  0.312200  0.627900  0.642600  1.0  0.1131
  H  H365  1  0.131400  0.440700  0.900200  1.0  0.1061
  H  H366  1  0.197900  0.528900  0.053400  1.0  0.0734
  H  H367  1  0.168100  0.498300  0.949900  1.0  0.1094
  H  H368  1  0.229700  0.477000  0.878600  1.0  0.0875
  H  H369  1  0.164100  0.602100  0.744400  1.0  0.1098
  H  H370  1  0.268100  0.461800  0.996500  1.0  0.1714
  H  H371  1  0.148000  0.449100  0.761800  1.0  0.1251
  H  H372  1  0.130600  0.497300  0.722800  1.0  0.0867
  H  H373  1  0.363800  0.786500  0.565800  1.0  0.1083
  H  H374  1  0.228500  0.478300  0.743700  1.0  0.1285
  H  H375  1  0.135000  0.329500  0.073000  1.0  0.0958
  H  H376  1  0.181600  0.484400  0.100400  1.0  0.1236
  H  H377  1  0.243000  0.462200  0.972500  1.0  0.1157
  H  H378  1  0.313200  0.826700  0.549200  1.0  0.1222
  H  H379  1  0.130300  0.662900  0.905900  1.0  0.128
  H  H380  1  0.169400  0.603000  0.999100  1.0  0.1182
  H  H381  1  0.369500  0.844700  0.508300  1.0  0.089
  H  H382  1  0.320400  0.897900  0.520000  1.0  0.1336
  H  H383  1  0.252000  0.594700  0.947500  1.0  0.1138
  H  H384  1  0.153200  0.736700  0.780800  1.0  0.109
  H  H385  1  0.252800  0.519100  0.753200  1.0  0.1033
  H  H386  1  0.197800  0.474100  0.879200  1.0  0.1151
  H  H387  1  0.152500  0.652600  0.957900  1.0  0.1222
  H  H388  1  0.197500  0.476600  0.746000  1.0  0.1155
  H  H389  1  0.219600  0.607500  0.949500  1.0  0.1186
  H  H390  1  0.135000  0.643800  0.738700  1.0  0.1098
  H  H391  1  0.171400  0.687800  0.822900  1.0  0.1132
  H  H392  1  0.112600  0.709300  0.863000  1.0  0.0901
  H  H393  1  0.212400  0.475300  0.977800  1.0  0.109
  H  H394  1  0.256600  0.450700  0.869100  1.0  0.1052
  H  H395  1  0.354700  0.787000  0.645400  1.0  0.3081
  H  H396  1  0.353400  0.746000  0.676800  1.0  0.3173
  H  H397  1  0.683100  0.129700  0.848000  1.0  0.1203
  H  H398  1  0.607200  0.854800  0.007500  1.0  0.0889
  H  H399  1  0.698800  0.075900  0.888600  1.0  0.0974
  H  H400  1  0.679600  0.057000  0.796100  1.0  0.0807
  H  H401  1  0.620000  0.189500  0.688900  1.0  0.0785
  H  H402  1  0.609800  0.083000  0.609400  1.0  0.1022
  H  H403  1  0.632400  0.751700  0.959500  1.0  0.0583
  H  H404  1  0.683300  0.889900  0.839900  1.0  0.0895
  H  H405  1  0.809100  0.055200  0.922600  1.0  0.1224
  H  H406  1  0.787000  0.963100  0.872500  1.0  0.1286
  H  H407  1  0.633600  0.915900  0.175800  1.0  0.1006
  H  H408  1  0.646900  0.985700  0.854200  1.0  0.1219
  H  H409  1  0.621900  0.904800  0.958700  1.0  0.1277
  H  H410  1  0.647100  0.794200  0.909600  1.0  0.1282
  H  H411  1  0.627200  0.036300  0.655600  1.0  0.1079
  H  H412  1  0.651700  0.966900  0.131600  1.0  0.1125
  H  H413  1  0.784400  0.033100  0.755600  1.0  0.1177
  H  H414  1  0.777000  0.074500  0.921800  1.0  0.1306
  H  H415  1  0.651500  0.881000  0.028800  1.0  0.1087
  H  H416  1  0.815200  0.072200  0.701300  1.0  0.1156
  H  H417  1  0.668800  0.843400  0.887900  1.0  0.1098
  H  H418  1  0.849300  0.152800  0.763400  1.0  0.1015
  H  H419  1  0.799000  0.947400  0.000600  1.0  0.1042
  H  H420  1  0.652200  0.952600  0.990700  1.0  0.0762
  H  H421  1  0.846000  0.206000  0.711200  1.0  0.1275
  H  H422  1  0.812200  0.127900  0.642600  1.0  0.1131
  H  H423  1  0.631400  0.940700  0.900200  1.0  0.1035
  H  H424  1  0.697900  0.028900  0.053400  1.0  0.0734
  H  H425  1  0.668100  0.998300  0.949900  1.0  0.1094
  H  H426  1  0.729700  0.977000  0.878600  1.0  0.0875
  H  H427  1  0.664100  0.102100  0.744400  1.0  0.1098
  H  H428  1  0.768100  0.961800  0.996500  1.0  0.1714
  H  H429  1  0.648000  0.949100  0.761800  1.0  0.1251
  H  H430  1  0.630600  0.997300  0.722800  1.0  0.0867
  H  H431  1  0.863800  0.286500  0.565800  1.0  0.1083
  H  H432  1  0.728500  0.978300  0.743700  1.0  0.1285
  H  H433  1  0.635000  0.829500  0.073000  1.0  0.0958
  H  H434  1  0.681600  0.984400  0.100400  1.0  0.1236
  H  H435  1  0.743000  0.962200  0.972500  1.0  0.1157
  H  H436  1  0.813200  0.326700  0.549200  1.0  0.1222
  H  H437  1  0.630300  0.162900  0.905900  1.0  0.128
  H  H438  1  0.669400  0.103000  0.999100  1.0  0.1182
  H  H439  1  0.869500  0.344700  0.508300  1.0  0.089
  H  H440  1  0.820400  0.397900  0.520000  1.0  0.1306
  H  H441  1  0.752000  0.094700  0.947500  1.0  0.1138
  H  H442  1  0.653200  0.236700  0.780800  1.0  0.109
  H  H443  1  0.752800  0.019100  0.753200  1.0  0.1033
  H  H444  1  0.697800  0.974100  0.879200  1.0  0.1151
  H  H445  1  0.652500  0.152600  0.957900  1.0  0.1222
  H  H446  1  0.697500  0.976600  0.746000  1.0  0.1155
  H  H447  1  0.719600  0.107500  0.949500  1.0  0.1186
  H  H448  1  0.635000  0.143800  0.738700  1.0  0.1098
  H  H449  1  0.671400  0.187800  0.822900  1.0  0.1132
  H  H450  1  0.612600  0.209300  0.863000  1.0  0.0901
  H  H451  1  0.712400  0.975300  0.977800  1.0  0.109
  H  H452  1  0.756600  0.950700  0.869100  1.0  0.1052
  H  H453  1  0.854700  0.287000  0.645400  1.0  0.3081
  H  H454  1  0.853400  0.246000  0.676800  1.0  0.3173
  H  H455  1  0.683100  0.629700  0.348000  1.0  0.1203
  H  H456  1  0.607200  0.354800  0.507500  1.0  0.0889
  H  H457  1  0.698800  0.575900  0.388600  1.0  0.0974
  H  H458  1  0.679600  0.557000  0.296100  1.0  0.0807
  H  H459  1  0.620000  0.689500  0.188900  1.0  0.0785
  H  H460  1  0.609800  0.583000  0.109400  1.0  0.1022
  H  H461  1  0.632400  0.251700  0.459500  1.0  0.0583
  H  H462  1  0.683300  0.389900  0.339900  1.0  0.0895
  H  H463  1  0.809100  0.555200  0.422600  1.0  0.1224
  H  H464  1  0.787000  0.463100  0.372500  1.0  0.1286
  H  H465  1  0.633600  0.415900  0.675800  1.0  0.1006
  H  H466  1  0.646900  0.485700  0.354200  1.0  0.1219
  H  H467  1  0.621900  0.404800  0.458700  1.0  0.1265
  H  H468  1  0.647100  0.294200  0.409600  1.0  0.1282
  H  H469  1  0.627200  0.536300  0.155600  1.0  0.1079
  H  H470  1  0.651700  0.466900  0.631600  1.0  0.1125
  H  H471  1  0.784400  0.533100  0.255600  1.0  0.1177
  H  H472  1  0.777000  0.574500  0.421800  1.0  0.1306
  H  H473  1  0.651500  0.381000  0.528800  1.0  0.1087
  H  H474  1  0.815200  0.572200  0.201300  1.0  0.1156
  H  H475  1  0.668800  0.343400  0.387900  1.0  0.1098
  H  H476  1  0.849300  0.652800  0.263400  1.0  0.1015
  H  H477  1  0.799000  0.447400  0.500600  1.0  0.1042
  H  H478  1  0.652200  0.452600  0.490700  1.0  0.0762
  H  H479  1  0.846000  0.706000  0.211200  1.0  0.1275
  H  H480  1  0.812200  0.627900  0.142600  1.0  0.1131
  H  H481  1  0.631400  0.440700  0.400200  1.0  0.1061
  H  H482  1  0.697900  0.528900  0.553400  1.0  0.0734
  H  H483  1  0.668100  0.498300  0.449900  1.0  0.1094
  H  H484  1  0.729700  0.477000  0.378600  1.0  0.0875
  H  H485  1  0.664100  0.602100  0.244400  1.0  0.1098
  H  H486  1  0.768100  0.461800  0.496500  1.0  0.1714
  H  H487  1  0.648000  0.449100  0.261800  1.0  0.1251
  H  H488  1  0.630600  0.497300  0.222800  1.0  0.0867
  H  H489  1  0.863800  0.786500  0.065800  1.0  0.1083
  H  H490  1  0.728500  0.478300  0.243700  1.0  0.1285
  H  H491  1  0.635000  0.329500  0.573000  1.0  0.0958
  H  H492  1  0.681600  0.484400  0.600400  1.0  0.1236
  H  H493  1  0.743000  0.462200  0.472500  1.0  0.1157
  H  H494  1  0.813200  0.826700  0.049200  1.0  0.1222
  H  H495  1  0.630300  0.662900  0.405900  1.0  0.128
  H  H496  1  0.669400  0.603000  0.499100  1.0  0.1179
  H  H497  1  0.869500  0.844700  0.008300  1.0  0.089
  H  H498  1  0.820400  0.897900  0.020000  1.0  0.1336
  H  H499  1  0.752000  0.594700  0.447500  1.0  0.1138
  H  H500  1  0.653200  0.736700  0.280800  1.0  0.109
  H  H501  1  0.752800  0.519100  0.253200  1.0  0.1033
  H  H502  1  0.697800  0.474100  0.379200  1.0  0.1151
  H  H503  1  0.652500  0.652600  0.457900  1.0  0.1222
  H  H504  1  0.697500  0.476600  0.246000  1.0  0.1155
  H  H505  1  0.719600  0.607500  0.449500  1.0  0.1186
  H  H506  1  0.635000  0.643800  0.238700  1.0  0.1098
  H  H507  1  0.671400  0.687800  0.322900  1.0  0.1132
  H  H508  1  0.612600  0.709300  0.363000  1.0  0.0901
  H  H509  1  0.712400  0.475300  0.477800  1.0  0.109
  H  H510  1  0.756600  0.450700  0.369100  1.0  0.1052
  H  H511  1  0.854700  0.787000  0.145400  1.0  0.3081
  H  H512  1  0.853400  0.746000  0.176800  1.0  0.3173
  H  H513  1  0.066900  0.879700  0.098000  1.0  0.1187
  H  H514  1  0.142800  0.604800  0.257500  1.0  0.0885
  H  H515  1  0.051200  0.825900  0.138600  1.0  0.0975
  H  H516  1  0.070400  0.807000  0.046100  1.0  0.0809
  H  H517  1  0.130000  0.939500  0.938900  1.0  0.079
  H  H518  1  0.140200  0.833000  0.859400  1.0  0.1019
  H  H519  1  0.117600  0.501700  0.209500  1.0  0.0579
  H  H520  1  0.066700  0.639900  0.089900  1.0  0.0902
  H  H521  1  0.940900  0.805200  0.172600  1.0  0.1233
  H  H522  1  0.963000  0.713100  0.122500  1.0  0.1286
  H  H523  1  0.116400  0.665900  0.425800  1.0  0.1009
  H  H524  1  0.103100  0.735700  0.104200  1.0  0.1211
  H  H525  1  0.128100  0.654800  0.208700  1.0  0.1258
  H  H526  1  0.102900  0.544200  0.159600  1.0  0.1277
  H  H527  1  0.122800  0.786300  0.905600  1.0  0.1081
  H  H528  1  0.098300  0.716900  0.381600  1.0  0.1127
  H  H529  1  0.965600  0.783100  0.005600  1.0  0.1178
  H  H530  1  0.973000  0.824500  0.171800  1.0  0.1305
  H  H531  1  0.098500  0.631000  0.278800  1.0  0.1084
  H  H532  1  0.934800  0.822200  0.951300  1.0  0.1165
  H  H533  1  0.081200  0.593400  0.137900  1.0  0.1096
  H  H534  1  0.900700  0.902800  0.013400  1.0  0.1014
  H  H535  1  0.951000  0.697400  0.250600  1.0  0.1041
  H  H536  1  0.097800  0.702600  0.240700  1.0  0.0765
  H  H537  1  0.904000  0.956000  0.961200  1.0  0.1261
  H  H538  1  0.937800  0.877900  0.892600  1.0  0.1139
  H  H539  1  0.118600  0.690700  0.150200  1.0  0.1059
  H  H540  1  0.052100  0.778900  0.303400  1.0  0.0742
  H  H541  1  0.081900  0.748300  0.199900  1.0  0.1089
  H  H542  1  0.020300  0.727000  0.128600  1.0  0.0874
  H  H543  1  0.085900  0.852100  0.994400  1.0  0.11
  H  H544  1  0.981900  0.711800  0.246500  1.0  0.1716
  H  H545  1  0.102000  0.699100  0.011800  1.0  0.1249
  H  H546  1  0.119400  0.747300  0.972800  1.0  0.0865
  H  H547  1  0.886200  0.036500  0.815800  1.0  0.1086
  H  H548  1  0.021500  0.728300  0.993700  1.0  0.1287
  H  H549  1  0.115000  0.579500  0.323000  1.0  0.0959
  H  H550  1  0.068400  0.734400  0.350400  1.0  0.124
  H  H551  1  0.007000  0.712200  0.222500  1.0  0.1157
  H  H552  1  0.936800  0.076700  0.799200  1.0  0.1247
  H  H553  1  0.119700  0.912900  0.155900  1.0  0.1274
  H  H554  1  0.080600  0.853000  0.249100  1.0  0.1174
  H  H555  1  0.880500  0.094700  0.758300  1.0  0.0899
  H  H556  1  0.929600  0.147900  0.770000  1.0  0.1309
  H  H557  1  0.998000  0.844700  0.197500  1.0  0.1156
  H  H558  1  0.096800  0.986700  0.030800  1.0  0.1089
  H  H559  1  0.997200  0.769100  0.003200  1.0  0.1038
  H  H560  1  0.052200  0.724100  0.129200  1.0  0.1154
  H  H561  1  0.097500  0.902600  0.207900  1.0  0.1229
  H  H562  1  0.052500  0.726600  0.996000  1.0  0.1151
  H  H563  1  0.030400  0.857500  0.199500  1.0  0.1167
  H  H564  1  0.115000  0.893800  0.988700  1.0  0.1099
  H  H565  1  0.078600  0.937800  0.072900  1.0  0.1138
  H  H566  1  0.137400  0.959300  0.113000  1.0  0.091
  H  H567  1  0.037600  0.725300  0.227800  1.0  0.1089
  H  H568  1  0.993400  0.700700  0.119100  1.0  0.1054
  H  H569  1  0.895300  0.037000  0.895400  1.0  0.3073
  H  H570  1  0.896600  0.996000  0.926800  1.0  0.317
  H  H571  1  0.066900  0.379700  0.598000  1.0  0.1201
  H  H572  1  0.142800  0.104800  0.757500  1.0  0.0885
  H  H573  1  0.051200  0.325900  0.638600  1.0  0.0978
  H  H574  1  0.070400  0.307000  0.546100  1.0  0.0809
  H  H575  1  0.130000  0.439500  0.438900  1.0  0.079
  H  H576  1  0.140200  0.333000  0.359400  1.0  0.1019
  H  H577  1  0.117600  0.001700  0.709500  1.0  0.0579
  H  H578  1  0.066700  0.139900  0.589900  1.0  0.09
  H  H579  1  0.940900  0.305200  0.672600  1.0  0.1233
  H  H580  1  0.963000  0.213100  0.622500  1.0  0.1286
  H  H581  1  0.116400  0.165900  0.925800  1.0  0.1009
  H  H582  1  0.103100  0.235700  0.604200  1.0  0.1211
  H  H583  1  0.128100  0.154800  0.708700  1.0  0.1258
  H  H584  1  0.102900  0.044200  0.659600  1.0  0.1277
  H  H585  1  0.122800  0.286300  0.405600  1.0  0.1081
  H  H586  1  0.098300  0.216900  0.881600  1.0  0.1127
  H  H587  1  0.965600  0.283100  0.505600  1.0  0.1178
  H  H588  1  0.973000  0.324500  0.671800  1.0  0.1305
  H  H589  1  0.098500  0.131000  0.778800  1.0  0.1084
  H  H590  1  0.934800  0.322200  0.451300  1.0  0.1165
  H  H591  1  0.081200  0.093400  0.637900  1.0  0.1096
  H  H592  1  0.900700  0.402800  0.513400  1.0  0.1014
  H  H593  1  0.951000  0.197400  0.750600  1.0  0.1041
  H  H594  1  0.097800  0.202600  0.740700  1.0  0.0765
  H  H595  1  0.904000  0.456000  0.461200  1.0  0.1261
  H  H596  1  0.937800  0.377900  0.392600  1.0  0.1133
  H  H597  1  0.118600  0.190700  0.650200  1.0  0.1059
  H  H598  1  0.052100  0.278900  0.803400  1.0  0.074
  H  H599  1  0.081900  0.248300  0.699900  1.0  0.1089
  H  H600  1  0.020300  0.227000  0.628600  1.0  0.0874
  H  H601  1  0.085900  0.352100  0.494400  1.0  0.11
  H  H602  1  0.981900  0.211800  0.746500  1.0  0.1716
  H  H603  1  0.102000  0.199100  0.511800  1.0  0.1249
  H  H604  1  0.119400  0.247300  0.472800  1.0  0.0865
  H  H605  1  0.886200  0.536500  0.315800  1.0  0.1086
  H  H606  1  0.021500  0.228300  0.493700  1.0  0.1281
  H  H607  1  0.115000  0.079500  0.823000  1.0  0.0959
  H  H608  1  0.068400  0.234400  0.850400  1.0  0.124
  H  H609  1  0.007000  0.212200  0.722500  1.0  0.1157
  H  H610  1  0.936800  0.576700  0.299200  1.0  0.1209
  H  H611  1  0.119700  0.412900  0.655900  1.0  0.1274
  H  H612  1  0.080600  0.353000  0.749100  1.0  0.1175
  H  H613  1  0.880500  0.594700  0.258300  1.0  0.0899
  H  H614  1  0.929600  0.647900  0.270000  1.0  0.134
  H  H615  1  0.998000  0.344700  0.697500  1.0  0.1138
  H  H616  1  0.096800  0.486700  0.530800  1.0  0.1089
  H  H617  1  0.997200  0.269100  0.503200  1.0  0.103
  H  H618  1  0.052200  0.224100  0.629200  1.0  0.1154
  H  H619  1  0.097500  0.402600  0.707900  1.0  0.1229
  H  H620  1  0.052500  0.226600  0.496000  1.0  0.1151
  H  H621  1  0.030400  0.357500  0.699500  1.0  0.118
  H  H622  1  0.115000  0.393800  0.488700  1.0  0.1099
  H  H623  1  0.078600  0.437800  0.572900  1.0  0.1133
  H  H624  1  0.137400  0.459300  0.613000  1.0  0.091
  H  H625  1  0.037600  0.225300  0.727800  1.0  0.1089
  H  H626  1  0.993400  0.200700  0.619100  1.0  0.1046
  H  H627  1  0.895300  0.537000  0.395400  1.0  0.3073
  H  H628  1  0.896600  0.496000  0.426800  1.0  0.317
  H  H629  1  0.566900  0.879700  0.598000  1.0  0.1201
  H  H630  1  0.642800  0.604800  0.757500  1.0  0.0885
  H  H631  1  0.551200  0.825900  0.638600  1.0  0.0975
  H  H632  1  0.570400  0.807000  0.546100  1.0  0.0809
  H  H633  1  0.630000  0.939500  0.438900  1.0  0.079
  H  H634  1  0.640200  0.833000  0.359400  1.0  0.1019
  H  H635  1  0.617600  0.501700  0.709500  1.0  0.0579
  H  H636  1  0.566700  0.639900  0.589900  1.0  0.0902
  H  H637  1  0.440900  0.805200  0.672600  1.0  0.1233
  H  H638  1  0.463000  0.713100  0.622500  1.0  0.1286
  H  H639  1  0.616400  0.665900  0.925800  1.0  0.1009
  H  H640  1  0.603100  0.735700  0.604200  1.0  0.1211
  H  H641  1  0.628100  0.654800  0.708700  1.0  0.1258
  H  H642  1  0.602900  0.544200  0.659600  1.0  0.1277
  H  H643  1  0.622800  0.786300  0.405600  1.0  0.1081
  H  H644  1  0.598300  0.716900  0.881600  1.0  0.1127
  H  H645  1  0.465600  0.783100  0.505600  1.0  0.1178
  H  H646  1  0.473000  0.824500  0.671800  1.0  0.1305
  H  H647  1  0.598500  0.631000  0.778800  1.0  0.1084
  H  H648  1  0.434800  0.822200  0.451300  1.0  0.1165
  H  H649  1  0.581200  0.593400  0.637900  1.0  0.1096
  H  H650  1  0.400700  0.902800  0.513400  1.0  0.1014
  H  H651  1  0.451000  0.697400  0.750600  1.0  0.1041
  H  H652  1  0.597800  0.702600  0.740700  1.0  0.0765
  H  H653  1  0.404000  0.956000  0.461200  1.0  0.1261
  H  H654  1  0.437800  0.877900  0.392600  1.0  0.1133
  H  H655  1  0.618600  0.690700  0.650200  1.0  0.1059
  H  H656  1  0.552100  0.778900  0.803400  1.0  0.0742
  H  H657  1  0.581900  0.748300  0.699900  1.0  0.1089
  H  H658  1  0.520300  0.727000  0.628600  1.0  0.0874
  H  H659  1  0.585900  0.852100  0.494400  1.0  0.11
  H  H660  1  0.481900  0.711800  0.746500  1.0  0.1716
  H  H661  1  0.602000  0.699100  0.511800  1.0  0.1249
  H  H662  1  0.619400  0.747300  0.472800  1.0  0.0865
  H  H663  1  0.386200  0.036500  0.315800  1.0  0.1086
  H  H664  1  0.521500  0.728300  0.493700  1.0  0.1282
  H  H665  1  0.615000  0.579500  0.823000  1.0  0.0959
  H  H666  1  0.568400  0.734400  0.850400  1.0  0.124
  H  H667  1  0.507000  0.712200  0.722500  1.0  0.1157
  H  H668  1  0.436800  0.076700  0.299200  1.0  0.1209
  H  H669  1  0.619700  0.912900  0.655900  1.0  0.1274
  H  H670  1  0.580600  0.853000  0.749100  1.0  0.1174
  H  H671  1  0.380500  0.094700  0.258300  1.0  0.0899
  H  H672  1  0.429600  0.147900  0.270000  1.0  0.1309
  H  H673  1  0.498000  0.844700  0.697500  1.0  0.1156
  H  H674  1  0.596800  0.986700  0.530800  1.0  0.1089
  H  H675  1  0.497200  0.769100  0.503200  1.0  0.103
  H  H676  1  0.552200  0.724100  0.629200  1.0  0.1154
  H  H677  1  0.597500  0.902600  0.707900  1.0  0.1229
  H  H678  1  0.552500  0.726600  0.496000  1.0  0.1151
  H  H679  1  0.530400  0.857500  0.699500  1.0  0.1167
  H  H680  1  0.615000  0.893800  0.488700  1.0  0.1099
  H  H681  1  0.578600  0.937800  0.572900  1.0  0.1129
  H  H682  1  0.637400  0.959300  0.613000  1.0  0.091
  H  H683  1  0.537600  0.725300  0.727800  1.0  0.1089
  H  H684  1  0.493400  0.700700  0.619100  1.0  0.1054
  H  H685  1  0.395300  0.037000  0.395400  1.0  0.3073
  H  H686  1  0.396600  0.996000  0.426800  1.0  0.317
  H  H687  1  0.566900  0.379700  0.098000  1.0  0.1201
  H  H688  1  0.642800  0.104800  0.257500  1.0  0.0885
  H  H689  1  0.551200  0.325900  0.138600  1.0  0.0978
  H  H690  1  0.570400  0.307000  0.046100  1.0  0.0809
  H  H691  1  0.630000  0.439500  0.938900  1.0  0.079
  H  H692  1  0.640200  0.333000  0.859400  1.0  0.1019
  H  H693  1  0.617600  0.001700  0.209500  1.0  0.0579
  H  H694  1  0.566700  0.139900  0.089900  1.0  0.0898
  H  H695  1  0.440900  0.305200  0.172600  1.0  0.1233
  H  H696  1  0.463000  0.213100  0.122500  1.0  0.1286
  H  H697  1  0.616400  0.165900  0.425800  1.0  0.1009
  H  H698  1  0.603100  0.235700  0.104200  1.0  0.1211
  H  H699  1  0.628100  0.154800  0.208700  1.0  0.1258
  H  H700  1  0.602900  0.044200  0.159600  1.0  0.1277
  H  H701  1  0.622800  0.286300  0.905600  1.0  0.1081
  H  H702  1  0.598300  0.216900  0.381600  1.0  0.1127
  H  H703  1  0.465600  0.283100  0.005600  1.0  0.1178
  H  H704  1  0.473000  0.324500  0.171800  1.0  0.1305
  H  H705  1  0.598500  0.131000  0.278800  1.0  0.1084
  H  H706  1  0.434800  0.322200  0.951300  1.0  0.1165
  H  H707  1  0.581200  0.093400  0.137900  1.0  0.1096
  H  H708  1  0.400700  0.402800  0.013400  1.0  0.1014
  H  H709  1  0.451000  0.197400  0.250600  1.0  0.1041
  H  H710  1  0.597800  0.202600  0.240700  1.0  0.0765
  H  H711  1  0.404000  0.456000  0.961200  1.0  0.1261
  H  H712  1  0.437800  0.377900  0.892600  1.0  0.1133
  H  H713  1  0.618600  0.190700  0.150200  1.0  0.1059
  H  H714  1  0.552100  0.278900  0.303400  1.0  0.074
  H  H715  1  0.581900  0.248300  0.199900  1.0  0.1089
  H  H716  1  0.520300  0.227000  0.128600  1.0  0.0874
  H  H717  1  0.585900  0.352100  0.994400  1.0  0.11
  H  H718  1  0.481900  0.211800  0.246500  1.0  0.1716
  H  H719  1  0.602000  0.199100  0.011800  1.0  0.1249
  H  H720  1  0.619400  0.247300  0.972800  1.0  0.0865
  H  H721  1  0.386200  0.536500  0.815800  1.0  0.1086
  H  H722  1  0.521500  0.228300  0.993700  1.0  0.1284
  H  H723  1  0.615000  0.079500  0.323000  1.0  0.0959
  H  H724  1  0.568400  0.234400  0.350400  1.0  0.124
  H  H725  1  0.507000  0.212200  0.222500  1.0  0.1157
  H  H726  1  0.436800  0.576700  0.799200  1.0  0.1209
  H  H727  1  0.619700  0.412900  0.155900  1.0  0.1274
  H  H728  1  0.580600  0.353000  0.249100  1.0  0.1175
  H  H729  1  0.380500  0.594700  0.758300  1.0  0.0899
  H  H730  1  0.429600  0.647900  0.770000  1.0  0.134
  H  H731  1  0.498000  0.344700  0.197500  1.0  0.1138
  H  H732  1  0.596800  0.486700  0.030800  1.0  0.1089
  H  H733  1  0.497200  0.269100  0.003200  1.0  0.103
  H  H734  1  0.552200  0.224100  0.129200  1.0  0.1154
  H  H735  1  0.597500  0.402600  0.207900  1.0  0.1229
  H  H736  1  0.552500  0.226600  0.996000  1.0  0.1151
  H  H737  1  0.530400  0.357500  0.199500  1.0  0.118
  H  H738  1  0.615000  0.393800  0.988700  1.0  0.1099
  H  H739  1  0.578600  0.437800  0.072900  1.0  0.1133
  H  H740  1  0.637400  0.459300  0.113000  1.0  0.091
  H  H741  1  0.537600  0.225300  0.227800  1.0  0.1089
  H  H742  1  0.493400  0.200700  0.119100  1.0  0.1053
  H  H743  1  0.395300  0.537000  0.895400  1.0  0.3073
  H  H744  1  0.396600  0.496000  0.926800  1.0  0.317
  H  H745  1  0.316900  0.370300  0.348000  1.0  0.1205
  H  H746  1  0.392800  0.645200  0.507500  1.0  0.0887
  H  H747  1  0.301200  0.424100  0.388600  1.0  0.0978
  H  H748  1  0.320400  0.443000  0.296100  1.0  0.0808
  H  H749  1  0.380000  0.310500  0.188900  1.0  0.0787
  H  H750  1  0.390200  0.417000  0.109400  1.0  0.102
  H  H751  1  0.367600  0.748300  0.459500  1.0  0.0585
  H  H752  1  0.316700  0.610100  0.339900  1.0  0.091
  H  H753  1  0.190900  0.444800  0.422600  1.0  0.1219
  H  H754  1  0.213000  0.536900  0.372500  1.0  0.1286
  H  H755  1  0.366400  0.584100  0.675800  1.0  0.1006
  H  H756  1  0.353100  0.514300  0.354200  1.0  0.1216
  H  H757  1  0.378100  0.595200  0.458700  1.0  0.1262
  H  H758  1  0.352900  0.705800  0.409600  1.0  0.1282
  H  H759  1  0.372800  0.463700  0.155600  1.0  0.1078
  H  H760  1  0.348300  0.533100  0.631600  1.0  0.1125
  H  H761  1  0.215600  0.466900  0.255600  1.0  0.1178
  H  H762  1  0.223000  0.425500  0.421800  1.0  0.1293
  H  H763  1  0.348500  0.619000  0.528800  1.0  0.1086
  H  H764  1  0.184800  0.427800  0.201300  1.0  0.1166
  H  H765  1  0.331200  0.656600  0.387900  1.0  0.1107
  H  H766  1  0.150700  0.347200  0.263400  1.0  0.1015
  H  H767  1  0.201000  0.552600  0.500600  1.0  0.1037
  H  H768  1  0.347800  0.547400  0.490700  1.0  0.0764
  H  H769  1  0.154000  0.294000  0.211200  1.0  0.1248
  H  H770  1  0.187800  0.372100  0.142600  1.0  0.113
  H  H771  1  0.368600  0.559300  0.400200  1.0  0.1057
  H  H772  1  0.302100  0.471100  0.553400  1.0  0.0744
  H  H773  1  0.331900  0.501700  0.449900  1.0  0.1089
  H  H774  1  0.270300  0.523000  0.378600  1.0  0.0869
  H  H775  1  0.335900  0.397900  0.244400  1.0  0.1094
  H  H776  1  0.231900  0.538200  0.496500  1.0  0.1719
  H  H777  1  0.352000  0.550900  0.261800  1.0  0.1241
  H  H778  1  0.369400  0.502700  0.222800  1.0  0.0867
  H  H779  1  0.136200  0.213500  0.065800  1.0  0.1087
  H  H780  1  0.271500  0.521700  0.243700  1.0  0.1285
  H  H781  1  0.365000  0.670500  0.573000  1.0  0.0961
  H  H782  1  0.318400  0.515600  0.600400  1.0  0.1242
  H  H783  1  0.257000  0.537800  0.472500  1.0  0.1158
  H  H784  1  0.186800  0.173300  0.049200  1.0  0.1209
  H  H785  1  0.369700  0.337100  0.405900  1.0  0.1275
  H  H786  1  0.330600  0.397000  0.499100  1.0  0.1174
  H  H787  1  0.130500  0.155300  0.008300  1.0  0.09
  H  H788  1  0.179600  0.102100  0.020000  1.0  0.1311
  H  H789  1  0.248000  0.405300  0.447500  1.0  0.1131
  H  H790  1  0.346800  0.263300  0.280800  1.0  0.109
  H  H791  1  0.247200  0.480900  0.253200  1.0  0.1029
  H  H792  1  0.302200  0.525900  0.379200  1.0  0.1156
  H  H793  1  0.347500  0.347400  0.457900  1.0  0.1228
  H  H794  1  0.302500  0.523400  0.246000  1.0  0.1152
  H  H795  1  0.280400  0.392500  0.449500  1.0  0.118
  H  H796  1  0.365000  0.356200  0.238700  1.0  0.1102
  H  H797  1  0.328600  0.312200  0.322900  1.0  0.113
  H  H798  1  0.387400  0.290700  0.363000  1.0  0.0909
  H  H799  1  0.287600  0.524700  0.477800  1.0  0.1087
  H  H800  1  0.243400  0.549300  0.369100  1.0  0.105
  H  H801  1  0.145300  0.213000  0.145400  1.0  0.3083
  H  H802  1  0.146600  0.254000  0.176800  1.0  0.3174
  H  H803  1  0.316900  0.870300  0.848000  1.0  0.1205
  H  H804  1  0.392800  0.145200  0.007500  1.0  0.0887
  H  H805  1  0.301200  0.924100  0.888600  1.0  0.0978
  H  H806  1  0.320400  0.943000  0.796100  1.0  0.0808
  H  H807  1  0.380000  0.810500  0.688900  1.0  0.0787
  H  H808  1  0.390200  0.917000  0.609400  1.0  0.102
  H  H809  1  0.367600  0.248300  0.959500  1.0  0.0585
  H  H810  1  0.316700  0.110100  0.839900  1.0  0.091
  H  H811  1  0.190900  0.944800  0.922600  1.0  0.1219
  H  H812  1  0.213000  0.036900  0.872500  1.0  0.1286
  H  H813  1  0.366400  0.084100  0.175800  1.0  0.1006
  H  H814  1  0.353100  0.014300  0.854200  1.0  0.1216
  H  H815  1  0.378100  0.095200  0.958700  1.0  0.1274
  H  H816  1  0.352900  0.205800  0.909600  1.0  0.1282
  H  H817  1  0.372800  0.963700  0.655600  1.0  0.1078
  H  H818  1  0.348300  0.033100  0.131600  1.0  0.1125
  H  H819  1  0.215600  0.966900  0.755600  1.0  0.1178
  H  H820  1  0.223000  0.925500  0.921800  1.0  0.1293
  H  H821  1  0.348500  0.119000  0.028800  1.0  0.1086
  H  H822  1  0.184800  0.927800  0.701300  1.0  0.1166
  H  H823  1  0.331200  0.156600  0.887900  1.0  0.1107
  H  H824  1  0.150700  0.847200  0.763400  1.0  0.1015
  H  H825  1  0.201000  0.052600  0.000600  1.0  0.1037
  H  H826  1  0.347800  0.047400  0.990700  1.0  0.0764
  H  H827  1  0.154000  0.794000  0.711200  1.0  0.1248
  H  H828  1  0.187800  0.872100  0.642600  1.0  0.113
  H  H829  1  0.368600  0.059300  0.900200  1.0  0.1035
  H  H830  1  0.302100  0.971100  0.053400  1.0  0.0744
  H  H831  1  0.331900  0.001700  0.949900  1.0  0.1089
  H  H832  1  0.270300  0.023000  0.878600  1.0  0.0869
  H  H833  1  0.335900  0.897900  0.744400  1.0  0.1094
  H  H834  1  0.231900  0.038200  0.996500  1.0  0.1719
  H  H835  1  0.352000  0.050900  0.761800  1.0  0.1241
  H  H836  1  0.369400  0.002700  0.722800  1.0  0.0867
  H  H837  1  0.136200  0.713500  0.565800  1.0  0.1087
  H  H838  1  0.271500  0.021700  0.743700  1.0  0.1285
  H  H839  1  0.365000  0.170500  0.073000  1.0  0.0961
  H  H840  1  0.318400  0.015600  0.100400  1.0  0.1242
  H  H841  1  0.257000  0.037800  0.972500  1.0  0.1158
  H  H842  1  0.186800  0.673300  0.549200  1.0  0.1209
  H  H843  1  0.369700  0.837100  0.905900  1.0  0.1275
  H  H844  1  0.330600  0.897000  0.999100  1.0  0.1178
  H  H845  1  0.130500  0.655300  0.508300  1.0  0.09
  H  H846  1  0.179600  0.602100  0.520000  1.0  0.134
  H  H847  1  0.248000  0.905300  0.947500  1.0  0.1131
  H  H848  1  0.346800  0.763300  0.780800  1.0  0.109
  H  H849  1  0.247200  0.980900  0.753200  1.0  0.1029
  H  H850  1  0.302200  0.025900  0.879200  1.0  0.1156
  H  H851  1  0.347500  0.847400  0.957900  1.0  0.1228
  H  H852  1  0.302500  0.023400  0.746000  1.0  0.1152
  H  H853  1  0.280400  0.892500  0.949500  1.0  0.118
  H  H854  1  0.365000  0.856200  0.738700  1.0  0.1102
  H  H855  1  0.328600  0.812200  0.822900  1.0  0.113
  H  H856  1  0.387400  0.790700  0.863000  1.0  0.0909
  H  H857  1  0.287600  0.024700  0.977800  1.0  0.1087
  H  H858  1  0.243400  0.049300  0.869100  1.0  0.105
  H  H859  1  0.145300  0.713000  0.645400  1.0  0.3083
  H  H860  1  0.146600  0.754000  0.676800  1.0  0.3174
  H  H861  1  0.816900  0.370300  0.848000  1.0  0.1205
  H  H862  1  0.892800  0.645200  0.007500  1.0  0.0887
  H  H863  1  0.801200  0.424100  0.888600  1.0  0.0978
  H  H864  1  0.820400  0.443000  0.796100  1.0  0.0808
  H  H865  1  0.880000  0.310500  0.688900  1.0  0.0787
  H  H866  1  0.890200  0.417000  0.609400  1.0  0.102
  H  H867  1  0.867600  0.748300  0.959500  1.0  0.0585
  H  H868  1  0.816700  0.610100  0.839900  1.0  0.091
  H  H869  1  0.690900  0.444800  0.922600  1.0  0.1219
  H  H870  1  0.713000  0.536900  0.872500  1.0  0.1286
  H  H871  1  0.866400  0.584100  0.175800  1.0  0.1006
  H  H872  1  0.853100  0.514300  0.854200  1.0  0.1216
  H  H873  1  0.878100  0.595200  0.958700  1.0  0.1262
  H  H874  1  0.852900  0.705800  0.909600  1.0  0.1282
  H  H875  1  0.872800  0.463700  0.655600  1.0  0.1078
  H  H876  1  0.848300  0.533100  0.131600  1.0  0.1125
  H  H877  1  0.715600  0.466900  0.755600  1.0  0.1178
  H  H878  1  0.723000  0.425500  0.921800  1.0  0.1293
  H  H879  1  0.848500  0.619000  0.028800  1.0  0.1086
  H  H880  1  0.684800  0.427800  0.701300  1.0  0.1166
  H  H881  1  0.831200  0.656600  0.887900  1.0  0.1107
  H  H882  1  0.650700  0.347200  0.763400  1.0  0.1015
  H  H883  1  0.701000  0.552600  0.000600  1.0  0.1037
  H  H884  1  0.847800  0.547400  0.990700  1.0  0.0764
  H  H885  1  0.654000  0.294000  0.711200  1.0  0.1248
  H  H886  1  0.687800  0.372100  0.642600  1.0  0.113
  H  H887  1  0.868600  0.559300  0.900200  1.0  0.1057
  H  H888  1  0.802100  0.471100  0.053400  1.0  0.0744
  H  H889  1  0.831900  0.501700  0.949900  1.0  0.1089
  H  H890  1  0.770300  0.523000  0.878600  1.0  0.0869
  H  H891  1  0.835900  0.397900  0.744400  1.0  0.1094
  H  H892  1  0.731900  0.538200  0.996500  1.0  0.1719
  H  H893  1  0.852000  0.550900  0.761800  1.0  0.1241
  H  H894  1  0.869400  0.502700  0.722800  1.0  0.0867
  H  H895  1  0.636200  0.213500  0.565800  1.0  0.1087
  H  H896  1  0.771500  0.521700  0.743700  1.0  0.1285
  H  H897  1  0.865000  0.670500  0.073000  1.0  0.0961
  H  H898  1  0.818400  0.515600  0.100400  1.0  0.1242
  H  H899  1  0.757000  0.537800  0.972500  1.0  0.1158
  H  H900  1  0.686800  0.173300  0.549200  1.0  0.1209
  H  H901  1  0.869700  0.337100  0.905900  1.0  0.1275
  H  H902  1  0.830600  0.397000  0.999100  1.0  0.1178
  H  H903  1  0.630500  0.155300  0.508300  1.0  0.09
  H  H904  1  0.679600  0.102100  0.520000  1.0  0.1311
  H  H905  1  0.748000  0.405300  0.947500  1.0  0.1131
  H  H906  1  0.846800  0.263300  0.780800  1.0  0.109
  H  H907  1  0.747200  0.480900  0.753200  1.0  0.1029
  H  H908  1  0.802200  0.525900  0.879200  1.0  0.1156
  H  H909  1  0.847500  0.347400  0.957900  1.0  0.1228
  H  H910  1  0.802500  0.523400  0.746000  1.0  0.1152
  H  H911  1  0.780400  0.392500  0.949500  1.0  0.118
  H  H912  1  0.865000  0.356200  0.738700  1.0  0.1102
  H  H913  1  0.828600  0.312200  0.822900  1.0  0.113
  H  H914  1  0.887400  0.290700  0.863000  1.0  0.0909
  H  H915  1  0.787600  0.524700  0.977800  1.0  0.1087
  H  H916  1  0.743400  0.549300  0.869100  1.0  0.105
  H  H917  1  0.645300  0.213000  0.645400  1.0  0.3083
  H  H918  1  0.646600  0.254000  0.676800  1.0  0.3174
  H  H919  1  0.816900  0.870300  0.348000  1.0  0.1205
  H  H920  1  0.892800  0.145200  0.507500  1.0  0.0887
  H  H921  1  0.801200  0.924100  0.388600  1.0  0.0978
  H  H922  1  0.820400  0.943000  0.296100  1.0  0.0808
  H  H923  1  0.880000  0.810500  0.188900  1.0  0.0787
  H  H924  1  0.890200  0.917000  0.109400  1.0  0.102
  H  H925  1  0.867600  0.248300  0.459500  1.0  0.0585
  H  H926  1  0.816700  0.110100  0.339900  1.0  0.091
  H  H927  1  0.690900  0.944800  0.422600  1.0  0.1219
  H  H928  1  0.713000  0.036900  0.372500  1.0  0.1286
  H  H929  1  0.866400  0.084100  0.675800  1.0  0.1006
  H  H930  1  0.853100  0.014300  0.354200  1.0  0.1216
  H  H931  1  0.878100  0.095200  0.458700  1.0  0.1274
  H  H932  1  0.852900  0.205800  0.409600  1.0  0.1282
  H  H933  1  0.872800  0.963700  0.155600  1.0  0.1078
  H  H934  1  0.848300  0.033100  0.631600  1.0  0.1125
  H  H935  1  0.715600  0.966900  0.255600  1.0  0.1178
  H  H936  1  0.723000  0.925500  0.421800  1.0  0.1293
  H  H937  1  0.848500  0.119000  0.528800  1.0  0.1086
  H  H938  1  0.684800  0.927800  0.201300  1.0  0.1166
  H  H939  1  0.831200  0.156600  0.387900  1.0  0.1107
  H  H940  1  0.650700  0.847200  0.263400  1.0  0.1015
  H  H941  1  0.701000  0.052600  0.500600  1.0  0.1037
  H  H942  1  0.847800  0.047400  0.490700  1.0  0.0764
  H  H943  1  0.654000  0.794000  0.211200  1.0  0.1248
  H  H944  1  0.687800  0.872100  0.142600  1.0  0.113
  H  H945  1  0.868600  0.059300  0.400200  1.0  0.1035
  H  H946  1  0.802100  0.971100  0.553400  1.0  0.0744
  H  H947  1  0.831900  0.001700  0.449900  1.0  0.1089
  H  H948  1  0.770300  0.023000  0.378600  1.0  0.0869
  H  H949  1  0.835900  0.897900  0.244400  1.0  0.1094
  H  H950  1  0.731900  0.038200  0.496500  1.0  0.1719
  H  H951  1  0.852000  0.050900  0.261800  1.0  0.1241
  H  H952  1  0.869400  0.002700  0.222800  1.0  0.0867
  H  H953  1  0.636200  0.713500  0.065800  1.0  0.1087
  H  H954  1  0.771500  0.021700  0.243700  1.0  0.1285
  H  H955  1  0.865000  0.170500  0.573000  1.0  0.0961
  H  H956  1  0.818400  0.015600  0.600400  1.0  0.1242
  H  H957  1  0.757000  0.037800  0.472500  1.0  0.1158
  H  H958  1  0.686800  0.673300  0.049200  1.0  0.1209
  H  H959  1  0.869700  0.837100  0.405900  1.0  0.1275
  H  H960  1  0.830600  0.897000  0.499100  1.0  0.1174
  H  H961  1  0.630500  0.655300  0.008300  1.0  0.09
  H  H962  1  0.679600  0.602100  0.020000  1.0  0.134
  H  H963  1  0.748000  0.905300  0.447500  1.0  0.1131
  H  H964  1  0.846800  0.763300  0.280800  1.0  0.109
  H  H965  1  0.747200  0.980900  0.253200  1.0  0.1029
  H  H966  1  0.802200  0.025900  0.379200  1.0  0.1156
  H  H967  1  0.847500  0.847400  0.457900  1.0  0.1228
  H  H968  1  0.802500  0.023400  0.246000  1.0  0.1152
  H  H969  1  0.780400  0.892500  0.449500  1.0  0.118
  H  H970  1  0.865000  0.856200  0.238700  1.0  0.1102
  H  H971  1  0.828600  0.812200  0.322900  1.0  0.113
  H  H972  1  0.887400  0.790700  0.363000  1.0  0.0909
  H  H973  1  0.787600  0.024700  0.477800  1.0  0.1087
  H  H974  1  0.743400  0.049300  0.369100  1.0  0.105
  H  H975  1  0.645300  0.713000  0.145400  1.0  0.3083
  H  H976  1  0.646600  0.754000  0.176800  1.0  0.3174
  C  C977  1  0.929720  0.127100  0.128300  1.0  -0.1719
  C  C978  1  0.865230  0.407600  0.235900  1.0  -0.0922
  C  C979  1  0.939400  0.158000  0.153000  1.0  -0.1409
  C  C980  1  0.919920  0.206000  0.029700  1.0  -0.147
  C  C981  1  0.871640  0.091700  0.931400  1.0  -0.1383
  C  C982  1  0.866000  0.154300  0.884500  1.0  -0.0379
  C  C983  1  0.916990  0.310100  0.089300  1.0  0.3707
  C  C984  1  0.855780  0.483400  0.265000  1.0  0.6659
  C  C985  1  0.879560  0.466700  0.208400  1.0  -0.122
  C  C986  1  0.916360  0.248800  0.035200  1.0  0.1314
  C  C987  1  0.945740  0.277000  0.061800  1.0  0.2543
  C  C988  1  0.855370  0.078500  0.862500  1.0  0.6822
  C  C989  1  0.922340  0.349700  0.101900  1.0  -0.1303
  C  C990  1  0.050490  0.214100  0.186200  1.0  -0.0227
  C  C991  1  0.086700  0.951400  0.811000  1.0  -0.002
  C  C992  1  0.037930  0.250100  0.063800  1.0  -0.1272
  C  C993  1  0.030160  0.275100  0.098200  1.0  -0.0993
  C  C994  1  0.887170  0.341100  0.395800  1.0  -0.0639
  C  C995  1  0.901050  0.294300  0.110200  1.0  -0.1702
  C  C996  1  0.874360  0.376900  0.207900  1.0  -0.2433
  C  C997  1  0.888970  0.441700  0.179800  1.0  -0.2279
  C  C998  1  0.020150  0.234200  0.208900  1.0  -0.0116
  C  C999  1  0.875960  0.182300  0.912700  1.0  -0.1648
  C  C1000  1  0.866950  0.452900  0.234900  1.0  0.0224
  C  C1001  1  0.894710  0.193200  0.979900  1.0  0.0707
  C  C1002  1  0.898110  0.311700  0.369700  1.0  -0.1216
  C  C1003  1  0.903380  0.324400  0.327600  1.0  0.1196
  C  C1004  1  0.028660  0.233600  0.029000  1.0  -0.1004
  C  C1005  1  0.031470  0.202200  0.186000  1.0  -0.1176
  C  C1006  1  0.914680  0.290300  0.299500  1.0  0.0576
  C  C1007  1  0.935990  0.166700  0.198100  1.0  0.223
  C  C1008  1  0.898320  0.361800  0.309100  1.0  -0.1661
  C  C1009  1  0.071610  0.149900  0.952600  1.0  0.1336
  C  C1010  1  0.913570  0.378000  0.130900  1.0  -0.1917
  C  C1011  1  0.079870  0.990600  0.836200  1.0  0.2428
  C  C1012  1  0.075460  0.268700  0.203000  1.0  0.6316
  C  C1013  1  0.001380  0.264900  0.060300  1.0  0.1094
  C  C1014  1  0.091330  0.102600  0.989000  1.0  0.1437
  C  C1015  1  0.880250  0.022600  0.069000  1.0  -0.0421
  C  C1016  1  0.044550  0.278800  0.232100  1.0  -0.0983
  C  C1017  1  0.058180  0.239900  0.063900  1.0  0.7184
  C  C1018  1  0.903380  0.075700  0.118000  1.0  0.009
  C  C1019  1  0.865030  0.106600  0.893000  1.0  0.0317
  C  C1020  1  0.935040  0.230000  0.249000  1.0  0.3409
  C  C1021  1  0.911760  0.281900  0.254900  1.0  -0.0975
  C  C1022  1  0.079120  0.076700  0.919900  1.0  0.1197
  C  C1023  1  0.000020  0.222100  0.211800  1.0  -0.0279
  C  C1024  1  0.089620  0.071700  0.957700  1.0  -0.13
  C  C1025  1  0.884070  0.164800  0.951100  1.0  0.0904
  C  C1026  1  0.963710  0.206100  0.218100  1.0  0.1988
  C  C1027  1  0.069860  0.116400  0.917500  1.0  -0.1088
  C  C1028  1  0.892180  0.320800  0.137600  1.0  -0.1142
  C  C1029  1  0.077660  0.048200  0.882900  1.0  0.2887
  C  C1030  1  0.915660  0.106700  0.146600  1.0  0.0066
  C  C1031  1  0.938050  0.236900  0.290800  1.0  -0.0879
  C  C1032  1  0.920940  0.255000  0.231000  1.0  -0.1993
  C  C1033  1  0.973390  0.272000  0.100800  1.0  -0.1278
  C  C1034  1  0.910090  0.177900  0.000300  1.0  -0.1712
  C  C1035  1  0.026190  0.268900  0.230900  1.0  -0.1311
  C  C1036  1  0.900650  0.269300  0.010300  1.0  -0.1849
  C  C1037  1  0.891030  0.240800  0.986800  1.0  -0.1252
  C  C1038  1  0.104700  0.944400  0.803500  1.0  -0.0941
  C  C1039  1  0.972370  0.271300  0.021900  1.0  -0.1906
  C  C1040  1  0.887970  0.391400  0.334800  1.0  -0.1134
  C  C1041  1  0.928870  0.264000  0.319100  1.0  -0.1843
  C  C1042  1  0.897620  0.367000  0.150400  1.0  -0.017
  C  C1043  1  0.982210  0.268000  0.063800  1.0  0.1105
  C  C1044  1  0.988500  0.257800  0.219400  1.0  -0.1457
  C  C1045  1  0.075600  0.916900  0.796000  1.0  -0.0752
  C  C1046  1  0.885060  0.071400  0.130500  1.0  -0.1866
  C  C1047  1  0.871000  0.413300  0.401600  1.0  0.686
  C  C1048  1  0.921980  0.142600  0.217900  1.0  -0.1644
  C  C1049  1  0.108600  0.904700  0.774800  1.0  0.1367
  C  C1050  1  0.882230  0.379800  0.374900  1.0  -0.0678
  C  C1051  1  0.079200  0.874000  0.777100  1.0  0.1097
  C  C1052  1  0.886890  0.394400  0.179500  1.0  0.1144
  C  C1053  1  0.993970  0.179400  0.204100  1.0  -0.1214
  C  C1054  1  0.898540  0.028600  0.056500  1.0  -0.1208
  C  C1055  1  0.009580  0.242100  0.027900  1.0  -0.1261
  C  C1056  1  0.055390  0.254000  0.206800  1.0  -0.1129
  C  C1057  1  0.954210  0.275200  0.101400  1.0  -0.1653
  C  C1058  1  0.911990  0.113500  0.193800  1.0  -0.1513
  C  C1059  1  0.954120  0.273900  0.023400  1.0  -0.1168
  C  C1060  1  0.870370  0.992600  0.040800  1.0  0.4594
  C  C1061  1  0.974400  0.171600  0.206300  1.0  -0.1427
  C  C1062  1  0.880790  0.118700  0.961100  1.0  -0.2249
  C  C1063  1  0.909450  0.056800  0.082100  1.0  -0.1444
  C  C1064  1  0.874710  0.044200  0.104600  1.0  -0.0726
  C  C1065  1  0.970280  0.250000  0.222600  1.0  -0.1699
  C  C1066  1  0.012150  0.282100  0.095800  1.0  -0.0957
  C  C1067  1  0.929720  0.627100  0.628300  1.0  -0.1719
  C  C1068  1  0.865230  0.907600  0.735900  1.0  -0.0922
  C  C1069  1  0.939400  0.658000  0.653000  1.0  -0.141
  C  C1070  1  0.919920  0.706000  0.529700  1.0  -0.147
  C  C1071  1  0.871640  0.591700  0.431400  1.0  -0.1383
  C  C1072  1  0.866000  0.654300  0.384500  1.0  -0.0379
  C  C1073  1  0.916990  0.810100  0.589300  1.0  0.3707
  C  C1074  1  0.855780  0.983400  0.765000  1.0  0.6659
  C  C1075  1  0.879560  0.966700  0.708400  1.0  -0.122
  C  C1076  1  0.916360  0.748800  0.535200  1.0  0.1314
  C  C1077  1  0.945740  0.777000  0.561800  1.0  0.2543
  C  C1078  1  0.855370  0.578500  0.362500  1.0  0.6822
  C  C1079  1  0.922340  0.849700  0.601900  1.0  -0.1303
  C  C1080  1  0.050490  0.714100  0.686200  1.0  -0.0227
  C  C1081  1  0.086700  0.451400  0.311000  1.0  -0.002
  C  C1082  1  0.037930  0.750100  0.563800  1.0  -0.1272
  C  C1083  1  0.030160  0.775100  0.598200  1.0  -0.0993
  C  C1084  1  0.887170  0.841100  0.895800  1.0  -0.0639
  C  C1085  1  0.901050  0.794300  0.610200  1.0  -0.1702
  C  C1086  1  0.874360  0.876900  0.707900  1.0  -0.2433
  C  C1087  1  0.888970  0.941700  0.679800  1.0  -0.2279
  C  C1088  1  0.020150  0.734200  0.708900  1.0  -0.0116
  C  C1089  1  0.875960  0.682300  0.412700  1.0  -0.1648
  C  C1090  1  0.866950  0.952900  0.734900  1.0  0.0224
  C  C1091  1  0.894710  0.693200  0.479900  1.0  0.0707
  C  C1092  1  0.898110  0.811700  0.869700  1.0  -0.1216
  C  C1093  1  0.903380  0.824400  0.827600  1.0  0.1196
  C  C1094  1  0.028660  0.733600  0.529000  1.0  -0.1004
  C  C1095  1  0.031470  0.702200  0.686000  1.0  -0.1176
  C  C1096  1  0.914680  0.790300  0.799500  1.0  0.0576
  C  C1097  1  0.935990  0.666667  0.698100  1.0  0.2229
  C  C1098  1  0.898320  0.861800  0.809100  1.0  -0.1661
  C  C1099  1  0.071610  0.649900  0.452600  1.0  0.1336
  C  C1100  1  0.913570  0.878000  0.630900  1.0  -0.1917
  C  C1101  1  0.079870  0.490600  0.336200  1.0  0.2428
  C  C1102  1  0.075460  0.768700  0.703000  1.0  0.6316
  C  C1103  1  0.001380  0.764900  0.560300  1.0  0.1094
  C  C1104  1  0.091330  0.602600  0.489000  1.0  0.1437
  C  C1105  1  0.880250  0.522600  0.569000  1.0  -0.0421
  C  C1106  1  0.044550  0.778800  0.732100  1.0  -0.0983
  C  C1107  1  0.058180  0.739900  0.563900  1.0  0.7184
  C  C1108  1  0.903380  0.575700  0.618000  1.0  0.009
  C  C1109  1  0.865030  0.606600  0.393000  1.0  0.0317
  C  C1110  1  0.935040  0.730000  0.749000  1.0  0.3409
  C  C1111  1  0.911760  0.781900  0.754900  1.0  -0.0975
  C  C1112  1  0.079120  0.576700  0.419900  1.0  0.1197
  C  C1113  1  0.000020  0.722100  0.711800  1.0  -0.0279
  C  C1114  1  0.089620  0.571700  0.457700  1.0  -0.13
  C  C1115  1  0.884070  0.664800  0.451100  1.0  0.0904
  C  C1116  1  0.963710  0.706100  0.718100  1.0  0.1988
  C  C1117  1  0.069860  0.616400  0.417500  1.0  -0.1088
  C  C1118  1  0.892180  0.820800  0.637600  1.0  -0.1142
  C  C1119  1  0.077660  0.548200  0.382900  1.0  0.2887
  C  C1120  1  0.915660  0.606700  0.646600  1.0  0.0066
  C  C1121  1  0.938050  0.736900  0.790800  1.0  -0.0879
  C  C1122  1  0.920940  0.755000  0.731000  1.0  -0.1993
  C  C1123  1  0.973390  0.772000  0.600800  1.0  -0.1278
  C  C1124  1  0.910090  0.677900  0.500300  1.0  -0.1712
  C  C1125  1  0.026190  0.768900  0.730900  1.0  -0.1311
  C  C1126  1  0.900650  0.769300  0.510300  1.0  -0.1849
  C  C1127  1  0.891030  0.740800  0.486800  1.0  -0.1252
  C  C1128  1  0.104700  0.444400  0.303500  1.0  -0.0941
  C  C1129  1  0.972370  0.771300  0.521900  1.0  -0.1906
  C  C1130  1  0.887970  0.891400  0.834800  1.0  -0.1134
  C  C1131  1  0.928870  0.764000  0.819100  1.0  -0.1843
  C  C1132  1  0.897620  0.867000  0.650400  1.0  -0.017
  C  C1133  1  0.982210  0.768000  0.563800  1.0  0.1105
  C  C1134  1  0.988500  0.757800  0.719400  1.0  -0.1457
  C  C1135  1  0.075600  0.416900  0.296000  1.0  -0.0752
  C  C1136  1  0.885060  0.571400  0.630500  1.0  -0.1866
  C  C1137  1  0.871000  0.913300  0.901600  1.0  0.686
  C  C1138  1  0.921980  0.642600  0.717900  1.0  -0.1643
  C  C1139  1  0.108600  0.404700  0.274800  1.0  0.1367
  C  C1140  1  0.882230  0.879800  0.874900  1.0  -0.0678
  C  C1141  1  0.079200  0.374000  0.277100  1.0  0.1097
  C  C1142  1  0.886890  0.894400  0.679500  1.0  0.1144
  C  C1143  1  0.993970  0.679400  0.704100  1.0  -0.1214
  C  C1144  1  0.898540  0.528600  0.556500  1.0  -0.1208
  C  C1145  1  0.009580  0.742100  0.527900  1.0  -0.1261
  C  C1146  1  0.055390  0.754000  0.706800  1.0  -0.1129
  C  C1147  1  0.954210  0.775200  0.601400  1.0  -0.1653
  C  C1148  1  0.911990  0.613500  0.693800  1.0  -0.1513
  C  C1149  1  0.954120  0.773900  0.523400  1.0  -0.1168
  C  C1150  1  0.870370  0.492600  0.540800  1.0  0.4594
  C  C1151  1  0.974400  0.671600  0.706300  1.0  -0.1427
  C  C1152  1  0.880790  0.618700  0.461100  1.0  -0.2249
  C  C1153  1  0.909450  0.556800  0.582100  1.0  -0.1444
  C  C1154  1  0.874710  0.544200  0.604600  1.0  -0.0726
  C  C1155  1  0.970280  0.750000  0.722600  1.0  -0.1699
  C  C1156  1  0.012150  0.782100  0.595800  1.0  -0.0957
  C  C1157  1  0.429720  0.127100  0.628300  1.0  -0.1719
  C  C1158  1  0.365230  0.407600  0.735900  1.0  -0.0922
  C  C1159  1  0.439400  0.158000  0.653000  1.0  -0.1409
  C  C1160  1  0.419920  0.206000  0.529700  1.0  -0.147
  C  C1161  1  0.371640  0.091700  0.431400  1.0  -0.1383
  C  C1162  1  0.366000  0.154300  0.384500  1.0  -0.0379
  C  C1163  1  0.416990  0.310100  0.589300  1.0  0.3707
  C  C1164  1  0.355780  0.483400  0.765000  1.0  0.6659
  C  C1165  1  0.379560  0.466700  0.708400  1.0  -0.122
  C  C1166  1  0.416360  0.248800  0.535200  1.0  0.1314
  C  C1167  1  0.445740  0.277000  0.561800  1.0  0.2543
  C  C1168  1  0.355370  0.078500  0.362500  1.0  0.6822
  C  C1169  1  0.422340  0.349700  0.601900  1.0  -0.1303
  C  C1170  1  0.550490  0.214100  0.686200  1.0  -0.0227
  C  C1171  1  0.586700  0.951400  0.311000  1.0  -0.002
  C  C1172  1  0.537930  0.250100  0.563800  1.0  -0.1272
  C  C1173  1  0.530160  0.275100  0.598200  1.0  -0.0993
  C  C1174  1  0.387170  0.341100  0.895800  1.0  -0.0639
  C  C1175  1  0.401050  0.294300  0.610200  1.0  -0.1702
  C  C1176  1  0.374360  0.376900  0.707900  1.0  -0.2433
  C  C1177  1  0.388970  0.441700  0.679800  1.0  -0.2279
  C  C1178  1  0.520150  0.234200  0.708900  1.0  -0.0116
  C  C1179  1  0.375960  0.182300  0.412700  1.0  -0.1648
  C  C1180  1  0.366950  0.452900  0.734900  1.0  0.0224
  C  C1181  1  0.394710  0.193200  0.479900  1.0  0.0707
  C  C1182  1  0.398110  0.311700  0.869700  1.0  -0.1216
  C  C1183  1  0.403380  0.324400  0.827600  1.0  0.1196
  C  C1184  1  0.528660  0.233600  0.529000  1.0  -0.1004
  C  C1185  1  0.531470  0.202200  0.686000  1.0  -0.1176
  C  C1186  1  0.414680  0.290300  0.799500  1.0  0.0576
  C  C1187  1  0.435990  0.166700  0.698100  1.0  0.223
  C  C1188  1  0.398320  0.361800  0.809100  1.0  -0.1661
  C  C1189  1  0.571610  0.149900  0.452600  1.0  0.1336
  C  C1190  1  0.413570  0.378000  0.630900  1.0  -0.1917
  C  C1191  1  0.579870  0.990600  0.336200  1.0  0.2428
  C  C1192  1  0.575460  0.268700  0.703000  1.0  0.6316
  C  C1193  1  0.501380  0.264900  0.560300  1.0  0.1094
  C  C1194  1  0.591330  0.102600  0.489000  1.0  0.1437
  C  C1195  1  0.380250  0.022600  0.569000  1.0  -0.0421
  C  C1196  1  0.544550  0.278800  0.732100  1.0  -0.0983
  C  C1197  1  0.558180  0.239900  0.563900  1.0  0.7184
  C  C1198  1  0.403380  0.075700  0.618000  1.0  0.009
  C  C1199  1  0.365030  0.106600  0.393000  1.0  0.0317
  C  C1200  1  0.435040  0.230000  0.749000  1.0  0.3409
  C  C1201  1  0.411760  0.281900  0.754900  1.0  -0.0975
  C  C1202  1  0.579120  0.076700  0.419900  1.0  0.1197
  C  C1203  1  0.500020  0.222100  0.711800  1.0  -0.0279
  C  C1204  1  0.589620  0.071700  0.457700  1.0  -0.13
  C  C1205  1  0.384070  0.164800  0.451100  1.0  0.0904
  C  C1206  1  0.463710  0.206100  0.718100  1.0  0.1988
  C  C1207  1  0.569860  0.116400  0.417500  1.0  -0.1088
  C  C1208  1  0.392180  0.320800  0.637600  1.0  -0.1142
  C  C1209  1  0.577660  0.048200  0.382900  1.0  0.2887
  C  C1210  1  0.415660  0.106700  0.646600  1.0  0.0066
  C  C1211  1  0.438050  0.236900  0.790800  1.0  -0.0879
  C  C1212  1  0.420940  0.255000  0.731000  1.0  -0.1993
  C  C1213  1  0.473390  0.272000  0.600800  1.0  -0.1278
  C  C1214  1  0.410090  0.177900  0.500300  1.0  -0.1712
  C  C1215  1  0.526190  0.268900  0.730900  1.0  -0.1311
  C  C1216  1  0.400650  0.269300  0.510300  1.0  -0.1849
  C  C1217  1  0.391030  0.240800  0.486800  1.0  -0.1252
  C  C1218  1  0.604700  0.944400  0.303500  1.0  -0.0941
  C  C1219  1  0.472370  0.271300  0.521900  1.0  -0.1906
  C  C1220  1  0.387970  0.391400  0.834800  1.0  -0.1134
  C  C1221  1  0.428870  0.264000  0.819100  1.0  -0.1843
  C  C1222  1  0.397620  0.367000  0.650400  1.0  -0.017
  C  C1223  1  0.482210  0.268000  0.563800  1.0  0.1105
  C  C1224  1  0.488500  0.257800  0.719400  1.0  -0.1457
  C  C1225  1  0.575600  0.916900  0.296000  1.0  -0.0752
  C  C1226  1  0.385060  0.071400  0.630500  1.0  -0.1866
  C  C1227  1  0.371000  0.413300  0.901600  1.0  0.686
  C  C1228  1  0.421980  0.142600  0.717900  1.0  -0.1644
  C  C1229  1  0.608600  0.904700  0.274800  1.0  0.1367
  C  C1230  1  0.382230  0.379800  0.874900  1.0  -0.0678
  C  C1231  1  0.579200  0.874000  0.277100  1.0  0.1097
  C  C1232  1  0.386890  0.394400  0.679500  1.0  0.1144
  C  C1233  1  0.493970  0.179400  0.704100  1.0  -0.1214
  C  C1234  1  0.398540  0.028600  0.556500  1.0  -0.1208
  C  C1235  1  0.509580  0.242100  0.527900  1.0  -0.1261
  C  C1236  1  0.555390  0.254000  0.706800  1.0  -0.1129
  C  C1237  1  0.454210  0.275200  0.601400  1.0  -0.1653
  C  C1238  1  0.411990  0.113500  0.693800  1.0  -0.1513
  C  C1239  1  0.454120  0.273900  0.523400  1.0  -0.1168
  C  C1240  1  0.370370  0.992600  0.540800  1.0  0.4594
  C  C1241  1  0.474400  0.171600  0.706300  1.0  -0.1427
  C  C1242  1  0.380790  0.118700  0.461100  1.0  -0.2249
  C  C1243  1  0.409450  0.056800  0.582100  1.0  -0.1444
  C  C1244  1  0.374710  0.044200  0.604600  1.0  -0.0726
  C  C1245  1  0.470280  0.250000  0.722600  1.0  -0.1699
  C  C1246  1  0.512150  0.282100  0.595800  1.0  -0.0957
  C  C1247  1  0.429720  0.627100  0.128300  1.0  -0.1719
  C  C1248  1  0.365230  0.907600  0.235900  1.0  -0.0922
  C  C1249  1  0.439400  0.658000  0.153000  1.0  -0.141
  C  C1250  1  0.419920  0.706000  0.029700  1.0  -0.147
  C  C1251  1  0.371640  0.591700  0.931400  1.0  -0.1383
  C  C1252  1  0.366000  0.654300  0.884500  1.0  -0.0379
  C  C1253  1  0.416990  0.810100  0.089300  1.0  0.3707
  C  C1254  1  0.355780  0.983400  0.265000  1.0  0.6659
  C  C1255  1  0.379560  0.966700  0.208400  1.0  -0.122
  C  C1256  1  0.416360  0.748800  0.035200  1.0  0.1314
  C  C1257  1  0.445740  0.777000  0.061800  1.0  0.2543
  C  C1258  1  0.355370  0.578500  0.862500  1.0  0.6822
  C  C1259  1  0.422340  0.849700  0.101900  1.0  -0.1303
  C  C1260  1  0.550490  0.714100  0.186200  1.0  -0.0227
  C  C1261  1  0.586700  0.451400  0.811000  1.0  -0.002
  C  C1262  1  0.537930  0.750100  0.063800  1.0  -0.1272
  C  C1263  1  0.530160  0.775100  0.098200  1.0  -0.0993
  C  C1264  1  0.387170  0.841100  0.395800  1.0  -0.0639
  C  C1265  1  0.401050  0.794300  0.110200  1.0  -0.1702
  C  C1266  1  0.374360  0.876900  0.207900  1.0  -0.2433
  C  C1267  1  0.388970  0.941700  0.179800  1.0  -0.2279
  C  C1268  1  0.520150  0.734200  0.208900  1.0  -0.0116
  C  C1269  1  0.375960  0.682300  0.912700  1.0  -0.1648
  C  C1270  1  0.366950  0.952900  0.234900  1.0  0.0224
  C  C1271  1  0.394710  0.693200  0.979900  1.0  0.0707
  C  C1272  1  0.398110  0.811700  0.369700  1.0  -0.1216
  C  C1273  1  0.403380  0.824400  0.327600  1.0  0.1196
  C  C1274  1  0.528660  0.733600  0.029000  1.0  -0.1004
  C  C1275  1  0.531470  0.702200  0.186000  1.0  -0.1176
  C  C1276  1  0.414680  0.790300  0.299500  1.0  0.0576
  C  C1277  1  0.435990  0.666667  0.198100  1.0  0.2229
  C  C1278  1  0.398320  0.861800  0.309100  1.0  -0.1661
  C  C1279  1  0.571610  0.649900  0.952600  1.0  0.1336
  C  C1280  1  0.413570  0.878000  0.130900  1.0  -0.1917
  C  C1281  1  0.579870  0.490600  0.836200  1.0  0.2428
  C  C1282  1  0.575460  0.768700  0.203000  1.0  0.6316
  C  C1283  1  0.501380  0.764900  0.060300  1.0  0.1094
  C  C1284  1  0.591330  0.602600  0.989000  1.0  0.1437
  C  C1285  1  0.380250  0.522600  0.069000  1.0  -0.0421
  C  C1286  1  0.544550  0.778800  0.232100  1.0  -0.0983
  C  C1287  1  0.558180  0.739900  0.063900  1.0  0.7184
  C  C1288  1  0.403380  0.575700  0.118000  1.0  0.009
  C  C1289  1  0.365030  0.606600  0.893000  1.0  0.0317
  C  C1290  1  0.435040  0.730000  0.249000  1.0  0.3409
  C  C1291  1  0.411760  0.781900  0.254900  1.0  -0.0975
  C  C1292  1  0.579120  0.576700  0.919900  1.0  0.1197
  C  C1293  1  0.500020  0.722100  0.211800  1.0  -0.0279
  C  C1294  1  0.589620  0.571700  0.957700  1.0  -0.13
  C  C1295  1  0.384070  0.664800  0.951100  1.0  0.0904
  C  C1296  1  0.463710  0.706100  0.218100  1.0  0.1988
  C  C1297  1  0.569860  0.616400  0.917500  1.0  -0.1088
  C  C1298  1  0.392180  0.820800  0.137600  1.0  -0.1142
  C  C1299  1  0.577660  0.548200  0.882900  1.0  0.2887
  C  C1300  1  0.415660  0.606700  0.146600  1.0  0.0066
  C  C1301  1  0.438050  0.736900  0.290800  1.0  -0.0879
  C  C1302  1  0.420940  0.755000  0.231000  1.0  -0.1993
  C  C1303  1  0.473390  0.772000  0.100800  1.0  -0.1278
  C  C1304  1  0.410090  0.677900  0.000300  1.0  -0.1712
  C  C1305  1  0.526190  0.768900  0.230900  1.0  -0.1311
  C  C1306  1  0.400650  0.769300  0.010300  1.0  -0.1849
  C  C1307  1  0.391030  0.740800  0.986800  1.0  -0.1252
  C  C1308  1  0.604700  0.444400  0.803500  1.0  -0.0941
  C  C1309  1  0.472370  0.771300  0.021900  1.0  -0.1906
  C  C1310  1  0.387970  0.891400  0.334800  1.0  -0.1134
  C  C1311  1  0.428870  0.764000  0.319100  1.0  -0.1843
  C  C1312  1  0.397620  0.867000  0.150400  1.0  -0.017
  C  C1313  1  0.482210  0.768000  0.063800  1.0  0.1105
  C  C1314  1  0.488500  0.757800  0.219400  1.0  -0.1457
  C  C1315  1  0.575600  0.416900  0.796000  1.0  -0.0752
  C  C1316  1  0.385060  0.571400  0.130500  1.0  -0.1866
  C  C1317  1  0.371000  0.913300  0.401600  1.0  0.686
  C  C1318  1  0.421980  0.642600  0.217900  1.0  -0.1643
  C  C1319  1  0.608600  0.404700  0.774800  1.0  0.1367
  C  C1320  1  0.382230  0.879800  0.374900  1.0  -0.0678
  C  C1321  1  0.579200  0.374000  0.777100  1.0  0.1097
  C  C1322  1  0.386890  0.894400  0.179500  1.0  0.1144
  C  C1323  1  0.493970  0.679400  0.204100  1.0  -0.1214
  C  C1324  1  0.398540  0.528600  0.056500  1.0  -0.1208
  C  C1325  1  0.509580  0.742100  0.027900  1.0  -0.1261
  C  C1326  1  0.555390  0.754000  0.206800  1.0  -0.1129
  C  C1327  1  0.454210  0.775200  0.101400  1.0  -0.1653
  C  C1328  1  0.411990  0.613500  0.193800  1.0  -0.1513
  C  C1329  1  0.454120  0.773900  0.023400  1.0  -0.1168
  C  C1330  1  0.370370  0.492600  0.040800  1.0  0.4594
  C  C1331  1  0.474400  0.671600  0.206300  1.0  -0.1427
  C  C1332  1  0.380790  0.618700  0.961100  1.0  -0.2249
  C  C1333  1  0.409450  0.556800  0.082100  1.0  -0.1444
  C  C1334  1  0.374710  0.544200  0.104600  1.0  -0.0726
  C  C1335  1  0.470280  0.750000  0.222600  1.0  -0.1699
  C  C1336  1  0.512150  0.782100  0.095800  1.0  -0.0957
  C  C1337  1  0.179720  0.122900  0.378300  1.0  -0.1724
  C  C1338  1  0.115230  0.842400  0.485900  1.0  -0.0921
  C  C1339  1  0.189400  0.092000  0.403000  1.0  -0.1411
  C  C1340  1  0.169920  0.044000  0.279700  1.0  -0.1476
  C  C1341  1  0.121640  0.158300  0.181400  1.0  -0.1377
  C  C1342  1  0.116000  0.095700  0.134500  1.0  -0.0385
  C  C1343  1  0.166990  0.939900  0.339300  1.0  0.3709
  C  C1344  1  0.105780  0.766600  0.515000  1.0  0.6658
  C  C1345  1  0.129560  0.783300  0.458400  1.0  -0.1233
  C  C1346  1  0.166360  0.001200  0.285200  1.0  0.1311
  C  C1347  1  0.195740  0.973000  0.311800  1.0  0.2544
  C  C1348  1  0.105370  0.171500  0.112500  1.0  0.6825
  C  C1349  1  0.172340  0.900300  0.351900  1.0  -0.1307
  C  C1350  1  0.300490  0.035900  0.436200  1.0  -0.0227
  C  C1351  1  0.336700  0.298600  0.061000  1.0  -0.0016
  C  C1352  1  0.287930  0.999900  0.313800  1.0  -0.127
  C  C1353  1  0.280160  0.974900  0.348200  1.0  -0.0984
  C  C1354  1  0.137170  0.908900  0.645800  1.0  -0.0628
  C  C1355  1  0.151050  0.955700  0.360200  1.0  -0.1722
  C  C1356  1  0.124360  0.873100  0.457900  1.0  -0.2462
  C  C1357  1  0.138970  0.808300  0.429800  1.0  -0.2272
  C  C1358  1  0.270150  0.015800  0.458900  1.0  -0.0113
  C  C1359  1  0.125960  0.067700  0.162700  1.0  -0.1662
  C  C1360  1  0.116950  0.797100  0.484900  1.0  0.0233
  C  C1361  1  0.144710  0.056800  0.229900  1.0  0.0709
  C  C1362  1  0.148110  0.938300  0.619700  1.0  -0.1209
  C  C1363  1  0.153380  0.925600  0.577600  1.0  0.1205
  C  C1364  1  0.278660  0.016400  0.279000  1.0  -0.1001
  C  C1365  1  0.281470  0.047800  0.436000  1.0  -0.1161
  C  C1366  1  0.164680  0.959700  0.549500  1.0  0.0575
  C  C1367  1  0.185990  0.083300  0.448100  1.0  0.2225
  C  C1368  1  0.148320  0.888200  0.559100  1.0  -0.1672
  C  C1369  1  0.321610  0.100100  0.202600  1.0  0.1329
  C  C1370  1  0.163570  0.872000  0.380900  1.0  -0.1905
  C  C1371  1  0.329870  0.259400  0.086200  1.0  0.2439
  C  C1372  1  0.325460  0.981300  0.453000  1.0  0.6316
  C  C1373  1  0.251380  0.985100  0.310300  1.0  0.1088
  C  C1374  1  0.341330  0.147400  0.239000  1.0  0.1439
  C  C1375  1  0.130250  0.227400  0.319000  1.0  -0.0427
  C  C1376  1  0.294550  0.971200  0.482100  1.0  -0.0967
  C  C1377  1  0.308180  0.010100  0.313900  1.0  0.7193
  C  C1378  1  0.153380  0.174300  0.368000  1.0  0.0094
  C  C1379  1  0.115030  0.143400  0.143000  1.0  0.0313
  C  C1380  1  0.185040  0.020000  0.499000  1.0  0.341
  C  C1381  1  0.161760  0.968100  0.504900  1.0  -0.0978
  C  C1382  1  0.329120  0.173300  0.169900  1.0  0.1199
  C  C1383  1  0.250020  0.027900  0.461800  1.0  -0.0275
  C  C1384  1  0.339620  0.178300  0.207700  1.0  -0.1314
  C  C1385  1  0.134070  0.085200  0.201100  1.0  0.0905
  C  C1386  1  0.213710  0.043900  0.468100  1.0  0.1992
  C  C1387  1  0.319860  0.133600  0.167500  1.0  -0.1086
  C  C1388  1  0.142180  0.929200  0.387600  1.0  -0.1143
  C  C1389  1  0.327660  0.201800  0.132900  1.0  0.2889
  C  C1390  1  0.165660  0.143300  0.396600  1.0  0.0069
  C  C1391  1  0.188050  0.013100  0.540800  1.0  -0.089
  C  C1392  1  0.170940  0.995000  0.481000  1.0  -0.1991
  C  C1393  1  0.223390  0.978000  0.350800  1.0  -0.1279
  C  C1394  1  0.160090  0.072100  0.250300  1.0  -0.1728
  C  C1395  1  0.276190  0.981100  0.480900  1.0  -0.1309
  C  C1396  1  0.150650  0.980700  0.260300  1.0  -0.1845
  C  C1397  1  0.141030  0.009200  0.236800  1.0  -0.1246
  C  C1398  1  0.354700  0.305600  0.053500  1.0  -0.0942
  C  C1399  1  0.222370  0.978700  0.271900  1.0  -0.1906
  C  C1400  1  0.137970  0.858600  0.584800  1.0  -0.113
  C  C1401  1  0.178870  0.986000  0.569100  1.0  -0.1851
  C  C1402  1  0.147620  0.883000  0.400400  1.0  -0.017
  C  C1403  1  0.232210  0.982000  0.313800  1.0  0.1107
  C  C1404  1  0.238500  0.992200  0.469400  1.0  -0.1443
  C  C1405  1  0.325600  0.333100  0.046000  1.0  -0.0755
  C  C1406  1  0.135060  0.178600  0.380500  1.0  -0.1847
  C  C1407  1  0.121000  0.836700  0.651600  1.0  0.6855
  C  C1408  1  0.171980  0.107400  0.467900  1.0  -0.1627
  C  C1409  1  0.358600  0.345300  0.024800  1.0  0.1371
  C  C1410  1  0.132230  0.870200  0.624900  1.0  -0.0672
  C  C1411  1  0.329200  0.376000  0.027100  1.0  0.1098
  C  C1412  1  0.136890  0.855600  0.429500  1.0  0.1144
  C  C1413  1  0.243970  0.070600  0.454100  1.0  -0.1212
  C  C1414  1  0.148540  0.221400  0.306500  1.0  -0.1206
  C  C1415  1  0.259580  0.007900  0.277900  1.0  -0.1255
  C  C1416  1  0.305390  0.996000  0.456800  1.0  -0.1131
  C  C1417  1  0.204210  0.974800  0.351400  1.0  -0.165
  C  C1418  1  0.161990  0.136500  0.443800  1.0  -0.1517
  C  C1419  1  0.204120  0.976100  0.273400  1.0  -0.117
  C  C1420  1  0.120370  0.257400  0.290800  1.0  0.4596
  C  C1421  1  0.224400  0.078400  0.456300  1.0  -0.1426
  C  C1422  1  0.130790  0.131300  0.211100  1.0  -0.2248
  C  C1423  1  0.159450  0.193200  0.332100  1.0  -0.144
  C  C1424  1  0.124710  0.205800  0.354600  1.0  -0.0722
  C  C1425  1  0.220280  0.000000  0.472600  1.0  -0.1691
  C  C1426  1  0.262150  0.967900  0.345800  1.0  -0.0952
  C  C1427  1  0.179720  0.622900  0.878300  1.0  -0.1724
  C  C1428  1  0.115230  0.342400  0.985900  1.0  -0.0921
  C  C1429  1  0.189400  0.592000  0.903000  1.0  -0.1411
  C  C1430  1  0.169920  0.544000  0.779700  1.0  -0.1476
  C  C1431  1  0.121640  0.658300  0.681400  1.0  -0.1377
  C  C1432  1  0.116000  0.595700  0.634500  1.0  -0.0385
  C  C1433  1  0.166990  0.439900  0.839300  1.0  0.3709
  C  C1434  1  0.105780  0.266600  0.015000  1.0  0.6658
  C  C1435  1  0.129560  0.283300  0.958400  1.0  -0.1233
  C  C1436  1  0.166360  0.501200  0.785200  1.0  0.1311
  C  C1437  1  0.195740  0.473000  0.811800  1.0  0.2544
  C  C1438  1  0.105370  0.671500  0.612500  1.0  0.6825
  C  C1439  1  0.172340  0.400300  0.851900  1.0  -0.1307
  C  C1440  1  0.300490  0.535900  0.936200  1.0  -0.0227
  C  C1441  1  0.336700  0.798600  0.561000  1.0  -0.0016
  C  C1442  1  0.287930  0.499900  0.813800  1.0  -0.127
  C  C1443  1  0.280160  0.474900  0.848200  1.0  -0.0984
  C  C1444  1  0.137170  0.408900  0.145800  1.0  -0.0628
  C  C1445  1  0.151050  0.455700  0.860200  1.0  -0.1722
  C  C1446  1  0.124360  0.373100  0.957900  1.0  -0.2462
  C  C1447  1  0.138970  0.308300  0.929800  1.0  -0.2272
  C  C1448  1  0.270150  0.515800  0.958900  1.0  -0.0113
  C  C1449  1  0.125960  0.567700  0.662700  1.0  -0.1662
  C  C1450  1  0.116950  0.297100  0.984900  1.0  0.0233
  C  C1451  1  0.144710  0.556800  0.729900  1.0  0.0709
  C  C1452  1  0.148110  0.438300  0.119700  1.0  -0.1209
  C  C1453  1  0.153380  0.425600  0.077600  1.0  0.1205
  C  C1454  1  0.278660  0.516400  0.779000  1.0  -0.1001
  C  C1455  1  0.281470  0.547800  0.936000  1.0  -0.1161
  C  C1456  1  0.164680  0.459700  0.049500  1.0  0.0575
  C  C1457  1  0.185990  0.583300  0.948100  1.0  0.2225
  C  C1458  1  0.148320  0.388200  0.059100  1.0  -0.1672
  C  C1459  1  0.321610  0.600100  0.702600  1.0  0.1329
  C  C1460  1  0.163570  0.372000  0.880900  1.0  -0.1905
  C  C1461  1  0.329870  0.759400  0.586200  1.0  0.2439
  C  C1462  1  0.325460  0.481300  0.953000  1.0  0.6316
  C  C1463  1  0.251380  0.485100  0.810300  1.0  0.1088
  C  C1464  1  0.341330  0.647400  0.739000  1.0  0.1439
  C  C1465  1  0.130250  0.727400  0.819000  1.0  -0.0427
  C  C1466  1  0.294550  0.471200  0.982100  1.0  -0.0967
  C  C1467  1  0.308180  0.510100  0.813900  1.0  0.7193
  C  C1468  1  0.153380  0.674300  0.868000  1.0  0.0094
  C  C1469  1  0.115030  0.643400  0.643000  1.0  0.0313
  C  C1470  1  0.185040  0.520000  0.999000  1.0  0.341
  C  C1471  1  0.161760  0.468100  0.004900  1.0  -0.0978
  C  C1472  1  0.329120  0.673300  0.669900  1.0  0.1199
  C  C1473  1  0.250020  0.527900  0.961800  1.0  -0.0275
  C  C1474  1  0.339620  0.678300  0.707700  1.0  -0.1314
  C  C1475  1  0.134070  0.585200  0.701100  1.0  0.0905
  C  C1476  1  0.213710  0.543900  0.968100  1.0  0.1992
  C  C1477  1  0.319860  0.633600  0.667500  1.0  -0.1086
  C  C1478  1  0.142180  0.429200  0.887600  1.0  -0.1143
  C  C1479  1  0.327660  0.701800  0.632900  1.0  0.2889
  C  C1480  1  0.165660  0.643300  0.896600  1.0  0.0069
  C  C1481  1  0.188050  0.513100  0.040800  1.0  -0.089
  C  C1482  1  0.170940  0.495000  0.981000  1.0  -0.1991
  C  C1483  1  0.223390  0.478000  0.850800  1.0  -0.1279
  C  C1484  1  0.160090  0.572100  0.750300  1.0  -0.1728
  C  C1485  1  0.276190  0.481100  0.980900  1.0  -0.1309
  C  C1486  1  0.150650  0.480700  0.760300  1.0  -0.1845
  C  C1487  1  0.141030  0.509200  0.736800  1.0  -0.1246
  C  C1488  1  0.354700  0.805600  0.553500  1.0  -0.0942
  C  C1489  1  0.222370  0.478700  0.771900  1.0  -0.1906
  C  C1490  1  0.137970  0.358600  0.084800  1.0  -0.113
  C  C1491  1  0.178870  0.486000  0.069100  1.0  -0.1851
  C  C1492  1  0.147620  0.383000  0.900400  1.0  -0.017
  C  C1493  1  0.232210  0.482000  0.813800  1.0  0.1107
  C  C1494  1  0.238500  0.492200  0.969400  1.0  -0.1443
  C  C1495  1  0.325600  0.833100  0.546000  1.0  -0.0755
  C  C1496  1  0.135060  0.678600  0.880500  1.0  -0.1847
  C  C1497  1  0.121000  0.336700  0.151600  1.0  0.6855
  C  C1498  1  0.171980  0.607400  0.967900  1.0  -0.1627
  C  C1499  1  0.358600  0.845300  0.524800  1.0  0.1371
  C  C1500  1  0.132230  0.370200  0.124900  1.0  -0.0672
  C  C1501  1  0.329200  0.876000  0.527100  1.0  0.1098
  C  C1502  1  0.136890  0.355600  0.929500  1.0  0.1144
  C  C1503  1  0.243970  0.570600  0.954100  1.0  -0.1212
  C  C1504  1  0.148540  0.721400  0.806500  1.0  -0.1206
  C  C1505  1  0.259580  0.507900  0.777900  1.0  -0.1255
  C  C1506  1  0.305390  0.496000  0.956800  1.0  -0.1131
  C  C1507  1  0.204210  0.474800  0.851400  1.0  -0.165
  C  C1508  1  0.161990  0.636500  0.943800  1.0  -0.1517
  C  C1509  1  0.204120  0.476100  0.773400  1.0  -0.117
  C  C1510  1  0.120370  0.757400  0.790800  1.0  0.4596
  C  C1511  1  0.224400  0.578400  0.956300  1.0  -0.1426
  C  C1512  1  0.130790  0.631300  0.711100  1.0  -0.2248
  C  C1513  1  0.159450  0.693200  0.832100  1.0  -0.144
  C  C1514  1  0.124710  0.705800  0.854600  1.0  -0.0722
  C  C1515  1  0.220280  0.500000  0.972600  1.0  -0.1691
  C  C1516  1  0.262150  0.467900  0.845800  1.0  -0.0952
  C  C1517  1  0.679720  0.122900  0.878300  1.0  -0.1724
  C  C1518  1  0.615230  0.842400  0.985900  1.0  -0.0921
  C  C1519  1  0.689400  0.092000  0.903000  1.0  -0.1411
  C  C1520  1  0.669920  0.044000  0.779700  1.0  -0.1476
  C  C1521  1  0.621640  0.158300  0.681400  1.0  -0.1377
  C  C1522  1  0.616000  0.095700  0.634500  1.0  -0.0385
  C  C1523  1  0.666990  0.939900  0.839300  1.0  0.3709
  C  C1524  1  0.605780  0.766600  0.015000  1.0  0.6658
  C  C1525  1  0.629560  0.783300  0.958400  1.0  -0.1233
  C  C1526  1  0.666360  0.001200  0.785200  1.0  0.1311
  C  C1527  1  0.695740  0.973000  0.811800  1.0  0.2544
  C  C1528  1  0.605370  0.171500  0.612500  1.0  0.6825
  C  C1529  1  0.672340  0.900300  0.851900  1.0  -0.1307
  C  C1530  1  0.800490  0.035900  0.936200  1.0  -0.0227
  C  C1531  1  0.836700  0.298600  0.561000  1.0  -0.0016
  C  C1532  1  0.787930  0.999900  0.813800  1.0  -0.127
  C  C1533  1  0.780160  0.974900  0.848200  1.0  -0.0984
  C  C1534  1  0.637170  0.908900  0.145800  1.0  -0.0628
  C  C1535  1  0.651050  0.955700  0.860200  1.0  -0.1722
  C  C1536  1  0.624360  0.873100  0.957900  1.0  -0.2462
  C  C1537  1  0.638970  0.808300  0.929800  1.0  -0.2272
  C  C1538  1  0.770150  0.015800  0.958900  1.0  -0.0113
  C  C1539  1  0.625960  0.067700  0.662700  1.0  -0.1662
  C  C1540  1  0.616950  0.797100  0.984900  1.0  0.0233
  C  C1541  1  0.644710  0.056800  0.729900  1.0  0.0709
  C  C1542  1  0.648110  0.938300  0.119700  1.0  -0.1209
  C  C1543  1  0.653380  0.925600  0.077600  1.0  0.1205
  C  C1544  1  0.778660  0.016400  0.779000  1.0  -0.1001
  C  C1545  1  0.781470  0.047800  0.936000  1.0  -0.1161
  C  C1546  1  0.664680  0.959700  0.049500  1.0  0.0575
  C  C1547  1  0.685990  0.083300  0.948100  1.0  0.2225
  C  C1548  1  0.648320  0.888200  0.059100  1.0  -0.1672
  C  C1549  1  0.821610  0.100100  0.702600  1.0  0.1329
  C  C1550  1  0.663570  0.872000  0.880900  1.0  -0.1905
  C  C1551  1  0.829870  0.259400  0.586200  1.0  0.2439
  C  C1552  1  0.825460  0.981300  0.953000  1.0  0.6316
  C  C1553  1  0.751380  0.985100  0.810300  1.0  0.1088
  C  C1554  1  0.841330  0.147400  0.739000  1.0  0.1439
  C  C1555  1  0.630250  0.227400  0.819000  1.0  -0.0427
  C  C1556  1  0.794550  0.971200  0.982100  1.0  -0.0967
  C  C1557  1  0.808180  0.010100  0.813900  1.0  0.7193
  C  C1558  1  0.653380  0.174300  0.868000  1.0  0.0094
  C  C1559  1  0.615030  0.143400  0.643000  1.0  0.0313
  C  C1560  1  0.685040  0.020000  0.999000  1.0  0.341
  C  C1561  1  0.661760  0.968100  0.004900  1.0  -0.0978
  C  C1562  1  0.829120  0.173300  0.669900  1.0  0.1199
  C  C1563  1  0.750020  0.027900  0.961800  1.0  -0.0275
  C  C1564  1  0.839620  0.178300  0.707700  1.0  -0.1314
  C  C1565  1  0.634070  0.085200  0.701100  1.0  0.0905
  C  C1566  1  0.713710  0.043900  0.968100  1.0  0.1992
  C  C1567  1  0.819860  0.133600  0.667500  1.0  -0.1086
  C  C1568  1  0.642180  0.929200  0.887600  1.0  -0.1143
  C  C1569  1  0.827660  0.201800  0.632900  1.0  0.2889
  C  C1570  1  0.665660  0.143300  0.896600  1.0  0.0069
  C  C1571  1  0.688050  0.013100  0.040800  1.0  -0.089
  C  C1572  1  0.670940  0.995000  0.981000  1.0  -0.1991
  C  C1573  1  0.723390  0.978000  0.850800  1.0  -0.1279
  C  C1574  1  0.660090  0.072100  0.750300  1.0  -0.1728
  C  C1575  1  0.776190  0.981100  0.980900  1.0  -0.1309
  C  C1576  1  0.650650  0.980700  0.760300  1.0  -0.1845
  C  C1577  1  0.641030  0.009200  0.736800  1.0  -0.1246
  C  C1578  1  0.854700  0.305600  0.553500  1.0  -0.0941
  C  C1579  1  0.722370  0.978700  0.771900  1.0  -0.1906
  C  C1580  1  0.637970  0.858600  0.084800  1.0  -0.113
  C  C1581  1  0.678870  0.986000  0.069100  1.0  -0.1851
  C  C1582  1  0.647620  0.883000  0.900400  1.0  -0.017
  C  C1583  1  0.732210  0.982000  0.813800  1.0  0.1107
  C  C1584  1  0.738500  0.992200  0.969400  1.0  -0.1443
  C  C1585  1  0.825600  0.333100  0.546000  1.0  -0.0755
  C  C1586  1  0.635060  0.178600  0.880500  1.0  -0.1847
  C  C1587  1  0.621000  0.836700  0.151600  1.0  0.6855
  C  C1588  1  0.671980  0.107400  0.967900  1.0  -0.1627
  C  C1589  1  0.858600  0.345300  0.524800  1.0  0.1371
  C  C1590  1  0.632230  0.870200  0.124900  1.0  -0.0672
  C  C1591  1  0.829200  0.376000  0.527100  1.0  0.1098
  C  C1592  1  0.636890  0.855600  0.929500  1.0  0.1144
  C  C1593  1  0.743970  0.070600  0.954100  1.0  -0.1212
  C  C1594  1  0.648540  0.221400  0.806500  1.0  -0.1206
  C  C1595  1  0.759580  0.007900  0.777900  1.0  -0.1255
  C  C1596  1  0.805390  0.996000  0.956800  1.0  -0.1131
  C  C1597  1  0.704210  0.974800  0.851400  1.0  -0.165
  C  C1598  1  0.661990  0.136500  0.943800  1.0  -0.1517
  C  C1599  1  0.704120  0.976100  0.773400  1.0  -0.117
  C  C1600  1  0.620370  0.257400  0.790800  1.0  0.4596
  C  C1601  1  0.724400  0.078400  0.956300  1.0  -0.1426
  C  C1602  1  0.630790  0.131300  0.711100  1.0  -0.2248
  C  C1603  1  0.659450  0.193200  0.832100  1.0  -0.144
  C  C1604  1  0.624710  0.205800  0.854600  1.0  -0.0722
  C  C1605  1  0.720280  0.000000  0.972600  1.0  -0.1691
  C  C1606  1  0.762150  0.967900  0.845800  1.0  -0.0952
  C  C1607  1  0.679720  0.622900  0.378300  1.0  -0.1724
  C  C1608  1  0.615230  0.342400  0.485900  1.0  -0.0921
  C  C1609  1  0.689400  0.592000  0.403000  1.0  -0.1411
  C  C1610  1  0.669920  0.544000  0.279700  1.0  -0.1476
  C  C1611  1  0.621640  0.658300  0.181400  1.0  -0.1377
  C  C1612  1  0.616000  0.595700  0.134500  1.0  -0.0385
  C  C1613  1  0.666990  0.439900  0.339300  1.0  0.3709
  C  C1614  1  0.605780  0.266600  0.515000  1.0  0.6658
  C  C1615  1  0.629560  0.283300  0.458400  1.0  -0.1233
  C  C1616  1  0.666360  0.501200  0.285200  1.0  0.1311
  C  C1617  1  0.695740  0.473000  0.311800  1.0  0.2544
  C  C1618  1  0.605370  0.671500  0.112500  1.0  0.6825
  C  C1619  1  0.672340  0.400300  0.351900  1.0  -0.1307
  C  C1620  1  0.800490  0.535900  0.436200  1.0  -0.0227
  C  C1621  1  0.836700  0.798600  0.061000  1.0  -0.0016
  C  C1622  1  0.787930  0.499900  0.313800  1.0  -0.127
  C  C1623  1  0.780160  0.474900  0.348200  1.0  -0.0984
  C  C1624  1  0.637170  0.408900  0.645800  1.0  -0.0628
  C  C1625  1  0.651050  0.455700  0.360200  1.0  -0.1722
  C  C1626  1  0.624360  0.373100  0.457900  1.0  -0.2462
  C  C1627  1  0.638970  0.308300  0.429800  1.0  -0.2272
  C  C1628  1  0.770150  0.515800  0.458900  1.0  -0.0113
  C  C1629  1  0.625960  0.567700  0.162700  1.0  -0.1662
  C  C1630  1  0.616950  0.297100  0.484900  1.0  0.0233
  C  C1631  1  0.644710  0.556800  0.229900  1.0  0.0709
  C  C1632  1  0.648110  0.438300  0.619700  1.0  -0.1209
  C  C1633  1  0.653380  0.425600  0.577600  1.0  0.1205
  C  C1634  1  0.778660  0.516400  0.279000  1.0  -0.1001
  C  C1635  1  0.781470  0.547800  0.436000  1.0  -0.1161
  C  C1636  1  0.664680  0.459700  0.549500  1.0  0.0575
  C  C1637  1  0.685990  0.583300  0.448100  1.0  0.2225
  C  C1638  1  0.648320  0.388200  0.559100  1.0  -0.1672
  C  C1639  1  0.821610  0.600100  0.202600  1.0  0.1329
  C  C1640  1  0.663570  0.372000  0.380900  1.0  -0.1905
  C  C1641  1  0.829870  0.759400  0.086200  1.0  0.2439
  C  C1642  1  0.825460  0.481300  0.453000  1.0  0.6316
  C  C1643  1  0.751380  0.485100  0.310300  1.0  0.1088
  C  C1644  1  0.841330  0.647400  0.239000  1.0  0.1439
  C  C1645  1  0.630250  0.727400  0.319000  1.0  -0.0427
  C  C1646  1  0.794550  0.471200  0.482100  1.0  -0.0967
  C  C1647  1  0.808180  0.510100  0.313900  1.0  0.7193
  C  C1648  1  0.653380  0.674300  0.368000  1.0  0.0094
  C  C1649  1  0.615030  0.643400  0.143000  1.0  0.0313
  C  C1650  1  0.685040  0.520000  0.499000  1.0  0.341
  C  C1651  1  0.661760  0.468100  0.504900  1.0  -0.0978
  C  C1652  1  0.829120  0.673300  0.169900  1.0  0.1199
  C  C1653  1  0.750020  0.527900  0.461800  1.0  -0.0275
  C  C1654  1  0.839620  0.678300  0.207700  1.0  -0.1314
  C  C1655  1  0.634070  0.585200  0.201100  1.0  0.0905
  C  C1656  1  0.713710  0.543900  0.468100  1.0  0.1992
  C  C1657  1  0.819860  0.633600  0.167500  1.0  -0.1086
  C  C1658  1  0.642180  0.429200  0.387600  1.0  -0.1143
  C  C1659  1  0.827660  0.701800  0.132900  1.0  0.2889
  C  C1660  1  0.665660  0.643300  0.396600  1.0  0.0069
  C  C1661  1  0.688050  0.513100  0.540800  1.0  -0.089
  C  C1662  1  0.670940  0.495000  0.481000  1.0  -0.1991
  C  C1663  1  0.723390  0.478000  0.350800  1.0  -0.1279
  C  C1664  1  0.660090  0.572100  0.250300  1.0  -0.1728
  C  C1665  1  0.776190  0.481100  0.480900  1.0  -0.1309
  C  C1666  1  0.650650  0.480700  0.260300  1.0  -0.1845
  C  C1667  1  0.641030  0.509200  0.236800  1.0  -0.1246
  C  C1668  1  0.854700  0.805600  0.053500  1.0  -0.0941
  C  C1669  1  0.722370  0.478700  0.271900  1.0  -0.1906
  C  C1670  1  0.637970  0.358600  0.584800  1.0  -0.113
  C  C1671  1  0.678870  0.486000  0.569100  1.0  -0.1851
  C  C1672  1  0.647620  0.383000  0.400400  1.0  -0.017
  C  C1673  1  0.732210  0.482000  0.313800  1.0  0.1107
  C  C1674  1  0.738500  0.492200  0.469400  1.0  -0.1443
  C  C1675  1  0.825600  0.833100  0.046000  1.0  -0.0755
  C  C1676  1  0.635060  0.678600  0.380500  1.0  -0.1847
  C  C1677  1  0.621000  0.336700  0.651600  1.0  0.6855
  C  C1678  1  0.671980  0.607400  0.467900  1.0  -0.1627
  C  C1679  1  0.858600  0.845300  0.024800  1.0  0.1371
  C  C1680  1  0.632230  0.370200  0.624900  1.0  -0.0672
  C  C1681  1  0.829200  0.876000  0.027100  1.0  0.1098
  C  C1682  1  0.636890  0.355600  0.429500  1.0  0.1144
  C  C1683  1  0.743970  0.570600  0.454100  1.0  -0.1212
  C  C1684  1  0.648540  0.721400  0.306500  1.0  -0.1206
  C  C1685  1  0.759580  0.507900  0.277900  1.0  -0.1255
  C  C1686  1  0.805390  0.496000  0.456800  1.0  -0.1131
  C  C1687  1  0.704210  0.474800  0.351400  1.0  -0.165
  C  C1688  1  0.661990  0.636500  0.443800  1.0  -0.1517
  C  C1689  1  0.704120  0.476100  0.273400  1.0  -0.117
  C  C1690  1  0.620370  0.757400  0.290800  1.0  0.4596
  C  C1691  1  0.724400  0.578400  0.456300  1.0  -0.1426
  C  C1692  1  0.630790  0.631300  0.211100  1.0  -0.2248
  C  C1693  1  0.659450  0.693200  0.332100  1.0  -0.144
  C  C1694  1  0.624710  0.705800  0.354600  1.0  -0.0722
  C  C1695  1  0.720280  0.500000  0.472600  1.0  -0.1691
  C  C1696  1  0.762150  0.467900  0.345800  1.0  -0.0952
  C  C1697  1  0.070280  0.872900  0.128300  1.0  -0.1727
  C  C1698  1  0.134770  0.592400  0.235900  1.0  -0.0858
  C  C1699  1  0.060600  0.842000  0.153000  1.0  -0.141
  C  C1700  1  0.080080  0.794000  0.029700  1.0  -0.148
  C  C1701  1  0.128360  0.908300  0.931400  1.0  -0.1373
  C  C1702  1  0.134000  0.845700  0.884500  1.0  -0.038
  C  C1703  1  0.083010  0.689900  0.089300  1.0  0.372
  C  C1704  1  0.144220  0.516600  0.265000  1.0  0.6656
  C  C1705  1  0.120440  0.533300  0.208400  1.0  -0.125
  C  C1706  1  0.083640  0.751200  0.035200  1.0  0.1318
  C  C1707  1  0.054260  0.723000  0.061800  1.0  0.2566
  C  C1708  1  0.144630  0.921500  0.862500  1.0  0.6831
  C  C1709  1  0.077660  0.650300  0.101900  1.0  -0.1284
  C  C1710  1  0.949510  0.785900  0.186200  1.0  -0.0239
  C  C1711  1  0.913300  0.048600  0.811000  1.0  -0.0033
  C  C1712  1  0.962070  0.749900  0.063800  1.0  -0.1271
  C  C1713  1  0.969840  0.724900  0.098200  1.0  -0.0979
  C  C1714  1  0.112830  0.658900  0.395800  1.0  -0.0616
  C  C1715  1  0.098950  0.705700  0.110200  1.0  -0.1705
  C  C1716  1  0.125640  0.623100  0.207900  1.0  -0.2471
  C  C1717  1  0.111030  0.558300  0.179800  1.0  -0.2258
  C  C1718  1  0.979850  0.765800  0.208900  1.0  -0.0105
  C  C1719  1  0.124040  0.817700  0.912700  1.0  -0.1654
  C  C1720  1  0.133050  0.547100  0.234900  1.0  0.0294
  C  C1721  1  0.105290  0.806800  0.979900  1.0  0.0711
  C  C1722  1  0.101890  0.688300  0.369700  1.0  -0.1224
  C  C1723  1  0.096620  0.675600  0.327600  1.0  0.1203
  C  C1724  1  0.971340  0.766400  0.029000  1.0  -0.1013
  C  C1725  1  0.968530  0.797800  0.186000  1.0  -0.1156
  C  C1726  1  0.085320  0.709700  0.299500  1.0  0.0573
  C  C1727  1  0.064010  0.833300  0.198100  1.0  0.2223
  C  C1728  1  0.101680  0.638200  0.309100  1.0  -0.1685
  C  C1729  1  0.928390  0.850100  0.952600  1.0  0.132
  C  C1730  1  0.086430  0.622000  0.130900  1.0  -0.1903
  C  C1731  1  0.920130  0.009400  0.836200  1.0  0.2424
  C  C1732  1  0.924540  0.731300  0.203000  1.0  0.6335
  C  C1733  1  0.998620  0.735100  0.060300  1.0  0.1099
  C  C1734  1  0.908670  0.897400  0.989000  1.0  0.1427
  C  C1735  1  0.119750  0.977400  0.069000  1.0  -0.0432
  C  C1736  1  0.955450  0.721200  0.232100  1.0  -0.0974
  C  C1737  1  0.941820  0.760100  0.063900  1.0  0.7216
  C  C1738  1  0.096620  0.924300  0.118000  1.0  0.0091
  C  C1739  1  0.134970  0.893400  0.893000  1.0  0.0317
  C  C1740  1  0.064960  0.770000  0.249000  1.0  0.3408
  C  C1741  1  0.088240  0.718100  0.254900  1.0  -0.0987
  C  C1742  1  0.920880  0.923300  0.919900  1.0  0.1202
  C  C1743  1  0.999980  0.777900  0.211800  1.0  -0.0279
  C  C1744  1  0.910380  0.928300  0.957700  1.0  -0.1295
  C  C1745  1  0.115930  0.835200  0.951100  1.0  0.0894
  C  C1746  1  0.036290  0.793900  0.218100  1.0  0.1995
  C  C1747  1  0.930140  0.883600  0.917500  1.0  -0.1126
  C  C1748  1  0.107820  0.679200  0.137600  1.0  -0.1123
  C  C1749  1  0.922340  0.951800  0.882900  1.0  0.2891
  C  C1750  1  0.084340  0.893300  0.146600  1.0  0.0069
  C  C1751  1  0.061950  0.763100  0.290800  1.0  -0.0886
  C  C1752  1  0.079060  0.745000  0.231000  1.0  -0.2018
  C  C1753  1  0.026610  0.728000  0.100800  1.0  -0.1272
  C  C1754  1  0.089910  0.822100  0.000300  1.0  -0.1732
  C  C1755  1  0.973810  0.731100  0.230900  1.0  -0.1291
  C  C1756  1  0.099350  0.730700  0.010300  1.0  -0.1824
  C  C1757  1  0.108970  0.759200  0.986800  1.0  -0.1239
  C  C1758  1  0.895300  0.055600  0.803500  1.0  -0.0937
  C  C1759  1  0.027630  0.728700  0.021900  1.0  -0.1891
  C  C1760  1  0.112030  0.608600  0.334800  1.0  -0.1113
  C  C1761  1  0.071130  0.736000  0.319100  1.0  -0.186
  C  C1762  1  0.102380  0.633000  0.150400  1.0  -0.0171
  C  C1763  1  0.017790  0.732000  0.063800  1.0  0.1116
  C  C1764  1  0.011500  0.742200  0.219400  1.0  -0.1438
  C  C1765  1  0.924400  0.083100  0.796000  1.0  -0.0727
  C  C1766  1  0.114940  0.928600  0.130500  1.0  -0.1854
  C  C1767  1  0.129000  0.586700  0.401600  1.0  0.6873
  C  C1768  1  0.078020  0.857400  0.217900  1.0  -0.1609
  C  C1769  1  0.891400  0.095300  0.774800  1.0  0.1377
  C  C1770  1  0.117770  0.620200  0.374900  1.0  -0.0697
  C  C1771  1  0.920800  0.126000  0.777100  1.0  0.1103
  C  C1772  1  0.113110  0.605600  0.179500  1.0  0.1139
  C  C1773  1  0.006030  0.820600  0.204100  1.0  -0.1217
  C  C1774  1  0.101460  0.971400  0.056500  1.0  -0.1201
  C  C1775  1  0.990420  0.757900  0.027900  1.0  -0.1251
  C  C1776  1  0.944610  0.746000  0.206800  1.0  -0.1188
  C  C1777  1  0.045790  0.724800  0.101400  1.0  -0.1655
  C  C1778  1  0.088010  0.886500  0.193800  1.0  -0.1512
  C  C1779  1  0.045880  0.726100  0.023400  1.0  -0.1179
  C  C1780  1  0.129630  0.007400  0.040800  1.0  0.4598
  C  C1781  1  0.025600  0.828400  0.206300  1.0  -0.1427
  C  C1782  1  0.119210  0.881300  0.961100  1.0  -0.2257
  C  C1783  1  0.090550  0.943200  0.082100  1.0  -0.1447
  C  C1784  1  0.125290  0.955800  0.104600  1.0  -0.0713
  C  C1785  1  0.029720  0.750000  0.222600  1.0  -0.1712
  C  C1786  1  0.987850  0.717900  0.095800  1.0  -0.0938
  C  C1787  1  0.070280  0.372900  0.628300  1.0  -0.1726
  C  C1788  1  0.134770  0.092400  0.735900  1.0  -0.0858
  C  C1789  1  0.060600  0.342000  0.653000  1.0  -0.1411
  C  C1790  1  0.080080  0.294000  0.529700  1.0  -0.148
  C  C1791  1  0.128360  0.408300  0.431400  1.0  -0.1373
  C  C1792  1  0.134000  0.345700  0.384500  1.0  -0.038
  C  C1793  1  0.083010  0.189900  0.589300  1.0  0.372
  C  C1794  1  0.144220  0.016600  0.765000  1.0  0.6656
  C  C1795  1  0.120440  0.033300  0.708400  1.0  -0.125
  C  C1796  1  0.083640  0.251200  0.535200  1.0  0.1318
  C  C1797  1  0.054260  0.223000  0.561800  1.0  0.2566
  C  C1798  1  0.144630  0.421500  0.362500  1.0  0.6831
  C  C1799  1  0.077660  0.150300  0.601900  1.0  -0.1284
  C  C1800  1  0.949510  0.285900  0.686200  1.0  -0.0239
  C  C1801  1  0.913300  0.548600  0.311000  1.0  -0.0033
  C  C1802  1  0.962070  0.249900  0.563800  1.0  -0.1271
  C  C1803  1  0.969840  0.224900  0.598200  1.0  -0.0979
  C  C1804  1  0.112830  0.158900  0.895800  1.0  -0.0616
  C  C1805  1  0.098950  0.205700  0.610200  1.0  -0.1705
  C  C1806  1  0.125640  0.123100  0.707900  1.0  -0.2471
  C  C1807  1  0.111030  0.058300  0.679800  1.0  -0.2258
  C  C1808  1  0.979850  0.265800  0.708900  1.0  -0.0105
  C  C1809  1  0.124040  0.317700  0.412700  1.0  -0.1654
  C  C1810  1  0.133050  0.047100  0.734900  1.0  0.0294
  C  C1811  1  0.105290  0.306800  0.479900  1.0  0.0711
  C  C1812  1  0.101890  0.188300  0.869700  1.0  -0.1224
  C  C1813  1  0.096620  0.175600  0.827600  1.0  0.1203
  C  C1814  1  0.971340  0.266400  0.529000  1.0  -0.1013
  C  C1815  1  0.968530  0.297800  0.686000  1.0  -0.1156
  C  C1816  1  0.085320  0.209700  0.799500  1.0  0.0573
  C  C1817  1  0.064010  0.333333  0.698100  1.0  0.2223
  C  C1818  1  0.101680  0.138200  0.809100  1.0  -0.1685
  C  C1819  1  0.928390  0.350100  0.452600  1.0  0.132
  C  C1820  1  0.086430  0.122000  0.630900  1.0  -0.1903
  C  C1821  1  0.920130  0.509400  0.336200  1.0  0.2424
  C  C1822  1  0.924540  0.231300  0.703000  1.0  0.6335
  C  C1823  1  0.998620  0.235100  0.560300  1.0  0.1099
  C  C1824  1  0.908670  0.397400  0.489000  1.0  0.1427
  C  C1825  1  0.119750  0.477400  0.569000  1.0  -0.0432
  C  C1826  1  0.955450  0.221200  0.732100  1.0  -0.0974
  C  C1827  1  0.941820  0.260100  0.563900  1.0  0.7216
  C  C1828  1  0.096620  0.424300  0.618000  1.0  0.0092
  C  C1829  1  0.134970  0.393400  0.393000  1.0  0.0317
  C  C1830  1  0.064960  0.270000  0.749000  1.0  0.3408
  C  C1831  1  0.088240  0.218100  0.754900  1.0  -0.0987
  C  C1832  1  0.920880  0.423300  0.419900  1.0  0.1202
  C  C1833  1  0.999980  0.277900  0.711800  1.0  -0.0279
  C  C1834  1  0.910380  0.428300  0.457700  1.0  -0.1295
  C  C1835  1  0.115930  0.335200  0.451100  1.0  0.0894
  C  C1836  1  0.036290  0.293900  0.718100  1.0  0.1995
  C  C1837  1  0.930140  0.383600  0.417500  1.0  -0.1126
  C  C1838  1  0.107820  0.179200  0.637600  1.0  -0.1123
  C  C1839  1  0.922340  0.451800  0.382900  1.0  0.2891
  C  C1840  1  0.084340  0.393300  0.646600  1.0  0.0068
  C  C1841  1  0.061950  0.263100  0.790800  1.0  -0.0886
  C  C1842  1  0.079060  0.245000  0.731000  1.0  -0.2018
  C  C1843  1  0.026610  0.228000  0.600800  1.0  -0.1272
  C  C1844  1  0.089910  0.322100  0.500300  1.0  -0.1732
  C  C1845  1  0.973810  0.231100  0.730900  1.0  -0.1291
  C  C1846  1  0.099350  0.230700  0.510300  1.0  -0.1824
  C  C1847  1  0.108970  0.259200  0.486800  1.0  -0.1239
  C  C1848  1  0.895300  0.555600  0.303500  1.0  -0.0937
  C  C1849  1  0.027630  0.228700  0.521900  1.0  -0.1891
  C  C1850  1  0.112030  0.108600  0.834800  1.0  -0.1113
  C  C1851  1  0.071130  0.236000  0.819100  1.0  -0.186
  C  C1852  1  0.102380  0.133000  0.650400  1.0  -0.0171
  C  C1853  1  0.017790  0.232000  0.563800  1.0  0.1116
  C  C1854  1  0.011500  0.242200  0.719400  1.0  -0.1438
  C  C1855  1  0.924400  0.583100  0.296000  1.0  -0.0727
  C  C1856  1  0.114940  0.428600  0.630500  1.0  -0.1854
  C  C1857  1  0.129000  0.086700  0.901600  1.0  0.6873
  C  C1858  1  0.078020  0.357400  0.717900  1.0  -0.1608
  C  C1859  1  0.891400  0.595300  0.274800  1.0  0.1377
  C  C1860  1  0.117770  0.120200  0.874900  1.0  -0.0697
  C  C1861  1  0.920800  0.626000  0.277100  1.0  0.1103
  C  C1862  1  0.113110  0.105600  0.679500  1.0  0.1139
  C  C1863  1  0.006030  0.320600  0.704100  1.0  -0.1217
  C  C1864  1  0.101460  0.471400  0.556500  1.0  -0.1201
  C  C1865  1  0.990420  0.257900  0.527900  1.0  -0.1251
  C  C1866  1  0.944610  0.246000  0.706800  1.0  -0.1188
  C  C1867  1  0.045790  0.224800  0.601400  1.0  -0.1655
  C  C1868  1  0.088010  0.386500  0.693800  1.0  -0.1511
  C  C1869  1  0.045880  0.226100  0.523400  1.0  -0.1179
  C  C1870  1  0.129630  0.507400  0.540800  1.0  0.4598
  C  C1871  1  0.025600  0.328400  0.706300  1.0  -0.1427
  C  C1872  1  0.119210  0.381300  0.461100  1.0  -0.2257
  C  C1873  1  0.090550  0.443200  0.582100  1.0  -0.1447
  C  C1874  1  0.125290  0.455800  0.604600  1.0  -0.0713
  C  C1875  1  0.029720  0.250000  0.722600  1.0  -0.1712
  C  C1876  1  0.987850  0.217900  0.595800  1.0  -0.0938
  C  C1877  1  0.570280  0.872900  0.628300  1.0  -0.1727
  C  C1878  1  0.634770  0.592400  0.735900  1.0  -0.0858
  C  C1879  1  0.560600  0.842000  0.653000  1.0  -0.141
  C  C1880  1  0.580080  0.794000  0.529700  1.0  -0.148
  C  C1881  1  0.628360  0.908300  0.431400  1.0  -0.1373
  C  C1882  1  0.634000  0.845700  0.384500  1.0  -0.038
  C  C1883  1  0.583010  0.689900  0.589300  1.0  0.372
  C  C1884  1  0.644220  0.516600  0.765000  1.0  0.6656
  C  C1885  1  0.620440  0.533300  0.708400  1.0  -0.125
  C  C1886  1  0.583640  0.751200  0.535200  1.0  0.1318
  C  C1887  1  0.554260  0.723000  0.561800  1.0  0.2566
  C  C1888  1  0.644630  0.921500  0.362500  1.0  0.6831
  C  C1889  1  0.577660  0.650300  0.601900  1.0  -0.1284
  C  C1890  1  0.449510  0.785900  0.686200  1.0  -0.0239
  C  C1891  1  0.413300  0.048600  0.311000  1.0  -0.0033
  C  C1892  1  0.462070  0.749900  0.563800  1.0  -0.1271
  C  C1893  1  0.469840  0.724900  0.598200  1.0  -0.0979
  C  C1894  1  0.612830  0.658900  0.895800  1.0  -0.0616
  C  C1895  1  0.598950  0.705700  0.610200  1.0  -0.1705
  C  C1896  1  0.625640  0.623100  0.707900  1.0  -0.2471
  C  C1897  1  0.611030  0.558300  0.679800  1.0  -0.2258
  C  C1898  1  0.479850  0.765800  0.708900  1.0  -0.0105
  C  C1899  1  0.624040  0.817700  0.412700  1.0  -0.1654
  C  C1900  1  0.633050  0.547100  0.734900  1.0  0.0294
  C  C1901  1  0.605290  0.806800  0.479900  1.0  0.0711
  C  C1902  1  0.601890  0.688300  0.869700  1.0  -0.1224
  C  C1903  1  0.596620  0.675600  0.827600  1.0  0.1203
  C  C1904  1  0.471340  0.766400  0.529000  1.0  -0.1013
  C  C1905  1  0.468530  0.797800  0.686000  1.0  -0.1156
  C  C1906  1  0.585320  0.709700  0.799500  1.0  0.0573
  C  C1907  1  0.564010  0.833300  0.698100  1.0  0.2223
  C  C1908  1  0.601680  0.638200  0.809100  1.0  -0.1685
  C  C1909  1  0.428390  0.850100  0.452600  1.0  0.132
  C  C1910  1  0.586430  0.622000  0.630900  1.0  -0.1903
  C  C1911  1  0.420130  0.009400  0.336200  1.0  0.2424
  C  C1912  1  0.424540  0.731300  0.703000  1.0  0.6335
  C  C1913  1  0.498620  0.735100  0.560300  1.0  0.1099
  C  C1914  1  0.408670  0.897400  0.489000  1.0  0.1427
  C  C1915  1  0.619750  0.977400  0.569000  1.0  -0.0432
  C  C1916  1  0.455450  0.721200  0.732100  1.0  -0.0974
  C  C1917  1  0.441820  0.760100  0.563900  1.0  0.7216
  C  C1918  1  0.596620  0.924300  0.618000  1.0  0.0091
  C  C1919  1  0.634970  0.893400  0.393000  1.0  0.0317
  C  C1920  1  0.564960  0.770000  0.749000  1.0  0.3408
  C  C1921  1  0.588240  0.718100  0.754900  1.0  -0.0987
  C  C1922  1  0.420880  0.923300  0.419900  1.0  0.1202
  C  C1923  1  0.499980  0.777900  0.711800  1.0  -0.0279
  C  C1924  1  0.410380  0.928300  0.457700  1.0  -0.1295
  C  C1925  1  0.615930  0.835200  0.451100  1.0  0.0894
  C  C1926  1  0.536290  0.793900  0.718100  1.0  0.1995
  C  C1927  1  0.430140  0.883600  0.417500  1.0  -0.1126
  C  C1928  1  0.607820  0.679200  0.637600  1.0  -0.1123
  C  C1929  1  0.422340  0.951800  0.382900  1.0  0.2891
  C  C1930  1  0.584340  0.893300  0.646600  1.0  0.0069
  C  C1931  1  0.561950  0.763100  0.790800  1.0  -0.0886
  C  C1932  1  0.579060  0.745000  0.731000  1.0  -0.2018
  C  C1933  1  0.526610  0.728000  0.600800  1.0  -0.1272
  C  C1934  1  0.589910  0.822100  0.500300  1.0  -0.1732
  C  C1935  1  0.473810  0.731100  0.730900  1.0  -0.1291
  C  C1936  1  0.599350  0.730700  0.510300  1.0  -0.1824
  C  C1937  1  0.608970  0.759200  0.486800  1.0  -0.1239
  C  C1938  1  0.395300  0.055600  0.303500  1.0  -0.0937
  C  C1939  1  0.527630  0.728700  0.521900  1.0  -0.1891
  C  C1940  1  0.612030  0.608600  0.834800  1.0  -0.1113
  C  C1941  1  0.571130  0.736000  0.819100  1.0  -0.186
  C  C1942  1  0.602380  0.633000  0.650400  1.0  -0.0171
  C  C1943  1  0.517790  0.732000  0.563800  1.0  0.1116
  C  C1944  1  0.511500  0.742200  0.719400  1.0  -0.1438
  C  C1945  1  0.424400  0.083100  0.296000  1.0  -0.0727
  C  C1946  1  0.614940  0.928600  0.630500  1.0  -0.1854
  C  C1947  1  0.629000  0.586700  0.901600  1.0  0.6873
  C  C1948  1  0.578020  0.857400  0.717900  1.0  -0.1609
  C  C1949  1  0.391400  0.095300  0.274800  1.0  0.1377
  C  C1950  1  0.617770  0.620200  0.874900  1.0  -0.0697
  C  C1951  1  0.420800  0.126000  0.277100  1.0  0.1103
  C  C1952  1  0.613110  0.605600  0.679500  1.0  0.1139
  C  C1953  1  0.506030  0.820600  0.704100  1.0  -0.1217
  C  C1954  1  0.601460  0.971400  0.556500  1.0  -0.1201
  C  C1955  1  0.490420  0.757900  0.527900  1.0  -0.1252
  C  C1956  1  0.444610  0.746000  0.706800  1.0  -0.1188
  C  C1957  1  0.545790  0.724800  0.601400  1.0  -0.1655
  C  C1958  1  0.588010  0.886500  0.693800  1.0  -0.1512
  C  C1959  1  0.545880  0.726100  0.523400  1.0  -0.1179
  C  C1960  1  0.629630  0.007400  0.540800  1.0  0.4598
  C  C1961  1  0.525600  0.828400  0.706300  1.0  -0.1427
  C  C1962  1  0.619210  0.881300  0.461100  1.0  -0.2257
  C  C1963  1  0.590550  0.943200  0.582100  1.0  -0.1447
  C  C1964  1  0.625290  0.955800  0.604600  1.0  -0.0713
  C  C1965  1  0.529720  0.750000  0.722600  1.0  -0.1712
  C  C1966  1  0.487850  0.717900  0.595800  1.0  -0.0938
  C  C1967  1  0.570280  0.372900  0.128300  1.0  -0.1726
  C  C1968  1  0.634770  0.092400  0.235900  1.0  -0.0858
  C  C1969  1  0.560600  0.342000  0.153000  1.0  -0.1411
  C  C1970  1  0.580080  0.294000  0.029700  1.0  -0.148
  C  C1971  1  0.628360  0.408300  0.931400  1.0  -0.1373
  C  C1972  1  0.634000  0.345700  0.884500  1.0  -0.038
  C  C1973  1  0.583010  0.189900  0.089300  1.0  0.372
  C  C1974  1  0.644220  0.016600  0.265000  1.0  0.6656
  C  C1975  1  0.620440  0.033300  0.208400  1.0  -0.125
  C  C1976  1  0.583640  0.251200  0.035200  1.0  0.1318
  C  C1977  1  0.554260  0.223000  0.061800  1.0  0.2566
  C  C1978  1  0.644630  0.421500  0.862500  1.0  0.6831
  C  C1979  1  0.577660  0.150300  0.101900  1.0  -0.1284
  C  C1980  1  0.449510  0.285900  0.186200  1.0  -0.0239
  C  C1981  1  0.413300  0.548600  0.811000  1.0  -0.0033
  C  C1982  1  0.462070  0.249900  0.063800  1.0  -0.1271
  C  C1983  1  0.469840  0.224900  0.098200  1.0  -0.0979
  C  C1984  1  0.612830  0.158900  0.395800  1.0  -0.0616
  C  C1985  1  0.598950  0.205700  0.110200  1.0  -0.1705
  C  C1986  1  0.625640  0.123100  0.207900  1.0  -0.2471
  C  C1987  1  0.611030  0.058300  0.179800  1.0  -0.2258
  C  C1988  1  0.479850  0.265800  0.208900  1.0  -0.0105
  C  C1989  1  0.624040  0.317700  0.912700  1.0  -0.1654
  C  C1990  1  0.633050  0.047100  0.234900  1.0  0.0294
  C  C1991  1  0.605290  0.306800  0.979900  1.0  0.0711
  C  C1992  1  0.601890  0.188300  0.369700  1.0  -0.1224
  C  C1993  1  0.596620  0.175600  0.327600  1.0  0.1203
  C  C1994  1  0.471340  0.266400  0.029000  1.0  -0.1013
  C  C1995  1  0.468530  0.297800  0.186000  1.0  -0.1156
  C  C1996  1  0.585320  0.209700  0.299500  1.0  0.0573
  C  C1997  1  0.564010  0.333333  0.198100  1.0  0.2223
  C  C1998  1  0.601680  0.138200  0.309100  1.0  -0.1685
  C  C1999  1  0.428390  0.350100  0.952600  1.0  0.132
  C  C2000  1  0.586430  0.122000  0.130900  1.0  -0.1903
  C  C2001  1  0.420130  0.509400  0.836200  1.0  0.2424
  C  C2002  1  0.424540  0.231300  0.203000  1.0  0.6335
  C  C2003  1  0.498620  0.235100  0.060300  1.0  0.1099
  C  C2004  1  0.408670  0.397400  0.989000  1.0  0.1427
  C  C2005  1  0.619750  0.477400  0.069000  1.0  -0.0432
  C  C2006  1  0.455450  0.221200  0.232100  1.0  -0.0974
  C  C2007  1  0.441820  0.260100  0.063900  1.0  0.7216
  C  C2008  1  0.596620  0.424300  0.118000  1.0  0.0092
  C  C2009  1  0.634970  0.393400  0.893000  1.0  0.0317
  C  C2010  1  0.564960  0.270000  0.249000  1.0  0.3408
  C  C2011  1  0.588240  0.218100  0.254900  1.0  -0.0987
  C  C2012  1  0.420880  0.423300  0.919900  1.0  0.1202
  C  C2013  1  0.499980  0.277900  0.211800  1.0  -0.0279
  C  C2014  1  0.410380  0.428300  0.957700  1.0  -0.1295
  C  C2015  1  0.615930  0.335200  0.951100  1.0  0.0894
  C  C2016  1  0.536290  0.293900  0.218100  1.0  0.1995
  C  C2017  1  0.430140  0.383600  0.917500  1.0  -0.1126
  C  C2018  1  0.607820  0.179200  0.137600  1.0  -0.1123
  C  C2019  1  0.422340  0.451800  0.882900  1.0  0.2891
  C  C2020  1  0.584340  0.393300  0.146600  1.0  0.0068
  C  C2021  1  0.561950  0.263100  0.290800  1.0  -0.0886
  C  C2022  1  0.579060  0.245000  0.231000  1.0  -0.2018
  C  C2023  1  0.526610  0.228000  0.100800  1.0  -0.1272
  C  C2024  1  0.589910  0.322100  0.000300  1.0  -0.1732
  C  C2025  1  0.473810  0.231100  0.230900  1.0  -0.1291
  C  C2026  1  0.599350  0.230700  0.010300  1.0  -0.1824
  C  C2027  1  0.608970  0.259200  0.986800  1.0  -0.1239
  C  C2028  1  0.395300  0.555600  0.803500  1.0  -0.0937
  C  C2029  1  0.527630  0.228700  0.021900  1.0  -0.1891
  C  C2030  1  0.612030  0.108600  0.334800  1.0  -0.1113
  C  C2031  1  0.571130  0.236000  0.319100  1.0  -0.186
  C  C2032  1  0.602380  0.133000  0.150400  1.0  -0.0171
  C  C2033  1  0.517790  0.232000  0.063800  1.0  0.1116
  C  C2034  1  0.511500  0.242200  0.219400  1.0  -0.1438
  C  C2035  1  0.424400  0.583100  0.796000  1.0  -0.0727
  C  C2036  1  0.614940  0.428600  0.130500  1.0  -0.1854
  C  C2037  1  0.629000  0.086700  0.401600  1.0  0.6873
  C  C2038  1  0.578020  0.357400  0.217900  1.0  -0.1608
  C  C2039  1  0.391400  0.595300  0.774800  1.0  0.1377
  C  C2040  1  0.617770  0.120200  0.374900  1.0  -0.0697
  C  C2041  1  0.420800  0.626000  0.777100  1.0  0.1103
  C  C2042  1  0.613110  0.105600  0.179500  1.0  0.1139
  C  C2043  1  0.506030  0.320600  0.204100  1.0  -0.1217
  C  C2044  1  0.601460  0.471400  0.056500  1.0  -0.1201
  C  C2045  1  0.490420  0.257900  0.027900  1.0  -0.1252
  C  C2046  1  0.444610  0.246000  0.206800  1.0  -0.1188
  C  C2047  1  0.545790  0.224800  0.101400  1.0  -0.1655
  C  C2048  1  0.588010  0.386500  0.193800  1.0  -0.1511
  C  C2049  1  0.545880  0.226100  0.023400  1.0  -0.1179
  C  C2050  1  0.629630  0.507400  0.040800  1.0  0.4598
  C  C2051  1  0.525600  0.328400  0.206300  1.0  -0.1427
  C  C2052  1  0.619210  0.381300  0.961100  1.0  -0.2257
  C  C2053  1  0.590550  0.443200  0.082100  1.0  -0.1447
  C  C2054  1  0.625290  0.455800  0.104600  1.0  -0.0713
  C  C2055  1  0.529720  0.250000  0.222600  1.0  -0.1712
  C  C2056  1  0.487850  0.217900  0.095800  1.0  -0.0938
  C  C2057  1  0.320280  0.377100  0.378300  1.0  -0.1721
  C  C2058  1  0.384770  0.657600  0.485900  1.0  -0.085
  C  C2059  1  0.310600  0.408000  0.403000  1.0  -0.1391
  C  C2060  1  0.330080  0.456000  0.279700  1.0  -0.147
  C  C2061  1  0.378360  0.341700  0.181400  1.0  -0.1386
  C  C2062  1  0.384000  0.404300  0.134500  1.0  -0.0379
  C  C2063  1  0.333010  0.560100  0.339300  1.0  0.3716
  C  C2064  1  0.394220  0.733400  0.515000  1.0  0.6656
  C  C2065  1  0.370440  0.716700  0.458400  1.0  -0.1231
  C  C2066  1  0.333640  0.498800  0.285200  1.0  0.1322
  C  C2067  1  0.304260  0.527000  0.311800  1.0  0.2563
  C  C2068  1  0.394630  0.328500  0.112500  1.0  0.6823
  C  C2069  1  0.327660  0.599700  0.351900  1.0  -0.1287
  C  C2070  1  0.199510  0.464100  0.436200  1.0  -0.0223
  C  C2071  1  0.163300  0.201400  0.061000  1.0  -0.0032
  C  C2072  1  0.212070  0.500100  0.313800  1.0  -0.1271
  C  C2073  1  0.219840  0.525100  0.348200  1.0  -0.0991
  C  C2074  1  0.362830  0.591100  0.645800  1.0  -0.0631
  C  C2075  1  0.348950  0.544300  0.360200  1.0  -0.17
  C  C2076  1  0.375640  0.626900  0.457900  1.0  -0.2453
  C  C2077  1  0.361030  0.691700  0.429800  1.0  -0.2262
  C  C2078  1  0.229850  0.484200  0.458900  1.0  -0.0108
  C  C2079  1  0.374040  0.432300  0.162700  1.0  -0.1643
  C  C2080  1  0.383050  0.702900  0.484900  1.0  0.0294
  C  C2081  1  0.355290  0.443200  0.229900  1.0  0.071
  C  C2082  1  0.351890  0.561700  0.619700  1.0  -0.1228
  C  C2083  1  0.346620  0.574400  0.577600  1.0  0.1198
  C  C2084  1  0.221340  0.483600  0.279000  1.0  -0.102
  C  C2085  1  0.218530  0.452200  0.436000  1.0  -0.1175
  C  C2086  1  0.335320  0.540300  0.549500  1.0  0.0572
  C  C2087  1  0.314010  0.416700  0.448100  1.0  0.2227
  C  C2088  1  0.351680  0.611800  0.559100  1.0  -0.1673
  C  C2089  1  0.178390  0.399900  0.202600  1.0  0.1325
  C  C2090  1  0.336430  0.628000  0.380900  1.0  -0.1925
  C  C2091  1  0.170130  0.240600  0.086200  1.0  0.2415
  C  C2092  1  0.174540  0.518700  0.453000  1.0  0.6337
  C  C2093  1  0.248620  0.514900  0.310300  1.0  0.1101
  C  C2094  1  0.158670  0.352600  0.239000  1.0  0.1429
  C  C2095  1  0.369750  0.272600  0.319000  1.0  -0.0428
  C  C2096  1  0.205450  0.528800  0.482100  1.0  -0.0988
  C  C2097  1  0.191820  0.489900  0.313900  1.0  0.721
  C  C2098  1  0.346620  0.325700  0.368000  1.0  0.0087
  C  C2099  1  0.384970  0.356600  0.143000  1.0  0.032
  C  C2100  1  0.314960  0.480000  0.499000  1.0  0.3409
  C  C2101  1  0.338240  0.531900  0.504900  1.0  -0.0981
  C  C2102  1  0.170880  0.326700  0.169900  1.0  0.1197
  C  C2103  1  0.249980  0.472100  0.461800  1.0  -0.0283
  C  C2104  1  0.160380  0.321700  0.207700  1.0  -0.1282
  C  C2105  1  0.365930  0.414800  0.201100  1.0  0.0893
  C  C2106  1  0.286290  0.456100  0.468100  1.0  0.1993
  C  C2107  1  0.180140  0.366400  0.167500  1.0  -0.1124
  C  C2108  1  0.357820  0.570800  0.387600  1.0  -0.1113
  C  C2109  1  0.172340  0.298200  0.132900  1.0  0.2883
  C  C2110  1  0.334340  0.356700  0.396600  1.0  0.007
  C  C2111  1  0.311950  0.486900  0.540800  1.0  -0.0865
  C  C2112  1  0.329060  0.505000  0.481000  1.0  -0.2015
  C  C2113  1  0.276610  0.522000  0.350800  1.0  -0.1277
  C  C2114  1  0.339910  0.427900  0.250300  1.0  -0.1718
  C  C2115  1  0.223810  0.518900  0.480900  1.0  -0.1295
  C  C2116  1  0.349350  0.519300  0.260300  1.0  -0.1821
  C  C2117  1  0.358970  0.490800  0.236800  1.0  -0.1246
  C  C2118  1  0.145300  0.194400  0.053500  1.0  -0.0936
  C  C2119  1  0.277630  0.521300  0.271900  1.0  -0.1893
  C  C2120  1  0.362030  0.641400  0.584800  1.0  -0.1113
  C  C2121  1  0.321130  0.514000  0.569100  1.0  -0.1856
  C  C2122  1  0.352380  0.617000  0.400400  1.0  -0.0175
  C  C2123  1  0.267790  0.518000  0.313800  1.0  0.1112
  C  C2124  1  0.261500  0.507800  0.469400  1.0  -0.1461
  C  C2125  1  0.174400  0.166900  0.046000  1.0  -0.0723
  C  C2126  1  0.364940  0.321400  0.380500  1.0  -0.1872
  C  C2127  1  0.379000  0.663300  0.651600  1.0  0.688
  C  C2128  1  0.328020  0.392600  0.467900  1.0  -0.163
  C  C2129  1  0.141400  0.154700  0.024800  1.0  0.1377
  C  C2130  1  0.367770  0.629800  0.624900  1.0  -0.0699
  C  C2131  1  0.170800  0.124000  0.027100  1.0  0.1101
  C  C2132  1  0.363110  0.644400  0.429500  1.0  0.114
  C  C2133  1  0.256030  0.429400  0.454100  1.0  -0.1214
  C  C2134  1  0.351460  0.278600  0.306500  1.0  -0.1208
  C  C2135  1  0.240420  0.492100  0.277900  1.0  -0.1256
  C  C2136  1  0.194610  0.504000  0.456800  1.0  -0.1188
  C  C2137  1  0.295790  0.525200  0.351400  1.0  -0.1655
  C  C2138  1  0.338010  0.363500  0.443800  1.0  -0.1515
  C  C2139  1  0.295880  0.523900  0.273400  1.0  -0.1174
  C  C2140  1  0.379630  0.242600  0.290800  1.0  0.4593
  C  C2141  1  0.275600  0.421600  0.456300  1.0  -0.1433
  C  C2142  1  0.369210  0.368700  0.211100  1.0  -0.2257
  C  C2143  1  0.340550  0.306800  0.332100  1.0  -0.1446
  C  C2144  1  0.375290  0.294200  0.354600  1.0  -0.0715
  C  C2145  1  0.279720  0.500000  0.472600  1.0  -0.1715
  C  C2146  1  0.237850  0.532100  0.345800  1.0  -0.0955
  C  C2147  1  0.320280  0.877100  0.878300  1.0  -0.1721
  C  C2148  1  0.384770  0.157600  0.985900  1.0  -0.085
  C  C2149  1  0.310600  0.908000  0.903000  1.0  -0.1391
  C  C2150  1  0.330080  0.956000  0.779700  1.0  -0.147
  C  C2151  1  0.378360  0.841700  0.681400  1.0  -0.1386
  C  C2152  1  0.384000  0.904300  0.634500  1.0  -0.0379
  C  C2153  1  0.333010  0.060100  0.839300  1.0  0.3716
  C  C2154  1  0.394220  0.233400  0.015000  1.0  0.6656
  C  C2155  1  0.370440  0.216700  0.958400  1.0  -0.1231
  C  C2156  1  0.333640  0.998800  0.785200  1.0  0.1322
  C  C2157  1  0.304260  0.027000  0.811800  1.0  0.2563
  C  C2158  1  0.394630  0.828500  0.612500  1.0  0.6823
  C  C2159  1  0.327660  0.099700  0.851900  1.0  -0.1287
  C  C2160  1  0.199510  0.964100  0.936200  1.0  -0.0223
  C  C2161  1  0.163300  0.701400  0.561000  1.0  -0.0032
  C  C2162  1  0.212070  0.000100  0.813800  1.0  -0.1271
  C  C2163  1  0.219840  0.025100  0.848200  1.0  -0.0991
  C  C2164  1  0.362830  0.091100  0.145800  1.0  -0.0631
  C  C2165  1  0.348950  0.044300  0.860200  1.0  -0.17
  C  C2166  1  0.375640  0.126900  0.957900  1.0  -0.2453
  C  C2167  1  0.361030  0.191700  0.929800  1.0  -0.2262
  C  C2168  1  0.229850  0.984200  0.958900  1.0  -0.0108
  C  C2169  1  0.374040  0.932300  0.662700  1.0  -0.1643
  C  C2170  1  0.383050  0.202900  0.984900  1.0  0.0294
  C  C2171  1  0.355290  0.943200  0.729900  1.0  0.071
  C  C2172  1  0.351890  0.061700  0.119700  1.0  -0.1228
  C  C2173  1  0.346620  0.074400  0.077600  1.0  0.1198
  C  C2174  1  0.221340  0.983600  0.779000  1.0  -0.102
  C  C2175  1  0.218530  0.952200  0.936000  1.0  -0.1175
  C  C2176  1  0.335320  0.040300  0.049500  1.0  0.0572
  C  C2177  1  0.314010  0.916700  0.948100  1.0  0.2227
  C  C2178  1  0.351680  0.111800  0.059100  1.0  -0.1673
  C  C2179  1  0.178390  0.899900  0.702600  1.0  0.1325
  C  C2180  1  0.336430  0.128000  0.880900  1.0  -0.1925
  C  C2181  1  0.170130  0.740600  0.586200  1.0  0.2415
  C  C2182  1  0.174540  0.018700  0.953000  1.0  0.6337
  C  C2183  1  0.248620  0.014900  0.810300  1.0  0.1101
  C  C2184  1  0.158670  0.852600  0.739000  1.0  0.1429
  C  C2185  1  0.369750  0.772600  0.819000  1.0  -0.0428
  C  C2186  1  0.205450  0.028800  0.982100  1.0  -0.0988
  C  C2187  1  0.191820  0.989900  0.813900  1.0  0.721
  C  C2188  1  0.346620  0.825700  0.868000  1.0  0.0087
  C  C2189  1  0.384970  0.856600  0.643000  1.0  0.032
  C  C2190  1  0.314960  0.980000  0.999000  1.0  0.3409
  C  C2191  1  0.338240  0.031900  0.004900  1.0  -0.0981
  C  C2192  1  0.170880  0.826700  0.669900  1.0  0.1197
  C  C2193  1  0.249980  0.972100  0.961800  1.0  -0.0283
  C  C2194  1  0.160380  0.821700  0.707700  1.0  -0.1282
  C  C2195  1  0.365930  0.914800  0.701100  1.0  0.0893
  C  C2196  1  0.286290  0.956100  0.968100  1.0  0.1993
  C  C2197  1  0.180140  0.866400  0.667500  1.0  -0.1124
  C  C2198  1  0.357820  0.070800  0.887600  1.0  -0.1113
  C  C2199  1  0.172340  0.798200  0.632900  1.0  0.2883
  C  C2200  1  0.334340  0.856700  0.896600  1.0  0.007
  C  C2201  1  0.311950  0.986900  0.040800  1.0  -0.0865
  C  C2202  1  0.329060  0.005000  0.981000  1.0  -0.2015
  C  C2203  1  0.276610  0.022000  0.850800  1.0  -0.1277
  C  C2204  1  0.339910  0.927900  0.750300  1.0  -0.1718
  C  C2205  1  0.223810  0.018900  0.980900  1.0  -0.1295
  C  C2206  1  0.349350  0.019300  0.760300  1.0  -0.1821
  C  C2207  1  0.358970  0.990800  0.736800  1.0  -0.1246
  C  C2208  1  0.145300  0.694400  0.553500  1.0  -0.0936
  C  C2209  1  0.277630  0.021300  0.771900  1.0  -0.1893
  C  C2210  1  0.362030  0.141400  0.084800  1.0  -0.1113
  C  C2211  1  0.321130  0.014000  0.069100  1.0  -0.1856
  C  C2212  1  0.352380  0.117000  0.900400  1.0  -0.0175
  C  C2213  1  0.267790  0.018000  0.813800  1.0  0.1112
  C  C2214  1  0.261500  0.007800  0.969400  1.0  -0.1461
  C  C2215  1  0.174400  0.666900  0.546000  1.0  -0.0723
  C  C2216  1  0.364940  0.821400  0.880500  1.0  -0.1872
  C  C2217  1  0.379000  0.163300  0.151600  1.0  0.688
  C  C2218  1  0.328020  0.892600  0.967900  1.0  -0.163
  C  C2219  1  0.141400  0.654700  0.524800  1.0  0.1377
  C  C2220  1  0.367770  0.129800  0.124900  1.0  -0.0699
  C  C2221  1  0.170800  0.624000  0.527100  1.0  0.1101
  C  C2222  1  0.363110  0.144400  0.929500  1.0  0.114
  C  C2223  1  0.256030  0.929400  0.954100  1.0  -0.1214
  C  C2224  1  0.351460  0.778600  0.806500  1.0  -0.1208
  C  C2225  1  0.240420  0.992100  0.777900  1.0  -0.1256
  C  C2226  1  0.194610  0.004000  0.956800  1.0  -0.1188
  C  C2227  1  0.295790  0.025200  0.851400  1.0  -0.1655
  C  C2228  1  0.338010  0.863500  0.943800  1.0  -0.1515
  C  C2229  1  0.295880  0.023900  0.773400  1.0  -0.1174
  C  C2230  1  0.379630  0.742600  0.790800  1.0  0.4593
  C  C2231  1  0.275600  0.921600  0.956300  1.0  -0.1433
  C  C2232  1  0.369210  0.868700  0.711100  1.0  -0.2257
  C  C2233  1  0.340550  0.806800  0.832100  1.0  -0.1446
  C  C2234  1  0.375290  0.794200  0.854600  1.0  -0.0715
  C  C2235  1  0.279720  0.000000  0.972600  1.0  -0.1715
  C  C2236  1  0.237850  0.032100  0.845800  1.0  -0.0955
  C  C2237  1  0.820280  0.377100  0.878300  1.0  -0.1721
  C  C2238  1  0.884770  0.657600  0.985900  1.0  -0.085
  C  C2239  1  0.810600  0.408000  0.903000  1.0  -0.1391
  C  C2240  1  0.830080  0.456000  0.779700  1.0  -0.147
  C  C2241  1  0.878360  0.341700  0.681400  1.0  -0.1386
  C  C2242  1  0.884000  0.404300  0.634500  1.0  -0.0379
  C  C2243  1  0.833010  0.560100  0.839300  1.0  0.3716
  C  C2244  1  0.894220  0.733400  0.015000  1.0  0.6657
  C  C2245  1  0.870440  0.716700  0.958400  1.0  -0.1231
  C  C2246  1  0.833640  0.498800  0.785200  1.0  0.1322
  C  C2247  1  0.804260  0.527000  0.811800  1.0  0.2563
  C  C2248  1  0.894630  0.328500  0.612500  1.0  0.682
  C  C2249  1  0.827660  0.599700  0.851900  1.0  -0.1287
  C  C2250  1  0.699510  0.464100  0.936200  1.0  -0.0223
  C  C2251  1  0.663300  0.201400  0.561000  1.0  -0.0032
  C  C2252  1  0.712070  0.500100  0.813800  1.0  -0.1271
  C  C2253  1  0.719840  0.525100  0.848200  1.0  -0.0991
  C  C2254  1  0.862830  0.591100  0.145800  1.0  -0.0631
  C  C2255  1  0.848950  0.544300  0.860200  1.0  -0.17
  C  C2256  1  0.875640  0.626900  0.957900  1.0  -0.2453
  C  C2257  1  0.861030  0.691700  0.929800  1.0  -0.2262
  C  C2258  1  0.729850  0.484200  0.958900  1.0  -0.0108
  C  C2259  1  0.874040  0.432300  0.662700  1.0  -0.1643
  C  C2260  1  0.883050  0.702900  0.984900  1.0  0.0294
  C  C2261  1  0.855290  0.443200  0.729900  1.0  0.071
  C  C2262  1  0.851890  0.561700  0.119700  1.0  -0.1228
  C  C2263  1  0.846620  0.574400  0.077600  1.0  0.1198
  C  C2264  1  0.721340  0.483600  0.779000  1.0  -0.102
  C  C2265  1  0.718530  0.452200  0.936000  1.0  -0.1175
  C  C2266  1  0.835320  0.540300  0.049500  1.0  0.0572
  C  C2267  1  0.814010  0.416700  0.948100  1.0  0.2227
  C  C2268  1  0.851680  0.611800  0.059100  1.0  -0.1673
  C  C2269  1  0.678390  0.399900  0.702600  1.0  0.1325
  C  C2270  1  0.836430  0.628000  0.880900  1.0  -0.1925
  C  C2271  1  0.670130  0.240600  0.586200  1.0  0.2415
  C  C2272  1  0.674540  0.518700  0.953000  1.0  0.6337
  C  C2273  1  0.748620  0.514900  0.810300  1.0  0.1101
  C  C2274  1  0.658670  0.352600  0.739000  1.0  0.1429
  C  C2275  1  0.869750  0.272600  0.819000  1.0  -0.0428
  C  C2276  1  0.705450  0.528800  0.982100  1.0  -0.0988
  C  C2277  1  0.691820  0.489900  0.813900  1.0  0.721
  C  C2278  1  0.846620  0.325700  0.868000  1.0  0.0087
  C  C2279  1  0.884970  0.356600  0.643000  1.0  0.032
  C  C2280  1  0.814960  0.480000  0.999000  1.0  0.3409
  C  C2281  1  0.838240  0.531900  0.004900  1.0  -0.0981
  C  C2282  1  0.670880  0.326700  0.669900  1.0  0.1197
  C  C2283  1  0.749980  0.472100  0.961800  1.0  -0.0283
  C  C2284  1  0.660380  0.321700  0.707700  1.0  -0.1282
  C  C2285  1  0.865930  0.414800  0.701100  1.0  0.0893
  C  C2286  1  0.786290  0.456100  0.968100  1.0  0.1993
  C  C2287  1  0.680140  0.366400  0.667500  1.0  -0.1124
  C  C2288  1  0.857820  0.570800  0.887600  1.0  -0.1113
  C  C2289  1  0.672340  0.298200  0.632900  1.0  0.2883
  C  C2290  1  0.834340  0.356700  0.896600  1.0  0.007
  C  C2291  1  0.811950  0.486900  0.040800  1.0  -0.0865
  C  C2292  1  0.829060  0.505000  0.981000  1.0  -0.2015
  C  C2293  1  0.776610  0.522000  0.850800  1.0  -0.1277
  C  C2294  1  0.839910  0.427900  0.750300  1.0  -0.1718
  C  C2295  1  0.723810  0.518900  0.980900  1.0  -0.1295
  C  C2296  1  0.849350  0.519300  0.760300  1.0  -0.1821
  C  C2297  1  0.858970  0.490800  0.736800  1.0  -0.1246
  C  C2298  1  0.645300  0.194400  0.553500  1.0  -0.0936
  C  C2299  1  0.777630  0.521300  0.771900  1.0  -0.1893
  C  C2300  1  0.862030  0.641400  0.084800  1.0  -0.1113
  C  C2301  1  0.821130  0.514000  0.069100  1.0  -0.1856
  C  C2302  1  0.852380  0.617000  0.900400  1.0  -0.0175
  C  C2303  1  0.767790  0.518000  0.813800  1.0  0.1112
  C  C2304  1  0.761500  0.507800  0.969400  1.0  -0.1461
  C  C2305  1  0.674400  0.166900  0.546000  1.0  -0.0723
  C  C2306  1  0.864940  0.321400  0.880500  1.0  -0.1872
  C  C2307  1  0.879000  0.663300  0.151600  1.0  0.688
  C  C2308  1  0.828020  0.392600  0.967900  1.0  -0.163
  C  C2309  1  0.641400  0.154700  0.524800  1.0  0.1377
  C  C2310  1  0.867770  0.629800  0.124900  1.0  -0.0699
  C  C2311  1  0.670800  0.124000  0.527100  1.0  0.1101
  C  C2312  1  0.863110  0.644400  0.929500  1.0  0.114
  C  C2313  1  0.756030  0.429400  0.954100  1.0  -0.1214
  C  C2314  1  0.851460  0.278600  0.806500  1.0  -0.1208
  C  C2315  1  0.740420  0.492100  0.777900  1.0  -0.1256
  C  C2316  1  0.694610  0.504000  0.956800  1.0  -0.1188
  C  C2317  1  0.795790  0.525200  0.851400  1.0  -0.1655
  C  C2318  1  0.838010  0.363500  0.943800  1.0  -0.1515
  C  C2319  1  0.795880  0.523900  0.773400  1.0  -0.1174
  C  C2320  1  0.879630  0.242600  0.790800  1.0  0.4593
  C  C2321  1  0.775600  0.421600  0.956300  1.0  -0.1433
  C  C2322  1  0.869210  0.368700  0.711100  1.0  -0.2257
  C  C2323  1  0.840550  0.306800  0.832100  1.0  -0.1446
  C  C2324  1  0.875290  0.294200  0.854600  1.0  -0.0715
  C  C2325  1  0.779720  0.500000  0.972600  1.0  -0.1715
  C  C2326  1  0.737850  0.532100  0.845800  1.0  -0.0955
  C  C2327  1  0.820280  0.877100  0.378300  1.0  -0.1721
  C  C2328  1  0.884770  0.157600  0.485900  1.0  -0.085
  C  C2329  1  0.810600  0.908000  0.403000  1.0  -0.1391
  C  C2330  1  0.830080  0.956000  0.279700  1.0  -0.147
  C  C2331  1  0.878360  0.841700  0.181400  1.0  -0.1386
  C  C2332  1  0.884000  0.904300  0.134500  1.0  -0.0379
  C  C2333  1  0.833010  0.060100  0.339300  1.0  0.3716
  C  C2334  1  0.894220  0.233400  0.515000  1.0  0.6657
  C  C2335  1  0.870440  0.216700  0.458400  1.0  -0.1231
  C  C2336  1  0.833640  0.998800  0.285200  1.0  0.1322
  C  C2337  1  0.804260  0.027000  0.311800  1.0  0.2563
  C  C2338  1  0.894630  0.828500  0.112500  1.0  0.682
  C  C2339  1  0.827660  0.099700  0.351900  1.0  -0.1287
  C  C2340  1  0.699510  0.964100  0.436200  1.0  -0.0223
  C  C2341  1  0.663300  0.701400  0.061000  1.0  -0.0032
  C  C2342  1  0.712070  0.000100  0.313800  1.0  -0.1271
  C  C2343  1  0.719840  0.025100  0.348200  1.0  -0.0991
  C  C2344  1  0.862830  0.091100  0.645800  1.0  -0.0631
  C  C2345  1  0.848950  0.044300  0.360200  1.0  -0.17
  C  C2346  1  0.875640  0.126900  0.457900  1.0  -0.2453
  C  C2347  1  0.861030  0.191700  0.429800  1.0  -0.2262
  C  C2348  1  0.729850  0.984200  0.458900  1.0  -0.0108
  C  C2349  1  0.874040  0.932300  0.162700  1.0  -0.1643
  C  C2350  1  0.883050  0.202900  0.484900  1.0  0.0294
  C  C2351  1  0.855290  0.943200  0.229900  1.0  0.071
  C  C2352  1  0.851890  0.061700  0.619700  1.0  -0.1228
  C  C2353  1  0.846620  0.074400  0.577600  1.0  0.1198
  C  C2354  1  0.721340  0.983600  0.279000  1.0  -0.102
  C  C2355  1  0.718530  0.952200  0.436000  1.0  -0.1175
  C  C2356  1  0.835320  0.040300  0.549500  1.0  0.0572
  C  C2357  1  0.814010  0.916700  0.448100  1.0  0.2227
  C  C2358  1  0.851680  0.111800  0.559100  1.0  -0.1673
  C  C2359  1  0.678390  0.899900  0.202600  1.0  0.1325
  C  C2360  1  0.836430  0.128000  0.380900  1.0  -0.1925
  C  C2361  1  0.670130  0.740600  0.086200  1.0  0.2415
  C  C2362  1  0.674540  0.018700  0.453000  1.0  0.6337
  C  C2363  1  0.748620  0.014900  0.310300  1.0  0.1101
  C  C2364  1  0.658670  0.852600  0.239000  1.0  0.1429
  C  C2365  1  0.869750  0.772600  0.319000  1.0  -0.0428
  C  C2366  1  0.705450  0.028800  0.482100  1.0  -0.0988
  C  C2367  1  0.691820  0.989900  0.313900  1.0  0.721
  C  C2368  1  0.846620  0.825700  0.368000  1.0  0.0087
  C  C2369  1  0.884970  0.856600  0.143000  1.0  0.032
  C  C2370  1  0.814960  0.980000  0.499000  1.0  0.3409
  C  C2371  1  0.838240  0.031900  0.504900  1.0  -0.0981
  C  C2372  1  0.670880  0.826700  0.169900  1.0  0.1197
  C  C2373  1  0.749980  0.972100  0.461800  1.0  -0.0283
  C  C2374  1  0.660380  0.821700  0.207700  1.0  -0.1282
  C  C2375  1  0.865930  0.914800  0.201100  1.0  0.0893
  C  C2376  1  0.786290  0.956100  0.468100  1.0  0.1993
  C  C2377  1  0.680140  0.866400  0.167500  1.0  -0.1124
  C  C2378  1  0.857820  0.070800  0.387600  1.0  -0.1113
  C  C2379  1  0.672340  0.798200  0.132900  1.0  0.2883
  C  C2380  1  0.834340  0.856700  0.396600  1.0  0.007
  C  C2381  1  0.811950  0.986900  0.540800  1.0  -0.0865
  C  C2382  1  0.829060  0.005000  0.481000  1.0  -0.2015
  C  C2383  1  0.776610  0.022000  0.350800  1.0  -0.1277
  C  C2384  1  0.839910  0.927900  0.250300  1.0  -0.1718
  C  C2385  1  0.723810  0.018900  0.480900  1.0  -0.1295
  C  C2386  1  0.849350  0.019300  0.260300  1.0  -0.1821
  C  C2387  1  0.858970  0.990800  0.236800  1.0  -0.1246
  C  C2388  1  0.645300  0.694400  0.053500  1.0  -0.0936
  C  C2389  1  0.777630  0.021300  0.271900  1.0  -0.1893
  C  C2390  1  0.862030  0.141400  0.584800  1.0  -0.1113
  C  C2391  1  0.821130  0.014000  0.569100  1.0  -0.1856
  C  C2392  1  0.852380  0.117000  0.400400  1.0  -0.0175
  C  C2393  1  0.767790  0.018000  0.313800  1.0  0.1112
  C  C2394  1  0.761500  0.007800  0.469400  1.0  -0.1461
  C  C2395  1  0.674400  0.666900  0.046000  1.0  -0.0723
  C  C2396  1  0.864940  0.821400  0.380500  1.0  -0.1872
  C  C2397  1  0.879000  0.163300  0.651600  1.0  0.688
  C  C2398  1  0.828020  0.892600  0.467900  1.0  -0.163
  C  C2399  1  0.641400  0.654700  0.024800  1.0  0.1377
  C  C2400  1  0.867770  0.129800  0.624900  1.0  -0.0699
  C  C2401  1  0.670800  0.624000  0.027100  1.0  0.1101
  C  C2402  1  0.863110  0.144400  0.429500  1.0  0.114
  C  C2403  1  0.756030  0.929400  0.454100  1.0  -0.1214
  C  C2404  1  0.851460  0.778600  0.306500  1.0  -0.1208
  C  C2405  1  0.740420  0.992100  0.277900  1.0  -0.1256
  C  C2406  1  0.694610  0.004000  0.456800  1.0  -0.1188
  C  C2407  1  0.795790  0.025200  0.351400  1.0  -0.1655
  C  C2408  1  0.838010  0.863500  0.443800  1.0  -0.1515
  C  C2409  1  0.795880  0.023900  0.273400  1.0  -0.1174
  C  C2410  1  0.879630  0.742600  0.290800  1.0  0.4593
  C  C2411  1  0.775600  0.921600  0.456300  1.0  -0.1433
  C  C2412  1  0.869210  0.868700  0.211100  1.0  -0.2257
  C  C2413  1  0.840550  0.806800  0.332100  1.0  -0.1446
  C  C2414  1  0.875290  0.794200  0.354600  1.0  -0.0715
  C  C2415  1  0.779720  0.000000  0.472600  1.0  -0.1715
  C  C2416  1  0.737850  0.032100  0.345800  1.0  -0.0955
  N  N2417  1  0.087080  0.007700  0.875400  1.0  0.1309
  N  N2418  1  0.082560  0.140500  0.987700  1.0  -0.3302
  N  N2419  1  0.066940  0.052300  0.847500  1.0  -0.2085
  N  N2420  1  0.099930  0.989400  0.902400  1.0  -0.5776
  N  N2421  1  0.098200  0.867300  0.769600  1.0  -0.3506
  N  N2422  1  0.068020  0.018700  0.818400  1.0  -0.2862
  N  N2423  1  0.925930  0.283100  0.060200  1.0  -0.1502
  N  N2424  1  0.945190  0.199300  0.222900  1.0  -0.1306
  N  N2425  1  0.087080  0.507700  0.375400  1.0  0.1309
  N  N2426  1  0.082560  0.640500  0.487700  1.0  -0.3302
  N  N2427  1  0.066940  0.552300  0.347500  1.0  -0.2105
  N  N2428  1  0.099930  0.489400  0.402400  1.0  -0.5776
  N  N2429  1  0.098200  0.367300  0.269600  1.0  -0.3506
  N  N2430  1  0.068020  0.518700  0.318400  1.0  -0.2879
  N  N2431  1  0.925930  0.783100  0.560200  1.0  -0.1502
  N  N2432  1  0.945190  0.699300  0.722900  1.0  -0.1305
  N  N2433  1  0.587080  0.007700  0.375400  1.0  0.1309
  N  N2434  1  0.582560  0.140500  0.487700  1.0  -0.3302
  N  N2435  1  0.566940  0.052300  0.347500  1.0  -0.2094
  N  N2436  1  0.599930  0.989400  0.402400  1.0  -0.5776
  N  N2437  1  0.598200  0.867300  0.269600  1.0  -0.3506
  N  N2438  1  0.568020  0.018700  0.318400  1.0  -0.2879
  N  N2439  1  0.425930  0.283100  0.560200  1.0  -0.1502
  N  N2440  1  0.445190  0.199300  0.722900  1.0  -0.1306
  N  N2441  1  0.587080  0.507700  0.875400  1.0  0.1309
  N  N2442  1  0.582560  0.640500  0.987700  1.0  -0.3302
  N  N2443  1  0.566940  0.552300  0.847500  1.0  -0.2105
  N  N2444  1  0.599930  0.489400  0.902400  1.0  -0.5776
  N  N2445  1  0.598200  0.367300  0.769600  1.0  -0.3506
  N  N2446  1  0.568020  0.518700  0.818400  1.0  -0.2879
  N  N2447  1  0.425930  0.783100  0.060200  1.0  -0.1502
  N  N2448  1  0.445190  0.699300  0.222900  1.0  -0.1305
  N  N2449  1  0.337080  0.242300  0.125400  1.0  0.1319
  N  N2450  1  0.332560  0.109500  0.237700  1.0  -0.3288
  N  N2451  1  0.316940  0.197700  0.097500  1.0  -0.2116
  N  N2452  1  0.349930  0.260600  0.152400  1.0  -0.5785
  N  N2453  1  0.348200  0.382700  0.019600  1.0  -0.3509
  N  N2454  1  0.318020  0.231300  0.068400  1.0  -0.2886
  N  N2455  1  0.175930  0.966900  0.310200  1.0  -0.151
  N  N2456  1  0.195190  0.050700  0.472900  1.0  -0.1305
  N  N2457  1  0.337080  0.742300  0.625400  1.0  0.1319
  N  N2458  1  0.332560  0.609500  0.737700  1.0  -0.3288
  N  N2459  1  0.316940  0.697700  0.597500  1.0  -0.2116
  N  N2460  1  0.349930  0.760600  0.652400  1.0  -0.5785
  N  N2461  1  0.348200  0.882700  0.519600  1.0  -0.3509
  N  N2462  1  0.318020  0.731300  0.568400  1.0  -0.2886
  N  N2463  1  0.175930  0.466900  0.810200  1.0  -0.151
  N  N2464  1  0.195190  0.550700  0.972900  1.0  -0.1305
  N  N2465  1  0.837080  0.242300  0.625400  1.0  0.1319
  N  N2466  1  0.832560  0.109500  0.737700  1.0  -0.3288
  N  N2467  1  0.816940  0.197700  0.597500  1.0  -0.2116
  N  N2468  1  0.849930  0.260600  0.652400  1.0  -0.5785
  N  N2469  1  0.848200  0.382700  0.519600  1.0  -0.3509
  N  N2470  1  0.818020  0.231300  0.568400  1.0  -0.2886
  N  N2471  1  0.675930  0.966900  0.810200  1.0  -0.151
  N  N2472  1  0.695190  0.050700  0.972900  1.0  -0.1305
  N  N2473  1  0.837080  0.742300  0.125400  1.0  0.1319
  N  N2474  1  0.832560  0.609500  0.237700  1.0  -0.3288
  N  N2475  1  0.816940  0.697700  0.097500  1.0  -0.2116
  N  N2476  1  0.849930  0.760600  0.152400  1.0  -0.5785
  N  N2477  1  0.848200  0.882700  0.019600  1.0  -0.3509
  N  N2478  1  0.818020  0.731300  0.068400  1.0  -0.2886
  N  N2479  1  0.675930  0.466900  0.310200  1.0  -0.151
  N  N2480  1  0.695190  0.550700  0.472900  1.0  -0.1305
  N  N2481  1  0.912920  0.992300  0.875400  1.0  0.1315
  N  N2482  1  0.917440  0.859500  0.987700  1.0  -0.3286
  N  N2483  1  0.933060  0.947700  0.847500  1.0  -0.2142
  N  N2484  1  0.900070  0.010600  0.902400  1.0  -0.5759
  N  N2485  1  0.901800  0.132700  0.769600  1.0  -0.3507
  N  N2486  1  0.931980  0.981300  0.818400  1.0  -0.2896
  N  N2487  1  0.074070  0.716900  0.060200  1.0  -0.1514
  N  N2488  1  0.054810  0.800700  0.222900  1.0  -0.1317
  N  N2489  1  0.912920  0.492300  0.375400  1.0  0.1315
  N  N2490  1  0.917440  0.359500  0.487700  1.0  -0.3286
  N  N2491  1  0.933060  0.447700  0.347500  1.0  -0.2144
  N  N2492  1  0.900070  0.510600  0.402400  1.0  -0.5759
  N  N2493  1  0.901800  0.632700  0.269600  1.0  -0.3507
  N  N2494  1  0.931980  0.481300  0.318400  1.0  -0.2912
  N  N2495  1  0.074070  0.216900  0.560200  1.0  -0.1514
  N  N2496  1  0.054810  0.300700  0.722900  1.0  -0.1314
  N  N2497  1  0.412920  0.992300  0.375400  1.0  0.1315
  N  N2498  1  0.417440  0.859500  0.487700  1.0  -0.3286
  N  N2499  1  0.433060  0.947700  0.347500  1.0  -0.2135
  N  N2500  1  0.400070  0.010600  0.402400  1.0  -0.5759
  N  N2501  1  0.401800  0.132700  0.269600  1.0  -0.3507
  N  N2502  1  0.431980  0.981300  0.318400  1.0  -0.2912
  N  N2503  1  0.574070  0.716900  0.560200  1.0  -0.1514
  N  N2504  1  0.554810  0.800700  0.722900  1.0  -0.1317
  N  N2505  1  0.412920  0.492300  0.875400  1.0  0.1315
  N  N2506  1  0.417440  0.359500  0.987700  1.0  -0.3286
  N  N2507  1  0.433060  0.447700  0.847500  1.0  -0.2144
  N  N2508  1  0.400070  0.510600  0.902400  1.0  -0.5759
  N  N2509  1  0.401800  0.632700  0.769600  1.0  -0.3507
  N  N2510  1  0.431980  0.481300  0.818400  1.0  -0.2912
  N  N2511  1  0.574070  0.216900  0.060200  1.0  -0.1514
  N  N2512  1  0.554810  0.300700  0.222900  1.0  -0.1314
  N  N2513  1  0.162920  0.257700  0.125400  1.0  0.1314
  N  N2514  1  0.167440  0.390500  0.237700  1.0  -0.3305
  N  N2515  1  0.183060  0.302300  0.097500  1.0  -0.2161
  N  N2516  1  0.150070  0.239400  0.152400  1.0  -0.5744
  N  N2517  1  0.151800  0.117300  0.019600  1.0  -0.3508
  N  N2518  1  0.181980  0.268700  0.068400  1.0  -0.2901
  N  N2519  1  0.324070  0.533100  0.310200  1.0  -0.1504
  N  N2520  1  0.304810  0.449300  0.472900  1.0  -0.1318
  N  N2521  1  0.162920  0.757700  0.625400  1.0  0.1314
  N  N2522  1  0.167440  0.890500  0.737700  1.0  -0.3305
  N  N2523  1  0.183060  0.802300  0.597500  1.0  -0.2161
  N  N2524  1  0.150070  0.739400  0.652400  1.0  -0.5744
  N  N2525  1  0.151800  0.617300  0.519600  1.0  -0.3508
  N  N2526  1  0.181980  0.768700  0.568400  1.0  -0.2901
  N  N2527  1  0.324070  0.033100  0.810200  1.0  -0.1504
  N  N2528  1  0.304810  0.949300  0.972900  1.0  -0.1318
  N  N2529  1  0.662920  0.257700  0.625400  1.0  0.1314
  N  N2530  1  0.667440  0.390500  0.737700  1.0  -0.3305
  N  N2531  1  0.683060  0.302300  0.597500  1.0  -0.2161
  N  N2532  1  0.650070  0.239400  0.652400  1.0  -0.5744
  N  N2533  1  0.651800  0.117300  0.519600  1.0  -0.3508
  N  N2534  1  0.681980  0.268700  0.568400  1.0  -0.2901
  N  N2535  1  0.824070  0.533100  0.810200  1.0  -0.1504
  N  N2536  1  0.804810  0.449300  0.972900  1.0  -0.1318
  N  N2537  1  0.662920  0.757700  0.125400  1.0  0.1314
  N  N2538  1  0.667440  0.890500  0.237700  1.0  -0.3305
  N  N2539  1  0.683060  0.802300  0.097500  1.0  -0.2161
  N  N2540  1  0.650070  0.739400  0.152400  1.0  -0.5744
  N  N2541  1  0.651800  0.617300  0.019600  1.0  -0.3508
  N  N2542  1  0.681980  0.768700  0.068400  1.0  -0.2901
  N  N2543  1  0.824070  0.033100  0.310200  1.0  -0.1504
  N  N2544  1  0.804810  0.949300  0.472900  1.0  -0.1318
  O  O2545  1  0.874250  0.973200  0.007100  1.0  -0.5411
  O  O2546  1  0.854940  0.523700  0.255000  1.0  -0.5466
  O  O2547  1  0.848150  0.463000  0.297800  1.0  -0.6491
  O  O2548  1  0.085190  0.245400  0.177000  1.0  -0.5918
  O  O2549  1  0.857870  0.036700  0.863300  1.0  -0.603
  O  O2550  1  0.079620  0.298500  0.229800  1.0  -0.5689
  O  O2551  1  0.844710  0.097700  0.833500  1.0  -0.621
  O  O2552  1  0.867280  0.451400  0.386500  1.0  -0.5947
  O  O2553  1  0.866000  0.400700  0.440800  1.0  -0.606
  O  O2554  1  0.066200  0.254400  0.096900  1.0  -0.6335
  O  O2555  1  0.852550  0.984600  0.057100  1.0  -0.6951
  O  O2556  1  0.063710  0.217200  0.034400  1.0  -0.5732
  O  O2557  1  0.874250  0.473200  0.507100  1.0  -0.5411
  O  O2558  1  0.854940  0.023700  0.755000  1.0  -0.5466
  O  O2559  1  0.848150  0.963000  0.797800  1.0  -0.6491
  O  O2560  1  0.085190  0.745400  0.677000  1.0  -0.5918
  O  O2561  1  0.857870  0.536700  0.363300  1.0  -0.603
  O  O2562  1  0.079620  0.798500  0.729800  1.0  -0.5689
  O  O2563  1  0.844710  0.597700  0.333500  1.0  -0.621
  O  O2564  1  0.867280  0.951400  0.886500  1.0  -0.5947
  O  O2565  1  0.866000  0.900700  0.940800  1.0  -0.606
  O  O2566  1  0.066200  0.754400  0.596900  1.0  -0.6335
  O  O2567  1  0.852550  0.484600  0.557100  1.0  -0.6951
  O  O2568  1  0.063710  0.717200  0.534400  1.0  -0.5732
  O  O2569  1  0.374250  0.973200  0.507100  1.0  -0.5411
  O  O2570  1  0.354940  0.523700  0.755000  1.0  -0.5466
  O  O2571  1  0.348150  0.463000  0.797800  1.0  -0.6491
  O  O2572  1  0.585190  0.245400  0.677000  1.0  -0.5918
  O  O2573  1  0.357870  0.036700  0.363300  1.0  -0.603
  O  O2574  1  0.579620  0.298500  0.729800  1.0  -0.5689
  O  O2575  1  0.344710  0.097700  0.333500  1.0  -0.621
  O  O2576  1  0.367280  0.451400  0.886500  1.0  -0.5947
  O  O2577  1  0.366000  0.400700  0.940800  1.0  -0.606
  O  O2578  1  0.566200  0.254400  0.596900  1.0  -0.6335
  O  O2579  1  0.352550  0.984600  0.557100  1.0  -0.6951
  O  O2580  1  0.563710  0.217200  0.534400  1.0  -0.5732
  O  O2581  1  0.374250  0.473200  0.007100  1.0  -0.5411
  O  O2582  1  0.354940  0.023700  0.255000  1.0  -0.5466
  O  O2583  1  0.348150  0.963000  0.297800  1.0  -0.6491
  O  O2584  1  0.585190  0.745400  0.177000  1.0  -0.5918
  O  O2585  1  0.357870  0.536700  0.863300  1.0  -0.603
  O  O2586  1  0.579620  0.798500  0.229800  1.0  -0.5689
  O  O2587  1  0.344710  0.597700  0.833500  1.0  -0.621
  O  O2588  1  0.367280  0.951400  0.386500  1.0  -0.5947
  O  O2589  1  0.366000  0.900700  0.440800  1.0  -0.606
  O  O2590  1  0.566200  0.754400  0.096900  1.0  -0.6335
  O  O2591  1  0.352550  0.484600  0.057100  1.0  -0.6951
  O  O2592  1  0.563710  0.717200  0.034400  1.0  -0.5732
  O  O2593  1  0.124250  0.276800  0.257100  1.0  -0.5407
  O  O2594  1  0.104940  0.726300  0.505000  1.0  -0.5471
  O  O2595  1  0.098150  0.787000  0.547800  1.0  -0.649
  O  O2596  1  0.335190  0.004600  0.427000  1.0  -0.5922
  O  O2597  1  0.107870  0.213300  0.113300  1.0  -0.6039
  O  O2598  1  0.329620  0.951500  0.479800  1.0  -0.5691
  O  O2599  1  0.094710  0.152300  0.083500  1.0  -0.6214
  O  O2600  1  0.117280  0.798600  0.636500  1.0  -0.5931
  O  O2601  1  0.116000  0.849300  0.690800  1.0  -0.6053
  O  O2602  1  0.316200  0.995600  0.346900  1.0  -0.6344
  O  O2603  1  0.102550  0.265400  0.307100  1.0  -0.6946
  O  O2604  1  0.313710  0.032800  0.284400  1.0  -0.5736
  O  O2605  1  0.124250  0.776800  0.757100  1.0  -0.5407
  O  O2606  1  0.104940  0.226300  0.005000  1.0  -0.5471
  O  O2607  1  0.098150  0.287000  0.047800  1.0  -0.649
  O  O2608  1  0.335190  0.504600  0.927000  1.0  -0.5922
  O  O2609  1  0.107870  0.713300  0.613300  1.0  -0.6039
  O  O2610  1  0.329620  0.451500  0.979800  1.0  -0.5691
  O  O2611  1  0.094710  0.652300  0.583500  1.0  -0.6214
  O  O2612  1  0.117280  0.298600  0.136500  1.0  -0.5931
  O  O2613  1  0.116000  0.349300  0.190800  1.0  -0.6053
  O  O2614  1  0.316200  0.495600  0.846900  1.0  -0.6344
  O  O2615  1  0.102550  0.765400  0.807100  1.0  -0.6946
  O  O2616  1  0.313710  0.532800  0.784400  1.0  -0.5736
  O  O2617  1  0.624250  0.276800  0.757100  1.0  -0.5407
  O  O2618  1  0.604940  0.726300  0.005000  1.0  -0.5471
  O  O2619  1  0.598150  0.787000  0.047800  1.0  -0.649
  O  O2620  1  0.835190  0.004600  0.927000  1.0  -0.5922
  O  O2621  1  0.607870  0.213300  0.613300  1.0  -0.6039
  O  O2622  1  0.829620  0.951500  0.979800  1.0  -0.5691
  O  O2623  1  0.594710  0.152300  0.583500  1.0  -0.6214
  O  O2624  1  0.617280  0.798600  0.136500  1.0  -0.5931
  O  O2625  1  0.616000  0.849300  0.190800  1.0  -0.6053
  O  O2626  1  0.816200  0.995600  0.846900  1.0  -0.6344
  O  O2627  1  0.602550  0.265400  0.807100  1.0  -0.6946
  O  O2628  1  0.813710  0.032800  0.784400  1.0  -0.5736
  O  O2629  1  0.624250  0.776800  0.257100  1.0  -0.5407
  O  O2630  1  0.604940  0.226300  0.505000  1.0  -0.5471
  O  O2631  1  0.598150  0.287000  0.547800  1.0  -0.649
  O  O2632  1  0.835190  0.504600  0.427000  1.0  -0.5922
  O  O2633  1  0.607870  0.713300  0.113300  1.0  -0.6039
  O  O2634  1  0.829620  0.451500  0.479800  1.0  -0.5691
  O  O2635  1  0.594710  0.652300  0.083500  1.0  -0.6214
  O  O2636  1  0.617280  0.298600  0.636500  1.0  -0.5931
  O  O2637  1  0.616000  0.349300  0.690800  1.0  -0.6053
  O  O2638  1  0.816200  0.495600  0.346900  1.0  -0.6344
  O  O2639  1  0.602550  0.765400  0.307100  1.0  -0.6946
  O  O2640  1  0.813710  0.532800  0.284400  1.0  -0.5736
  O  O2641  1  0.125750  0.026800  0.007100  1.0  -0.5396
  O  O2642  1  0.145060  0.476300  0.255000  1.0  -0.5476
  O  O2643  1  0.151850  0.537000  0.297800  1.0  -0.6496
  O  O2644  1  0.914810  0.754600  0.177000  1.0  -0.5919
  O  O2645  1  0.142130  0.963300  0.863300  1.0  -0.6032
  O  O2646  1  0.920380  0.701500  0.229800  1.0  -0.5685
  O  O2647  1  0.155290  0.902300  0.833500  1.0  -0.6201
  O  O2648  1  0.132720  0.548600  0.386500  1.0  -0.5956
  O  O2649  1  0.134000  0.599300  0.440800  1.0  -0.6082
  O  O2650  1  0.933800  0.745600  0.096900  1.0  -0.6352
  O  O2651  1  0.147450  0.015400  0.057100  1.0  -0.6774
  O  O2652  1  0.936290  0.782800  0.034400  1.0  -0.573
  O  O2653  1  0.125750  0.526800  0.507100  1.0  -0.5396
  O  O2654  1  0.145060  0.976300  0.755000  1.0  -0.5476
  O  O2655  1  0.151850  0.037000  0.797800  1.0  -0.6496
  O  O2656  1  0.914810  0.254600  0.677000  1.0  -0.5919
  O  O2657  1  0.142130  0.463300  0.363300  1.0  -0.6032
  O  O2658  1  0.920380  0.201500  0.729800  1.0  -0.5685
  O  O2659  1  0.155290  0.402300  0.333500  1.0  -0.6201
  O  O2660  1  0.132720  0.048600  0.886500  1.0  -0.5956
  O  O2661  1  0.134000  0.099300  0.940800  1.0  -0.6082
  O  O2662  1  0.933800  0.245600  0.596900  1.0  -0.6352
  O  O2663  1  0.147450  0.515400  0.557100  1.0  -0.6774
  O  O2664  1  0.936290  0.282800  0.534400  1.0  -0.573
  O  O2665  1  0.625750  0.026800  0.507100  1.0  -0.5396
  O  O2666  1  0.645060  0.476300  0.755000  1.0  -0.5476
  O  O2667  1  0.651850  0.537000  0.797800  1.0  -0.6496
  O  O2668  1  0.414810  0.754600  0.677000  1.0  -0.5919
  O  O2669  1  0.642130  0.963300  0.363300  1.0  -0.6032
  O  O2670  1  0.420380  0.701500  0.729800  1.0  -0.5685
  O  O2671  1  0.655290  0.902300  0.333500  1.0  -0.6201
  O  O2672  1  0.632720  0.548600  0.886500  1.0  -0.5956
  O  O2673  1  0.634000  0.599300  0.940800  1.0  -0.6082
  O  O2674  1  0.433800  0.745600  0.596900  1.0  -0.6352
  O  O2675  1  0.647450  0.015400  0.557100  1.0  -0.6774
  O  O2676  1  0.436290  0.782800  0.534400  1.0  -0.573
  O  O2677  1  0.625750  0.526800  0.007100  1.0  -0.5396
  O  O2678  1  0.645060  0.976300  0.255000  1.0  -0.5476
  O  O2679  1  0.651850  0.037000  0.297800  1.0  -0.6496
  O  O2680  1  0.414810  0.254600  0.177000  1.0  -0.5919
  O  O2681  1  0.642130  0.463300  0.863300  1.0  -0.6032
  O  O2682  1  0.420380  0.201500  0.229800  1.0  -0.5685
  O  O2683  1  0.655290  0.402300  0.833500  1.0  -0.6201
  O  O2684  1  0.632720  0.048600  0.386500  1.0  -0.5956
  O  O2685  1  0.634000  0.099300  0.440800  1.0  -0.6082
  O  O2686  1  0.433800  0.245600  0.096900  1.0  -0.6352
  O  O2687  1  0.647450  0.515400  0.057100  1.0  -0.6774
  O  O2688  1  0.436290  0.282800  0.034400  1.0  -0.573
  O  O2689  1  0.375750  0.223200  0.257100  1.0  -0.5399
  O  O2690  1  0.395060  0.773700  0.505000  1.0  -0.5475
  O  O2691  1  0.401850  0.713000  0.547800  1.0  -0.6503
  O  O2692  1  0.164810  0.495400  0.427000  1.0  -0.5916
  O  O2693  1  0.392130  0.286700  0.113300  1.0  -0.6026
  O  O2694  1  0.170380  0.548500  0.479800  1.0  -0.5682
  O  O2695  1  0.405290  0.347700  0.083500  1.0  -0.6198
  O  O2696  1  0.382720  0.701400  0.636500  1.0  -0.5945
  O  O2697  1  0.384000  0.650700  0.690800  1.0  -0.6085
  O  O2698  1  0.183800  0.504400  0.346900  1.0  -0.634
  O  O2699  1  0.397450  0.234600  0.307100  1.0  -0.6773
  O  O2700  1  0.186290  0.467200  0.284400  1.0  -0.5727
  O  O2701  1  0.375750  0.723200  0.757100  1.0  -0.5399
  O  O2702  1  0.395060  0.273700  0.005000  1.0  -0.5475
  O  O2703  1  0.401850  0.213000  0.047800  1.0  -0.6503
  O  O2704  1  0.164810  0.995400  0.927000  1.0  -0.5916
  O  O2705  1  0.392130  0.786700  0.613300  1.0  -0.6026
  O  O2706  1  0.170380  0.048500  0.979800  1.0  -0.5682
  O  O2707  1  0.405290  0.847700  0.583500  1.0  -0.6198
  O  O2708  1  0.382720  0.201400  0.136500  1.0  -0.5945
  O  O2709  1  0.384000  0.150700  0.190800  1.0  -0.6085
  O  O2710  1  0.183800  0.004400  0.846900  1.0  -0.634
  O  O2711  1  0.397450  0.734600  0.807100  1.0  -0.6773
  O  O2712  1  0.186290  0.967200  0.784400  1.0  -0.5727
  O  O2713  1  0.875750  0.223200  0.757100  1.0  -0.5399
  O  O2714  1  0.895060  0.773700  0.005000  1.0  -0.5475
  O  O2715  1  0.901850  0.713000  0.047800  1.0  -0.6503
  O  O2716  1  0.664810  0.495400  0.927000  1.0  -0.5916
  O  O2717  1  0.892130  0.286700  0.613300  1.0  -0.6026
  O  O2718  1  0.670380  0.548500  0.979800  1.0  -0.5682
  O  O2719  1  0.905290  0.347700  0.583500  1.0  -0.6197
  O  O2720  1  0.882720  0.701400  0.136500  1.0  -0.5945
  O  O2721  1  0.884000  0.650700  0.190800  1.0  -0.6085
  O  O2722  1  0.683800  0.504400  0.846900  1.0  -0.634
  O  O2723  1  0.897450  0.234600  0.807100  1.0  -0.6773
  O  O2724  1  0.686290  0.467200  0.784400  1.0  -0.5727
  O  O2725  1  0.875750  0.723200  0.257100  1.0  -0.5399
  O  O2726  1  0.895060  0.273700  0.505000  1.0  -0.5475
  O  O2727  1  0.901850  0.213000  0.547800  1.0  -0.6503
  O  O2728  1  0.664810  0.995400  0.427000  1.0  -0.5916
  O  O2729  1  0.892130  0.786700  0.113300  1.0  -0.6026
  O  O2730  1  0.670380  0.048500  0.479800  1.0  -0.5682
  O  O2731  1  0.905290  0.847700  0.083500  1.0  -0.6197
  O  O2732  1  0.882720  0.201400  0.636500  1.0  -0.5945
  O  O2733  1  0.884000  0.150700  0.690800  1.0  -0.6085
  O  O2734  1  0.683800  0.004400  0.346900  1.0  -0.634
  O  O2735  1  0.897450  0.734600  0.307100  1.0  -0.6773
  O  O2736  1  0.686290  0.967200  0.284400  1.0  -0.5727
