# generated using pymatgen
data_CdH16C22(N3O)2
_symmetry_space_group_name_H-M   'P 1'
_cell_length_a   22.26100000
_cell_length_b   22.26100000
_cell_length_c   32.92000000
_cell_angle_alpha   90.00000000
_cell_angle_beta   90.00000000
_cell_angle_gamma   90.00000000
_symmetry_Int_Tables_number   1
_chemical_formula_structural   CdH16C22(N3O)2
_chemical_formula_sum   'Cd16 H256 C352 N96 O32'
_cell_volume   16313.57582332
_cell_formula_units_Z   16
loop_
 _symmetry_equiv_pos_site_id
 _symmetry_equiv_pos_as_xyz
  1  'x, y, z'
loop_
 _atom_site_type_symbol
 _atom_site_label
 _atom_site_symmetry_multiplicity
 _atom_site_fract_x
 _atom_site_fract_y
 _atom_site_fract_z
 _atom_site_occupancy
 _atom_site_charge
  Cd  Cd1  1  0.835900  0.385530  0.252450  1.0  0.9784
  Cd  Cd2  1  0.336910  0.360360  0.104860  1.0  0.6545
  Cd  Cd3  1  0.335900  0.885530  0.752450  1.0  0.9784
  Cd  Cd4  1  0.836910  0.860360  0.604860  1.0  0.6545
  Cd  Cd5  1  0.664100  0.114470  0.752450  1.0  0.978
  Cd  Cd6  1  0.163090  0.139640  0.604860  1.0  0.6537
  Cd  Cd7  1  0.164100  0.614470  0.252450  1.0  0.978
  Cd  Cd8  1  0.663090  0.639640  0.104860  1.0  0.6537
  Cd  Cd9  1  0.614470  0.335900  0.502450  1.0  0.9789
  Cd  Cd10  1  0.639640  0.836910  0.354860  1.0  0.6542
  Cd  Cd11  1  0.114470  0.835900  0.002450  1.0  0.9789
  Cd  Cd12  1  0.139640  0.336910  0.854860  1.0  0.6542
  Cd  Cd13  1  0.885530  0.164100  0.002450  1.0  0.9781
  Cd  Cd14  1  0.860360  0.663090  0.854860  1.0  0.6542
  Cd  Cd15  1  0.385530  0.664100  0.502450  1.0  0.9781
  Cd  Cd16  1  0.360360  0.163090  0.354860  1.0  0.6542
  H  H17  1  0.738000  0.284500  0.110800  1.0  0.0995
  H  H18  1  0.711600  0.467300  0.219900  1.0  0.0994
  H  H19  1  0.648600  0.446900  0.160800  1.0  0.114
  H  H20  1  0.748100  0.304500  0.183300  1.0  0.091
  H  H21  1  0.585400  0.379100  0.125600  1.0  0.1124
  H  H22  1  0.599800  0.256300  0.036800  1.0  0.1082
  H  H23  1  0.482600  0.346900  0.119500  1.0  0.0906
  H  H24  1  0.236500  0.318500  0.254900  1.0  0.1069
  H  H25  1  0.094800  0.317500  0.329000  1.0  0.1112
  H  H26  1  0.983000  0.373700  0.237500  1.0  0.0651
  H  H27  1  0.094200  0.422400  0.229700  1.0  0.109
  H  H28  1  0.802700  0.424100  0.127300  1.0  0.0642
  H  H29  1  0.778500  0.424100  0.060700  1.0  0.1215
  H  H30  1  0.927900  0.326500  0.038000  1.0  0.0945
  H  H31  1  0.844400  0.373800  0.015000  1.0  0.094
  H  H32  1  0.055700  0.192800  0.093600  1.0  0.0945
  H  H33  1  0.240100  0.477700  0.133100  1.0  0.0888
  H  H34  1  0.240400  0.315500  0.179500  1.0  0.0767
  H  H35  1  0.285000  0.268100  0.303800  1.0  0.0749
  H  H36  1  0.176700  0.480700  0.191400  1.0  0.0979
  H  H37  1  0.088500  0.330100  0.167300  1.0  0.0946
  H  H38  1  0.117100  0.239900  0.138600  1.0  0.102
  H  H39  1  0.999400  0.371400  0.151500  1.0  0.0884
  H  H40  1  0.022100  0.412600  0.349600  1.0  0.1104
  H  H41  1  0.521400  0.320100  0.004900  1.0  0.1165
  H  H42  1  0.410100  0.344000  0.013900  1.0  0.0894
  H  H43  1  0.913600  0.414500  0.340600  1.0  0.0959
  H  H44  1  0.209500  0.163600  0.381400  1.0  0.092
  H  H45  1  0.131900  0.229800  0.355400  1.0  0.1133
  H  H46  1  0.796100  0.250100  0.055200  1.0  0.0828
  H  H47  1  0.738100  0.111300  0.995000  1.0  0.0981
  H  H48  1  0.649600  0.165600  0.019700  1.0  0.1125
  H  H49  1  0.238000  0.784500  0.610800  1.0  0.0995
  H  H50  1  0.211600  0.967300  0.719900  1.0  0.0994
  H  H51  1  0.148600  0.946900  0.660800  1.0  0.114
  H  H52  1  0.248100  0.804500  0.683300  1.0  0.091
  H  H53  1  0.085400  0.879100  0.625600  1.0  0.1124
  H  H54  1  0.099800  0.756300  0.536800  1.0  0.1082
  H  H55  1  0.982600  0.846900  0.619500  1.0  0.0906
  H  H56  1  0.736500  0.818500  0.754900  1.0  0.1069
  H  H57  1  0.594800  0.817500  0.829000  1.0  0.1112
  H  H58  1  0.483000  0.873700  0.737500  1.0  0.0651
  H  H59  1  0.594200  0.922400  0.729700  1.0  0.109
  H  H60  1  0.302700  0.924100  0.627300  1.0  0.0642
  H  H61  1  0.278500  0.924100  0.560700  1.0  0.1215
  H  H62  1  0.427900  0.826500  0.538000  1.0  0.0945
  H  H63  1  0.344400  0.873800  0.515000  1.0  0.094
  H  H64  1  0.555700  0.692800  0.593600  1.0  0.0945
  H  H65  1  0.740100  0.977700  0.633100  1.0  0.0888
  H  H66  1  0.740400  0.815500  0.679500  1.0  0.0767
  H  H67  1  0.785000  0.768100  0.803800  1.0  0.0749
  H  H68  1  0.676700  0.980700  0.691400  1.0  0.0979
  H  H69  1  0.588500  0.830100  0.667300  1.0  0.0946
  H  H70  1  0.617100  0.739900  0.638600  1.0  0.102
  H  H71  1  0.499400  0.871400  0.651500  1.0  0.0884
  H  H72  1  0.522100  0.912600  0.849600  1.0  0.1104
  H  H73  1  0.021400  0.820100  0.504900  1.0  0.1165
  H  H74  1  0.910100  0.844000  0.513900  1.0  0.0894
  H  H75  1  0.413600  0.914500  0.840600  1.0  0.0959
  H  H76  1  0.709500  0.663600  0.881400  1.0  0.0911
  H  H77  1  0.631900  0.729800  0.855400  1.0  0.1136
  H  H78  1  0.296100  0.750100  0.555200  1.0  0.0828
  H  H79  1  0.238100  0.611300  0.495000  1.0  0.0981
  H  H80  1  0.149600  0.665600  0.519700  1.0  0.1125
  H  H81  1  0.762000  0.215500  0.610800  1.0  0.0995
  H  H82  1  0.788400  0.032700  0.719900  1.0  0.0998
  H  H83  1  0.851400  0.053100  0.660800  1.0  0.1135
  H  H84  1  0.751900  0.195500  0.683300  1.0  0.0899
  H  H85  1  0.914600  0.120900  0.625600  1.0  0.1124
  H  H86  1  0.900200  0.243700  0.536800  1.0  0.1084
  H  H87  1  0.017400  0.153100  0.619500  1.0  0.0905
  H  H88  1  0.263500  0.181500  0.754900  1.0  0.1069
  H  H89  1  0.405200  0.182500  0.829000  1.0  0.1107
  H  H90  1  0.517000  0.126300  0.737500  1.0  0.0658
  H  H91  1  0.405800  0.077600  0.729700  1.0  0.109
  H  H92  1  0.697300  0.075900  0.627300  1.0  0.0643
  H  H93  1  0.721500  0.075900  0.560700  1.0  0.1209
  H  H94  1  0.572100  0.173500  0.538000  1.0  0.0943
  H  H95  1  0.655600  0.126200  0.515000  1.0  0.0948
  H  H96  1  0.444300  0.307200  0.593600  1.0  0.0942
  H  H97  1  0.259900  0.022300  0.633100  1.0  0.0891
  H  H98  1  0.259600  0.184500  0.679500  1.0  0.0766
  H  H99  1  0.215000  0.231900  0.803800  1.0  0.075
  H  H100  1  0.323300  0.019300  0.691400  1.0  0.0981
  H  H101  1  0.411500  0.169900  0.667300  1.0  0.0947
  H  H102  1  0.382900  0.260100  0.638600  1.0  0.1016
  H  H103  1  0.500600  0.128600  0.651500  1.0  0.0884
  H  H104  1  0.477900  0.087400  0.849600  1.0  0.1103
  H  H105  1  0.978600  0.179900  0.504900  1.0  0.1167
  H  H106  1  0.089900  0.156000  0.513900  1.0  0.0906
  H  H107  1  0.586400  0.085500  0.840600  1.0  0.0966
  H  H108  1  0.290500  0.336400  0.881400  1.0  0.0903
  H  H109  1  0.368100  0.270200  0.855400  1.0  0.1135
  H  H110  1  0.703900  0.249900  0.555200  1.0  0.083
  H  H111  1  0.761900  0.388700  0.495000  1.0  0.0986
  H  H112  1  0.850400  0.334400  0.519700  1.0  0.1121
  H  H113  1  0.262000  0.715500  0.110800  1.0  0.0995
  H  H114  1  0.288400  0.532700  0.219900  1.0  0.0998
  H  H115  1  0.351400  0.553100  0.160800  1.0  0.1135
  H  H116  1  0.251900  0.695500  0.183300  1.0  0.0899
  H  H117  1  0.414600  0.620900  0.125600  1.0  0.1124
  H  H118  1  0.400200  0.743700  0.036800  1.0  0.1084
  H  H119  1  0.517400  0.653100  0.119500  1.0  0.0905
  H  H120  1  0.763500  0.681500  0.254900  1.0  0.1069
  H  H121  1  0.905200  0.682500  0.329000  1.0  0.1107
  H  H122  1  0.017000  0.626300  0.237500  1.0  0.0658
  H  H123  1  0.905800  0.577600  0.229700  1.0  0.109
  H  H124  1  0.197300  0.575900  0.127300  1.0  0.0643
  H  H125  1  0.221500  0.575900  0.060700  1.0  0.1209
  H  H126  1  0.072100  0.673500  0.038000  1.0  0.0943
  H  H127  1  0.155600  0.626200  0.015000  1.0  0.0948
  H  H128  1  0.944300  0.807200  0.093600  1.0  0.0942
  H  H129  1  0.759900  0.522300  0.133100  1.0  0.0891
  H  H130  1  0.759600  0.684500  0.179500  1.0  0.0766
  H  H131  1  0.715000  0.731900  0.303800  1.0  0.075
  H  H132  1  0.823300  0.519300  0.191400  1.0  0.0981
  H  H133  1  0.911500  0.669900  0.167300  1.0  0.0947
  H  H134  1  0.882900  0.760100  0.138600  1.0  0.1016
  H  H135  1  0.000600  0.628600  0.151500  1.0  0.0884
  H  H136  1  0.977900  0.587400  0.349600  1.0  0.1103
  H  H137  1  0.478600  0.679900  0.004900  1.0  0.1167
  H  H138  1  0.589900  0.656000  0.013900  1.0  0.0906
  H  H139  1  0.086400  0.585500  0.340600  1.0  0.0966
  H  H140  1  0.790500  0.836400  0.381400  1.0  0.0914
  H  H141  1  0.868100  0.770200  0.355400  1.0  0.1133
  H  H142  1  0.203900  0.749900  0.055200  1.0  0.083
  H  H143  1  0.261900  0.888700  0.995000  1.0  0.0986
  H  H144  1  0.350400  0.834400  0.019700  1.0  0.1121
  H  H145  1  0.715500  0.238000  0.360800  1.0  0.0986
  H  H146  1  0.532700  0.211600  0.469900  1.0  0.1005
  H  H147  1  0.553100  0.148600  0.410800  1.0  0.1142
  H  H148  1  0.695500  0.248100  0.433300  1.0  0.0906
  H  H149  1  0.620900  0.085400  0.375600  1.0  0.1133
  H  H150  1  0.743700  0.099800  0.286800  1.0  0.1084
  H  H151  1  0.653100  0.982600  0.369500  1.0  0.0909
  H  H152  1  0.681500  0.736500  0.504900  1.0  0.1064
  H  H153  1  0.682500  0.594800  0.579000  1.0  0.111
  H  H154  1  0.626300  0.483000  0.487500  1.0  0.0661
  H  H155  1  0.577600  0.594200  0.479700  1.0  0.109
  H  H156  1  0.575900  0.302700  0.377300  1.0  0.0651
  H  H157  1  0.575900  0.278500  0.310700  1.0  0.1202
  H  H158  1  0.673500  0.427900  0.288000  1.0  0.0933
  H  H159  1  0.626200  0.344400  0.265000  1.0  0.094
  H  H160  1  0.807200  0.555700  0.343600  1.0  0.0944
  H  H161  1  0.522300  0.740100  0.383100  1.0  0.0884
  H  H162  1  0.684500  0.740400  0.429500  1.0  0.0753
  H  H163  1  0.731900  0.785000  0.553800  1.0  0.0749
  H  H164  1  0.519300  0.676700  0.441400  1.0  0.098
  H  H165  1  0.669900  0.588500  0.417300  1.0  0.0947
  H  H166  1  0.760100  0.617100  0.388600  1.0  0.1019
  H  H167  1  0.628600  0.499400  0.401500  1.0  0.0893
  H  H168  1  0.587400  0.522100  0.599600  1.0  0.11
  H  H169  1  0.679900  0.021400  0.254900  1.0  0.116
  H  H170  1  0.656000  0.910100  0.263900  1.0  0.0907
  H  H171  1  0.585500  0.413600  0.590600  1.0  0.0956
  H  H172  1  0.836400  0.709500  0.631400  1.0  0.0899
  H  H173  1  0.770200  0.631900  0.605400  1.0  0.1135
  H  H174  1  0.749900  0.296100  0.305200  1.0  0.0823
  H  H175  1  0.888700  0.238100  0.245000  1.0  0.0978
  H  H176  1  0.834400  0.149600  0.269700  1.0  0.1124
  H  H177  1  0.215500  0.738000  0.860800  1.0  0.0986
  H  H178  1  0.032700  0.711600  0.969900  1.0  0.1005
  H  H179  1  0.053100  0.648600  0.910800  1.0  0.1142
  H  H180  1  0.195500  0.748100  0.933300  1.0  0.0906
  H  H181  1  0.120900  0.585400  0.875600  1.0  0.1133
  H  H182  1  0.243700  0.599800  0.786800  1.0  0.1084
  H  H183  1  0.153100  0.482600  0.869500  1.0  0.0909
  H  H184  1  0.181500  0.236500  0.004900  1.0  0.1064
  H  H185  1  0.182500  0.094800  0.079000  1.0  0.111
  H  H186  1  0.126300  0.983000  0.987500  1.0  0.0661
  H  H187  1  0.077600  0.094200  0.979700  1.0  0.109
  H  H188  1  0.075900  0.802700  0.877300  1.0  0.0651
  H  H189  1  0.075900  0.778500  0.810700  1.0  0.1202
  H  H190  1  0.173500  0.927900  0.788000  1.0  0.0933
  H  H191  1  0.126200  0.844400  0.765000  1.0  0.094
  H  H192  1  0.307200  0.055700  0.843600  1.0  0.0944
  H  H193  1  0.022300  0.240100  0.883100  1.0  0.0884
  H  H194  1  0.184500  0.240400  0.929500  1.0  0.0753
  H  H195  1  0.231900  0.285000  0.053800  1.0  0.0749
  H  H196  1  0.019300  0.176700  0.941400  1.0  0.098
  H  H197  1  0.169900  0.088500  0.917300  1.0  0.0947
  H  H198  1  0.260100  0.117100  0.888600  1.0  0.1019
  H  H199  1  0.128600  0.999400  0.901500  1.0  0.0893
  H  H200  1  0.087400  0.022100  0.099600  1.0  0.11
  H  H201  1  0.179900  0.521400  0.754900  1.0  0.116
  H  H202  1  0.156000  0.410100  0.763900  1.0  0.0907
  H  H203  1  0.085500  0.913600  0.090600  1.0  0.0956
  H  H204  1  0.336400  0.209500  0.131400  1.0  0.0899
  H  H205  1  0.270200  0.131900  0.105400  1.0  0.1135
  H  H206  1  0.249900  0.796100  0.805200  1.0  0.0823
  H  H207  1  0.388700  0.738100  0.745000  1.0  0.0978
  H  H208  1  0.334400  0.649600  0.769700  1.0  0.1124
  H  H209  1  0.784500  0.262000  0.860800  1.0  0.0989
  H  H210  1  0.967300  0.288400  0.969900  1.0  0.1
  H  H211  1  0.946900  0.351400  0.910800  1.0  0.1137
  H  H212  1  0.804500  0.251900  0.933300  1.0  0.0916
  H  H213  1  0.879100  0.414600  0.875600  1.0  0.1126
  H  H214  1  0.756300  0.400200  0.786800  1.0  0.1083
  H  H215  1  0.846900  0.517400  0.869500  1.0  0.0907
  H  H216  1  0.818500  0.763500  0.004900  1.0  0.1065
  H  H217  1  0.817500  0.905200  0.079000  1.0  0.1116
  H  H218  1  0.873700  0.017000  0.987500  1.0  0.0662
  H  H219  1  0.922400  0.905800  0.979700  1.0  0.1094
  H  H220  1  0.924100  0.197300  0.877300  1.0  0.0647
  H  H221  1  0.924100  0.221500  0.810700  1.0  0.12
  H  H222  1  0.826500  0.072100  0.788000  1.0  0.0935
  H  H223  1  0.873800  0.155600  0.765000  1.0  0.0935
  H  H224  1  0.692800  0.944300  0.843600  1.0  0.094
  H  H225  1  0.977700  0.759900  0.883100  1.0  0.0886
  H  H226  1  0.815500  0.759600  0.929500  1.0  0.0774
  H  H227  1  0.768100  0.715000  0.053800  1.0  0.075
  H  H228  1  0.980700  0.823300  0.941400  1.0  0.099
  H  H229  1  0.830100  0.911500  0.917300  1.0  0.0946
  H  H230  1  0.739900  0.882900  0.888600  1.0  0.1021
  H  H231  1  0.871400  0.000600  0.901500  1.0  0.0887
  H  H232  1  0.912600  0.977900  0.099600  1.0  0.11
  H  H233  1  0.820100  0.478600  0.754900  1.0  0.1157
  H  H234  1  0.844000  0.589900  0.763900  1.0  0.0907
  H  H235  1  0.914500  0.086400  0.090600  1.0  0.0951
  H  H236  1  0.663600  0.790500  0.131400  1.0  0.0898
  H  H237  1  0.729800  0.868100  0.105400  1.0  0.1141
  H  H238  1  0.750100  0.203900  0.805200  1.0  0.083
  H  H239  1  0.611300  0.261900  0.745000  1.0  0.0988
  H  H240  1  0.665600  0.350400  0.769700  1.0  0.1127
  H  H241  1  0.284500  0.762000  0.360800  1.0  0.0989
  H  H242  1  0.467300  0.788400  0.469900  1.0  0.1
  H  H243  1  0.446900  0.851400  0.410800  1.0  0.1137
  H  H244  1  0.304500  0.751900  0.433300  1.0  0.0916
  H  H245  1  0.379100  0.914600  0.375600  1.0  0.1126
  H  H246  1  0.256300  0.900200  0.286800  1.0  0.1083
  H  H247  1  0.346900  0.017400  0.369500  1.0  0.0907
  H  H248  1  0.318500  0.263500  0.504900  1.0  0.1065
  H  H249  1  0.317500  0.405200  0.579000  1.0  0.1116
  H  H250  1  0.373700  0.517000  0.487500  1.0  0.0662
  H  H251  1  0.422400  0.405800  0.479700  1.0  0.1094
  H  H252  1  0.424100  0.697300  0.377300  1.0  0.0647
  H  H253  1  0.424100  0.721500  0.310700  1.0  0.12
  H  H254  1  0.326500  0.572100  0.288000  1.0  0.0935
  H  H255  1  0.373800  0.655600  0.265000  1.0  0.0935
  H  H256  1  0.192800  0.444300  0.343600  1.0  0.094
  H  H257  1  0.477700  0.259900  0.383100  1.0  0.0886
  H  H258  1  0.315500  0.259600  0.429500  1.0  0.0774
  H  H259  1  0.268100  0.215000  0.553800  1.0  0.075
  H  H260  1  0.480700  0.323300  0.441400  1.0  0.099
  H  H261  1  0.330100  0.411500  0.417300  1.0  0.0946
  H  H262  1  0.239900  0.382900  0.388600  1.0  0.1021
  H  H263  1  0.371400  0.500600  0.401500  1.0  0.0887
  H  H264  1  0.412600  0.477900  0.599600  1.0  0.11
  H  H265  1  0.320100  0.978600  0.254900  1.0  0.1157
  H  H266  1  0.344000  0.089900  0.263900  1.0  0.0907
  H  H267  1  0.414500  0.586400  0.590600  1.0  0.0951
  H  H268  1  0.163600  0.290500  0.631400  1.0  0.0898
  H  H269  1  0.229800  0.368100  0.605400  1.0  0.1141
  H  H270  1  0.250100  0.703900  0.305200  1.0  0.083
  H  H271  1  0.111300  0.761900  0.245000  1.0  0.0988
  H  H272  1  0.165600  0.850400  0.269700  1.0  0.1127
  C  C273  1  0.699000  0.293900  0.102900  1.0  -0.2221
  C  C274  1  0.711400  0.431700  0.205100  1.0  -0.0189
  C  C275  1  0.673700  0.266100  0.069200  1.0  0.1634
  C  C276  1  0.666400  0.335200  0.124760  1.0  0.1647
  C  C277  1  0.676500  0.420800  0.172300  1.0  -0.1654
  C  C278  1  0.731600  0.342800  0.185200  1.0  0.1248
  C  C279  1  0.607500  0.349900  0.112000  1.0  -0.2179
  C  C280  1  0.583800  0.320600  0.079300  1.0  0.1257
  C  C281  1  0.617100  0.277200  0.058300  1.0  -0.208
  C  C282  1  0.478100  0.342500  0.091500  1.0  0.1536
  C  C283  1  0.951800  0.220800  0.063800  1.0  0.6436
  C  C284  1  0.198300  0.332500  0.261260  1.0  -0.2184
  C  C285  1  0.085900  0.373100  0.281420  1.0  0.1611
  C  C286  1  0.113900  0.332100  0.305900  1.0  -0.1824
  C  C287  1  0.979300  0.386600  0.264260  1.0  0.1685
  C  C288  1  0.113400  0.394300  0.246200  1.0  -0.1894
  C  C289  1  0.170200  0.372500  0.236050  1.0  0.1644
  C  C290  1  0.170000  0.312900  0.296200  1.0  0.122
  C  C291  1  0.826900  0.403100  0.109200  1.0  -0.0728
  C  C292  1  0.876900  0.371600  0.124660  1.0  -0.0753
  C  C293  1  0.881000  0.367400  0.171000  1.0  0.6449
  C  C294  1  0.812700  0.404400  0.070000  1.0  -0.1489
  C  C295  1  0.989200  0.253800  0.093700  1.0  -0.0575
  C  C296  1  0.915100  0.341400  0.098140  1.0  -0.0015
  C  C297  1  0.902100  0.344700  0.056530  1.0  -0.0914
  C  C298  1  0.971600  0.308600  0.110950  1.0  0.0031
  C  C299  1  0.852600  0.373700  0.042700  1.0  -0.1387
  C  C300  1  0.043800  0.229200  0.104800  1.0  -0.1187
  C  C301  1  0.232500  0.445400  0.150200  1.0  0.0417
  C  C302  1  0.233700  0.356300  0.175600  1.0  0.1464
  C  C303  1  0.256400  0.251000  0.320800  1.0  0.1585
  C  C304  1  0.198100  0.447500  0.182300  1.0  -0.1221
  C  C305  1  0.063300  0.310900  0.148900  1.0  -0.1141
  C  C306  1  0.080400  0.257100  0.131700  1.0  -0.1278
  C  C307  1  0.010600  0.335500  0.139250  1.0  -0.117
  C  C308  1  0.001400  0.406000  0.325500  1.0  -0.1149
  C  C309  1  0.501100  0.328600  0.028900  1.0  -0.0784
  C  C310  1  0.437900  0.340500  0.034900  1.0  0.0047
  C  C311  1  0.941600  0.408400  0.320000  1.0  -0.0285
  C  C312  1  0.215500  0.194000  0.362500  1.0  -0.0191
  C  C313  1  0.172400  0.230600  0.348400  1.0  -0.1515
  C  C314  1  0.770200  0.222700  0.043000  1.0  0.136
  C  C315  1  0.738500  0.147100  0.009600  1.0  -0.0404
  C  C316  1  0.689500  0.176000  0.024300  1.0  -0.1059
  C  C317  1  0.199000  0.793900  0.602900  1.0  -0.2221
  C  C318  1  0.211400  0.931700  0.705100  1.0  -0.0189
  C  C319  1  0.173700  0.766100  0.569200  1.0  0.1634
  C  C320  1  0.166400  0.835200  0.624760  1.0  0.1647
  C  C321  1  0.176500  0.920800  0.672300  1.0  -0.1654
  C  C322  1  0.231600  0.842800  0.685200  1.0  0.1248
  C  C323  1  0.107500  0.849900  0.612000  1.0  -0.2179
  C  C324  1  0.083800  0.820600  0.579300  1.0  0.1257
  C  C325  1  0.117100  0.777200  0.558300  1.0  -0.208
  C  C326  1  0.978100  0.842500  0.591500  1.0  0.1536
  C  C327  1  0.451800  0.720800  0.563800  1.0  0.6436
  C  C328  1  0.698300  0.832500  0.761260  1.0  -0.2184
  C  C329  1  0.585900  0.873100  0.781420  1.0  0.1611
  C  C330  1  0.613900  0.832100  0.805900  1.0  -0.1824
  C  C331  1  0.479300  0.886600  0.764260  1.0  0.1685
  C  C332  1  0.613400  0.894300  0.746200  1.0  -0.1894
  C  C333  1  0.670200  0.872500  0.736050  1.0  0.1644
  C  C334  1  0.670000  0.812900  0.796200  1.0  0.122
  C  C335  1  0.326900  0.903100  0.609200  1.0  -0.0728
  C  C336  1  0.376900  0.871600  0.624660  1.0  -0.0753
  C  C337  1  0.381000  0.867400  0.671000  1.0  0.6449
  C  C338  1  0.312700  0.904400  0.570000  1.0  -0.1489
  C  C339  1  0.489200  0.753800  0.593700  1.0  -0.0575
  C  C340  1  0.415100  0.841400  0.598140  1.0  -0.0015
  C  C341  1  0.402100  0.844700  0.556530  1.0  -0.0914
  C  C342  1  0.471600  0.808600  0.610950  1.0  0.0031
  C  C343  1  0.352600  0.873700  0.542700  1.0  -0.1387
  C  C344  1  0.543800  0.729200  0.604800  1.0  -0.1187
  C  C345  1  0.732500  0.945400  0.650200  1.0  0.0417
  C  C346  1  0.733700  0.856300  0.675600  1.0  0.1464
  C  C347  1  0.756400  0.751000  0.820800  1.0  0.1585
  C  C348  1  0.698100  0.947500  0.682300  1.0  -0.1221
  C  C349  1  0.563300  0.810900  0.648900  1.0  -0.1141
  C  C350  1  0.580400  0.757100  0.631700  1.0  -0.1278
  C  C351  1  0.510600  0.835500  0.639250  1.0  -0.117
  C  C352  1  0.501400  0.906000  0.825500  1.0  -0.1149
  C  C353  1  0.001100  0.828600  0.528900  1.0  -0.0784
  C  C354  1  0.937900  0.840500  0.534900  1.0  0.0047
  C  C355  1  0.441600  0.908400  0.820000  1.0  -0.0285
  C  C356  1  0.715500  0.694000  0.862500  1.0  -0.0191
  C  C357  1  0.672400  0.730600  0.848400  1.0  -0.1515
  C  C358  1  0.270200  0.722700  0.543000  1.0  0.136
  C  C359  1  0.238500  0.647100  0.509600  1.0  -0.0404
  C  C360  1  0.189500  0.676000  0.524300  1.0  -0.1059
  C  C361  1  0.801000  0.206100  0.602900  1.0  -0.2236
  C  C362  1  0.788600  0.068300  0.705100  1.0  -0.019
  C  C363  1  0.826300  0.233900  0.569200  1.0  0.1634
  C  C364  1  0.833600  0.164800  0.624760  1.0  0.1648
  C  C365  1  0.823500  0.079200  0.672300  1.0  -0.1633
  C  C366  1  0.768400  0.157200  0.685200  1.0  0.1241
  C  C367  1  0.892500  0.150100  0.612000  1.0  -0.2159
  C  C368  1  0.916200  0.179400  0.579300  1.0  0.1263
  C  C369  1  0.882900  0.222800  0.558300  1.0  -0.2094
  C  C370  1  0.021900  0.157500  0.591500  1.0  0.1551
  C  C371  1  0.548200  0.279200  0.563800  1.0  0.6459
  C  C372  1  0.301700  0.167500  0.761260  1.0  -0.2191
  C  C373  1  0.414100  0.126900  0.781420  1.0  0.1618
  C  C374  1  0.386100  0.167900  0.805900  1.0  -0.183
  C  C375  1  0.520700  0.113400  0.764260  1.0  0.169
  C  C376  1  0.386600  0.105700  0.746200  1.0  -0.1891
  C  C377  1  0.329800  0.127500  0.736050  1.0  0.1643
  C  C378  1  0.330000  0.187100  0.796200  1.0  0.1211
  C  C379  1  0.673100  0.096900  0.609200  1.0  -0.0737
  C  C380  1  0.623100  0.128400  0.624660  1.0  -0.0765
  C  C381  1  0.619000  0.132600  0.671000  1.0  0.6446
  C  C382  1  0.687300  0.095600  0.570000  1.0  -0.1498
  C  C383  1  0.510800  0.246200  0.593700  1.0  -0.0577
  C  C384  1  0.584900  0.158600  0.598140  1.0  -0.0031
  C  C385  1  0.597900  0.155300  0.556530  1.0  -0.0926
  C  C386  1  0.528400  0.191400  0.610950  1.0  0.002
  C  C387  1  0.647400  0.126300  0.542700  1.0  -0.1399
  C  C388  1  0.456200  0.270800  0.604800  1.0  -0.1194
  C  C389  1  0.267500  0.054600  0.650200  1.0  0.0427
  C  C390  1  0.266300  0.143700  0.675600  1.0  0.1455
  C  C391  1  0.243600  0.249000  0.820800  1.0  0.1571
  C  C392  1  0.301900  0.052500  0.682300  1.0  -0.122
  C  C393  1  0.436700  0.189100  0.648900  1.0  -0.1139
  C  C394  1  0.419600  0.242900  0.631700  1.0  -0.1312
  C  C395  1  0.489400  0.164500  0.639250  1.0  -0.1154
  C  C396  1  0.498600  0.094000  0.825500  1.0  -0.1156
  C  C397  1  0.998900  0.171400  0.528900  1.0  -0.0786
  C  C398  1  0.062100  0.159500  0.534900  1.0  0.0018
  C  C399  1  0.558400  0.091600  0.820000  1.0  -0.0265
  C  C400  1  0.284500  0.306000  0.862500  1.0  -0.018
  C  C401  1  0.327600  0.269400  0.848400  1.0  -0.1482
  C  C402  1  0.729800  0.277300  0.543000  1.0  0.1352
  C  C403  1  0.761500  0.352900  0.509600  1.0  -0.0397
  C  C404  1  0.810500  0.324000  0.524300  1.0  -0.1034
  C  C405  1  0.301000  0.706100  0.102900  1.0  -0.2236
  C  C406  1  0.288600  0.568300  0.205100  1.0  -0.019
  C  C407  1  0.326300  0.733900  0.069200  1.0  0.1634
  C  C408  1  0.333600  0.664800  0.124760  1.0  0.1648
  C  C409  1  0.323500  0.579200  0.172300  1.0  -0.1633
  C  C410  1  0.268400  0.657200  0.185200  1.0  0.1241
  C  C411  1  0.392500  0.650100  0.112000  1.0  -0.2159
  C  C412  1  0.416200  0.679400  0.079300  1.0  0.1263
  C  C413  1  0.382900  0.722800  0.058300  1.0  -0.2094
  C  C414  1  0.521900  0.657500  0.091500  1.0  0.1551
  C  C415  1  0.048200  0.779200  0.063800  1.0  0.6459
  C  C416  1  0.801700  0.667500  0.261260  1.0  -0.2191
  C  C417  1  0.914100  0.626900  0.281420  1.0  0.1618
  C  C418  1  0.886100  0.667900  0.305900  1.0  -0.183
  C  C419  1  0.020700  0.613400  0.264260  1.0  0.169
  C  C420  1  0.886600  0.605700  0.246200  1.0  -0.1891
  C  C421  1  0.829800  0.627500  0.236050  1.0  0.1643
  C  C422  1  0.830000  0.687100  0.296200  1.0  0.1211
  C  C423  1  0.173100  0.596900  0.109200  1.0  -0.0737
  C  C424  1  0.123100  0.628400  0.124660  1.0  -0.0765
  C  C425  1  0.119000  0.632600  0.171000  1.0  0.6446
  C  C426  1  0.187300  0.595600  0.070000  1.0  -0.1498
  C  C427  1  0.010800  0.746200  0.093700  1.0  -0.0577
  C  C428  1  0.084900  0.658600  0.098140  1.0  -0.0031
  C  C429  1  0.097900  0.655300  0.056530  1.0  -0.0926
  C  C430  1  0.028400  0.691400  0.110950  1.0  0.002
  C  C431  1  0.147400  0.626300  0.042700  1.0  -0.1399
  C  C432  1  0.956200  0.770800  0.104800  1.0  -0.1194
  C  C433  1  0.767500  0.554600  0.150200  1.0  0.0427
  C  C434  1  0.766300  0.643700  0.175600  1.0  0.1455
  C  C435  1  0.743600  0.749000  0.320800  1.0  0.1571
  C  C436  1  0.801900  0.552500  0.182300  1.0  -0.122
  C  C437  1  0.936700  0.689100  0.148900  1.0  -0.1139
  C  C438  1  0.919600  0.742900  0.131700  1.0  -0.1312
  C  C439  1  0.989400  0.664500  0.139250  1.0  -0.1154
  C  C440  1  0.998600  0.594000  0.325500  1.0  -0.1156
  C  C441  1  0.498900  0.671400  0.028900  1.0  -0.0786
  C  C442  1  0.562100  0.659500  0.034900  1.0  0.0018
  C  C443  1  0.058400  0.591600  0.320000  1.0  -0.0265
  C  C444  1  0.784500  0.806000  0.362500  1.0  -0.018
  C  C445  1  0.827600  0.769400  0.348400  1.0  -0.1482
  C  C446  1  0.229800  0.777300  0.043000  1.0  0.1352
  C  C447  1  0.261500  0.852900  0.009600  1.0  -0.0397
  C  C448  1  0.310500  0.824000  0.024300  1.0  -0.1034
  C  C449  1  0.706100  0.199000  0.352900  1.0  -0.2239
  C  C450  1  0.568300  0.211400  0.455100  1.0  -0.0202
  C  C451  1  0.733900  0.173700  0.319200  1.0  0.1625
  C  C452  1  0.664800  0.166400  0.374760  1.0  0.1632
  C  C453  1  0.579200  0.176500  0.422300  1.0  -0.1613
  C  C454  1  0.657200  0.231600  0.435200  1.0  0.1244
  C  C455  1  0.650100  0.107500  0.362000  1.0  -0.2182
  C  C456  1  0.679400  0.083800  0.329300  1.0  0.1263
  C  C457  1  0.722800  0.117100  0.308300  1.0  -0.2079
  C  C458  1  0.657500  0.978100  0.341500  1.0  0.1531
  C  C459  1  0.779200  0.451800  0.313800  1.0  0.6453
  C  C460  1  0.667500  0.698300  0.511260  1.0  -0.2175
  C  C461  1  0.626900  0.585900  0.531420  1.0  0.1616
  C  C462  1  0.667900  0.613900  0.555900  1.0  -0.1823
  C  C463  1  0.613400  0.479300  0.514260  1.0  0.1677
  C  C464  1  0.605700  0.613400  0.496200  1.0  -0.1889
  C  C465  1  0.627500  0.670200  0.486050  1.0  0.1645
  C  C466  1  0.687100  0.670000  0.546200  1.0  0.1191
  C  C467  1  0.596900  0.326900  0.359200  1.0  -0.0702
  C  C468  1  0.628400  0.376900  0.374660  1.0  -0.075
  C  C469  1  0.632600  0.381000  0.421000  1.0  0.6455
  C  C470  1  0.595600  0.312700  0.320000  1.0  -0.1471
  C  C471  1  0.746200  0.489200  0.343700  1.0  -0.0576
  C  C472  1  0.658600  0.415100  0.348140  1.0  -0.0029
  C  C473  1  0.655300  0.402100  0.306530  1.0  -0.0894
  C  C474  1  0.691400  0.471600  0.360950  1.0  0.0038
  C  C475  1  0.626300  0.352600  0.292700  1.0  -0.1356
  C  C476  1  0.770800  0.543800  0.354800  1.0  -0.1184
  C  C477  1  0.554600  0.732500  0.400200  1.0  0.0415
  C  C478  1  0.643700  0.733700  0.425600  1.0  0.148
  C  C479  1  0.749000  0.756400  0.570800  1.0  0.1586
  C  C480  1  0.552500  0.698100  0.432300  1.0  -0.1221
  C  C481  1  0.689100  0.563300  0.398900  1.0  -0.113
  C  C482  1  0.742900  0.580400  0.381700  1.0  -0.128
  C  C483  1  0.664500  0.510600  0.389250  1.0  -0.1123
  C  C484  1  0.594000  0.501400  0.575500  1.0  -0.1163
  C  C485  1  0.671400  0.001100  0.278900  1.0  -0.0785
  C  C486  1  0.659500  0.937900  0.284900  1.0  0.0014
  C  C487  1  0.591600  0.441600  0.570000  1.0  -0.0285
  C  C488  1  0.806000  0.715500  0.612500  1.0  -0.0186
  C  C489  1  0.769400  0.672400  0.598400  1.0  -0.1493
  C  C490  1  0.777300  0.270200  0.293000  1.0  0.1339
  C  C491  1  0.852900  0.238500  0.259600  1.0  -0.042
  C  C492  1  0.824000  0.189500  0.274300  1.0  -0.106
  C  C493  1  0.206100  0.699000  0.852900  1.0  -0.2239
  C  C494  1  0.068300  0.711400  0.955100  1.0  -0.0202
  C  C495  1  0.233900  0.673700  0.819200  1.0  0.1625
  C  C496  1  0.164800  0.666400  0.874760  1.0  0.1632
  C  C497  1  0.079200  0.676500  0.922300  1.0  -0.1613
  C  C498  1  0.157200  0.731600  0.935200  1.0  0.1244
  C  C499  1  0.150100  0.607500  0.862000  1.0  -0.2182
  C  C500  1  0.179400  0.583800  0.829300  1.0  0.1263
  C  C501  1  0.222800  0.617100  0.808300  1.0  -0.2079
  C  C502  1  0.157500  0.478100  0.841500  1.0  0.1531
  C  C503  1  0.279200  0.951800  0.813800  1.0  0.6453
  C  C504  1  0.167500  0.198300  0.011260  1.0  -0.2175
  C  C505  1  0.126900  0.085900  0.031420  1.0  0.1616
  C  C506  1  0.167900  0.113900  0.055900  1.0  -0.1823
  C  C507  1  0.113400  0.979300  0.014260  1.0  0.1677
  C  C508  1  0.105700  0.113400  0.996200  1.0  -0.1889
  C  C509  1  0.127500  0.170200  0.986050  1.0  0.1645
  C  C510  1  0.187100  0.170000  0.046200  1.0  0.1191
  C  C511  1  0.096900  0.826900  0.859200  1.0  -0.0702
  C  C512  1  0.128400  0.876900  0.874660  1.0  -0.075
  C  C513  1  0.132600  0.881000  0.921000  1.0  0.6455
  C  C514  1  0.095600  0.812700  0.820000  1.0  -0.1471
  C  C515  1  0.246200  0.989200  0.843700  1.0  -0.0576
  C  C516  1  0.158600  0.915100  0.848140  1.0  -0.0029
  C  C517  1  0.155300  0.902100  0.806530  1.0  -0.0894
  C  C518  1  0.191400  0.971600  0.860950  1.0  0.0038
  C  C519  1  0.126300  0.852600  0.792700  1.0  -0.1356
  C  C520  1  0.270800  0.043800  0.854800  1.0  -0.1184
  C  C521  1  0.054600  0.232500  0.900200  1.0  0.0415
  C  C522  1  0.143700  0.233700  0.925600  1.0  0.148
  C  C523  1  0.249000  0.256400  0.070800  1.0  0.1586
  C  C524  1  0.052500  0.198100  0.932300  1.0  -0.1221
  C  C525  1  0.189100  0.063300  0.898900  1.0  -0.113
  C  C526  1  0.242900  0.080400  0.881700  1.0  -0.128
  C  C527  1  0.164500  0.010600  0.889250  1.0  -0.1123
  C  C528  1  0.094000  0.001400  0.075500  1.0  -0.1163
  C  C529  1  0.171400  0.501100  0.778900  1.0  -0.0785
  C  C530  1  0.159500  0.437900  0.784900  1.0  0.0014
  C  C531  1  0.091600  0.941600  0.070000  1.0  -0.0285
  C  C532  1  0.306000  0.215500  0.112500  1.0  -0.0186
  C  C533  1  0.269400  0.172400  0.098400  1.0  -0.1493
  C  C534  1  0.277300  0.770200  0.793000  1.0  0.1339
  C  C535  1  0.352900  0.738500  0.759600  1.0  -0.042
  C  C536  1  0.324000  0.689500  0.774300  1.0  -0.106
  C  C537  1  0.793900  0.301000  0.852900  1.0  -0.2264
  C  C538  1  0.931700  0.288600  0.955100  1.0  -0.0194
  C  C539  1  0.766100  0.326300  0.819200  1.0  0.1635
  C  C540  1  0.835200  0.333600  0.874760  1.0  0.1634
  C  C541  1  0.920800  0.323500  0.922300  1.0  -0.162
  C  C542  1  0.842800  0.268400  0.935200  1.0  0.1237
  C  C543  1  0.849900  0.392500  0.862000  1.0  -0.2172
  C  C544  1  0.820600  0.416200  0.829300  1.0  0.1262
  C  C545  1  0.777200  0.382900  0.808300  1.0  -0.2083
  C  C546  1  0.842500  0.521900  0.841500  1.0  0.1513
  C  C547  1  0.720800  0.048200  0.813800  1.0  0.645
  C  C548  1  0.832500  0.801700  0.011260  1.0  -0.2183
  C  C549  1  0.873100  0.914100  0.031420  1.0  0.1609
  C  C550  1  0.832100  0.886100  0.055900  1.0  -0.1834
  C  C551  1  0.886600  0.020700  0.014260  1.0  0.167
  C  C552  1  0.894300  0.886600  0.996200  1.0  -0.1891
  C  C553  1  0.872500  0.829800  0.986050  1.0  0.1645
  C  C554  1  0.812900  0.830000  0.046200  1.0  0.1196
  C  C555  1  0.903100  0.173100  0.859200  1.0  -0.0709
  C  C556  1  0.871600  0.123100  0.874660  1.0  -0.0747
  C  C557  1  0.867400  0.119000  0.921000  1.0  0.6457
  C  C558  1  0.904400  0.187300  0.820000  1.0  -0.1456
  C  C559  1  0.753800  0.010800  0.843700  1.0  -0.057
  C  C560  1  0.841400  0.084900  0.848140  1.0  -0.0017
  C  C561  1  0.844700  0.097900  0.806530  1.0  -0.0896
  C  C562  1  0.808600  0.028400  0.860950  1.0  0.0033
  C  C563  1  0.873700  0.147400  0.792700  1.0  -0.1343
  C  C564  1  0.729200  0.956200  0.854800  1.0  -0.1205
  C  C565  1  0.945400  0.767500  0.900200  1.0  0.0415
  C  C566  1  0.856300  0.766300  0.925600  1.0  0.1476
  C  C567  1  0.751000  0.743600  0.070800  1.0  0.1586
  C  C568  1  0.947500  0.801900  0.932300  1.0  -0.1211
  C  C569  1  0.810900  0.936700  0.898900  1.0  -0.1133
  C  C570  1  0.757100  0.919600  0.881700  1.0  -0.1286
  C  C571  1  0.835500  0.989400  0.889250  1.0  -0.1132
  C  C572  1  0.906000  0.998600  0.075500  1.0  -0.1151
  C  C573  1  0.828600  0.498900  0.778900  1.0  -0.0796
  C  C574  1  0.840500  0.562100  0.784900  1.0  -0.0008
  C  C575  1  0.908400  0.058400  0.070000  1.0  -0.0299
  C  C576  1  0.694000  0.784500  0.112500  1.0  -0.0191
  C  C577  1  0.730600  0.827600  0.098400  1.0  -0.1502
  C  C578  1  0.722700  0.229800  0.793000  1.0  0.1345
  C  C579  1  0.647100  0.261500  0.759600  1.0  -0.0419
  C  C580  1  0.676000  0.310500  0.774300  1.0  -0.1054
  C  C581  1  0.293900  0.801000  0.352900  1.0  -0.2264
  C  C582  1  0.431700  0.788600  0.455100  1.0  -0.0194
  C  C583  1  0.266100  0.826300  0.319200  1.0  0.1635
  C  C584  1  0.335200  0.833600  0.374760  1.0  0.1634
  C  C585  1  0.420800  0.823500  0.422300  1.0  -0.162
  C  C586  1  0.342800  0.768400  0.435200  1.0  0.1237
  C  C587  1  0.349900  0.892500  0.362000  1.0  -0.2172
  C  C588  1  0.320600  0.916200  0.329300  1.0  0.1262
  C  C589  1  0.277200  0.882900  0.308300  1.0  -0.2083
  C  C590  1  0.342500  0.021900  0.341500  1.0  0.1513
  C  C591  1  0.220800  0.548200  0.313800  1.0  0.645
  C  C592  1  0.332500  0.301700  0.511260  1.0  -0.2183
  C  C593  1  0.373100  0.414100  0.531420  1.0  0.1609
  C  C594  1  0.332100  0.386100  0.555900  1.0  -0.1834
  C  C595  1  0.386600  0.520700  0.514260  1.0  0.167
  C  C596  1  0.394300  0.386600  0.496200  1.0  -0.1891
  C  C597  1  0.372500  0.329800  0.486050  1.0  0.1645
  C  C598  1  0.312900  0.330000  0.546200  1.0  0.1196
  C  C599  1  0.403100  0.673100  0.359200  1.0  -0.0709
  C  C600  1  0.371600  0.623100  0.374660  1.0  -0.0747
  C  C601  1  0.367400  0.619000  0.421000  1.0  0.6457
  C  C602  1  0.404400  0.687300  0.320000  1.0  -0.1456
  C  C603  1  0.253800  0.510800  0.343700  1.0  -0.057
  C  C604  1  0.341400  0.584900  0.348140  1.0  -0.0017
  C  C605  1  0.344700  0.597900  0.306530  1.0  -0.0896
  C  C606  1  0.308600  0.528400  0.360950  1.0  0.0033
  C  C607  1  0.373700  0.647400  0.292700  1.0  -0.1343
  C  C608  1  0.229200  0.456200  0.354800  1.0  -0.1205
  C  C609  1  0.445400  0.267500  0.400200  1.0  0.0415
  C  C610  1  0.356300  0.266300  0.425600  1.0  0.1476
  C  C611  1  0.251000  0.243600  0.570800  1.0  0.1586
  C  C612  1  0.447500  0.301900  0.432300  1.0  -0.1211
  C  C613  1  0.310900  0.436700  0.398900  1.0  -0.1133
  C  C614  1  0.257100  0.419600  0.381700  1.0  -0.1286
  C  C615  1  0.335500  0.489400  0.389250  1.0  -0.1132
  C  C616  1  0.406000  0.498600  0.575500  1.0  -0.1151
  C  C617  1  0.328600  0.998900  0.278900  1.0  -0.0796
  C  C618  1  0.340500  0.062100  0.284900  1.0  -0.0008
  C  C619  1  0.408400  0.558400  0.570000  1.0  -0.0299
  C  C620  1  0.194000  0.284500  0.612500  1.0  -0.0191
  C  C621  1  0.230600  0.327600  0.598400  1.0  -0.1502
  C  C622  1  0.222700  0.729800  0.293000  1.0  0.1345
  C  C623  1  0.147100  0.761500  0.259600  1.0  -0.0419
  C  C624  1  0.176000  0.810500  0.274300  1.0  -0.1054
  N  N625  1  0.424800  0.345700  0.073390  1.0  -0.3913
  N  N626  1  0.523600  0.332800  0.067570  1.0  0.026
  N  N627  1  0.746500  0.382800  0.213440  1.0  -0.4104
  N  N628  1  0.690100  0.364500  0.159550  1.0  0.0354
  N  N629  1  0.256600  0.387300  0.145210  1.0  -0.3937
  N  N630  1  0.199400  0.390600  0.200530  1.0  0.0264
  N  N631  1  0.025600  0.392000  0.288720  1.0  0.0432
  N  N632  1  0.199400  0.269200  0.321760  1.0  -0.0158
  N  N633  1  0.268500  0.207500  0.345550  1.0  -0.3917
  N  N634  1  0.928100  0.400600  0.280200  1.0  -0.4129
  N  N635  1  0.709500  0.223400  0.047030  1.0  0.0099
  N  N636  1  0.787200  0.178600  0.019680  1.0  -0.2883
  N  N637  1  0.924800  0.845700  0.573390  1.0  -0.3913
  N  N638  1  0.023600  0.832800  0.567570  1.0  0.026
  N  N639  1  0.246500  0.882800  0.713440  1.0  -0.4104
  N  N640  1  0.190100  0.864500  0.659550  1.0  0.0354
  N  N641  1  0.756600  0.887300  0.645210  1.0  -0.3937
  N  N642  1  0.699400  0.890600  0.700530  1.0  0.0264
  N  N643  1  0.525600  0.892000  0.788720  1.0  0.0432
  N  N644  1  0.699400  0.769200  0.821760  1.0  -0.0158
  N  N645  1  0.768500  0.707500  0.845550  1.0  -0.3917
  N  N646  1  0.428100  0.900600  0.780200  1.0  -0.4129
  N  N647  1  0.209500  0.723400  0.547030  1.0  0.0099
  N  N648  1  0.287200  0.678600  0.519680  1.0  -0.2883
  N  N649  1  0.075200  0.154300  0.573390  1.0  -0.3942
  N  N650  1  0.976400  0.167200  0.567570  1.0  0.0288
  N  N651  1  0.753500  0.117200  0.713440  1.0  -0.4107
  N  N652  1  0.809900  0.135500  0.659550  1.0  0.0361
  N  N653  1  0.243400  0.112700  0.645210  1.0  -0.3921
  N  N654  1  0.300600  0.109400  0.700530  1.0  0.026
  N  N655  1  0.474400  0.108000  0.788720  1.0  0.044
  N  N656  1  0.300600  0.230800  0.821760  1.0  -0.0155
  N  N657  1  0.231500  0.292500  0.845550  1.0  -0.3935
  N  N658  1  0.571900  0.099400  0.780200  1.0  -0.415
  N  N659  1  0.790500  0.276600  0.547030  1.0  0.0094
  N  N660  1  0.712800  0.321400  0.519680  1.0  -0.2845
  N  N661  1  0.575200  0.654300  0.073390  1.0  -0.3942
  N  N662  1  0.476400  0.667200  0.067570  1.0  0.0288
  N  N663  1  0.253500  0.617200  0.213440  1.0  -0.4107
  N  N664  1  0.309900  0.635500  0.159550  1.0  0.0361
  N  N665  1  0.743400  0.612700  0.145210  1.0  -0.3921
  N  N666  1  0.800600  0.609400  0.200530  1.0  0.026
  N  N667  1  0.974400  0.608000  0.288720  1.0  0.044
  N  N668  1  0.800600  0.730800  0.321760  1.0  -0.0155
  N  N669  1  0.731500  0.792500  0.345550  1.0  -0.3935
  N  N670  1  0.071900  0.599400  0.280200  1.0  -0.415
  N  N671  1  0.290500  0.776600  0.047030  1.0  0.0094
  N  N672  1  0.212800  0.821400  0.019680  1.0  -0.2845
  N  N673  1  0.654300  0.924800  0.323390  1.0  -0.3922
  N  N674  1  0.667200  0.023600  0.317570  1.0  0.0276
  N  N675  1  0.617200  0.246500  0.463440  1.0  -0.4092
  N  N676  1  0.635500  0.190100  0.409550  1.0  0.0345
  N  N677  1  0.612700  0.756600  0.395210  1.0  -0.3934
  N  N678  1  0.609400  0.699400  0.450530  1.0  0.0262
  N  N679  1  0.608000  0.525600  0.538720  1.0  0.0451
  N  N680  1  0.730800  0.699400  0.571760  1.0  -0.0159
  N  N681  1  0.792500  0.768500  0.595550  1.0  -0.3936
  N  N682  1  0.599400  0.428100  0.530200  1.0  -0.4172
  N  N683  1  0.776600  0.209500  0.297030  1.0  0.008
  N  N684  1  0.821400  0.287200  0.269680  1.0  -0.2878
  N  N685  1  0.154300  0.424800  0.823390  1.0  -0.3922
  N  N686  1  0.167200  0.523600  0.817570  1.0  0.0276
  N  N687  1  0.117200  0.746500  0.963440  1.0  -0.4092
  N  N688  1  0.135500  0.690100  0.909550  1.0  0.0345
  N  N689  1  0.112700  0.256600  0.895210  1.0  -0.3934
  N  N690  1  0.109400  0.199400  0.950530  1.0  0.0262
  N  N691  1  0.108000  0.025600  0.038720  1.0  0.0451
  N  N692  1  0.230800  0.199400  0.071760  1.0  -0.0159
  N  N693  1  0.292500  0.268500  0.095550  1.0  -0.3936
  N  N694  1  0.099400  0.928100  0.030200  1.0  -0.4172
  N  N695  1  0.276600  0.709500  0.797030  1.0  0.008
  N  N696  1  0.321400  0.787200  0.769680  1.0  -0.2878
  N  N697  1  0.845700  0.575200  0.823390  1.0  -0.3912
  N  N698  1  0.832800  0.476400  0.817570  1.0  0.0274
  N  N699  1  0.882800  0.253500  0.963440  1.0  -0.4103
  N  N700  1  0.864500  0.309900  0.909550  1.0  0.0337
  N  N701  1  0.887300  0.743400  0.895210  1.0  -0.3925
  N  N702  1  0.890600  0.800600  0.950530  1.0  0.026
  N  N703  1  0.892000  0.974400  0.038720  1.0  0.0442
  N  N704  1  0.769200  0.800600  0.071760  1.0  -0.0143
  N  N705  1  0.707500  0.731500  0.095550  1.0  -0.3917
  N  N706  1  0.900600  0.071900  0.030200  1.0  -0.4155
  N  N707  1  0.723400  0.290500  0.797030  1.0  0.0096
  N  N708  1  0.678600  0.212800  0.769680  1.0  -0.2897
  N  N709  1  0.345700  0.075200  0.323390  1.0  -0.3912
  N  N710  1  0.332800  0.976400  0.317570  1.0  0.0274
  N  N711  1  0.382800  0.753500  0.463440  1.0  -0.4103
  N  N712  1  0.364500  0.809900  0.409550  1.0  0.0337
  N  N713  1  0.387300  0.243400  0.395210  1.0  -0.3925
  N  N714  1  0.390600  0.300600  0.450530  1.0  0.026
  N  N715  1  0.392000  0.474400  0.538720  1.0  0.0442
  N  N716  1  0.269200  0.300600  0.571760  1.0  -0.0143
  N  N717  1  0.207500  0.231500  0.595550  1.0  -0.3917
  N  N718  1  0.400600  0.571900  0.530200  1.0  -0.4155
  N  N719  1  0.223400  0.790500  0.297030  1.0  0.0096
  N  N720  1  0.178600  0.712800  0.269680  1.0  -0.2897
  O  O721  1  0.874900  0.417300  0.190160  1.0  -0.6165
  O  O722  1  0.885600  0.319000  0.187690  1.0  -0.6305
  O  O723  1  0.974860  0.206760  0.030060  1.0  -0.6341
  O  O724  1  0.897030  0.207370  0.072660  1.0  -0.6758
  O  O725  1  0.374900  0.917300  0.690160  1.0  -0.6165
  O  O726  1  0.385600  0.819000  0.687690  1.0  -0.6305
  O  O727  1  0.474860  0.706760  0.530060  1.0  -0.6341
  O  O728  1  0.397030  0.707370  0.572660  1.0  -0.6758
  O  O729  1  0.625100  0.082700  0.690160  1.0  -0.6163
  O  O730  1  0.614400  0.181000  0.687690  1.0  -0.6312
  O  O731  1  0.525140  0.293240  0.530060  1.0  -0.6338
  O  O732  1  0.602970  0.292630  0.572660  1.0  -0.6753
  O  O733  1  0.125100  0.582700  0.190160  1.0  -0.6163
  O  O734  1  0.114400  0.681000  0.187690  1.0  -0.6312
  O  O735  1  0.025140  0.793240  0.030060  1.0  -0.6338
  O  O736  1  0.102970  0.792630  0.072660  1.0  -0.6753
  O  O737  1  0.582700  0.374900  0.440160  1.0  -0.617
  O  O738  1  0.681000  0.385600  0.437690  1.0  -0.6332
  O  O739  1  0.793240  0.474860  0.280060  1.0  -0.634
  O  O740  1  0.792630  0.397030  0.322660  1.0  -0.6786
  O  O741  1  0.082700  0.874900  0.940160  1.0  -0.617
  O  O742  1  0.181000  0.885600  0.937690  1.0  -0.6332
  O  O743  1  0.293240  0.974860  0.780060  1.0  -0.634
  O  O744  1  0.292630  0.897030  0.822660  1.0  -0.6786
  O  O745  1  0.917300  0.125100  0.940160  1.0  -0.6174
  O  O746  1  0.819000  0.114400  0.937690  1.0  -0.6323
  O  O747  1  0.706760  0.025140  0.780060  1.0  -0.6334
  O  O748  1  0.707370  0.102970  0.822660  1.0  -0.6783
  O  O749  1  0.417300  0.625100  0.440160  1.0  -0.6174
  O  O750  1  0.319000  0.614400  0.437690  1.0  -0.6323
  O  O751  1  0.206760  0.525140  0.280060  1.0  -0.6334
  O  O752  1  0.207370  0.602970  0.322660  1.0  -0.6783
