# generated using pymatgen
data_CuH12(C5N)3
_symmetry_space_group_name_H-M   'P 1'
_cell_length_a   18.74700000
_cell_length_b   23.35500000
_cell_length_c   30.40400000
_cell_angle_alpha   90.00000000
_cell_angle_beta   90.00000000
_cell_angle_gamma   90.00000000
_symmetry_Int_Tables_number   1
_chemical_formula_structural   CuH12(C5N)3
_chemical_formula_sum   'Cu32 H384 C480 N96'
_cell_volume   13311.97136874
_cell_formula_units_Z   32
loop_
 _symmetry_equiv_pos_site_id
 _symmetry_equiv_pos_as_xyz
  1  'x, y, z'
loop_
 _atom_site_type_symbol
 _atom_site_label
 _atom_site_symmetry_multiplicity
 _atom_site_fract_x
 _atom_site_fract_y
 _atom_site_fract_z
 _atom_site_occupancy
 _atom_site_charge
  Cu  Cu1  1  0.514180  0.389750  0.121430  1.0  0.3586
  Cu  Cu2  1  0.514180  0.889750  0.621430  1.0  0.3586
  Cu  Cu3  1  0.014180  0.389750  0.621430  1.0  0.3586
  Cu  Cu4  1  0.014180  0.889750  0.121430  1.0  0.3586
  Cu  Cu5  1  0.514180  0.360250  0.628570  1.0  0.3573
  Cu  Cu6  1  0.514180  0.860250  0.128570  1.0  0.3573
  Cu  Cu7  1  0.014180  0.360250  0.128570  1.0  0.3573
  Cu  Cu8  1  0.014180  0.860250  0.628570  1.0  0.3573
  Cu  Cu9  1  0.764180  0.639750  0.878570  1.0  0.3576
  Cu  Cu10  1  0.764180  0.139750  0.378570  1.0  0.3576
  Cu  Cu11  1  0.264180  0.639750  0.378570  1.0  0.3576
  Cu  Cu12  1  0.264180  0.139750  0.878570  1.0  0.3576
  Cu  Cu13  1  0.764180  0.610250  0.371430  1.0  0.3583
  Cu  Cu14  1  0.764180  0.110250  0.871430  1.0  0.3583
  Cu  Cu15  1  0.264180  0.610250  0.871430  1.0  0.3583
  Cu  Cu16  1  0.264180  0.110250  0.371430  1.0  0.3583
  Cu  Cu17  1  0.235820  0.360250  0.121430  1.0  0.3573
  Cu  Cu18  1  0.235820  0.860250  0.621430  1.0  0.3573
  Cu  Cu19  1  0.735820  0.360250  0.621430  1.0  0.3573
  Cu  Cu20  1  0.735820  0.860250  0.121430  1.0  0.3573
  Cu  Cu21  1  0.235820  0.389750  0.628570  1.0  0.3566
  Cu  Cu22  1  0.235820  0.889750  0.128570  1.0  0.3566
  Cu  Cu23  1  0.735820  0.389750  0.128570  1.0  0.3566
  Cu  Cu24  1  0.735820  0.889750  0.628570  1.0  0.3566
  Cu  Cu25  1  0.485820  0.610250  0.878570  1.0  0.3563
  Cu  Cu26  1  0.485820  0.110250  0.378570  1.0  0.3563
  Cu  Cu27  1  0.985820  0.610250  0.378570  1.0  0.3563
  Cu  Cu28  1  0.985820  0.110250  0.878570  1.0  0.3563
  Cu  Cu29  1  0.485820  0.639750  0.371430  1.0  0.3576
  Cu  Cu30  1  0.485820  0.139750  0.871430  1.0  0.3576
  Cu  Cu31  1  0.985820  0.639750  0.871430  1.0  0.3576
  Cu  Cu32  1  0.985820  0.139750  0.371430  1.0  0.3576
  H  H33  1  0.557900  0.481300  0.181600  1.0  0.0562
  H  H34  1  0.556500  0.579500  0.185800  1.0  0.104
  H  H35  1  0.484900  0.583600  0.062000  1.0  0.0996
  H  H36  1  0.485000  0.485600  0.061800  1.0  0.0532
  H  H37  1  0.495400  0.387500  0.218800  1.0  0.0582
  H  H38  1  0.417000  0.291000  0.126500  1.0  0.059
  H  H39  1  0.447600  0.330200  0.272100  1.0  0.1072
  H  H40  1  0.367700  0.230600  0.176900  1.0  0.0953
  H  H41  1  0.349300  0.294300  0.310800  1.0  0.1069
  H  H42  1  0.379400  0.160200  0.230900  1.0  0.1079
  H  H43  1  0.333100  0.102600  0.284500  1.0  0.0507
  H  H44  1  0.301100  0.233100  0.361300  1.0  0.0515
  H  H45  1  0.557900  0.981300  0.681600  1.0  0.0562
  H  H46  1  0.556500  0.079500  0.685800  1.0  0.104
  H  H47  1  0.484900  0.083600  0.562000  1.0  0.0996
  H  H48  1  0.485000  0.985600  0.561800  1.0  0.0532
  H  H49  1  0.495400  0.887500  0.718800  1.0  0.0582
  H  H50  1  0.417000  0.791000  0.626500  1.0  0.059
  H  H51  1  0.447600  0.830200  0.772100  1.0  0.1072
  H  H52  1  0.367700  0.730600  0.676900  1.0  0.0953
  H  H53  1  0.349300  0.794300  0.810800  1.0  0.1069
  H  H54  1  0.379400  0.660200  0.730900  1.0  0.1079
  H  H55  1  0.333100  0.602600  0.784500  1.0  0.0507
  H  H56  1  0.301100  0.733100  0.861300  1.0  0.0515
  H  H57  1  0.057900  0.481300  0.681600  1.0  0.0562
  H  H58  1  0.056500  0.579500  0.685800  1.0  0.104
  H  H59  1  0.984900  0.583600  0.562000  1.0  0.0996
  H  H60  1  0.985000  0.485600  0.561800  1.0  0.0532
  H  H61  1  0.995400  0.387500  0.718800  1.0  0.0582
  H  H62  1  0.917000  0.291000  0.626500  1.0  0.059
  H  H63  1  0.947600  0.330200  0.772100  1.0  0.1072
  H  H64  1  0.867700  0.230600  0.676900  1.0  0.0953
  H  H65  1  0.849300  0.294300  0.810800  1.0  0.1069
  H  H66  1  0.879400  0.160200  0.730900  1.0  0.1079
  H  H67  1  0.833100  0.102600  0.784500  1.0  0.0507
  H  H68  1  0.801100  0.233100  0.861300  1.0  0.0515
  H  H69  1  0.057900  0.981300  0.181600  1.0  0.0562
  H  H70  1  0.056500  0.079500  0.185800  1.0  0.104
  H  H71  1  0.984900  0.083600  0.062000  1.0  0.0996
  H  H72  1  0.985000  0.985600  0.061800  1.0  0.0532
  H  H73  1  0.995400  0.887500  0.218800  1.0  0.0582
  H  H74  1  0.917000  0.791000  0.126500  1.0  0.059
  H  H75  1  0.947600  0.830200  0.272100  1.0  0.1072
  H  H76  1  0.867700  0.730600  0.176900  1.0  0.0953
  H  H77  1  0.849300  0.794300  0.310800  1.0  0.1069
  H  H78  1  0.879400  0.660200  0.230900  1.0  0.1079
  H  H79  1  0.833100  0.602600  0.284500  1.0  0.0507
  H  H80  1  0.801100  0.733100  0.361300  1.0  0.0515
  H  H81  1  0.557900  0.268700  0.568400  1.0  0.0565
  H  H82  1  0.556500  0.170500  0.564200  1.0  0.1039
  H  H83  1  0.484900  0.166400  0.688000  1.0  0.1011
  H  H84  1  0.485000  0.264400  0.688200  1.0  0.0538
  H  H85  1  0.495400  0.362500  0.531200  1.0  0.0586
  H  H86  1  0.417000  0.459000  0.623500  1.0  0.0582
  H  H87  1  0.447600  0.419800  0.477900  1.0  0.1078
  H  H88  1  0.367700  0.519400  0.573100  1.0  0.0946
  H  H89  1  0.349300  0.455700  0.439200  1.0  0.1061
  H  H90  1  0.379400  0.589800  0.519100  1.0  0.1079
  H  H91  1  0.333100  0.647400  0.465500  1.0  0.0506
  H  H92  1  0.301100  0.516900  0.388700  1.0  0.0524
  H  H93  1  0.557900  0.768700  0.068400  1.0  0.0565
  H  H94  1  0.556500  0.670500  0.064200  1.0  0.1039
  H  H95  1  0.484900  0.666400  0.188000  1.0  0.1011
  H  H96  1  0.485000  0.764400  0.188200  1.0  0.0538
  H  H97  1  0.495400  0.862500  0.031200  1.0  0.0586
  H  H98  1  0.417000  0.959000  0.123500  1.0  0.0582
  H  H99  1  0.447600  0.919800  0.977900  1.0  0.1078
  H  H100  1  0.367700  0.019400  0.073100  1.0  0.0946
  H  H101  1  0.349300  0.955700  0.939200  1.0  0.1061
  H  H102  1  0.379400  0.089800  0.019100  1.0  0.1079
  H  H103  1  0.333100  0.147400  0.965500  1.0  0.0506
  H  H104  1  0.301100  0.016900  0.888700  1.0  0.0524
  H  H105  1  0.057900  0.268700  0.068400  1.0  0.0565
  H  H106  1  0.056500  0.170500  0.064200  1.0  0.1039
  H  H107  1  0.984900  0.166400  0.188000  1.0  0.1011
  H  H108  1  0.985000  0.264400  0.188200  1.0  0.0538
  H  H109  1  0.995400  0.362500  0.031200  1.0  0.0586
  H  H110  1  0.917000  0.459000  0.123500  1.0  0.0582
  H  H111  1  0.947600  0.419800  0.977900  1.0  0.1078
  H  H112  1  0.867700  0.519400  0.073100  1.0  0.0946
  H  H113  1  0.849300  0.455700  0.939200  1.0  0.1061
  H  H114  1  0.879400  0.589800  0.019100  1.0  0.1079
  H  H115  1  0.833100  0.647400  0.965500  1.0  0.0506
  H  H116  1  0.801100  0.516900  0.888700  1.0  0.0524
  H  H117  1  0.057900  0.768700  0.568400  1.0  0.0565
  H  H118  1  0.056500  0.670500  0.564200  1.0  0.1039
  H  H119  1  0.984900  0.666400  0.688000  1.0  0.1011
  H  H120  1  0.985000  0.764400  0.688200  1.0  0.0538
  H  H121  1  0.995400  0.862500  0.531200  1.0  0.0586
  H  H122  1  0.917000  0.959000  0.623500  1.0  0.0582
  H  H123  1  0.947600  0.919800  0.477900  1.0  0.1078
  H  H124  1  0.867700  0.019400  0.573100  1.0  0.0946
  H  H125  1  0.849300  0.955700  0.439200  1.0  0.1061
  H  H126  1  0.879400  0.089800  0.519100  1.0  0.1079
  H  H127  1  0.833100  0.147400  0.465500  1.0  0.0506
  H  H128  1  0.801100  0.016900  0.388700  1.0  0.0524
  H  H129  1  0.807900  0.731300  0.818400  1.0  0.0564
  H  H130  1  0.806500  0.829500  0.814200  1.0  0.1037
  H  H131  1  0.734900  0.833600  0.938000  1.0  0.1005
  H  H132  1  0.735000  0.735600  0.938200  1.0  0.0542
  H  H133  1  0.745400  0.637500  0.781200  1.0  0.0583
  H  H134  1  0.667000  0.541000  0.873500  1.0  0.0587
  H  H135  1  0.697600  0.580200  0.727900  1.0  0.1078
  H  H136  1  0.617700  0.480600  0.823100  1.0  0.0949
  H  H137  1  0.599300  0.544300  0.689200  1.0  0.1067
  H  H138  1  0.629400  0.410200  0.769100  1.0  0.108
  H  H139  1  0.583100  0.352600  0.715500  1.0  0.051
  H  H140  1  0.551100  0.483100  0.638700  1.0  0.0522
  H  H141  1  0.807900  0.231300  0.318400  1.0  0.0564
  H  H142  1  0.806500  0.329500  0.314200  1.0  0.1037
  H  H143  1  0.734900  0.333600  0.438000  1.0  0.1005
  H  H144  1  0.735000  0.235600  0.438200  1.0  0.0542
  H  H145  1  0.745400  0.137500  0.281200  1.0  0.0583
  H  H146  1  0.667000  0.041000  0.373500  1.0  0.0587
  H  H147  1  0.697600  0.080200  0.227900  1.0  0.1078
  H  H148  1  0.617700  0.980600  0.323100  1.0  0.0949
  H  H149  1  0.599300  0.044300  0.189200  1.0  0.1067
  H  H150  1  0.629400  0.910200  0.269100  1.0  0.108
  H  H151  1  0.583100  0.852600  0.215500  1.0  0.051
  H  H152  1  0.551100  0.983100  0.138700  1.0  0.0522
  H  H153  1  0.307900  0.731300  0.318400  1.0  0.0564
  H  H154  1  0.306500  0.829500  0.314200  1.0  0.1037
  H  H155  1  0.234900  0.833600  0.438000  1.0  0.1005
  H  H156  1  0.235000  0.735600  0.438200  1.0  0.0542
  H  H157  1  0.245400  0.637500  0.281200  1.0  0.0583
  H  H158  1  0.167000  0.541000  0.373500  1.0  0.0587
  H  H159  1  0.197600  0.580200  0.227900  1.0  0.1078
  H  H160  1  0.117700  0.480600  0.323100  1.0  0.0949
  H  H161  1  0.099300  0.544300  0.189200  1.0  0.1067
  H  H162  1  0.129400  0.410200  0.269100  1.0  0.108
  H  H163  1  0.083100  0.352600  0.215500  1.0  0.051
  H  H164  1  0.051100  0.483100  0.138700  1.0  0.0522
  H  H165  1  0.307900  0.231300  0.818400  1.0  0.0564
  H  H166  1  0.306500  0.329500  0.814200  1.0  0.1037
  H  H167  1  0.234900  0.333600  0.938000  1.0  0.1005
  H  H168  1  0.235000  0.235600  0.938200  1.0  0.0542
  H  H169  1  0.245400  0.137500  0.781200  1.0  0.0583
  H  H170  1  0.167000  0.041000  0.873500  1.0  0.0587
  H  H171  1  0.197600  0.080200  0.727900  1.0  0.1078
  H  H172  1  0.117700  0.980600  0.823100  1.0  0.0949
  H  H173  1  0.099300  0.044300  0.689200  1.0  0.1067
  H  H174  1  0.129400  0.910200  0.769100  1.0  0.108
  H  H175  1  0.083100  0.852600  0.715500  1.0  0.051
  H  H176  1  0.051100  0.983100  0.638700  1.0  0.0522
  H  H177  1  0.807900  0.518700  0.431600  1.0  0.0563
  H  H178  1  0.806500  0.420500  0.435800  1.0  0.104
  H  H179  1  0.734900  0.416400  0.312000  1.0  0.1003
  H  H180  1  0.735000  0.514400  0.311800  1.0  0.0532
  H  H181  1  0.745400  0.612500  0.468800  1.0  0.0586
  H  H182  1  0.667000  0.709000  0.376500  1.0  0.0595
  H  H183  1  0.697600  0.669800  0.522100  1.0  0.1072
  H  H184  1  0.617700  0.769400  0.426900  1.0  0.095
  H  H185  1  0.599300  0.705700  0.560800  1.0  0.1066
  H  H186  1  0.629400  0.839800  0.480900  1.0  0.1079
  H  H187  1  0.583100  0.897400  0.534500  1.0  0.0503
  H  H188  1  0.551100  0.766900  0.611300  1.0  0.0519
  H  H189  1  0.807900  0.018700  0.931600  1.0  0.0563
  H  H190  1  0.806500  0.920500  0.935800  1.0  0.104
  H  H191  1  0.734900  0.916400  0.812000  1.0  0.1003
  H  H192  1  0.735000  0.014400  0.811800  1.0  0.0532
  H  H193  1  0.745400  0.112500  0.968800  1.0  0.0586
  H  H194  1  0.667000  0.209000  0.876500  1.0  0.0595
  H  H195  1  0.697600  0.169800  0.022100  1.0  0.1072
  H  H196  1  0.617700  0.269400  0.926900  1.0  0.095
  H  H197  1  0.599300  0.205700  0.060800  1.0  0.1066
  H  H198  1  0.629400  0.339800  0.980900  1.0  0.1079
  H  H199  1  0.583100  0.397400  0.034500  1.0  0.0503
  H  H200  1  0.551100  0.266900  0.111300  1.0  0.0519
  H  H201  1  0.307900  0.518700  0.931600  1.0  0.0563
  H  H202  1  0.306500  0.420500  0.935800  1.0  0.104
  H  H203  1  0.234900  0.416400  0.812000  1.0  0.1003
  H  H204  1  0.235000  0.514400  0.811800  1.0  0.0532
  H  H205  1  0.245400  0.612500  0.968800  1.0  0.0586
  H  H206  1  0.167000  0.709000  0.876500  1.0  0.0595
  H  H207  1  0.197600  0.669800  0.022100  1.0  0.1072
  H  H208  1  0.117700  0.769400  0.926900  1.0  0.095
  H  H209  1  0.099300  0.705700  0.060800  1.0  0.1066
  H  H210  1  0.129400  0.839800  0.980900  1.0  0.1079
  H  H211  1  0.083100  0.897400  0.034500  1.0  0.0503
  H  H212  1  0.051100  0.766900  0.111300  1.0  0.0519
  H  H213  1  0.307900  0.018700  0.431600  1.0  0.0563
  H  H214  1  0.306500  0.920500  0.435800  1.0  0.104
  H  H215  1  0.234900  0.916400  0.312000  1.0  0.1003
  H  H216  1  0.235000  0.014400  0.311800  1.0  0.0532
  H  H217  1  0.245400  0.112500  0.468800  1.0  0.0586
  H  H218  1  0.167000  0.209000  0.376500  1.0  0.0595
  H  H219  1  0.197600  0.169800  0.522100  1.0  0.1072
  H  H220  1  0.117700  0.269400  0.426900  1.0  0.095
  H  H221  1  0.099300  0.205700  0.560800  1.0  0.1066
  H  H222  1  0.129400  0.339800  0.480900  1.0  0.1079
  H  H223  1  0.083100  0.397400  0.534500  1.0  0.0503
  H  H224  1  0.051100  0.266900  0.611300  1.0  0.0519
  H  H225  1  0.192100  0.268700  0.181600  1.0  0.0563
  H  H226  1  0.193500  0.170500  0.185800  1.0  0.1041
  H  H227  1  0.265100  0.166400  0.062000  1.0  0.0995
  H  H228  1  0.265000  0.264400  0.061800  1.0  0.053
  H  H229  1  0.254600  0.362500  0.218800  1.0  0.0583
  H  H230  1  0.333000  0.459000  0.126500  1.0  0.0593
  H  H231  1  0.302400  0.419800  0.272100  1.0  0.1071
  H  H232  1  0.382300  0.519400  0.176900  1.0  0.0957
  H  H233  1  0.400700  0.455700  0.310800  1.0  0.1067
  H  H234  1  0.370600  0.589800  0.230900  1.0  0.1081
  H  H235  1  0.416900  0.647400  0.284500  1.0  0.0508
  H  H236  1  0.448900  0.516900  0.361300  1.0  0.0514
  H  H237  1  0.192100  0.768700  0.681600  1.0  0.0563
  H  H238  1  0.193500  0.670500  0.685800  1.0  0.1041
  H  H239  1  0.265100  0.666400  0.562000  1.0  0.0995
  H  H240  1  0.265000  0.764400  0.561800  1.0  0.053
  H  H241  1  0.254600  0.862500  0.718800  1.0  0.0583
  H  H242  1  0.333000  0.959000  0.626500  1.0  0.0593
  H  H243  1  0.302400  0.919800  0.772100  1.0  0.1071
  H  H244  1  0.382300  0.019400  0.676900  1.0  0.0957
  H  H245  1  0.400700  0.955700  0.810800  1.0  0.1067
  H  H246  1  0.370600  0.089800  0.730900  1.0  0.1081
  H  H247  1  0.416900  0.147400  0.784500  1.0  0.0508
  H  H248  1  0.448900  0.016900  0.861300  1.0  0.0514
  H  H249  1  0.692100  0.268700  0.681600  1.0  0.0563
  H  H250  1  0.693500  0.170500  0.685800  1.0  0.1041
  H  H251  1  0.765100  0.166400  0.562000  1.0  0.0995
  H  H252  1  0.765000  0.264400  0.561800  1.0  0.053
  H  H253  1  0.754600  0.362500  0.718800  1.0  0.0583
  H  H254  1  0.833000  0.459000  0.626500  1.0  0.0593
  H  H255  1  0.802400  0.419800  0.772100  1.0  0.1071
  H  H256  1  0.882300  0.519400  0.676900  1.0  0.0957
  H  H257  1  0.900700  0.455700  0.810800  1.0  0.1067
  H  H258  1  0.870600  0.589800  0.730900  1.0  0.1081
  H  H259  1  0.916900  0.647400  0.784500  1.0  0.0508
  H  H260  1  0.948900  0.516900  0.861300  1.0  0.0514
  H  H261  1  0.692100  0.768700  0.181600  1.0  0.0563
  H  H262  1  0.693500  0.670500  0.185800  1.0  0.1041
  H  H263  1  0.765100  0.666400  0.062000  1.0  0.0995
  H  H264  1  0.765000  0.764400  0.061800  1.0  0.053
  H  H265  1  0.754600  0.862500  0.218800  1.0  0.0583
  H  H266  1  0.833000  0.959000  0.126500  1.0  0.0593
  H  H267  1  0.802400  0.919800  0.272100  1.0  0.1071
  H  H268  1  0.882300  0.019400  0.176900  1.0  0.0957
  H  H269  1  0.900700  0.955700  0.310800  1.0  0.1067
  H  H270  1  0.870600  0.089800  0.230900  1.0  0.1081
  H  H271  1  0.916900  0.147400  0.284500  1.0  0.0508
  H  H272  1  0.948900  0.016900  0.361300  1.0  0.0514
  H  H273  1  0.192100  0.481300  0.568400  1.0  0.0562
  H  H274  1  0.193500  0.579500  0.564200  1.0  0.1036
  H  H275  1  0.265100  0.583600  0.688000  1.0  0.1005
  H  H276  1  0.265000  0.485600  0.688200  1.0  0.0536
  H  H277  1  0.254600  0.387500  0.531200  1.0  0.0583
  H  H278  1  0.333000  0.291000  0.623500  1.0  0.0582
  H  H279  1  0.302400  0.330200  0.477900  1.0  0.1075
  H  H280  1  0.382300  0.230600  0.573100  1.0  0.0957
  H  H281  1  0.400700  0.294300  0.439200  1.0  0.1065
  H  H282  1  0.370600  0.160200  0.519100  1.0  0.108
  H  H283  1  0.416900  0.102600  0.465500  1.0  0.0512
  H  H284  1  0.448900  0.233100  0.388700  1.0  0.0517
  H  H285  1  0.192100  0.981300  0.068400  1.0  0.0562
  H  H286  1  0.193500  0.079500  0.064200  1.0  0.1036
  H  H287  1  0.265100  0.083600  0.188000  1.0  0.1005
  H  H288  1  0.265000  0.985600  0.188200  1.0  0.0536
  H  H289  1  0.254600  0.887500  0.031200  1.0  0.0583
  H  H290  1  0.333000  0.791000  0.123500  1.0  0.0582
  H  H291  1  0.302400  0.830200  0.977900  1.0  0.1075
  H  H292  1  0.382300  0.730600  0.073100  1.0  0.0957
  H  H293  1  0.400700  0.794300  0.939200  1.0  0.1065
  H  H294  1  0.370600  0.660200  0.019100  1.0  0.108
  H  H295  1  0.416900  0.602600  0.965500  1.0  0.0512
  H  H296  1  0.448900  0.733100  0.888700  1.0  0.0517
  H  H297  1  0.692100  0.481300  0.068400  1.0  0.0562
  H  H298  1  0.693500  0.579500  0.064200  1.0  0.1036
  H  H299  1  0.765100  0.583600  0.188000  1.0  0.1005
  H  H300  1  0.765000  0.485600  0.188200  1.0  0.0536
  H  H301  1  0.754600  0.387500  0.031200  1.0  0.0583
  H  H302  1  0.833000  0.291000  0.123500  1.0  0.0582
  H  H303  1  0.802400  0.330200  0.977900  1.0  0.1075
  H  H304  1  0.882300  0.230600  0.073100  1.0  0.0957
  H  H305  1  0.900700  0.294300  0.939200  1.0  0.1065
  H  H306  1  0.870600  0.160200  0.019100  1.0  0.108
  H  H307  1  0.916900  0.102600  0.965500  1.0  0.0512
  H  H308  1  0.948900  0.233100  0.888700  1.0  0.0517
  H  H309  1  0.692100  0.981300  0.568400  1.0  0.0562
  H  H310  1  0.693500  0.079500  0.564200  1.0  0.1036
  H  H311  1  0.765100  0.083600  0.688000  1.0  0.1005
  H  H312  1  0.765000  0.985600  0.688200  1.0  0.0536
  H  H313  1  0.754600  0.887500  0.531200  1.0  0.0583
  H  H314  1  0.833000  0.791000  0.623500  1.0  0.0582
  H  H315  1  0.802400  0.830200  0.477900  1.0  0.1075
  H  H316  1  0.882300  0.730600  0.573100  1.0  0.0957
  H  H317  1  0.900700  0.794300  0.439200  1.0  0.1065
  H  H318  1  0.870600  0.660200  0.519100  1.0  0.108
  H  H319  1  0.916900  0.602600  0.465500  1.0  0.0512
  H  H320  1  0.948900  0.733100  0.388700  1.0  0.0517
  H  H321  1  0.442100  0.518700  0.818400  1.0  0.0562
  H  H322  1  0.443500  0.420500  0.814200  1.0  0.1039
  H  H323  1  0.515100  0.416400  0.938000  1.0  0.1001
  H  H324  1  0.515000  0.514400  0.938200  1.0  0.0534
  H  H325  1  0.504600  0.612500  0.781200  1.0  0.0582
  H  H326  1  0.583000  0.709000  0.873500  1.0  0.0584
  H  H327  1  0.552400  0.669800  0.727900  1.0  0.1074
  H  H328  1  0.632300  0.769400  0.823100  1.0  0.0954
  H  H329  1  0.650700  0.705700  0.689200  1.0  0.1064
  H  H330  1  0.620600  0.839800  0.769100  1.0  0.108
  H  H331  1  0.666900  0.897400  0.715500  1.0  0.0507
  H  H332  1  0.698900  0.766900  0.638700  1.0  0.0518
  H  H333  1  0.442100  0.018700  0.318400  1.0  0.0562
  H  H334  1  0.443500  0.920500  0.314200  1.0  0.1039
  H  H335  1  0.515100  0.916400  0.438000  1.0  0.1001
  H  H336  1  0.515000  0.014400  0.438200  1.0  0.0534
  H  H337  1  0.504600  0.112500  0.281200  1.0  0.0582
  H  H338  1  0.583000  0.209000  0.373500  1.0  0.0584
  H  H339  1  0.552400  0.169800  0.227900  1.0  0.1074
  H  H340  1  0.632300  0.269400  0.323100  1.0  0.0954
  H  H341  1  0.650700  0.205700  0.189200  1.0  0.1064
  H  H342  1  0.620600  0.339800  0.269100  1.0  0.108
  H  H343  1  0.666900  0.397400  0.215500  1.0  0.0507
  H  H344  1  0.698900  0.266900  0.138700  1.0  0.0518
  H  H345  1  0.942100  0.518700  0.318400  1.0  0.0562
  H  H346  1  0.943500  0.420500  0.314200  1.0  0.1039
  H  H347  1  0.015100  0.416400  0.438000  1.0  0.1001
  H  H348  1  0.015000  0.514400  0.438200  1.0  0.0534
  H  H349  1  0.004600  0.612500  0.281200  1.0  0.0582
  H  H350  1  0.083000  0.709000  0.373500  1.0  0.0584
  H  H351  1  0.052400  0.669800  0.227900  1.0  0.1074
  H  H352  1  0.132300  0.769400  0.323100  1.0  0.0954
  H  H353  1  0.150700  0.705700  0.189200  1.0  0.1064
  H  H354  1  0.120600  0.839800  0.269100  1.0  0.108
  H  H355  1  0.166900  0.897400  0.215500  1.0  0.0507
  H  H356  1  0.198900  0.766900  0.138700  1.0  0.0518
  H  H357  1  0.942100  0.018700  0.818400  1.0  0.0562
  H  H358  1  0.943500  0.920500  0.814200  1.0  0.1039
  H  H359  1  0.015100  0.916400  0.938000  1.0  0.1001
  H  H360  1  0.015000  0.014400  0.938200  1.0  0.0534
  H  H361  1  0.004600  0.112500  0.781200  1.0  0.0582
  H  H362  1  0.083000  0.209000  0.873500  1.0  0.0584
  H  H363  1  0.052400  0.169800  0.727900  1.0  0.1074
  H  H364  1  0.132300  0.269400  0.823100  1.0  0.0954
  H  H365  1  0.150700  0.205700  0.689200  1.0  0.1064
  H  H366  1  0.120600  0.339800  0.769100  1.0  0.108
  H  H367  1  0.166900  0.397400  0.715500  1.0  0.0507
  H  H368  1  0.198900  0.266900  0.638700  1.0  0.0518
  H  H369  1  0.442100  0.731300  0.431600  1.0  0.0562
  H  H370  1  0.443500  0.829500  0.435800  1.0  0.1039
  H  H371  1  0.515100  0.833600  0.312000  1.0  0.0997
  H  H372  1  0.515000  0.735600  0.311800  1.0  0.053
  H  H373  1  0.504600  0.637500  0.468800  1.0  0.0582
  H  H374  1  0.583000  0.541000  0.376500  1.0  0.0594
  H  H375  1  0.552400  0.580200  0.522100  1.0  0.107
  H  H376  1  0.632300  0.480600  0.426900  1.0  0.0961
  H  H377  1  0.650700  0.544300  0.560800  1.0  0.1067
  H  H378  1  0.620600  0.410200  0.480900  1.0  0.1079
  H  H379  1  0.666900  0.352600  0.534500  1.0  0.0513
  H  H380  1  0.698900  0.483100  0.611300  1.0  0.0513
  H  H381  1  0.442100  0.231300  0.931600  1.0  0.0562
  H  H382  1  0.443500  0.329500  0.935800  1.0  0.1039
  H  H383  1  0.515100  0.333600  0.812000  1.0  0.0997
  H  H384  1  0.515000  0.235600  0.811800  1.0  0.053
  H  H385  1  0.504600  0.137500  0.968800  1.0  0.0582
  H  H386  1  0.583000  0.041000  0.876500  1.0  0.0594
  H  H387  1  0.552400  0.080200  0.022100  1.0  0.107
  H  H388  1  0.632300  0.980600  0.926900  1.0  0.0961
  H  H389  1  0.650700  0.044300  0.060800  1.0  0.1067
  H  H390  1  0.620600  0.910200  0.980900  1.0  0.1079
  H  H391  1  0.666900  0.852600  0.034500  1.0  0.0513
  H  H392  1  0.698900  0.983100  0.111300  1.0  0.0513
  H  H393  1  0.942100  0.731300  0.931600  1.0  0.0562
  H  H394  1  0.943500  0.829500  0.935800  1.0  0.1039
  H  H395  1  0.015100  0.833600  0.812000  1.0  0.0997
  H  H396  1  0.015000  0.735600  0.811800  1.0  0.053
  H  H397  1  0.004600  0.637500  0.968800  1.0  0.0582
  H  H398  1  0.083000  0.541000  0.876500  1.0  0.0594
  H  H399  1  0.052400  0.580200  0.022100  1.0  0.107
  H  H400  1  0.132300  0.480600  0.926900  1.0  0.0961
  H  H401  1  0.150700  0.544300  0.060800  1.0  0.1067
  H  H402  1  0.120600  0.410200  0.980900  1.0  0.1079
  H  H403  1  0.166900  0.352600  0.034500  1.0  0.0513
  H  H404  1  0.198900  0.483100  0.111300  1.0  0.0513
  H  H405  1  0.942100  0.231300  0.431600  1.0  0.0562
  H  H406  1  0.943500  0.329500  0.435800  1.0  0.1039
  H  H407  1  0.015100  0.333600  0.312000  1.0  0.0997
  H  H408  1  0.015000  0.235600  0.311800  1.0  0.053
  H  H409  1  0.004600  0.137500  0.468800  1.0  0.0582
  H  H410  1  0.083000  0.041000  0.376500  1.0  0.0594
  H  H411  1  0.052400  0.080200  0.522100  1.0  0.107
  H  H412  1  0.132300  0.980600  0.426900  1.0  0.0961
  H  H413  1  0.150700  0.044300  0.560800  1.0  0.1067
  H  H414  1  0.120600  0.910200  0.480900  1.0  0.1079
  H  H415  1  0.166900  0.852600  0.534500  1.0  0.0513
  H  H416  1  0.198900  0.983100  0.611300  1.0  0.0513
  C  C417  1  0.542130  0.502130  0.157390  1.0  0.1415
  C  C418  1  0.542010  0.561360  0.160070  1.0  -0.2246
  C  C419  1  0.520380  0.593180  0.124400  1.0  0.0818
  C  C420  1  0.499300  0.563710  0.086950  1.0  -0.2398
  C  C421  1  0.499820  0.504690  0.087050  1.0  0.1386
  C  C422  1  0.469570  0.355300  0.210290  1.0  0.151
  C  C423  1  0.423670  0.298650  0.156250  1.0  0.1512
  C  C424  1  0.440840  0.321120  0.242580  1.0  -0.2064
  C  C425  1  0.393530  0.262270  0.186310  1.0  -0.2266
  C  C426  1  0.401750  0.272950  0.230940  1.0  0.0707
  C  C427  1  0.370500  0.234690  0.264580  1.0  0.0672
  C  C428  1  0.346280  0.255400  0.304530  1.0  -0.2338
  C  C429  1  0.364410  0.176100  0.257360  1.0  -0.2358
  C  C430  1  0.336090  0.141740  0.289740  1.0  0.1496
  C  C431  1  0.317780  0.218210  0.334900  1.0  0.1516
  C  C432  1  0.542130  0.002130  0.657390  1.0  0.1415
  C  C433  1  0.542010  0.061360  0.660070  1.0  -0.2246
  C  C434  1  0.520380  0.093180  0.624400  1.0  0.0818
  C  C435  1  0.499300  0.063710  0.586950  1.0  -0.2398
  C  C436  1  0.499820  0.004690  0.587050  1.0  0.1386
  C  C437  1  0.469570  0.855300  0.710290  1.0  0.151
  C  C438  1  0.423670  0.798650  0.656250  1.0  0.1512
  C  C439  1  0.440840  0.821120  0.742580  1.0  -0.2064
  C  C440  1  0.393530  0.762270  0.686310  1.0  -0.2266
  C  C441  1  0.401750  0.772950  0.730940  1.0  0.0707
  C  C442  1  0.370500  0.734690  0.764580  1.0  0.0672
  C  C443  1  0.346280  0.755400  0.804530  1.0  -0.2338
  C  C444  1  0.364410  0.676100  0.757360  1.0  -0.2358
  C  C445  1  0.336090  0.641740  0.789740  1.0  0.1496
  C  C446  1  0.317780  0.718210  0.834900  1.0  0.1516
  C  C447  1  0.042130  0.502130  0.657390  1.0  0.1415
  C  C448  1  0.042010  0.561360  0.660070  1.0  -0.2246
  C  C449  1  0.020380  0.593180  0.624400  1.0  0.0818
  C  C450  1  0.999300  0.563710  0.586950  1.0  -0.2398
  C  C451  1  0.999820  0.504690  0.587050  1.0  0.1386
  C  C452  1  0.969570  0.355300  0.710290  1.0  0.151
  C  C453  1  0.923670  0.298650  0.656250  1.0  0.1512
  C  C454  1  0.940840  0.321120  0.742580  1.0  -0.2064
  C  C455  1  0.893530  0.262270  0.686310  1.0  -0.2266
  C  C456  1  0.901750  0.272950  0.730940  1.0  0.0707
  C  C457  1  0.870500  0.234690  0.764580  1.0  0.0672
  C  C458  1  0.846280  0.255400  0.804530  1.0  -0.2338
  C  C459  1  0.864410  0.176100  0.757360  1.0  -0.2358
  C  C460  1  0.836090  0.141740  0.789740  1.0  0.1496
  C  C461  1  0.817780  0.218210  0.834900  1.0  0.1516
  C  C462  1  0.042130  0.002130  0.157390  1.0  0.1415
  C  C463  1  0.042010  0.061360  0.160070  1.0  -0.2246
  C  C464  1  0.020380  0.093180  0.124400  1.0  0.0818
  C  C465  1  0.999300  0.063710  0.086950  1.0  -0.2398
  C  C466  1  0.999820  0.004690  0.087050  1.0  0.1386
  C  C467  1  0.969570  0.855300  0.210290  1.0  0.151
  C  C468  1  0.923670  0.798650  0.156250  1.0  0.1512
  C  C469  1  0.940840  0.821120  0.242580  1.0  -0.2064
  C  C470  1  0.893530  0.762270  0.186310  1.0  -0.2266
  C  C471  1  0.901750  0.772950  0.230940  1.0  0.0707
  C  C472  1  0.870500  0.734690  0.264580  1.0  0.0672
  C  C473  1  0.846280  0.755400  0.304530  1.0  -0.2338
  C  C474  1  0.864410  0.676100  0.257360  1.0  -0.2358
  C  C475  1  0.836090  0.641740  0.289740  1.0  0.1496
  C  C476  1  0.817780  0.718210  0.334900  1.0  0.1516
  C  C477  1  0.542130  0.247870  0.592610  1.0  0.1407
  C  C478  1  0.542010  0.188640  0.589930  1.0  -0.2237
  C  C479  1  0.520380  0.156820  0.625600  1.0  0.082
  C  C480  1  0.499300  0.186290  0.663050  1.0  -0.2416
  C  C481  1  0.499820  0.245310  0.662950  1.0  0.1369
  C  C482  1  0.469570  0.394700  0.539710  1.0  0.151
  C  C483  1  0.423670  0.451350  0.593750  1.0  0.1514
  C  C484  1  0.440840  0.428880  0.507420  1.0  -0.2078
  C  C485  1  0.393530  0.487730  0.563690  1.0  -0.2273
  C  C486  1  0.401750  0.477050  0.519060  1.0  0.0713
  C  C487  1  0.370500  0.515310  0.485420  1.0  0.0673
  C  C488  1  0.346280  0.494600  0.445470  1.0  -0.233
  C  C489  1  0.364410  0.573900  0.492640  1.0  -0.2356
  C  C490  1  0.336090  0.608260  0.460260  1.0  0.1512
  C  C491  1  0.317780  0.531790  0.415100  1.0  0.1511
  C  C492  1  0.542130  0.747870  0.092610  1.0  0.1407
  C  C493  1  0.542010  0.688640  0.089930  1.0  -0.2237
  C  C494  1  0.520380  0.656820  0.125600  1.0  0.082
  C  C495  1  0.499300  0.686290  0.163050  1.0  -0.2416
  C  C496  1  0.499820  0.745310  0.162950  1.0  0.1369
  C  C497  1  0.469570  0.894700  0.039710  1.0  0.151
  C  C498  1  0.423670  0.951350  0.093750  1.0  0.1514
  C  C499  1  0.440840  0.928880  0.007420  1.0  -0.2078
  C  C500  1  0.393530  0.987730  0.063690  1.0  -0.2273
  C  C501  1  0.401750  0.977050  0.019060  1.0  0.0713
  C  C502  1  0.370500  0.015310  0.985420  1.0  0.0673
  C  C503  1  0.346280  0.994600  0.945470  1.0  -0.233
  C  C504  1  0.364410  0.073900  0.992640  1.0  -0.2356
  C  C505  1  0.336090  0.108260  0.960260  1.0  0.1512
  C  C506  1  0.317780  0.031790  0.915100  1.0  0.1511
  C  C507  1  0.042130  0.247870  0.092610  1.0  0.1407
  C  C508  1  0.042010  0.188640  0.089930  1.0  -0.2237
  C  C509  1  0.020380  0.156820  0.125600  1.0  0.082
  C  C510  1  0.999300  0.186290  0.163050  1.0  -0.2416
  C  C511  1  0.999820  0.245310  0.162950  1.0  0.1369
  C  C512  1  0.969570  0.394700  0.039710  1.0  0.151
  C  C513  1  0.923670  0.451350  0.093750  1.0  0.1514
  C  C514  1  0.940840  0.428880  0.007420  1.0  -0.2078
  C  C515  1  0.893530  0.487730  0.063690  1.0  -0.2273
  C  C516  1  0.901750  0.477050  0.019060  1.0  0.0713
  C  C517  1  0.870500  0.515310  0.985420  1.0  0.0673
  C  C518  1  0.846280  0.494600  0.945470  1.0  -0.233
  C  C519  1  0.864410  0.573900  0.992640  1.0  -0.2356
  C  C520  1  0.836090  0.608260  0.960260  1.0  0.1512
  C  C521  1  0.817780  0.531790  0.915100  1.0  0.1511
  C  C522  1  0.042130  0.747870  0.592610  1.0  0.1407
  C  C523  1  0.042010  0.688640  0.589930  1.0  -0.2237
  C  C524  1  0.020380  0.656820  0.625600  1.0  0.082
  C  C525  1  0.999300  0.686290  0.663050  1.0  -0.2416
  C  C526  1  0.999820  0.745310  0.662950  1.0  0.1369
  C  C527  1  0.969570  0.894700  0.539710  1.0  0.151
  C  C528  1  0.923670  0.951350  0.593750  1.0  0.1514
  C  C529  1  0.940840  0.928880  0.507420  1.0  -0.2078
  C  C530  1  0.893530  0.987730  0.563690  1.0  -0.2273
  C  C531  1  0.901750  0.977050  0.519060  1.0  0.0713
  C  C532  1  0.870500  0.015310  0.485420  1.0  0.0673
  C  C533  1  0.846280  0.994600  0.445470  1.0  -0.233
  C  C534  1  0.864410  0.073900  0.492640  1.0  -0.2356
  C  C535  1  0.836090  0.108260  0.460260  1.0  0.1512
  C  C536  1  0.817780  0.031790  0.415100  1.0  0.1511
  C  C537  1  0.792130  0.752130  0.842610  1.0  0.1407
  C  C538  1  0.792010  0.811360  0.839930  1.0  -0.2238
  C  C539  1  0.770380  0.843180  0.875600  1.0  0.082
  C  C540  1  0.749300  0.813710  0.913050  1.0  -0.2408
  C  C541  1  0.749820  0.754690  0.912950  1.0  0.1378
  C  C542  1  0.719570  0.605300  0.789710  1.0  0.151
  C  C543  1  0.673670  0.548650  0.843750  1.0  0.1516
  C  C544  1  0.690840  0.571120  0.757420  1.0  -0.2084
  C  C545  1  0.643530  0.512270  0.813690  1.0  -0.2264
  C  C546  1  0.651750  0.522950  0.769060  1.0  0.0709
  C  C547  1  0.620500  0.484690  0.735420  1.0  0.0675
  C  C548  1  0.596280  0.505400  0.695470  1.0  -0.2331
  C  C549  1  0.614410  0.426100  0.742640  1.0  -0.235
  C  C550  1  0.586090  0.391740  0.710260  1.0  0.1496
  C  C551  1  0.567780  0.468210  0.665100  1.0  0.1511
  C  C552  1  0.792130  0.252130  0.342610  1.0  0.1407
  C  C553  1  0.792010  0.311360  0.339930  1.0  -0.2238
  C  C554  1  0.770380  0.343180  0.375600  1.0  0.082
  C  C555  1  0.749300  0.313710  0.413050  1.0  -0.2408
  C  C556  1  0.749820  0.254690  0.412950  1.0  0.1378
  C  C557  1  0.719570  0.105300  0.289710  1.0  0.151
  C  C558  1  0.673670  0.048650  0.343750  1.0  0.1516
  C  C559  1  0.690840  0.071120  0.257420  1.0  -0.2084
  C  C560  1  0.643530  0.012270  0.313690  1.0  -0.2264
  C  C561  1  0.651750  0.022950  0.269060  1.0  0.0709
  C  C562  1  0.620500  0.984690  0.235420  1.0  0.0675
  C  C563  1  0.596280  0.005400  0.195470  1.0  -0.2331
  C  C564  1  0.614410  0.926100  0.242640  1.0  -0.235
  C  C565  1  0.586090  0.891740  0.210260  1.0  0.1496
  C  C566  1  0.567780  0.968210  0.165100  1.0  0.1511
  C  C567  1  0.292130  0.752130  0.342610  1.0  0.1407
  C  C568  1  0.292010  0.811360  0.339930  1.0  -0.2238
  C  C569  1  0.270380  0.843180  0.375600  1.0  0.082
  C  C570  1  0.249300  0.813710  0.413050  1.0  -0.2408
  C  C571  1  0.249820  0.754690  0.412950  1.0  0.1378
  C  C572  1  0.219570  0.605300  0.289710  1.0  0.151
  C  C573  1  0.173670  0.548650  0.343750  1.0  0.1516
  C  C574  1  0.190840  0.571120  0.257420  1.0  -0.2084
  C  C575  1  0.143530  0.512270  0.313690  1.0  -0.2264
  C  C576  1  0.151750  0.522950  0.269060  1.0  0.0709
  C  C577  1  0.120500  0.484690  0.235420  1.0  0.0675
  C  C578  1  0.096280  0.505400  0.195470  1.0  -0.2331
  C  C579  1  0.114410  0.426100  0.242640  1.0  -0.235
  C  C580  1  0.086090  0.391740  0.210260  1.0  0.1496
  C  C581  1  0.067780  0.468210  0.165100  1.0  0.1511
  C  C582  1  0.292130  0.252130  0.842610  1.0  0.1407
  C  C583  1  0.292010  0.311360  0.839930  1.0  -0.2238
  C  C584  1  0.270380  0.343180  0.875600  1.0  0.082
  C  C585  1  0.249300  0.313710  0.913050  1.0  -0.2408
  C  C586  1  0.249820  0.254690  0.912950  1.0  0.1378
  C  C587  1  0.219570  0.105300  0.789710  1.0  0.151
  C  C588  1  0.173670  0.048650  0.843750  1.0  0.1516
  C  C589  1  0.190840  0.071120  0.757420  1.0  -0.2084
  C  C590  1  0.143530  0.012270  0.813690  1.0  -0.2264
  C  C591  1  0.151750  0.022950  0.769060  1.0  0.0709
  C  C592  1  0.120500  0.984690  0.735420  1.0  0.0675
  C  C593  1  0.096280  0.005400  0.695470  1.0  -0.2331
  C  C594  1  0.114410  0.926100  0.742640  1.0  -0.235
  C  C595  1  0.086090  0.891740  0.710260  1.0  0.1496
  C  C596  1  0.067780  0.968210  0.665100  1.0  0.1511
  C  C597  1  0.792130  0.497870  0.407390  1.0  0.1416
  C  C598  1  0.792010  0.438640  0.410070  1.0  -0.2246
  C  C599  1  0.770380  0.406820  0.374400  1.0  0.0817
  C  C600  1  0.749300  0.436290  0.336950  1.0  -0.2405
  C  C601  1  0.749820  0.495310  0.337050  1.0  0.1389
  C  C602  1  0.719570  0.644700  0.460290  1.0  0.1514
  C  C603  1  0.673670  0.701350  0.406250  1.0  0.1505
  C  C604  1  0.690840  0.678880  0.492580  1.0  -0.2067
  C  C605  1  0.643530  0.737730  0.436310  1.0  -0.2276
  C  C606  1  0.651750  0.727050  0.480940  1.0  0.0712
  C  C607  1  0.620500  0.765310  0.514580  1.0  0.0671
  C  C608  1  0.596280  0.744600  0.554530  1.0  -0.2327
  C  C609  1  0.614410  0.823900  0.507360  1.0  -0.2356
  C  C610  1  0.586090  0.858260  0.539740  1.0  0.1515
  C  C611  1  0.567780  0.781790  0.584900  1.0  0.152
  C  C612  1  0.792130  0.997870  0.907390  1.0  0.1416
  C  C613  1  0.792010  0.938640  0.910070  1.0  -0.2246
  C  C614  1  0.770380  0.906820  0.874400  1.0  0.0817
  C  C615  1  0.749300  0.936290  0.836950  1.0  -0.2405
  C  C616  1  0.749820  0.995310  0.837050  1.0  0.1389
  C  C617  1  0.719570  0.144700  0.960290  1.0  0.1514
  C  C618  1  0.673670  0.201350  0.906250  1.0  0.1505
  C  C619  1  0.690840  0.178880  0.992580  1.0  -0.2067
  C  C620  1  0.643530  0.237730  0.936310  1.0  -0.2276
  C  C621  1  0.651750  0.227050  0.980940  1.0  0.0712
  C  C622  1  0.620500  0.265310  0.014580  1.0  0.0671
  C  C623  1  0.596280  0.244600  0.054530  1.0  -0.2327
  C  C624  1  0.614410  0.323900  0.007360  1.0  -0.2356
  C  C625  1  0.586090  0.358260  0.039740  1.0  0.1515
  C  C626  1  0.567780  0.281790  0.084900  1.0  0.152
  C  C627  1  0.292130  0.497870  0.907390  1.0  0.1416
  C  C628  1  0.292010  0.438640  0.910070  1.0  -0.2246
  C  C629  1  0.270380  0.406820  0.874400  1.0  0.0817
  C  C630  1  0.249300  0.436290  0.836950  1.0  -0.2405
  C  C631  1  0.249820  0.495310  0.837050  1.0  0.1389
  C  C632  1  0.219570  0.644700  0.960290  1.0  0.1514
  C  C633  1  0.173670  0.701350  0.906250  1.0  0.1505
  C  C634  1  0.190840  0.678880  0.992580  1.0  -0.2067
  C  C635  1  0.143530  0.737730  0.936310  1.0  -0.2276
  C  C636  1  0.151750  0.727050  0.980940  1.0  0.0712
  C  C637  1  0.120500  0.765310  0.014580  1.0  0.0671
  C  C638  1  0.096280  0.744600  0.054530  1.0  -0.2327
  C  C639  1  0.114410  0.823900  0.007360  1.0  -0.2356
  C  C640  1  0.086090  0.858260  0.039740  1.0  0.1515
  C  C641  1  0.067780  0.781790  0.084900  1.0  0.152
  C  C642  1  0.292130  0.997870  0.407390  1.0  0.1416
  C  C643  1  0.292010  0.938640  0.410070  1.0  -0.2246
  C  C644  1  0.270380  0.906820  0.374400  1.0  0.0817
  C  C645  1  0.249300  0.936290  0.336950  1.0  -0.2405
  C  C646  1  0.249820  0.995310  0.337050  1.0  0.1389
  C  C647  1  0.219570  0.144700  0.460290  1.0  0.1514
  C  C648  1  0.173670  0.201350  0.406250  1.0  0.1505
  C  C649  1  0.190840  0.178880  0.492580  1.0  -0.2067
  C  C650  1  0.143530  0.237730  0.436310  1.0  -0.2276
  C  C651  1  0.151750  0.227050  0.480940  1.0  0.0712
  C  C652  1  0.120500  0.265310  0.514580  1.0  0.0671
  C  C653  1  0.096280  0.244600  0.554530  1.0  -0.2327
  C  C654  1  0.114410  0.323900  0.507360  1.0  -0.2356
  C  C655  1  0.086090  0.358260  0.539740  1.0  0.1515
  C  C656  1  0.067780  0.281790  0.584900  1.0  0.152
  C  C657  1  0.207870  0.247870  0.157390  1.0  0.1409
  C  C658  1  0.207990  0.188640  0.160070  1.0  -0.2254
  C  C659  1  0.229620  0.156820  0.124400  1.0  0.0825
  C  C660  1  0.250700  0.186290  0.086950  1.0  -0.2415
  C  C661  1  0.250180  0.245310  0.087050  1.0  0.1386
  C  C662  1  0.280430  0.394700  0.210290  1.0  0.1521
  C  C663  1  0.326330  0.451350  0.156250  1.0  0.1506
  C  C664  1  0.309160  0.428880  0.242580  1.0  -0.2072
  C  C665  1  0.356470  0.487730  0.186310  1.0  -0.2273
  C  C666  1  0.348250  0.477050  0.230940  1.0  0.0718
  C  C667  1  0.379500  0.515310  0.264580  1.0  0.0669
  C  C668  1  0.403720  0.494600  0.304530  1.0  -0.2327
  C  C669  1  0.385590  0.573900  0.257360  1.0  -0.2361
  C  C670  1  0.413910  0.608260  0.289740  1.0  0.1504
  C  C671  1  0.432220  0.531790  0.334900  1.0  0.1524
  C  C672  1  0.207870  0.747870  0.657390  1.0  0.1409
  C  C673  1  0.207990  0.688640  0.660070  1.0  -0.2254
  C  C674  1  0.229620  0.656820  0.624400  1.0  0.0825
  C  C675  1  0.250700  0.686290  0.586950  1.0  -0.2415
  C  C676  1  0.250180  0.745310  0.587050  1.0  0.1386
  C  C677  1  0.280430  0.894700  0.710290  1.0  0.1521
  C  C678  1  0.326330  0.951350  0.656250  1.0  0.1506
  C  C679  1  0.309160  0.928880  0.742580  1.0  -0.2072
  C  C680  1  0.356470  0.987730  0.686310  1.0  -0.2273
  C  C681  1  0.348250  0.977050  0.730940  1.0  0.0718
  C  C682  1  0.379500  0.015310  0.764580  1.0  0.0669
  C  C683  1  0.403720  0.994600  0.804530  1.0  -0.2327
  C  C684  1  0.385590  0.073900  0.757360  1.0  -0.2361
  C  C685  1  0.413910  0.108260  0.789740  1.0  0.1504
  C  C686  1  0.432220  0.031790  0.834900  1.0  0.1524
  C  C687  1  0.707870  0.247870  0.657390  1.0  0.1409
  C  C688  1  0.707990  0.188640  0.660070  1.0  -0.2254
  C  C689  1  0.729620  0.156820  0.624400  1.0  0.0825
  C  C690  1  0.750700  0.186290  0.586950  1.0  -0.2415
  C  C691  1  0.750180  0.245310  0.587050  1.0  0.1386
  C  C692  1  0.780430  0.394700  0.710290  1.0  0.1521
  C  C693  1  0.826330  0.451350  0.656250  1.0  0.1506
  C  C694  1  0.809160  0.428880  0.742580  1.0  -0.2072
  C  C695  1  0.856470  0.487730  0.686310  1.0  -0.2273
  C  C696  1  0.848250  0.477050  0.730940  1.0  0.0718
  C  C697  1  0.879500  0.515310  0.764580  1.0  0.0669
  C  C698  1  0.903720  0.494600  0.804530  1.0  -0.2327
  C  C699  1  0.885590  0.573900  0.757360  1.0  -0.2361
  C  C700  1  0.913910  0.608260  0.789740  1.0  0.1504
  C  C701  1  0.932220  0.531790  0.834900  1.0  0.1524
  C  C702  1  0.707870  0.747870  0.157390  1.0  0.1409
  C  C703  1  0.707990  0.688640  0.160070  1.0  -0.2254
  C  C704  1  0.729620  0.656820  0.124400  1.0  0.0825
  C  C705  1  0.750700  0.686290  0.086950  1.0  -0.2415
  C  C706  1  0.750180  0.745310  0.087050  1.0  0.1386
  C  C707  1  0.780430  0.894700  0.210290  1.0  0.1521
  C  C708  1  0.826330  0.951350  0.156250  1.0  0.1506
  C  C709  1  0.809160  0.928880  0.242580  1.0  -0.2072
  C  C710  1  0.856470  0.987730  0.186310  1.0  -0.2273
  C  C711  1  0.848250  0.977050  0.230940  1.0  0.0718
  C  C712  1  0.879500  0.015310  0.264580  1.0  0.0669
  C  C713  1  0.903720  0.994600  0.304530  1.0  -0.2327
  C  C714  1  0.885590  0.073900  0.257360  1.0  -0.2361
  C  C715  1  0.913910  0.108260  0.289740  1.0  0.1504
  C  C716  1  0.932220  0.031790  0.334900  1.0  0.1524
  C  C717  1  0.207870  0.502130  0.592610  1.0  0.1407
  C  C718  1  0.207990  0.561360  0.589930  1.0  -0.2232
  C  C719  1  0.229620  0.593180  0.625600  1.0  0.0824
  C  C720  1  0.250700  0.563710  0.663050  1.0  -0.2409
  C  C721  1  0.250180  0.504690  0.662950  1.0  0.1388
  C  C722  1  0.280430  0.355300  0.539710  1.0  0.1516
  C  C723  1  0.326330  0.298650  0.593750  1.0  0.152
  C  C724  1  0.309160  0.321120  0.507420  1.0  -0.208
  C  C725  1  0.356470  0.262270  0.563690  1.0  -0.2266
  C  C726  1  0.348250  0.272950  0.519060  1.0  0.0716
  C  C727  1  0.379500  0.234690  0.485420  1.0  0.0674
  C  C728  1  0.403720  0.255400  0.445470  1.0  -0.2338
  C  C729  1  0.385590  0.176100  0.492640  1.0  -0.2353
  C  C730  1  0.413910  0.141740  0.460260  1.0  0.1491
  C  C731  1  0.432220  0.218210  0.415100  1.0  0.1509
  C  C732  1  0.207870  0.002130  0.092610  1.0  0.1407
  C  C733  1  0.207990  0.061360  0.089930  1.0  -0.2232
  C  C734  1  0.229620  0.093180  0.125600  1.0  0.0824
  C  C735  1  0.250700  0.063710  0.163050  1.0  -0.2409
  C  C736  1  0.250180  0.004690  0.162950  1.0  0.1388
  C  C737  1  0.280430  0.855300  0.039710  1.0  0.1516
  C  C738  1  0.326330  0.798650  0.093750  1.0  0.152
  C  C739  1  0.309160  0.821120  0.007420  1.0  -0.208
  C  C740  1  0.356470  0.762270  0.063690  1.0  -0.2266
  C  C741  1  0.348250  0.772950  0.019060  1.0  0.0716
  C  C742  1  0.379500  0.734690  0.985420  1.0  0.0674
  C  C743  1  0.403720  0.755400  0.945470  1.0  -0.2338
  C  C744  1  0.385590  0.676100  0.992640  1.0  -0.2353
  C  C745  1  0.413910  0.641740  0.960260  1.0  0.1491
  C  C746  1  0.432220  0.718210  0.915100  1.0  0.1509
  C  C747  1  0.707870  0.502130  0.092610  1.0  0.1407
  C  C748  1  0.707990  0.561360  0.089930  1.0  -0.2232
  C  C749  1  0.729620  0.593180  0.125600  1.0  0.0824
  C  C750  1  0.750700  0.563710  0.163050  1.0  -0.2409
  C  C751  1  0.750180  0.504690  0.162950  1.0  0.1388
  C  C752  1  0.780430  0.355300  0.039710  1.0  0.1516
  C  C753  1  0.826330  0.298650  0.093750  1.0  0.152
  C  C754  1  0.809160  0.321120  0.007420  1.0  -0.208
  C  C755  1  0.856470  0.262270  0.063690  1.0  -0.2266
  C  C756  1  0.848250  0.272950  0.019060  1.0  0.0716
  C  C757  1  0.879500  0.234690  0.985420  1.0  0.0674
  C  C758  1  0.903720  0.255400  0.945470  1.0  -0.2338
  C  C759  1  0.885590  0.176100  0.992640  1.0  -0.2353
  C  C760  1  0.913910  0.141740  0.960260  1.0  0.1491
  C  C761  1  0.932220  0.218210  0.915100  1.0  0.1509
  C  C762  1  0.707870  0.002130  0.592610  1.0  0.1407
  C  C763  1  0.707990  0.061360  0.589930  1.0  -0.2232
  C  C764  1  0.729620  0.093180  0.625600  1.0  0.0824
  C  C765  1  0.750700  0.063710  0.663050  1.0  -0.2409
  C  C766  1  0.750180  0.004690  0.662950  1.0  0.1388
  C  C767  1  0.780430  0.855300  0.539710  1.0  0.1516
  C  C768  1  0.826330  0.798650  0.593750  1.0  0.152
  C  C769  1  0.809160  0.821120  0.507420  1.0  -0.208
  C  C770  1  0.856470  0.762270  0.563690  1.0  -0.2266
  C  C771  1  0.848250  0.772950  0.519060  1.0  0.0716
  C  C772  1  0.879500  0.734690  0.485420  1.0  0.0674
  C  C773  1  0.903720  0.755400  0.445470  1.0  -0.2338
  C  C774  1  0.885590  0.676100  0.492640  1.0  -0.2353
  C  C775  1  0.913910  0.641740  0.460260  1.0  0.1491
  C  C776  1  0.932220  0.718210  0.415100  1.0  0.1509
  C  C777  1  0.457870  0.497870  0.842610  1.0  0.1407
  C  C778  1  0.457990  0.438640  0.839930  1.0  -0.2235
  C  C779  1  0.479620  0.406820  0.875600  1.0  0.0825
  C  C780  1  0.500700  0.436290  0.913050  1.0  -0.2419
  C  C781  1  0.500180  0.495310  0.912950  1.0  0.1381
  C  C782  1  0.530430  0.644700  0.789710  1.0  0.1517
  C  C783  1  0.576330  0.701350  0.843750  1.0  0.1519
  C  C784  1  0.559160  0.678880  0.757420  1.0  -0.2073
  C  C785  1  0.606470  0.737730  0.813690  1.0  -0.2271
  C  C786  1  0.598250  0.727050  0.769060  1.0  0.0721
  C  C787  1  0.629500  0.765310  0.735420  1.0  0.0672
  C  C788  1  0.653720  0.744600  0.695470  1.0  -0.2328
  C  C789  1  0.635590  0.823900  0.742640  1.0  -0.2359
  C  C790  1  0.663910  0.858260  0.710260  1.0  0.1503
  C  C791  1  0.682220  0.781790  0.665100  1.0  0.1512
  C  C792  1  0.457870  0.997870  0.342610  1.0  0.1407
  C  C793  1  0.457990  0.938640  0.339930  1.0  -0.2235
  C  C794  1  0.479620  0.906820  0.375600  1.0  0.0825
  C  C795  1  0.500700  0.936290  0.413050  1.0  -0.2419
  C  C796  1  0.500180  0.995310  0.412950  1.0  0.1381
  C  C797  1  0.530430  0.144700  0.289710  1.0  0.1517
  C  C798  1  0.576330  0.201350  0.343750  1.0  0.1519
  C  C799  1  0.559160  0.178880  0.257420  1.0  -0.2073
  C  C800  1  0.606470  0.237730  0.313690  1.0  -0.2271
  C  C801  1  0.598250  0.227050  0.269060  1.0  0.0721
  C  C802  1  0.629500  0.265310  0.235420  1.0  0.0672
  C  C803  1  0.653720  0.244600  0.195470  1.0  -0.2328
  C  C804  1  0.635590  0.323900  0.242640  1.0  -0.2359
  C  C805  1  0.663910  0.358260  0.210260  1.0  0.1503
  C  C806  1  0.682220  0.281790  0.165100  1.0  0.1512
  C  C807  1  0.957870  0.497870  0.342610  1.0  0.1407
  C  C808  1  0.957990  0.438640  0.339930  1.0  -0.2235
  C  C809  1  0.979620  0.406820  0.375600  1.0  0.0825
  C  C810  1  0.000700  0.436290  0.413050  1.0  -0.2419
  C  C811  1  0.000180  0.495310  0.412950  1.0  0.1381
  C  C812  1  0.030430  0.644700  0.289710  1.0  0.1517
  C  C813  1  0.076330  0.701350  0.343750  1.0  0.1519
  C  C814  1  0.059160  0.678880  0.257420  1.0  -0.2073
  C  C815  1  0.106470  0.737730  0.313690  1.0  -0.2271
  C  C816  1  0.098250  0.727050  0.269060  1.0  0.0721
  C  C817  1  0.129500  0.765310  0.235420  1.0  0.0672
  C  C818  1  0.153720  0.744600  0.195470  1.0  -0.2328
  C  C819  1  0.135590  0.823900  0.242640  1.0  -0.2359
  C  C820  1  0.163910  0.858260  0.210260  1.0  0.1503
  C  C821  1  0.182220  0.781790  0.165100  1.0  0.1512
  C  C822  1  0.957870  0.997870  0.842610  1.0  0.1407
  C  C823  1  0.957990  0.938640  0.839930  1.0  -0.2235
  C  C824  1  0.979620  0.906820  0.875600  1.0  0.0825
  C  C825  1  0.000700  0.936290  0.913050  1.0  -0.2419
  C  C826  1  0.000180  0.995310  0.912950  1.0  0.1381
  C  C827  1  0.030430  0.144700  0.789710  1.0  0.1517
  C  C828  1  0.076330  0.201350  0.843750  1.0  0.1519
  C  C829  1  0.059160  0.178880  0.757420  1.0  -0.2073
  C  C830  1  0.106470  0.237730  0.813690  1.0  -0.2271
  C  C831  1  0.098250  0.227050  0.769060  1.0  0.0721
  C  C832  1  0.129500  0.265310  0.735420  1.0  0.0672
  C  C833  1  0.153720  0.244600  0.695470  1.0  -0.2328
  C  C834  1  0.135590  0.323900  0.742640  1.0  -0.2359
  C  C835  1  0.163910  0.358260  0.710260  1.0  0.1503
  C  C836  1  0.182220  0.281790  0.665100  1.0  0.1512
  C  C837  1  0.457870  0.752130  0.407390  1.0  0.141
  C  C838  1  0.457990  0.811360  0.410070  1.0  -0.2248
  C  C839  1  0.479620  0.843180  0.374400  1.0  0.0825
  C  C840  1  0.500700  0.813710  0.336950  1.0  -0.2406
  C  C841  1  0.500180  0.754690  0.337050  1.0  0.1382
  C  C842  1  0.530430  0.605300  0.460290  1.0  0.1516
  C  C843  1  0.576330  0.548650  0.406250  1.0  0.1513
  C  C844  1  0.559160  0.571120  0.492580  1.0  -0.207
  C  C845  1  0.606470  0.512270  0.436310  1.0  -0.2265
  C  C846  1  0.598250  0.522950  0.480940  1.0  0.0713
  C  C847  1  0.629500  0.484690  0.514580  1.0  0.067
  C  C848  1  0.653720  0.505400  0.554530  1.0  -0.2345
  C  C849  1  0.635590  0.426100  0.507360  1.0  -0.2361
  C  C850  1  0.663910  0.391740  0.539740  1.0  0.149
  C  C851  1  0.682220  0.468210  0.584900  1.0  0.1516
  C  C852  1  0.457870  0.252130  0.907390  1.0  0.141
  C  C853  1  0.457990  0.311360  0.910070  1.0  -0.2248
  C  C854  1  0.479620  0.343180  0.874400  1.0  0.0825
  C  C855  1  0.500700  0.313710  0.836950  1.0  -0.2406
  C  C856  1  0.500180  0.254690  0.837050  1.0  0.1382
  C  C857  1  0.530430  0.105300  0.960290  1.0  0.1516
  C  C858  1  0.576330  0.048650  0.906250  1.0  0.1513
  C  C859  1  0.559160  0.071120  0.992580  1.0  -0.207
  C  C860  1  0.606470  0.012270  0.936310  1.0  -0.2265
  C  C861  1  0.598250  0.022950  0.980940  1.0  0.0713
  C  C862  1  0.629500  0.984690  0.014580  1.0  0.067
  C  C863  1  0.653720  0.005400  0.054530  1.0  -0.2345
  C  C864  1  0.635590  0.926100  0.007360  1.0  -0.2361
  C  C865  1  0.663910  0.891740  0.039740  1.0  0.149
  C  C866  1  0.682220  0.968210  0.084900  1.0  0.1516
  C  C867  1  0.957870  0.752130  0.907390  1.0  0.141
  C  C868  1  0.957990  0.811360  0.910070  1.0  -0.2248
  C  C869  1  0.979620  0.843180  0.874400  1.0  0.0825
  C  C870  1  0.000700  0.813710  0.836950  1.0  -0.2406
  C  C871  1  0.000180  0.754690  0.837050  1.0  0.1382
  C  C872  1  0.030430  0.605300  0.960290  1.0  0.1516
  C  C873  1  0.076330  0.548650  0.906250  1.0  0.1513
  C  C874  1  0.059160  0.571120  0.992580  1.0  -0.207
  C  C875  1  0.106470  0.512270  0.936310  1.0  -0.2265
  C  C876  1  0.098250  0.522950  0.980940  1.0  0.0713
  C  C877  1  0.129500  0.484690  0.014580  1.0  0.067
  C  C878  1  0.153720  0.505400  0.054530  1.0  -0.2345
  C  C879  1  0.135590  0.426100  0.007360  1.0  -0.2361
  C  C880  1  0.163910  0.391740  0.039740  1.0  0.149
  C  C881  1  0.182220  0.468210  0.084900  1.0  0.1516
  C  C882  1  0.957870  0.252130  0.407390  1.0  0.141
  C  C883  1  0.957990  0.311360  0.410070  1.0  -0.2248
  C  C884  1  0.979620  0.343180  0.374400  1.0  0.0825
  C  C885  1  0.000700  0.313710  0.336950  1.0  -0.2406
  C  C886  1  0.000180  0.254690  0.337050  1.0  0.1382
  C  C887  1  0.030430  0.105300  0.460290  1.0  0.1516
  C  C888  1  0.076330  0.048650  0.406250  1.0  0.1513
  C  C889  1  0.059160  0.071120  0.492580  1.0  -0.207
  C  C890  1  0.106470  0.012270  0.436310  1.0  -0.2265
  C  C891  1  0.098250  0.022950  0.480940  1.0  0.0713
  C  C892  1  0.129500  0.984690  0.514580  1.0  0.067
  C  C893  1  0.153720  0.005400  0.554530  1.0  -0.2345
  C  C894  1  0.135590  0.926100  0.507360  1.0  -0.2361
  C  C895  1  0.163910  0.891740  0.539740  1.0  0.149
  C  C896  1  0.182220  0.968210  0.584900  1.0  0.1516
  N  N897  1  0.520650  0.473490  0.121700  1.0  -0.3127
  N  N898  1  0.462190  0.344580  0.167320  1.0  -0.3707
  N  N899  1  0.312720  0.161600  0.328370  1.0  -0.3622
  N  N900  1  0.520650  0.973490  0.621700  1.0  -0.3127
  N  N901  1  0.462190  0.844580  0.667320  1.0  -0.3707
  N  N902  1  0.312720  0.661600  0.828370  1.0  -0.3622
  N  N903  1  0.020650  0.473490  0.621700  1.0  -0.3127
  N  N904  1  0.962190  0.344580  0.667320  1.0  -0.3707
  N  N905  1  0.812720  0.161600  0.828370  1.0  -0.3622
  N  N906  1  0.020650  0.973490  0.121700  1.0  -0.3127
  N  N907  1  0.962190  0.844580  0.167320  1.0  -0.3707
  N  N908  1  0.812720  0.661600  0.328370  1.0  -0.3622
  N  N909  1  0.520650  0.276510  0.628300  1.0  -0.3122
  N  N910  1  0.462190  0.405420  0.582680  1.0  -0.3691
  N  N911  1  0.312720  0.588400  0.421630  1.0  -0.3613
  N  N912  1  0.520650  0.776510  0.128300  1.0  -0.3122
  N  N913  1  0.462190  0.905420  0.082680  1.0  -0.3691
  N  N914  1  0.312720  0.088400  0.921630  1.0  -0.3613
  N  N915  1  0.020650  0.276510  0.128300  1.0  -0.3122
  N  N916  1  0.962190  0.405420  0.082680  1.0  -0.3691
  N  N917  1  0.812720  0.588400  0.921630  1.0  -0.3613
  N  N918  1  0.020650  0.776510  0.628300  1.0  -0.3122
  N  N919  1  0.962190  0.905420  0.582680  1.0  -0.3691
  N  N920  1  0.812720  0.088400  0.421630  1.0  -0.3613
  N  N921  1  0.770650  0.723490  0.878300  1.0  -0.312
  N  N922  1  0.712190  0.594580  0.832680  1.0  -0.3701
  N  N923  1  0.562720  0.411600  0.671630  1.0  -0.3617
  N  N924  1  0.770650  0.223490  0.378300  1.0  -0.312
  N  N925  1  0.712190  0.094580  0.332680  1.0  -0.3701
  N  N926  1  0.562720  0.911600  0.171630  1.0  -0.3617
  N  N927  1  0.270650  0.723490  0.378300  1.0  -0.312
  N  N928  1  0.212190  0.594580  0.332680  1.0  -0.3701
  N  N929  1  0.062720  0.411600  0.171630  1.0  -0.3617
  N  N930  1  0.270650  0.223490  0.878300  1.0  -0.312
  N  N931  1  0.212190  0.094580  0.832680  1.0  -0.3701
  N  N932  1  0.062720  0.911600  0.671630  1.0  -0.3617
  N  N933  1  0.770650  0.526510  0.371700  1.0  -0.3125
  N  N934  1  0.712190  0.655420  0.417320  1.0  -0.3706
  N  N935  1  0.562720  0.838400  0.578370  1.0  -0.3627
  N  N936  1  0.770650  0.026510  0.871700  1.0  -0.3125
  N  N937  1  0.712190  0.155420  0.917320  1.0  -0.3706
  N  N938  1  0.562720  0.338400  0.078370  1.0  -0.3627
  N  N939  1  0.270650  0.526510  0.871700  1.0  -0.3125
  N  N940  1  0.212190  0.655420  0.917320  1.0  -0.3706
  N  N941  1  0.062720  0.838400  0.078370  1.0  -0.3627
  N  N942  1  0.270650  0.026510  0.371700  1.0  -0.3125
  N  N943  1  0.212190  0.155420  0.417320  1.0  -0.3706
  N  N944  1  0.062720  0.338400  0.578370  1.0  -0.3627
  N  N945  1  0.229350  0.276510  0.121700  1.0  -0.3127
  N  N946  1  0.287810  0.405420  0.167320  1.0  -0.3712
  N  N947  1  0.437280  0.588400  0.328370  1.0  -0.3613
  N  N948  1  0.229350  0.776510  0.621700  1.0  -0.3127
  N  N949  1  0.287810  0.905420  0.667320  1.0  -0.3712
  N  N950  1  0.437280  0.088400  0.828370  1.0  -0.3613
  N  N951  1  0.729350  0.276510  0.621700  1.0  -0.3127
  N  N952  1  0.787810  0.405420  0.667320  1.0  -0.3712
  N  N953  1  0.937280  0.588400  0.828370  1.0  -0.3613
  N  N954  1  0.729350  0.776510  0.121700  1.0  -0.3127
  N  N955  1  0.787810  0.905420  0.167320  1.0  -0.3712
  N  N956  1  0.937280  0.088400  0.328370  1.0  -0.3613
  N  N957  1  0.229350  0.473490  0.628300  1.0  -0.3119
  N  N958  1  0.287810  0.344580  0.582680  1.0  -0.3705
  N  N959  1  0.437280  0.161600  0.421630  1.0  -0.3609
  N  N960  1  0.229350  0.973490  0.128300  1.0  -0.3119
  N  N961  1  0.287810  0.844580  0.082680  1.0  -0.3705
  N  N962  1  0.437280  0.661600  0.921630  1.0  -0.3609
  N  N963  1  0.729350  0.473490  0.128300  1.0  -0.3119
  N  N964  1  0.787810  0.344580  0.082680  1.0  -0.3705
  N  N965  1  0.937280  0.161600  0.921630  1.0  -0.3609
  N  N966  1  0.729350  0.973490  0.628300  1.0  -0.3119
  N  N967  1  0.787810  0.844580  0.582680  1.0  -0.3705
  N  N968  1  0.937280  0.661600  0.421630  1.0  -0.3609
  N  N969  1  0.479350  0.526510  0.878300  1.0  -0.3123
  N  N970  1  0.537810  0.655420  0.832680  1.0  -0.3697
  N  N971  1  0.687280  0.838400  0.671630  1.0  -0.361
  N  N972  1  0.479350  0.026510  0.378300  1.0  -0.3123
  N  N973  1  0.537810  0.155420  0.332680  1.0  -0.3697
  N  N974  1  0.687280  0.338400  0.171630  1.0  -0.361
  N  N975  1  0.979350  0.526510  0.378300  1.0  -0.3123
  N  N976  1  0.037810  0.655420  0.332680  1.0  -0.3697
  N  N977  1  0.187280  0.838400  0.171630  1.0  -0.361
  N  N978  1  0.979350  0.026510  0.878300  1.0  -0.3123
  N  N979  1  0.037810  0.155420  0.832680  1.0  -0.3697
  N  N980  1  0.187280  0.338400  0.671630  1.0  -0.361
  N  N981  1  0.479350  0.723490  0.371700  1.0  -0.3125
  N  N982  1  0.537810  0.594580  0.417320  1.0  -0.371
  N  N983  1  0.687280  0.411600  0.578370  1.0  -0.3607
  N  N984  1  0.479350  0.223490  0.871700  1.0  -0.3125
  N  N985  1  0.537810  0.094580  0.917320  1.0  -0.371
  N  N986  1  0.687280  0.911600  0.078370  1.0  -0.3607
  N  N987  1  0.979350  0.723490  0.871700  1.0  -0.3125
  N  N988  1  0.037810  0.594580  0.917320  1.0  -0.371
  N  N989  1  0.187280  0.411600  0.078370  1.0  -0.3607
  N  N990  1  0.979350  0.223490  0.371700  1.0  -0.3125
  N  N991  1  0.037810  0.094580  0.417320  1.0  -0.371
  N  N992  1  0.187280  0.911600  0.578370  1.0  -0.3607
