# generated using pymatgen
data_CuH12(C5N)3
_symmetry_space_group_name_H-M   'P 1'
_cell_length_a   18.77700000
_cell_length_b   23.35930000
_cell_length_c   30.42310000
_cell_angle_alpha   90.00000000
_cell_angle_beta   90.00000000
_cell_angle_gamma   90.00000000
_symmetry_Int_Tables_number   1
_chemical_formula_structural   CuH12(C5N)3
_chemical_formula_sum   'Cu32 H384 C480 N96'
_cell_volume   13344.10637945
_cell_formula_units_Z   32
loop_
 _symmetry_equiv_pos_site_id
 _symmetry_equiv_pos_as_xyz
  1  'x, y, z'
loop_
 _atom_site_type_symbol
 _atom_site_label
 _atom_site_symmetry_multiplicity
 _atom_site_fract_x
 _atom_site_fract_y
 _atom_site_fract_z
 _atom_site_occupancy
 _atom_site_charge
  Cu  Cu1  1  0.235830  0.360230  0.121450  1.0  0.3541
  Cu  Cu2  1  0.235830  0.860230  0.621450  1.0  0.3541
  Cu  Cu3  1  0.735830  0.360230  0.621450  1.0  0.3541
  Cu  Cu4  1  0.735830  0.860230  0.121450  1.0  0.3541
  Cu  Cu5  1  0.235830  0.389770  0.628550  1.0  0.3535
  Cu  Cu6  1  0.235830  0.889770  0.128550  1.0  0.3535
  Cu  Cu7  1  0.735830  0.389770  0.128550  1.0  0.3535
  Cu  Cu8  1  0.735830  0.889770  0.628550  1.0  0.3535
  Cu  Cu9  1  0.485830  0.610230  0.878550  1.0  0.3533
  Cu  Cu10  1  0.485830  0.110230  0.378550  1.0  0.3533
  Cu  Cu11  1  0.985830  0.610230  0.378550  1.0  0.3533
  Cu  Cu12  1  0.985830  0.110230  0.878550  1.0  0.3533
  Cu  Cu13  1  0.485830  0.639770  0.371450  1.0  0.3542
  Cu  Cu14  1  0.485830  0.139770  0.871450  1.0  0.3542
  Cu  Cu15  1  0.985830  0.639770  0.871450  1.0  0.3542
  Cu  Cu16  1  0.985830  0.139770  0.371450  1.0  0.3542
  Cu  Cu17  1  0.514170  0.389770  0.121450  1.0  0.3551
  Cu  Cu18  1  0.514170  0.889770  0.621450  1.0  0.3551
  Cu  Cu19  1  0.014170  0.389770  0.621450  1.0  0.3551
  Cu  Cu20  1  0.014170  0.889770  0.121450  1.0  0.3551
  Cu  Cu21  1  0.514170  0.360230  0.628550  1.0  0.3542
  Cu  Cu22  1  0.514170  0.860230  0.128550  1.0  0.3542
  Cu  Cu23  1  0.014170  0.360230  0.128550  1.0  0.3542
  Cu  Cu24  1  0.014170  0.860230  0.628550  1.0  0.3542
  Cu  Cu25  1  0.764170  0.639770  0.878550  1.0  0.3543
  Cu  Cu26  1  0.764170  0.139770  0.378550  1.0  0.3543
  Cu  Cu27  1  0.264170  0.639770  0.378550  1.0  0.3543
  Cu  Cu28  1  0.264170  0.139770  0.878550  1.0  0.3543
  Cu  Cu29  1  0.764170  0.610230  0.371450  1.0  0.355
  Cu  Cu30  1  0.764170  0.110230  0.871450  1.0  0.355
  Cu  Cu31  1  0.264170  0.610230  0.871450  1.0  0.355
  Cu  Cu32  1  0.264170  0.110230  0.371450  1.0  0.355
  H  H33  1  0.333600  0.459000  0.126800  1.0  0.0514
  H  H34  1  0.382200  0.519100  0.176700  1.0  0.0899
  H  H35  1  0.255500  0.362800  0.218700  1.0  0.0513
  H  H36  1  0.301900  0.420000  0.271900  1.0  0.108
  H  H37  1  0.402000  0.455700  0.310700  1.0  0.1034
  H  H38  1  0.448400  0.516600  0.361300  1.0  0.0491
  H  H39  1  0.370900  0.589800  0.230900  1.0  0.0951
  H  H40  1  0.416400  0.647700  0.284500  1.0  0.0565
  H  H41  1  0.264400  0.264400  0.061800  1.0  0.0501
  H  H42  1  0.265100  0.166400  0.062300  1.0  0.0965
  H  H43  1  0.191800  0.268400  0.181600  1.0  0.0547
  H  H44  1  0.193500  0.170900  0.185700  1.0  0.1018
  H  H45  1  0.333600  0.959000  0.626800  1.0  0.0514
  H  H46  1  0.382200  0.019100  0.676700  1.0  0.0899
  H  H47  1  0.255500  0.862800  0.718700  1.0  0.0513
  H  H48  1  0.301900  0.920000  0.771900  1.0  0.108
  H  H49  1  0.402000  0.955700  0.810700  1.0  0.1034
  H  H50  1  0.448400  0.016600  0.861300  1.0  0.0491
  H  H51  1  0.370900  0.089800  0.730900  1.0  0.0951
  H  H52  1  0.416400  0.147700  0.784500  1.0  0.0565
  H  H53  1  0.264400  0.764400  0.561800  1.0  0.0501
  H  H54  1  0.265100  0.666400  0.562300  1.0  0.0965
  H  H55  1  0.191800  0.768400  0.681600  1.0  0.0547
  H  H56  1  0.193500  0.670900  0.685700  1.0  0.1018
  H  H57  1  0.833600  0.459000  0.626800  1.0  0.0514
  H  H58  1  0.882200  0.519100  0.676700  1.0  0.0899
  H  H59  1  0.755500  0.362800  0.718700  1.0  0.0513
  H  H60  1  0.801900  0.420000  0.771900  1.0  0.108
  H  H61  1  0.902000  0.455700  0.810700  1.0  0.1034
  H  H62  1  0.948400  0.516600  0.861300  1.0  0.0491
  H  H63  1  0.870900  0.589800  0.730900  1.0  0.0951
  H  H64  1  0.916400  0.647700  0.784500  1.0  0.0565
  H  H65  1  0.764400  0.264400  0.561800  1.0  0.0501
  H  H66  1  0.765100  0.166400  0.562300  1.0  0.0965
  H  H67  1  0.691800  0.268400  0.681600  1.0  0.0547
  H  H68  1  0.693500  0.170900  0.685700  1.0  0.1018
  H  H69  1  0.833600  0.959000  0.126800  1.0  0.0514
  H  H70  1  0.882200  0.019100  0.176700  1.0  0.0899
  H  H71  1  0.755500  0.862800  0.218700  1.0  0.0513
  H  H72  1  0.801900  0.920000  0.271900  1.0  0.108
  H  H73  1  0.902000  0.955700  0.310700  1.0  0.1034
  H  H74  1  0.948400  0.016600  0.361300  1.0  0.0491
  H  H75  1  0.870900  0.089800  0.230900  1.0  0.0951
  H  H76  1  0.916400  0.147700  0.284500  1.0  0.0565
  H  H77  1  0.764400  0.764400  0.061800  1.0  0.0501
  H  H78  1  0.765100  0.666400  0.062300  1.0  0.0965
  H  H79  1  0.691800  0.768400  0.181600  1.0  0.0547
  H  H80  1  0.693500  0.670900  0.185700  1.0  0.1018
  H  H81  1  0.333600  0.291000  0.623200  1.0  0.0514
  H  H82  1  0.382200  0.230900  0.573300  1.0  0.0902
  H  H83  1  0.255500  0.387200  0.531300  1.0  0.0515
  H  H84  1  0.301900  0.330000  0.478100  1.0  0.1086
  H  H85  1  0.402000  0.294300  0.439300  1.0  0.1035
  H  H86  1  0.448400  0.233400  0.388700  1.0  0.0495
  H  H87  1  0.370900  0.160200  0.519100  1.0  0.0956
  H  H88  1  0.416400  0.102300  0.465500  1.0  0.0568
  H  H89  1  0.264400  0.485600  0.688200  1.0  0.0507
  H  H90  1  0.265100  0.583600  0.687700  1.0  0.0971
  H  H91  1  0.191800  0.481600  0.568400  1.0  0.0554
  H  H92  1  0.193500  0.579100  0.564300  1.0  0.1011
  H  H93  1  0.333600  0.791000  0.123200  1.0  0.0514
  H  H94  1  0.382200  0.730900  0.073300  1.0  0.0902
  H  H95  1  0.255500  0.887200  0.031300  1.0  0.0515
  H  H96  1  0.301900  0.830000  0.978100  1.0  0.1086
  H  H97  1  0.402000  0.794300  0.939300  1.0  0.1035
  H  H98  1  0.448400  0.733400  0.888700  1.0  0.0495
  H  H99  1  0.370900  0.660200  0.019100  1.0  0.0956
  H  H100  1  0.416400  0.602300  0.965500  1.0  0.0568
  H  H101  1  0.264400  0.985600  0.188200  1.0  0.0507
  H  H102  1  0.265100  0.083600  0.187700  1.0  0.0971
  H  H103  1  0.191800  0.981600  0.068400  1.0  0.0554
  H  H104  1  0.193500  0.079100  0.064300  1.0  0.1011
  H  H105  1  0.833600  0.291000  0.123200  1.0  0.0514
  H  H106  1  0.882200  0.230900  0.073300  1.0  0.0902
  H  H107  1  0.755500  0.387200  0.031300  1.0  0.0515
  H  H108  1  0.801900  0.330000  0.978100  1.0  0.1086
  H  H109  1  0.902000  0.294300  0.939300  1.0  0.1035
  H  H110  1  0.948400  0.233400  0.888700  1.0  0.0495
  H  H111  1  0.870900  0.160200  0.019100  1.0  0.0956
  H  H112  1  0.916400  0.102300  0.965500  1.0  0.0568
  H  H113  1  0.764400  0.485600  0.188200  1.0  0.0507
  H  H114  1  0.765100  0.583600  0.187700  1.0  0.0971
  H  H115  1  0.691800  0.481600  0.068400  1.0  0.0554
  H  H116  1  0.693500  0.579100  0.064300  1.0  0.1011
  H  H117  1  0.833600  0.791000  0.623200  1.0  0.0514
  H  H118  1  0.882200  0.730900  0.573300  1.0  0.0902
  H  H119  1  0.755500  0.887200  0.531300  1.0  0.0515
  H  H120  1  0.801900  0.830000  0.478100  1.0  0.1086
  H  H121  1  0.902000  0.794300  0.439300  1.0  0.1035
  H  H122  1  0.948400  0.733400  0.388700  1.0  0.0495
  H  H123  1  0.870900  0.660200  0.519100  1.0  0.0956
  H  H124  1  0.916400  0.602300  0.465500  1.0  0.0568
  H  H125  1  0.764400  0.985600  0.688200  1.0  0.0507
  H  H126  1  0.765100  0.083600  0.687700  1.0  0.0971
  H  H127  1  0.691800  0.981600  0.568400  1.0  0.0554
  H  H128  1  0.693500  0.079100  0.564300  1.0  0.1011
  H  H129  1  0.583600  0.709000  0.873200  1.0  0.0516
  H  H130  1  0.632200  0.769100  0.823300  1.0  0.0899
  H  H131  1  0.505500  0.612800  0.781300  1.0  0.0511
  H  H132  1  0.551900  0.670000  0.728100  1.0  0.1084
  H  H133  1  0.652000  0.705700  0.689300  1.0  0.1035
  H  H134  1  0.698400  0.766600  0.638700  1.0  0.0496
  H  H135  1  0.620900  0.839800  0.769100  1.0  0.0947
  H  H136  1  0.666400  0.897700  0.715500  1.0  0.0561
  H  H137  1  0.514400  0.514400  0.938200  1.0  0.0505
  H  H138  1  0.515100  0.416400  0.937700  1.0  0.0968
  H  H139  1  0.441800  0.518400  0.818400  1.0  0.0554
  H  H140  1  0.443500  0.420900  0.814300  1.0  0.1011
  H  H141  1  0.583600  0.209000  0.373200  1.0  0.0516
  H  H142  1  0.632200  0.269100  0.323300  1.0  0.0899
  H  H143  1  0.505500  0.112800  0.281300  1.0  0.0511
  H  H144  1  0.551900  0.170000  0.228100  1.0  0.1084
  H  H145  1  0.652000  0.205700  0.189300  1.0  0.1035
  H  H146  1  0.698400  0.266600  0.138700  1.0  0.0496
  H  H147  1  0.620900  0.339800  0.269100  1.0  0.0947
  H  H148  1  0.666400  0.397700  0.215500  1.0  0.0561
  H  H149  1  0.514400  0.014400  0.438200  1.0  0.0505
  H  H150  1  0.515100  0.916400  0.437700  1.0  0.0968
  H  H151  1  0.441800  0.018400  0.318400  1.0  0.0554
  H  H152  1  0.443500  0.920900  0.314300  1.0  0.1011
  H  H153  1  0.083600  0.709000  0.373200  1.0  0.0516
  H  H154  1  0.132200  0.769100  0.323300  1.0  0.0899
  H  H155  1  0.005500  0.612800  0.281300  1.0  0.0511
  H  H156  1  0.051900  0.670000  0.228100  1.0  0.1084
  H  H157  1  0.152000  0.705700  0.189300  1.0  0.1035
  H  H158  1  0.198400  0.766600  0.138700  1.0  0.0496
  H  H159  1  0.120900  0.839800  0.269100  1.0  0.0947
  H  H160  1  0.166400  0.897700  0.215500  1.0  0.0561
  H  H161  1  0.014400  0.514400  0.438200  1.0  0.0505
  H  H162  1  0.015100  0.416400  0.437700  1.0  0.0968
  H  H163  1  0.941800  0.518400  0.318400  1.0  0.0554
  H  H164  1  0.943500  0.420900  0.314300  1.0  0.1011
  H  H165  1  0.083600  0.209000  0.873200  1.0  0.0516
  H  H166  1  0.132200  0.269100  0.823300  1.0  0.0899
  H  H167  1  0.005500  0.112800  0.781300  1.0  0.0511
  H  H168  1  0.051900  0.170000  0.728100  1.0  0.1084
  H  H169  1  0.152000  0.205700  0.689300  1.0  0.1035
  H  H170  1  0.198400  0.266600  0.638700  1.0  0.0496
  H  H171  1  0.120900  0.339800  0.769100  1.0  0.0947
  H  H172  1  0.166400  0.397700  0.715500  1.0  0.0561
  H  H173  1  0.014400  0.014400  0.938200  1.0  0.0505
  H  H174  1  0.015100  0.916400  0.937700  1.0  0.0968
  H  H175  1  0.941800  0.018400  0.818400  1.0  0.0554
  H  H176  1  0.943500  0.920900  0.814300  1.0  0.1011
  H  H177  1  0.583600  0.541000  0.376800  1.0  0.0518
  H  H178  1  0.632200  0.480900  0.426700  1.0  0.0904
  H  H179  1  0.505500  0.637200  0.468700  1.0  0.0515
  H  H180  1  0.551900  0.580000  0.521900  1.0  0.1079
  H  H181  1  0.652000  0.544300  0.560700  1.0  0.1034
  H  H182  1  0.698400  0.483400  0.611300  1.0  0.0491
  H  H183  1  0.620900  0.410200  0.480900  1.0  0.0958
  H  H184  1  0.666400  0.352300  0.534500  1.0  0.0569
  H  H185  1  0.514400  0.735600  0.311800  1.0  0.05
  H  H186  1  0.515100  0.833600  0.312300  1.0  0.0966
  H  H187  1  0.441800  0.731600  0.431600  1.0  0.0546
  H  H188  1  0.443500  0.829100  0.435700  1.0  0.1017
  H  H189  1  0.583600  0.041000  0.876800  1.0  0.0518
  H  H190  1  0.632200  0.980900  0.926700  1.0  0.0904
  H  H191  1  0.505500  0.137200  0.968700  1.0  0.0515
  H  H192  1  0.551900  0.080000  0.021900  1.0  0.1079
  H  H193  1  0.652000  0.044300  0.060700  1.0  0.1034
  H  H194  1  0.698400  0.983400  0.111300  1.0  0.0491
  H  H195  1  0.620900  0.910200  0.980900  1.0  0.0958
  H  H196  1  0.666400  0.852300  0.034500  1.0  0.0569
  H  H197  1  0.514400  0.235600  0.811800  1.0  0.05
  H  H198  1  0.515100  0.333600  0.812300  1.0  0.0966
  H  H199  1  0.441800  0.231600  0.931600  1.0  0.0546
  H  H200  1  0.443500  0.329100  0.935700  1.0  0.1017
  H  H201  1  0.083600  0.541000  0.876800  1.0  0.0518
  H  H202  1  0.132200  0.480900  0.926700  1.0  0.0904
  H  H203  1  0.005500  0.637200  0.968700  1.0  0.0515
  H  H204  1  0.051900  0.580000  0.021900  1.0  0.1079
  H  H205  1  0.152000  0.544300  0.060700  1.0  0.1034
  H  H206  1  0.198400  0.483400  0.111300  1.0  0.0491
  H  H207  1  0.120900  0.410200  0.980900  1.0  0.0958
  H  H208  1  0.166400  0.352300  0.034500  1.0  0.0569
  H  H209  1  0.014400  0.735600  0.811800  1.0  0.05
  H  H210  1  0.015100  0.833600  0.812300  1.0  0.0966
  H  H211  1  0.941800  0.731600  0.931600  1.0  0.0546
  H  H212  1  0.943500  0.829100  0.935700  1.0  0.1017
  H  H213  1  0.083600  0.041000  0.376800  1.0  0.0518
  H  H214  1  0.132200  0.980900  0.426700  1.0  0.0904
  H  H215  1  0.005500  0.137200  0.468700  1.0  0.0515
  H  H216  1  0.051900  0.080000  0.521900  1.0  0.1079
  H  H217  1  0.152000  0.044300  0.560700  1.0  0.1034
  H  H218  1  0.198400  0.983400  0.611300  1.0  0.0491
  H  H219  1  0.120900  0.910200  0.480900  1.0  0.0958
  H  H220  1  0.166400  0.852300  0.534500  1.0  0.0569
  H  H221  1  0.014400  0.235600  0.311800  1.0  0.05
  H  H222  1  0.015100  0.333600  0.312300  1.0  0.0966
  H  H223  1  0.941800  0.231600  0.431600  1.0  0.0546
  H  H224  1  0.943500  0.329100  0.435700  1.0  0.1017
  H  H225  1  0.416400  0.291000  0.126800  1.0  0.0511
  H  H226  1  0.367800  0.230900  0.176700  1.0  0.0912
  H  H227  1  0.494500  0.387200  0.218700  1.0  0.0506
  H  H228  1  0.448100  0.330000  0.271900  1.0  0.108
  H  H229  1  0.348000  0.294300  0.310700  1.0  0.1037
  H  H230  1  0.301600  0.233400  0.361300  1.0  0.0491
  H  H231  1  0.379100  0.160200  0.230900  1.0  0.0959
  H  H232  1  0.333600  0.102300  0.284500  1.0  0.0565
  H  H233  1  0.485600  0.485600  0.061800  1.0  0.0504
  H  H234  1  0.484900  0.583600  0.062300  1.0  0.096
  H  H235  1  0.558200  0.481600  0.181600  1.0  0.0549
  H  H236  1  0.556500  0.579100  0.185700  1.0  0.1019
  H  H237  1  0.416400  0.791000  0.626800  1.0  0.0511
  H  H238  1  0.367800  0.730900  0.676700  1.0  0.0912
  H  H239  1  0.494500  0.887200  0.718700  1.0  0.0506
  H  H240  1  0.448100  0.830000  0.771900  1.0  0.108
  H  H241  1  0.348000  0.794300  0.810700  1.0  0.1037
  H  H242  1  0.301600  0.733400  0.861300  1.0  0.0491
  H  H243  1  0.379100  0.660200  0.730900  1.0  0.0959
  H  H244  1  0.333600  0.602300  0.784500  1.0  0.0565
  H  H245  1  0.485600  0.985600  0.561800  1.0  0.0504
  H  H246  1  0.484900  0.083600  0.562300  1.0  0.096
  H  H247  1  0.558200  0.981600  0.681600  1.0  0.0549
  H  H248  1  0.556500  0.079100  0.685700  1.0  0.1019
  H  H249  1  0.916400  0.291000  0.626800  1.0  0.0511
  H  H250  1  0.867800  0.230900  0.676700  1.0  0.0912
  H  H251  1  0.994500  0.387200  0.718700  1.0  0.0506
  H  H252  1  0.948100  0.330000  0.771900  1.0  0.108
  H  H253  1  0.848000  0.294300  0.810700  1.0  0.1037
  H  H254  1  0.801600  0.233400  0.861300  1.0  0.0491
  H  H255  1  0.879100  0.160200  0.730900  1.0  0.0959
  H  H256  1  0.833600  0.102300  0.784500  1.0  0.0565
  H  H257  1  0.985600  0.485600  0.561800  1.0  0.0504
  H  H258  1  0.984900  0.583600  0.562300  1.0  0.096
  H  H259  1  0.058200  0.481600  0.681600  1.0  0.0549
  H  H260  1  0.056500  0.579100  0.685700  1.0  0.1019
  H  H261  1  0.916400  0.791000  0.126800  1.0  0.0511
  H  H262  1  0.867800  0.730900  0.176700  1.0  0.0912
  H  H263  1  0.994500  0.887200  0.218700  1.0  0.0506
  H  H264  1  0.948100  0.830000  0.271900  1.0  0.108
  H  H265  1  0.848000  0.794300  0.310700  1.0  0.1037
  H  H266  1  0.801600  0.733400  0.361300  1.0  0.0491
  H  H267  1  0.879100  0.660200  0.230900  1.0  0.0959
  H  H268  1  0.833600  0.602300  0.284500  1.0  0.0565
  H  H269  1  0.985600  0.985600  0.061800  1.0  0.0504
  H  H270  1  0.984900  0.083600  0.062300  1.0  0.096
  H  H271  1  0.058200  0.981600  0.181600  1.0  0.0549
  H  H272  1  0.056500  0.079100  0.185700  1.0  0.1019
  H  H273  1  0.416400  0.459000  0.623200  1.0  0.0512
  H  H274  1  0.367800  0.519100  0.573300  1.0  0.0908
  H  H275  1  0.494500  0.362800  0.531300  1.0  0.0509
  H  H276  1  0.448100  0.420000  0.478100  1.0  0.1087
  H  H277  1  0.348000  0.455700  0.439300  1.0  0.1033
  H  H278  1  0.301600  0.516600  0.388700  1.0  0.0501
  H  H279  1  0.379100  0.589800  0.519100  1.0  0.0947
  H  H280  1  0.333600  0.647700  0.465500  1.0  0.056
  H  H281  1  0.485600  0.264400  0.688200  1.0  0.0509
  H  H282  1  0.484900  0.166400  0.687700  1.0  0.0972
  H  H283  1  0.558200  0.268400  0.568400  1.0  0.0555
  H  H284  1  0.556500  0.170900  0.564300  1.0  0.1015
  H  H285  1  0.416400  0.959000  0.123200  1.0  0.0512
  H  H286  1  0.367800  0.019100  0.073300  1.0  0.0908
  H  H287  1  0.494500  0.862800  0.031300  1.0  0.0509
  H  H288  1  0.448100  0.920000  0.978100  1.0  0.1087
  H  H289  1  0.348000  0.955700  0.939300  1.0  0.1033
  H  H290  1  0.301600  0.016600  0.888700  1.0  0.0501
  H  H291  1  0.379100  0.089800  0.019100  1.0  0.0947
  H  H292  1  0.333600  0.147700  0.965500  1.0  0.056
  H  H293  1  0.485600  0.764400  0.188200  1.0  0.0509
  H  H294  1  0.484900  0.666400  0.187700  1.0  0.0972
  H  H295  1  0.558200  0.768400  0.068400  1.0  0.0555
  H  H296  1  0.556500  0.670900  0.064300  1.0  0.1015
  H  H297  1  0.916400  0.459000  0.123200  1.0  0.0512
  H  H298  1  0.867800  0.519100  0.073300  1.0  0.0908
  H  H299  1  0.994500  0.362800  0.031300  1.0  0.0509
  H  H300  1  0.948100  0.420000  0.978100  1.0  0.1087
  H  H301  1  0.848000  0.455700  0.939300  1.0  0.1033
  H  H302  1  0.801600  0.516600  0.888700  1.0  0.0501
  H  H303  1  0.879100  0.589800  0.019100  1.0  0.0947
  H  H304  1  0.833600  0.647700  0.965500  1.0  0.056
  H  H305  1  0.985600  0.264400  0.188200  1.0  0.0509
  H  H306  1  0.984900  0.166400  0.187700  1.0  0.0972
  H  H307  1  0.058200  0.268400  0.068400  1.0  0.0555
  H  H308  1  0.056500  0.170900  0.064300  1.0  0.1015
  H  H309  1  0.916400  0.959000  0.623200  1.0  0.0512
  H  H310  1  0.867800  0.019100  0.573300  1.0  0.0908
  H  H311  1  0.994500  0.862800  0.531300  1.0  0.0509
  H  H312  1  0.948100  0.920000  0.478100  1.0  0.1087
  H  H313  1  0.848000  0.955700  0.439300  1.0  0.1033
  H  H314  1  0.801600  0.016600  0.388700  1.0  0.0501
  H  H315  1  0.879100  0.089800  0.519100  1.0  0.0947
  H  H316  1  0.833600  0.147700  0.465500  1.0  0.056
  H  H317  1  0.985600  0.764400  0.688200  1.0  0.0509
  H  H318  1  0.984900  0.666400  0.687700  1.0  0.0972
  H  H319  1  0.058200  0.768400  0.568400  1.0  0.0555
  H  H320  1  0.056500  0.670900  0.564300  1.0  0.1015
  H  H321  1  0.666400  0.541000  0.873200  1.0  0.0517
  H  H322  1  0.617800  0.480900  0.823300  1.0  0.091
  H  H323  1  0.744500  0.637200  0.781300  1.0  0.0505
  H  H324  1  0.698100  0.580000  0.728100  1.0  0.1089
  H  H325  1  0.598000  0.544300  0.689300  1.0  0.1036
  H  H326  1  0.551600  0.483400  0.638700  1.0  0.0499
  H  H327  1  0.629100  0.410200  0.769100  1.0  0.0957
  H  H328  1  0.583600  0.352300  0.715500  1.0  0.0567
  H  H329  1  0.735600  0.735600  0.938200  1.0  0.0511
  H  H330  1  0.734900  0.833600  0.937700  1.0  0.0967
  H  H331  1  0.808200  0.731600  0.818400  1.0  0.0557
  H  H332  1  0.806500  0.829100  0.814300  1.0  0.1015
  H  H333  1  0.666400  0.041000  0.373200  1.0  0.0517
  H  H334  1  0.617800  0.980900  0.323300  1.0  0.091
  H  H335  1  0.744500  0.137200  0.281300  1.0  0.0505
  H  H336  1  0.698100  0.080000  0.228100  1.0  0.1089
  H  H337  1  0.598000  0.044300  0.189300  1.0  0.1036
  H  H338  1  0.551600  0.983400  0.138700  1.0  0.0499
  H  H339  1  0.629100  0.910200  0.269100  1.0  0.0957
  H  H340  1  0.583600  0.852300  0.215500  1.0  0.0567
  H  H341  1  0.735600  0.235600  0.438200  1.0  0.0511
  H  H342  1  0.734900  0.333600  0.437700  1.0  0.0967
  H  H343  1  0.808200  0.231600  0.318400  1.0  0.0557
  H  H344  1  0.806500  0.329100  0.314300  1.0  0.1015
  H  H345  1  0.166400  0.541000  0.373200  1.0  0.0517
  H  H346  1  0.117800  0.480900  0.323300  1.0  0.091
  H  H347  1  0.244500  0.637200  0.281300  1.0  0.0505
  H  H348  1  0.198100  0.580000  0.228100  1.0  0.1089
  H  H349  1  0.098000  0.544300  0.189300  1.0  0.1036
  H  H350  1  0.051600  0.483400  0.138700  1.0  0.0499
  H  H351  1  0.129100  0.410200  0.269100  1.0  0.0957
  H  H352  1  0.083600  0.352300  0.215500  1.0  0.0567
  H  H353  1  0.235600  0.735600  0.438200  1.0  0.0511
  H  H354  1  0.234900  0.833600  0.437700  1.0  0.0967
  H  H355  1  0.308200  0.731600  0.318400  1.0  0.0557
  H  H356  1  0.306500  0.829100  0.314300  1.0  0.1015
  H  H357  1  0.166400  0.041000  0.873200  1.0  0.0517
  H  H358  1  0.117800  0.980900  0.823300  1.0  0.091
  H  H359  1  0.244500  0.137200  0.781300  1.0  0.0505
  H  H360  1  0.198100  0.080000  0.728100  1.0  0.1089
  H  H361  1  0.098000  0.044300  0.689300  1.0  0.1036
  H  H362  1  0.051600  0.983400  0.638700  1.0  0.0499
  H  H363  1  0.129100  0.910200  0.769100  1.0  0.0957
  H  H364  1  0.083600  0.852300  0.715500  1.0  0.0567
  H  H365  1  0.235600  0.235600  0.938200  1.0  0.0511
  H  H366  1  0.234900  0.333600  0.937700  1.0  0.0967
  H  H367  1  0.308200  0.231600  0.818400  1.0  0.0557
  H  H368  1  0.306500  0.329100  0.814300  1.0  0.1015
  H  H369  1  0.666400  0.709000  0.376800  1.0  0.0515
  H  H370  1  0.617800  0.769100  0.426700  1.0  0.0909
  H  H371  1  0.744500  0.612800  0.468700  1.0  0.051
  H  H372  1  0.698100  0.670000  0.521900  1.0  0.108
  H  H373  1  0.598000  0.705700  0.560700  1.0  0.1034
  H  H374  1  0.551600  0.766600  0.611300  1.0  0.0494
  H  H375  1  0.629100  0.839800  0.480900  1.0  0.0952
  H  H376  1  0.583600  0.897700  0.534500  1.0  0.0561
  H  H377  1  0.735600  0.514400  0.311800  1.0  0.0503
  H  H378  1  0.734900  0.416400  0.312300  1.0  0.0966
  H  H379  1  0.808200  0.518400  0.431600  1.0  0.0548
  H  H380  1  0.806500  0.420900  0.435700  1.0  0.102
  H  H381  1  0.666400  0.209000  0.876800  1.0  0.0515
  H  H382  1  0.617800  0.269100  0.926700  1.0  0.0909
  H  H383  1  0.744500  0.112800  0.968700  1.0  0.051
  H  H384  1  0.698100  0.170000  0.021900  1.0  0.108
  H  H385  1  0.598000  0.205700  0.060700  1.0  0.1034
  H  H386  1  0.551600  0.266600  0.111300  1.0  0.0494
  H  H387  1  0.629100  0.339800  0.980900  1.0  0.0952
  H  H388  1  0.583600  0.397700  0.034500  1.0  0.0561
  H  H389  1  0.735600  0.014400  0.811800  1.0  0.0503
  H  H390  1  0.734900  0.916400  0.812300  1.0  0.0966
  H  H391  1  0.808200  0.018400  0.931600  1.0  0.0548
  H  H392  1  0.806500  0.920900  0.935700  1.0  0.102
  H  H393  1  0.166400  0.709000  0.876800  1.0  0.0515
  H  H394  1  0.117800  0.769100  0.926700  1.0  0.0909
  H  H395  1  0.244500  0.612800  0.968700  1.0  0.051
  H  H396  1  0.198100  0.670000  0.021900  1.0  0.108
  H  H397  1  0.098000  0.705700  0.060700  1.0  0.1034
  H  H398  1  0.051600  0.766600  0.111300  1.0  0.0494
  H  H399  1  0.129100  0.839800  0.980900  1.0  0.0952
  H  H400  1  0.083600  0.897700  0.034500  1.0  0.0561
  H  H401  1  0.235600  0.514400  0.811800  1.0  0.0503
  H  H402  1  0.234900  0.416400  0.812300  1.0  0.0966
  H  H403  1  0.308200  0.518400  0.931600  1.0  0.0548
  H  H404  1  0.306500  0.420900  0.935700  1.0  0.102
  H  H405  1  0.166400  0.209000  0.376800  1.0  0.0515
  H  H406  1  0.117800  0.269100  0.426700  1.0  0.0909
  H  H407  1  0.244500  0.112800  0.468700  1.0  0.051
  H  H408  1  0.198100  0.170000  0.521900  1.0  0.108
  H  H409  1  0.098000  0.205700  0.560700  1.0  0.1034
  H  H410  1  0.051600  0.266600  0.611300  1.0  0.0494
  H  H411  1  0.129100  0.339800  0.480900  1.0  0.0952
  H  H412  1  0.083600  0.397700  0.534500  1.0  0.0561
  H  H413  1  0.235600  0.014400  0.311800  1.0  0.0503
  H  H414  1  0.234900  0.916400  0.312300  1.0  0.0966
  H  H415  1  0.308200  0.018400  0.431600  1.0  0.0548
  H  H416  1  0.306500  0.920900  0.435700  1.0  0.102
  C  C417  1  0.326600  0.451300  0.156470  1.0  0.1486
  C  C418  1  0.356400  0.487500  0.186310  1.0  -0.2315
  C  C419  1  0.280900  0.395100  0.210220  1.0  0.1568
  C  C420  1  0.309000  0.429100  0.242460  1.0  -0.224
  C  C421  1  0.348400  0.477400  0.230940  1.0  0.0838
  C  C422  1  0.379500  0.515100  0.264750  1.0  0.0711
  C  C423  1  0.404200  0.494600  0.304550  1.0  -0.2242
  C  C424  1  0.432100  0.531500  0.334790  1.0  0.1518
  C  C425  1  0.385600  0.574100  0.257450  1.0  -0.2236
  C  C426  1  0.413600  0.608500  0.289690  1.0  0.1513
  C  C427  1  0.249900  0.245400  0.087080  1.0  0.1396
  C  C428  1  0.250600  0.186300  0.087230  1.0  -0.2221
  C  C429  1  0.207700  0.247600  0.157450  1.0  0.1333
  C  C430  1  0.207900  0.188900  0.159990  1.0  -0.223
  C  C431  1  0.229600  0.156800  0.124470  1.0  0.0914
  C  C432  1  0.326600  0.951300  0.656470  1.0  0.1486
  C  C433  1  0.356400  0.987500  0.686310  1.0  -0.2315
  C  C434  1  0.280900  0.895100  0.710220  1.0  0.1568
  C  C435  1  0.309000  0.929100  0.742460  1.0  -0.224
  C  C436  1  0.348400  0.977400  0.730940  1.0  0.0838
  C  C437  1  0.379500  0.015100  0.764750  1.0  0.0711
  C  C438  1  0.404200  0.994600  0.804550  1.0  -0.2242
  C  C439  1  0.432100  0.031500  0.834790  1.0  0.1518
  C  C440  1  0.385600  0.074100  0.757450  1.0  -0.2236
  C  C441  1  0.413600  0.108500  0.789690  1.0  0.1513
  C  C442  1  0.249900  0.745400  0.587080  1.0  0.1396
  C  C443  1  0.250600  0.686300  0.587230  1.0  -0.2221
  C  C444  1  0.207700  0.747600  0.657450  1.0  0.1333
  C  C445  1  0.207900  0.688900  0.659990  1.0  -0.223
  C  C446  1  0.229600  0.656800  0.624470  1.0  0.0914
  C  C447  1  0.826600  0.451300  0.656470  1.0  0.1486
  C  C448  1  0.856400  0.487500  0.686310  1.0  -0.2315
  C  C449  1  0.780900  0.395100  0.710220  1.0  0.1568
  C  C450  1  0.809000  0.429100  0.742460  1.0  -0.224
  C  C451  1  0.848400  0.477400  0.730940  1.0  0.0838
  C  C452  1  0.879500  0.515100  0.764750  1.0  0.0711
  C  C453  1  0.904200  0.494600  0.804550  1.0  -0.2242
  C  C454  1  0.932100  0.531500  0.834790  1.0  0.1518
  C  C455  1  0.885600  0.574100  0.757450  1.0  -0.2236
  C  C456  1  0.913600  0.608500  0.789690  1.0  0.1513
  C  C457  1  0.749900  0.245400  0.587080  1.0  0.1396
  C  C458  1  0.750600  0.186300  0.587230  1.0  -0.2221
  C  C459  1  0.707700  0.247600  0.657450  1.0  0.1333
  C  C460  1  0.707900  0.188900  0.659990  1.0  -0.223
  C  C461  1  0.729600  0.156800  0.624470  1.0  0.0914
  C  C462  1  0.826600  0.951300  0.156470  1.0  0.1486
  C  C463  1  0.856400  0.987500  0.186310  1.0  -0.2315
  C  C464  1  0.780900  0.895100  0.210220  1.0  0.1568
  C  C465  1  0.809000  0.929100  0.242460  1.0  -0.224
  C  C466  1  0.848400  0.977400  0.230940  1.0  0.0838
  C  C467  1  0.879500  0.015100  0.264750  1.0  0.0711
  C  C468  1  0.904200  0.994600  0.304550  1.0  -0.2242
  C  C469  1  0.932100  0.031500  0.334790  1.0  0.1518
  C  C470  1  0.885600  0.074100  0.257450  1.0  -0.2236
  C  C471  1  0.913600  0.108500  0.289690  1.0  0.1513
  C  C472  1  0.749900  0.745400  0.087080  1.0  0.1396
  C  C473  1  0.750600  0.686300  0.087230  1.0  -0.2221
  C  C474  1  0.707700  0.747600  0.157450  1.0  0.1333
  C  C475  1  0.707900  0.688900  0.159990  1.0  -0.223
  C  C476  1  0.729600  0.656800  0.124470  1.0  0.0914
  C  C477  1  0.326600  0.298700  0.593530  1.0  0.149
  C  C478  1  0.356400  0.262500  0.563690  1.0  -0.2308
  C  C479  1  0.280900  0.354900  0.539780  1.0  0.1568
  C  C480  1  0.309000  0.320900  0.507540  1.0  -0.2251
  C  C481  1  0.348400  0.272600  0.519060  1.0  0.0834
  C  C482  1  0.379500  0.234900  0.485250  1.0  0.0709
  C  C483  1  0.404200  0.255400  0.445450  1.0  -0.2255
  C  C484  1  0.432100  0.218500  0.415210  1.0  0.1503
  C  C485  1  0.385600  0.175900  0.492550  1.0  -0.2238
  C  C486  1  0.413600  0.141500  0.460310  1.0  0.1499
  C  C487  1  0.249900  0.504600  0.662920  1.0  0.1404
  C  C488  1  0.250600  0.563700  0.662770  1.0  -0.2222
  C  C489  1  0.207700  0.502400  0.592550  1.0  0.1326
  C  C490  1  0.207900  0.561100  0.590010  1.0  -0.2219
  C  C491  1  0.229600  0.593200  0.625530  1.0  0.0914
  C  C492  1  0.326600  0.798700  0.093530  1.0  0.149
  C  C493  1  0.356400  0.762500  0.063690  1.0  -0.2308
  C  C494  1  0.280900  0.854900  0.039780  1.0  0.1568
  C  C495  1  0.309000  0.820900  0.007540  1.0  -0.2251
  C  C496  1  0.348400  0.772600  0.019060  1.0  0.0834
  C  C497  1  0.379500  0.734900  0.985250  1.0  0.0709
  C  C498  1  0.404200  0.755400  0.945450  1.0  -0.2255
  C  C499  1  0.432100  0.718500  0.915210  1.0  0.1503
  C  C500  1  0.385600  0.675900  0.992550  1.0  -0.2238
  C  C501  1  0.413600  0.641500  0.960310  1.0  0.1499
  C  C502  1  0.249900  0.004600  0.162920  1.0  0.1404
  C  C503  1  0.250600  0.063700  0.162770  1.0  -0.2222
  C  C504  1  0.207700  0.002400  0.092550  1.0  0.1326
  C  C505  1  0.207900  0.061100  0.090010  1.0  -0.2219
  C  C506  1  0.229600  0.093200  0.125530  1.0  0.0914
  C  C507  1  0.826600  0.298700  0.093530  1.0  0.149
  C  C508  1  0.856400  0.262500  0.063690  1.0  -0.2308
  C  C509  1  0.780900  0.354900  0.039780  1.0  0.1568
  C  C510  1  0.809000  0.320900  0.007540  1.0  -0.2251
  C  C511  1  0.848400  0.272600  0.019060  1.0  0.0834
  C  C512  1  0.879500  0.234900  0.985250  1.0  0.0709
  C  C513  1  0.904200  0.255400  0.945450  1.0  -0.2255
  C  C514  1  0.932100  0.218500  0.915210  1.0  0.1503
  C  C515  1  0.885600  0.175900  0.992550  1.0  -0.2238
  C  C516  1  0.913600  0.141500  0.960310  1.0  0.1499
  C  C517  1  0.749900  0.504600  0.162920  1.0  0.1404
  C  C518  1  0.750600  0.563700  0.162770  1.0  -0.2222
  C  C519  1  0.707700  0.502400  0.092550  1.0  0.1326
  C  C520  1  0.707900  0.561100  0.090010  1.0  -0.2219
  C  C521  1  0.729600  0.593200  0.125530  1.0  0.0914
  C  C522  1  0.826600  0.798700  0.593530  1.0  0.149
  C  C523  1  0.856400  0.762500  0.563690  1.0  -0.2308
  C  C524  1  0.780900  0.854900  0.539780  1.0  0.1568
  C  C525  1  0.809000  0.820900  0.507540  1.0  -0.2251
  C  C526  1  0.848400  0.772600  0.519060  1.0  0.0834
  C  C527  1  0.879500  0.734900  0.485250  1.0  0.0709
  C  C528  1  0.904200  0.755400  0.445450  1.0  -0.2255
  C  C529  1  0.932100  0.718500  0.415210  1.0  0.1503
  C  C530  1  0.885600  0.675900  0.492550  1.0  -0.2238
  C  C531  1  0.913600  0.641500  0.460310  1.0  0.1499
  C  C532  1  0.749900  0.004600  0.662920  1.0  0.1404
  C  C533  1  0.750600  0.063700  0.662770  1.0  -0.2222
  C  C534  1  0.707700  0.002400  0.592550  1.0  0.1326
  C  C535  1  0.707900  0.061100  0.590010  1.0  -0.2219
  C  C536  1  0.729600  0.093200  0.625530  1.0  0.0914
  C  C537  1  0.576600  0.701300  0.843530  1.0  0.1485
  C  C538  1  0.606400  0.737500  0.813690  1.0  -0.2315
  C  C539  1  0.530900  0.645100  0.789780  1.0  0.1568
  C  C540  1  0.559000  0.679100  0.757540  1.0  -0.2244
  C  C541  1  0.598400  0.727400  0.769060  1.0  0.084
  C  C542  1  0.629500  0.765100  0.735250  1.0  0.0709
  C  C543  1  0.654200  0.744600  0.695450  1.0  -0.2244
  C  C544  1  0.682100  0.781500  0.665210  1.0  0.1507
  C  C545  1  0.635600  0.824100  0.742550  1.0  -0.2238
  C  C546  1  0.663600  0.858500  0.710310  1.0  0.1508
  C  C547  1  0.499900  0.495400  0.912920  1.0  0.1397
  C  C548  1  0.500600  0.436300  0.912770  1.0  -0.2222
  C  C549  1  0.457700  0.497600  0.842550  1.0  0.1328
  C  C550  1  0.457900  0.438900  0.840010  1.0  -0.2217
  C  C551  1  0.479600  0.406800  0.875530  1.0  0.0915
  C  C552  1  0.576600  0.201300  0.343530  1.0  0.1485
  C  C553  1  0.606400  0.237500  0.313690  1.0  -0.2315
  C  C554  1  0.530900  0.145100  0.289780  1.0  0.1568
  C  C555  1  0.559000  0.179100  0.257540  1.0  -0.2244
  C  C556  1  0.598400  0.227400  0.269060  1.0  0.084
  C  C557  1  0.629500  0.265100  0.235250  1.0  0.0709
  C  C558  1  0.654200  0.244600  0.195450  1.0  -0.2244
  C  C559  1  0.682100  0.281500  0.165210  1.0  0.1507
  C  C560  1  0.635600  0.324100  0.242550  1.0  -0.2238
  C  C561  1  0.663600  0.358500  0.210310  1.0  0.1508
  C  C562  1  0.499900  0.995400  0.412920  1.0  0.1397
  C  C563  1  0.500600  0.936300  0.412770  1.0  -0.2222
  C  C564  1  0.457700  0.997600  0.342550  1.0  0.1328
  C  C565  1  0.457900  0.938900  0.340010  1.0  -0.2217
  C  C566  1  0.479600  0.906800  0.375530  1.0  0.0915
  C  C567  1  0.076600  0.701300  0.343530  1.0  0.1485
  C  C568  1  0.106400  0.737500  0.313690  1.0  -0.2315
  C  C569  1  0.030900  0.645100  0.289780  1.0  0.1568
  C  C570  1  0.059000  0.679100  0.257540  1.0  -0.2244
  C  C571  1  0.098400  0.727400  0.269060  1.0  0.084
  C  C572  1  0.129500  0.765100  0.235250  1.0  0.0709
  C  C573  1  0.154200  0.744600  0.195450  1.0  -0.2244
  C  C574  1  0.182100  0.781500  0.165210  1.0  0.1507
  C  C575  1  0.135600  0.824100  0.242550  1.0  -0.2238
  C  C576  1  0.163600  0.858500  0.210310  1.0  0.1508
  C  C577  1  0.999900  0.495400  0.412920  1.0  0.1397
  C  C578  1  0.000600  0.436300  0.412770  1.0  -0.2222
  C  C579  1  0.957700  0.497600  0.342550  1.0  0.1328
  C  C580  1  0.957900  0.438900  0.340010  1.0  -0.2217
  C  C581  1  0.979600  0.406800  0.375530  1.0  0.0915
  C  C582  1  0.076600  0.201300  0.843530  1.0  0.1485
  C  C583  1  0.106400  0.237500  0.813690  1.0  -0.2315
  C  C584  1  0.030900  0.145100  0.789780  1.0  0.1568
  C  C585  1  0.059000  0.179100  0.757540  1.0  -0.2244
  C  C586  1  0.098400  0.227400  0.769060  1.0  0.084
  C  C587  1  0.129500  0.265100  0.735250  1.0  0.0709
  C  C588  1  0.154200  0.244600  0.695450  1.0  -0.2244
  C  C589  1  0.182100  0.281500  0.665210  1.0  0.1507
  C  C590  1  0.135600  0.324100  0.742550  1.0  -0.2238
  C  C591  1  0.163600  0.358500  0.710310  1.0  0.1508
  C  C592  1  0.999900  0.995400  0.912920  1.0  0.1397
  C  C593  1  0.000600  0.936300  0.912770  1.0  -0.2222
  C  C594  1  0.957700  0.997600  0.842550  1.0  0.1328
  C  C595  1  0.957900  0.938900  0.840010  1.0  -0.2217
  C  C596  1  0.979600  0.906800  0.875530  1.0  0.0915
  C  C597  1  0.576600  0.548700  0.406470  1.0  0.1495
  C  C598  1  0.606400  0.512500  0.436310  1.0  -0.2302
  C  C599  1  0.530900  0.604900  0.460220  1.0  0.1564
  C  C600  1  0.559000  0.570900  0.492460  1.0  -0.2241
  C  C601  1  0.598400  0.522600  0.480940  1.0  0.0832
  C  C602  1  0.629500  0.484900  0.514750  1.0  0.0712
  C  C603  1  0.654200  0.505400  0.554550  1.0  -0.2263
  C  C604  1  0.682100  0.468500  0.584790  1.0  0.1508
  C  C605  1  0.635600  0.425900  0.507450  1.0  -0.2244
  C  C606  1  0.663600  0.391500  0.539690  1.0  0.1501
  C  C607  1  0.499900  0.754600  0.337080  1.0  0.1394
  C  C608  1  0.500600  0.813700  0.337230  1.0  -0.2221
  C  C609  1  0.457700  0.752400  0.407450  1.0  0.1332
  C  C610  1  0.457900  0.811100  0.409990  1.0  -0.223
  C  C611  1  0.479600  0.843200  0.374470  1.0  0.0914
  C  C612  1  0.576600  0.048700  0.906470  1.0  0.1495
  C  C613  1  0.606400  0.012500  0.936310  1.0  -0.2302
  C  C614  1  0.530900  0.104900  0.960220  1.0  0.1564
  C  C615  1  0.559000  0.070900  0.992460  1.0  -0.2241
  C  C616  1  0.598400  0.022600  0.980940  1.0  0.0832
  C  C617  1  0.629500  0.984900  0.014750  1.0  0.0712
  C  C618  1  0.654200  0.005400  0.054550  1.0  -0.2263
  C  C619  1  0.682100  0.968500  0.084790  1.0  0.1508
  C  C620  1  0.635600  0.925900  0.007450  1.0  -0.2244
  C  C621  1  0.663600  0.891500  0.039690  1.0  0.1501
  C  C622  1  0.499900  0.254600  0.837080  1.0  0.1394
  C  C623  1  0.500600  0.313700  0.837230  1.0  -0.2221
  C  C624  1  0.457700  0.252400  0.907450  1.0  0.1332
  C  C625  1  0.457900  0.311100  0.909990  1.0  -0.223
  C  C626  1  0.479600  0.343200  0.874470  1.0  0.0914
  C  C627  1  0.076600  0.548700  0.906470  1.0  0.1495
  C  C628  1  0.106400  0.512500  0.936310  1.0  -0.2302
  C  C629  1  0.030900  0.604900  0.960220  1.0  0.1564
  C  C630  1  0.059000  0.570900  0.992460  1.0  -0.2241
  C  C631  1  0.098400  0.522600  0.980940  1.0  0.0832
  C  C632  1  0.129500  0.484900  0.014750  1.0  0.0712
  C  C633  1  0.154200  0.505400  0.054550  1.0  -0.2263
  C  C634  1  0.182100  0.468500  0.084790  1.0  0.1508
  C  C635  1  0.135600  0.425900  0.007450  1.0  -0.2244
  C  C636  1  0.163600  0.391500  0.039690  1.0  0.1501
  C  C637  1  0.999900  0.754600  0.837080  1.0  0.1394
  C  C638  1  0.000600  0.813700  0.837230  1.0  -0.2221
  C  C639  1  0.957700  0.752400  0.907450  1.0  0.1332
  C  C640  1  0.957900  0.811100  0.909990  1.0  -0.223
  C  C641  1  0.979600  0.843200  0.874470  1.0  0.0914
  C  C642  1  0.076600  0.048700  0.406470  1.0  0.1495
  C  C643  1  0.106400  0.012500  0.436310  1.0  -0.2302
  C  C644  1  0.030900  0.104900  0.460220  1.0  0.1564
  C  C645  1  0.059000  0.070900  0.492460  1.0  -0.2241
  C  C646  1  0.098400  0.022600  0.480940  1.0  0.0832
  C  C647  1  0.129500  0.984900  0.514750  1.0  0.0712
  C  C648  1  0.154200  0.005400  0.554550  1.0  -0.2263
  C  C649  1  0.182100  0.968500  0.584790  1.0  0.1508
  C  C650  1  0.135600  0.925900  0.507450  1.0  -0.2244
  C  C651  1  0.163600  0.891500  0.539690  1.0  0.1501
  C  C652  1  0.999900  0.254600  0.337080  1.0  0.1394
  C  C653  1  0.000600  0.313700  0.337230  1.0  -0.2221
  C  C654  1  0.957700  0.252400  0.407450  1.0  0.1332
  C  C655  1  0.957900  0.311100  0.409990  1.0  -0.223
  C  C656  1  0.979600  0.343200  0.374470  1.0  0.0914
  C  C657  1  0.423400  0.298700  0.156470  1.0  0.1498
  C  C658  1  0.393600  0.262500  0.186310  1.0  -0.2301
  C  C659  1  0.469100  0.354900  0.210220  1.0  0.1556
  C  C660  1  0.441000  0.320900  0.242460  1.0  -0.2233
  C  C661  1  0.401600  0.272600  0.230940  1.0  0.0829
  C  C662  1  0.370500  0.234900  0.264750  1.0  0.0714
  C  C663  1  0.345800  0.255400  0.304550  1.0  -0.2258
  C  C664  1  0.317900  0.218500  0.334790  1.0  0.1513
  C  C665  1  0.364400  0.175900  0.257450  1.0  -0.2233
  C  C666  1  0.336400  0.141500  0.289690  1.0  0.1511
  C  C667  1  0.500100  0.504600  0.087080  1.0  0.1398
  C  C668  1  0.499400  0.563700  0.087230  1.0  -0.2201
  C  C669  1  0.542300  0.502400  0.157450  1.0  0.134
  C  C670  1  0.542100  0.561100  0.159990  1.0  -0.2227
  C  C671  1  0.520400  0.593200  0.124470  1.0  0.091
  C  C672  1  0.423400  0.798700  0.656470  1.0  0.1498
  C  C673  1  0.393600  0.762500  0.686310  1.0  -0.2301
  C  C674  1  0.469100  0.854900  0.710220  1.0  0.1556
  C  C675  1  0.441000  0.820900  0.742460  1.0  -0.2233
  C  C676  1  0.401600  0.772600  0.730940  1.0  0.0829
  C  C677  1  0.370500  0.734900  0.764750  1.0  0.0714
  C  C678  1  0.345800  0.755400  0.804550  1.0  -0.2258
  C  C679  1  0.317900  0.718500  0.834790  1.0  0.1513
  C  C680  1  0.364400  0.675900  0.757450  1.0  -0.2233
  C  C681  1  0.336400  0.641500  0.789690  1.0  0.1511
  C  C682  1  0.500100  0.004600  0.587080  1.0  0.1398
  C  C683  1  0.499400  0.063700  0.587230  1.0  -0.2201
  C  C684  1  0.542300  0.002400  0.657450  1.0  0.134
  C  C685  1  0.542100  0.061100  0.659990  1.0  -0.2227
  C  C686  1  0.520400  0.093200  0.624470  1.0  0.091
  C  C687  1  0.923400  0.298700  0.656470  1.0  0.1498
  C  C688  1  0.893600  0.262500  0.686310  1.0  -0.2301
  C  C689  1  0.969100  0.354900  0.710220  1.0  0.1556
  C  C690  1  0.941000  0.320900  0.742460  1.0  -0.2233
  C  C691  1  0.901600  0.272600  0.730940  1.0  0.0829
  C  C692  1  0.870500  0.234900  0.764750  1.0  0.0714
  C  C693  1  0.845800  0.255400  0.804550  1.0  -0.2258
  C  C694  1  0.817900  0.218500  0.834790  1.0  0.1513
  C  C695  1  0.864400  0.175900  0.757450  1.0  -0.2233
  C  C696  1  0.836400  0.141500  0.789690  1.0  0.1511
  C  C697  1  0.000100  0.504600  0.587080  1.0  0.1398
  C  C698  1  0.999400  0.563700  0.587230  1.0  -0.2201
  C  C699  1  0.042300  0.502400  0.657450  1.0  0.134
  C  C700  1  0.042100  0.561100  0.659990  1.0  -0.2227
  C  C701  1  0.020400  0.593200  0.624470  1.0  0.091
  C  C702  1  0.923400  0.798700  0.156470  1.0  0.1498
  C  C703  1  0.893600  0.762500  0.186310  1.0  -0.2301
  C  C704  1  0.969100  0.854900  0.210220  1.0  0.1556
  C  C705  1  0.941000  0.820900  0.242460  1.0  -0.2233
  C  C706  1  0.901600  0.772600  0.230940  1.0  0.0829
  C  C707  1  0.870500  0.734900  0.264750  1.0  0.0714
  C  C708  1  0.845800  0.755400  0.304550  1.0  -0.2258
  C  C709  1  0.817900  0.718500  0.334790  1.0  0.1513
  C  C710  1  0.864400  0.675900  0.257450  1.0  -0.2233
  C  C711  1  0.836400  0.641500  0.289690  1.0  0.1511
  C  C712  1  0.000100  0.004600  0.087080  1.0  0.1398
  C  C713  1  0.999400  0.063700  0.087230  1.0  -0.2201
  C  C714  1  0.042300  0.002400  0.157450  1.0  0.134
  C  C715  1  0.042100  0.061100  0.159990  1.0  -0.2227
  C  C716  1  0.020400  0.093200  0.124470  1.0  0.091
  C  C717  1  0.423400  0.451300  0.593530  1.0  0.1486
  C  C718  1  0.393600  0.487500  0.563690  1.0  -0.2313
  C  C719  1  0.469100  0.395100  0.539780  1.0  0.1558
  C  C720  1  0.441000  0.429100  0.507540  1.0  -0.2244
  C  C721  1  0.401600  0.477400  0.519060  1.0  0.0835
  C  C722  1  0.370500  0.515100  0.485250  1.0  0.071
  C  C723  1  0.345800  0.494600  0.445450  1.0  -0.2245
  C  C724  1  0.317900  0.531500  0.415210  1.0  0.151
  C  C725  1  0.364400  0.574100  0.492550  1.0  -0.223
  C  C726  1  0.336400  0.608500  0.460310  1.0  0.1519
  C  C727  1  0.500100  0.245400  0.662920  1.0  0.1384
  C  C728  1  0.499400  0.186300  0.662770  1.0  -0.2227
  C  C729  1  0.542300  0.247600  0.592550  1.0  0.133
  C  C730  1  0.542100  0.188900  0.590010  1.0  -0.2223
  C  C731  1  0.520400  0.156800  0.625530  1.0  0.0911
  C  C732  1  0.423400  0.951300  0.093530  1.0  0.1486
  C  C733  1  0.393600  0.987500  0.063690  1.0  -0.2313
  C  C734  1  0.469100  0.895100  0.039780  1.0  0.1558
  C  C735  1  0.441000  0.929100  0.007540  1.0  -0.2244
  C  C736  1  0.401600  0.977400  0.019060  1.0  0.0835
  C  C737  1  0.370500  0.015100  0.985250  1.0  0.071
  C  C738  1  0.345800  0.994600  0.945450  1.0  -0.2245
  C  C739  1  0.317900  0.031500  0.915210  1.0  0.151
  C  C740  1  0.364400  0.074100  0.992550  1.0  -0.223
  C  C741  1  0.336400  0.108500  0.960310  1.0  0.1519
  C  C742  1  0.500100  0.745400  0.162920  1.0  0.1384
  C  C743  1  0.499400  0.686300  0.162770  1.0  -0.2227
  C  C744  1  0.542300  0.747600  0.092550  1.0  0.133
  C  C745  1  0.542100  0.688900  0.090010  1.0  -0.2223
  C  C746  1  0.520400  0.656800  0.125530  1.0  0.0911
  C  C747  1  0.923400  0.451300  0.093530  1.0  0.1486
  C  C748  1  0.893600  0.487500  0.063690  1.0  -0.2313
  C  C749  1  0.969100  0.395100  0.039780  1.0  0.1558
  C  C750  1  0.941000  0.429100  0.007540  1.0  -0.2244
  C  C751  1  0.901600  0.477400  0.019060  1.0  0.0835
  C  C752  1  0.870500  0.515100  0.985250  1.0  0.071
  C  C753  1  0.845800  0.494600  0.945450  1.0  -0.2245
  C  C754  1  0.817900  0.531500  0.915210  1.0  0.151
  C  C755  1  0.864400  0.574100  0.992550  1.0  -0.223
  C  C756  1  0.836400  0.608500  0.960310  1.0  0.1519
  C  C757  1  0.000100  0.245400  0.162920  1.0  0.1384
  C  C758  1  0.999400  0.186300  0.162770  1.0  -0.2227
  C  C759  1  0.042300  0.247600  0.092550  1.0  0.133
  C  C760  1  0.042100  0.188900  0.090010  1.0  -0.2223
  C  C761  1  0.020400  0.156800  0.125530  1.0  0.0911
  C  C762  1  0.923400  0.951300  0.593530  1.0  0.1486
  C  C763  1  0.893600  0.987500  0.563690  1.0  -0.2313
  C  C764  1  0.969100  0.895100  0.539780  1.0  0.1558
  C  C765  1  0.941000  0.929100  0.507540  1.0  -0.2244
  C  C766  1  0.901600  0.977400  0.519060  1.0  0.0835
  C  C767  1  0.870500  0.015100  0.485250  1.0  0.071
  C  C768  1  0.845800  0.994600  0.445450  1.0  -0.2245
  C  C769  1  0.817900  0.031500  0.415210  1.0  0.151
  C  C770  1  0.864400  0.074100  0.492550  1.0  -0.223
  C  C771  1  0.836400  0.108500  0.460310  1.0  0.1519
  C  C772  1  0.000100  0.745400  0.662920  1.0  0.1384
  C  C773  1  0.999400  0.686300  0.662770  1.0  -0.2227
  C  C774  1  0.042300  0.747600  0.592550  1.0  0.133
  C  C775  1  0.042100  0.688900  0.590010  1.0  -0.2223
  C  C776  1  0.020400  0.656800  0.625530  1.0  0.0911
  C  C777  1  0.673400  0.548700  0.843530  1.0  0.1491
  C  C778  1  0.643600  0.512500  0.813690  1.0  -0.2303
  C  C779  1  0.719100  0.604900  0.789780  1.0  0.1559
  C  C780  1  0.691000  0.570900  0.757540  1.0  -0.2251
  C  C781  1  0.651600  0.522600  0.769060  1.0  0.0829
  C  C782  1  0.620500  0.484900  0.735250  1.0  0.0711
  C  C783  1  0.595800  0.505400  0.695450  1.0  -0.2247
  C  C784  1  0.567900  0.468500  0.665210  1.0  0.1508
  C  C785  1  0.614400  0.425900  0.742550  1.0  -0.223
  C  C786  1  0.586400  0.391500  0.710310  1.0  0.1508
  C  C787  1  0.750100  0.754600  0.912920  1.0  0.1392
  C  C788  1  0.749400  0.813700  0.912770  1.0  -0.2213
  C  C789  1  0.792300  0.752400  0.842550  1.0  0.1328
  C  C790  1  0.792100  0.811100  0.840010  1.0  -0.2226
  C  C791  1  0.770400  0.843200  0.875530  1.0  0.0912
  C  C792  1  0.673400  0.048700  0.343530  1.0  0.1491
  C  C793  1  0.643600  0.012500  0.313690  1.0  -0.2303
  C  C794  1  0.719100  0.104900  0.289780  1.0  0.1559
  C  C795  1  0.691000  0.070900  0.257540  1.0  -0.2251
  C  C796  1  0.651600  0.022600  0.269060  1.0  0.0829
  C  C797  1  0.620500  0.984900  0.235250  1.0  0.0711
  C  C798  1  0.595800  0.005400  0.195450  1.0  -0.2247
  C  C799  1  0.567900  0.968500  0.165210  1.0  0.1508
  C  C800  1  0.614400  0.925900  0.242550  1.0  -0.223
  C  C801  1  0.586400  0.891500  0.210310  1.0  0.1508
  C  C802  1  0.750100  0.254600  0.412920  1.0  0.1392
  C  C803  1  0.749400  0.313700  0.412770  1.0  -0.2213
  C  C804  1  0.792300  0.252400  0.342550  1.0  0.1328
  C  C805  1  0.792100  0.311100  0.340010  1.0  -0.2226
  C  C806  1  0.770400  0.343200  0.375530  1.0  0.0912
  C  C807  1  0.173400  0.548700  0.343530  1.0  0.1491
  C  C808  1  0.143600  0.512500  0.313690  1.0  -0.2303
  C  C809  1  0.219100  0.604900  0.289780  1.0  0.1559
  C  C810  1  0.191000  0.570900  0.257540  1.0  -0.2251
  C  C811  1  0.151600  0.522600  0.269060  1.0  0.0829
  C  C812  1  0.120500  0.484900  0.235250  1.0  0.0711
  C  C813  1  0.095800  0.505400  0.195450  1.0  -0.2247
  C  C814  1  0.067900  0.468500  0.165210  1.0  0.1508
  C  C815  1  0.114400  0.425900  0.242550  1.0  -0.223
  C  C816  1  0.086400  0.391500  0.210310  1.0  0.1508
  C  C817  1  0.250100  0.754600  0.412920  1.0  0.1392
  C  C818  1  0.249400  0.813700  0.412770  1.0  -0.2213
  C  C819  1  0.292300  0.752400  0.342550  1.0  0.1328
  C  C820  1  0.292100  0.811100  0.340010  1.0  -0.2226
  C  C821  1  0.270400  0.843200  0.375530  1.0  0.0912
  C  C822  1  0.173400  0.048700  0.843530  1.0  0.1491
  C  C823  1  0.143600  0.012500  0.813690  1.0  -0.2303
  C  C824  1  0.219100  0.104900  0.789780  1.0  0.1559
  C  C825  1  0.191000  0.070900  0.757540  1.0  -0.2251
  C  C826  1  0.151600  0.022600  0.769060  1.0  0.0829
  C  C827  1  0.120500  0.984900  0.735250  1.0  0.0711
  C  C828  1  0.095800  0.005400  0.695450  1.0  -0.2247
  C  C829  1  0.067900  0.968500  0.665210  1.0  0.1508
  C  C830  1  0.114400  0.925900  0.742550  1.0  -0.223
  C  C831  1  0.086400  0.891500  0.710310  1.0  0.1508
  C  C832  1  0.250100  0.254600  0.912920  1.0  0.1392
  C  C833  1  0.249400  0.313700  0.912770  1.0  -0.2213
  C  C834  1  0.292300  0.252400  0.842550  1.0  0.1328
  C  C835  1  0.292100  0.311100  0.840010  1.0  -0.2226
  C  C836  1  0.270400  0.343200  0.875530  1.0  0.0912
  C  C837  1  0.673400  0.701300  0.406470  1.0  0.1489
  C  C838  1  0.643600  0.737500  0.436310  1.0  -0.2313
  C  C839  1  0.719100  0.645100  0.460220  1.0  0.1558
  C  C840  1  0.691000  0.679100  0.492460  1.0  -0.2232
  C  C841  1  0.651600  0.727400  0.480940  1.0  0.0835
  C  C842  1  0.620500  0.765100  0.514750  1.0  0.0713
  C  C843  1  0.595800  0.744600  0.554550  1.0  -0.2245
  C  C844  1  0.567900  0.781500  0.584790  1.0  0.1519
  C  C845  1  0.614400  0.824100  0.507450  1.0  -0.2225
  C  C846  1  0.586400  0.858500  0.539690  1.0  0.1523
  C  C847  1  0.750100  0.495400  0.337080  1.0  0.14
  C  C848  1  0.749400  0.436300  0.337230  1.0  -0.2216
  C  C849  1  0.792300  0.497600  0.407450  1.0  0.1342
  C  C850  1  0.792100  0.438900  0.409990  1.0  -0.2224
  C  C851  1  0.770400  0.406800  0.374470  1.0  0.0908
  C  C852  1  0.673400  0.201300  0.906470  1.0  0.1489
  C  C853  1  0.643600  0.237500  0.936310  1.0  -0.2313
  C  C854  1  0.719100  0.145100  0.960220  1.0  0.1558
  C  C855  1  0.691000  0.179100  0.992460  1.0  -0.2232
  C  C856  1  0.651600  0.227400  0.980940  1.0  0.0835
  C  C857  1  0.620500  0.265100  0.014750  1.0  0.0713
  C  C858  1  0.595800  0.244600  0.054550  1.0  -0.2245
  C  C859  1  0.567900  0.281500  0.084790  1.0  0.1519
  C  C860  1  0.614400  0.324100  0.007450  1.0  -0.2225
  C  C861  1  0.586400  0.358500  0.039690  1.0  0.1523
  C  C862  1  0.750100  0.995400  0.837080  1.0  0.14
  C  C863  1  0.749400  0.936300  0.837230  1.0  -0.2216
  C  C864  1  0.792300  0.997600  0.907450  1.0  0.1342
  C  C865  1  0.792100  0.938900  0.909990  1.0  -0.2224
  C  C866  1  0.770400  0.906800  0.874470  1.0  0.0908
  C  C867  1  0.173400  0.701300  0.906470  1.0  0.1489
  C  C868  1  0.143600  0.737500  0.936310  1.0  -0.2313
  C  C869  1  0.219100  0.645100  0.960220  1.0  0.1558
  C  C870  1  0.191000  0.679100  0.992460  1.0  -0.2232
  C  C871  1  0.151600  0.727400  0.980940  1.0  0.0835
  C  C872  1  0.120500  0.765100  0.014750  1.0  0.0713
  C  C873  1  0.095800  0.744600  0.054550  1.0  -0.2245
  C  C874  1  0.067900  0.781500  0.084790  1.0  0.1519
  C  C875  1  0.114400  0.824100  0.007450  1.0  -0.2225
  C  C876  1  0.086400  0.858500  0.039690  1.0  0.1523
  C  C877  1  0.250100  0.495400  0.837080  1.0  0.14
  C  C878  1  0.249400  0.436300  0.837230  1.0  -0.2216
  C  C879  1  0.292300  0.497600  0.907450  1.0  0.1342
  C  C880  1  0.292100  0.438900  0.909990  1.0  -0.2224
  C  C881  1  0.270400  0.406800  0.874470  1.0  0.0908
  C  C882  1  0.173400  0.201300  0.406470  1.0  0.1489
  C  C883  1  0.143600  0.237500  0.436310  1.0  -0.2313
  C  C884  1  0.219100  0.145100  0.460220  1.0  0.1558
  C  C885  1  0.191000  0.179100  0.492460  1.0  -0.2232
  C  C886  1  0.151600  0.227400  0.480940  1.0  0.0835
  C  C887  1  0.120500  0.265100  0.514750  1.0  0.0713
  C  C888  1  0.095800  0.244600  0.554550  1.0  -0.2245
  C  C889  1  0.067900  0.281500  0.584790  1.0  0.1519
  C  C890  1  0.114400  0.324100  0.507450  1.0  -0.2225
  C  C891  1  0.086400  0.358500  0.539690  1.0  0.1523
  C  C892  1  0.250100  0.995400  0.337080  1.0  0.14
  C  C893  1  0.249400  0.936300  0.337230  1.0  -0.2216
  C  C894  1  0.292300  0.997600  0.407450  1.0  0.1342
  C  C895  1  0.292100  0.938900  0.409990  1.0  -0.2224
  C  C896  1  0.270400  0.906800  0.374470  1.0  0.0908
  N  N897  1  0.287800  0.405420  0.167300  1.0  -0.3597
  N  N898  1  0.437100  0.588270  0.328420  1.0  -0.3644
  N  N899  1  0.229200  0.276420  0.121700  1.0  -0.3197
  N  N900  1  0.287800  0.905420  0.667300  1.0  -0.3597
  N  N901  1  0.437100  0.088270  0.828420  1.0  -0.3644
  N  N902  1  0.229200  0.776420  0.621700  1.0  -0.3197
  N  N903  1  0.787800  0.405420  0.667300  1.0  -0.3597
  N  N904  1  0.937100  0.588270  0.828420  1.0  -0.3644
  N  N905  1  0.729200  0.276420  0.621700  1.0  -0.3197
  N  N906  1  0.787800  0.905420  0.167300  1.0  -0.3597
  N  N907  1  0.937100  0.088270  0.328420  1.0  -0.3644
  N  N908  1  0.729200  0.776420  0.121700  1.0  -0.3197
  N  N909  1  0.287800  0.344580  0.582700  1.0  -0.3586
  N  N910  1  0.437100  0.161730  0.421580  1.0  -0.3642
  N  N911  1  0.229200  0.473580  0.628300  1.0  -0.3192
  N  N912  1  0.287800  0.844580  0.082700  1.0  -0.3586
  N  N913  1  0.437100  0.661730  0.921580  1.0  -0.3642
  N  N914  1  0.229200  0.973580  0.128300  1.0  -0.3192
  N  N915  1  0.787800  0.344580  0.082700  1.0  -0.3586
  N  N916  1  0.937100  0.161730  0.921580  1.0  -0.3642
  N  N917  1  0.729200  0.473580  0.128300  1.0  -0.3192
  N  N918  1  0.787800  0.844580  0.582700  1.0  -0.3586
  N  N919  1  0.937100  0.661730  0.421580  1.0  -0.3642
  N  N920  1  0.729200  0.973580  0.628300  1.0  -0.3192
  N  N921  1  0.537800  0.655420  0.832700  1.0  -0.3569
  N  N922  1  0.687100  0.838270  0.671580  1.0  -0.3642
  N  N923  1  0.479200  0.526420  0.878300  1.0  -0.3196
  N  N924  1  0.537800  0.155420  0.332700  1.0  -0.3569
  N  N925  1  0.687100  0.338270  0.171580  1.0  -0.3642
  N  N926  1  0.479200  0.026420  0.378300  1.0  -0.3196
  N  N927  1  0.037800  0.655420  0.332700  1.0  -0.3569
  N  N928  1  0.187100  0.838270  0.171580  1.0  -0.3642
  N  N929  1  0.979200  0.526420  0.378300  1.0  -0.3196
  N  N930  1  0.037800  0.155420  0.832700  1.0  -0.3569
  N  N931  1  0.187100  0.338270  0.671580  1.0  -0.3642
  N  N932  1  0.979200  0.026420  0.878300  1.0  -0.3196
  N  N933  1  0.537800  0.594580  0.417300  1.0  -0.3592
  N  N934  1  0.687100  0.411730  0.578420  1.0  -0.3635
  N  N935  1  0.479200  0.723580  0.371700  1.0  -0.3195
  N  N936  1  0.537800  0.094580  0.917300  1.0  -0.3592
  N  N937  1  0.687100  0.911730  0.078420  1.0  -0.3635
  N  N938  1  0.479200  0.223580  0.871700  1.0  -0.3195
  N  N939  1  0.037800  0.594580  0.917300  1.0  -0.3592
  N  N940  1  0.187100  0.411730  0.078420  1.0  -0.3635
  N  N941  1  0.979200  0.723580  0.871700  1.0  -0.3195
  N  N942  1  0.037800  0.094580  0.417300  1.0  -0.3592
  N  N943  1  0.187100  0.911730  0.578420  1.0  -0.3635
  N  N944  1  0.979200  0.223580  0.371700  1.0  -0.3195
  N  N945  1  0.462200  0.344580  0.167300  1.0  -0.359
  N  N946  1  0.312900  0.161730  0.328420  1.0  -0.365
  N  N947  1  0.520800  0.473580  0.121700  1.0  -0.3197
  N  N948  1  0.462200  0.844580  0.667300  1.0  -0.359
  N  N949  1  0.312900  0.661730  0.828420  1.0  -0.365
  N  N950  1  0.520800  0.973580  0.621700  1.0  -0.3197
  N  N951  1  0.962200  0.344580  0.667300  1.0  -0.359
  N  N952  1  0.812900  0.161730  0.828420  1.0  -0.365
  N  N953  1  0.020800  0.473580  0.621700  1.0  -0.3197
  N  N954  1  0.962200  0.844580  0.167300  1.0  -0.359
  N  N955  1  0.812900  0.661730  0.328420  1.0  -0.365
  N  N956  1  0.020800  0.973580  0.121700  1.0  -0.3197
  N  N957  1  0.462200  0.405420  0.582700  1.0  -0.3568
  N  N958  1  0.312900  0.588270  0.421580  1.0  -0.3645
  N  N959  1  0.520800  0.276420  0.628300  1.0  -0.3194
  N  N960  1  0.462200  0.905420  0.082700  1.0  -0.3568
  N  N961  1  0.312900  0.088270  0.921580  1.0  -0.3645
  N  N962  1  0.520800  0.776420  0.128300  1.0  -0.3194
  N  N963  1  0.962200  0.405420  0.082700  1.0  -0.3568
  N  N964  1  0.812900  0.588270  0.921580  1.0  -0.3645
  N  N965  1  0.020800  0.276420  0.128300  1.0  -0.3194
  N  N966  1  0.962200  0.905420  0.582700  1.0  -0.3568
  N  N967  1  0.812900  0.088270  0.421580  1.0  -0.3645
  N  N968  1  0.020800  0.776420  0.628300  1.0  -0.3194
  N  N969  1  0.712200  0.594580  0.832700  1.0  -0.3584
  N  N970  1  0.562900  0.411730  0.671580  1.0  -0.3651
  N  N971  1  0.770800  0.723580  0.878300  1.0  -0.3194
  N  N972  1  0.712200  0.094580  0.332700  1.0  -0.3584
  N  N973  1  0.562900  0.911730  0.171580  1.0  -0.3651
  N  N974  1  0.770800  0.223580  0.378300  1.0  -0.3194
  N  N975  1  0.212200  0.594580  0.332700  1.0  -0.3584
  N  N976  1  0.062900  0.411730  0.171580  1.0  -0.3651
  N  N977  1  0.270800  0.723580  0.378300  1.0  -0.3194
  N  N978  1  0.212200  0.094580  0.832700  1.0  -0.3584
  N  N979  1  0.062900  0.911730  0.671580  1.0  -0.3651
  N  N980  1  0.270800  0.223580  0.878300  1.0  -0.3194
  N  N981  1  0.712200  0.655420  0.417300  1.0  -0.3593
  N  N982  1  0.562900  0.838270  0.578420  1.0  -0.3654
  N  N983  1  0.770800  0.526420  0.371700  1.0  -0.3194
  N  N984  1  0.712200  0.155420  0.917300  1.0  -0.3593
  N  N985  1  0.562900  0.338270  0.078420  1.0  -0.3654
  N  N986  1  0.770800  0.026420  0.871700  1.0  -0.3194
  N  N987  1  0.212200  0.655420  0.917300  1.0  -0.3593
  N  N988  1  0.062900  0.838270  0.078420  1.0  -0.3654
  N  N989  1  0.270800  0.526420  0.871700  1.0  -0.3194
  N  N990  1  0.212200  0.155420  0.417300  1.0  -0.3593
  N  N991  1  0.062900  0.338270  0.578420  1.0  -0.3654
  N  N992  1  0.270800  0.026420  0.371700  1.0  -0.3194
