# generated using pymatgen
data_Gd3H44(C5O)16
_symmetry_space_group_name_H-M   'P 1'
_cell_length_a   17.01920000
_cell_length_b   57.82050000
_cell_length_c   32.38460000
_cell_angle_alpha   90.00000000
_cell_angle_beta   90.00000000
_cell_angle_gamma   90.00000000
_symmetry_Int_Tables_number   1
_chemical_formula_structural   Gd3H44(C5O)16
_chemical_formula_sum   'Gd24 H352 C640 O128'
_cell_volume   31868.34587337
_cell_formula_units_Z   8
loop_
 _symmetry_equiv_pos_site_id
 _symmetry_equiv_pos_as_xyz
  1  'x, y, z'
loop_
 _atom_site_type_symbol
 _atom_site_label
 _atom_site_symmetry_multiplicity
 _atom_site_fract_x
 _atom_site_fract_y
 _atom_site_fract_z
 _atom_site_occupancy
 _atom_site_charge
  Gd  Gd1  1  0.768300  0.135760  0.730580  1.0  2.0691
  Gd  Gd2  1  0.268300  0.635760  0.730580  1.0  2.0691
  Gd  Gd3  1  0.731700  0.864240  0.730580  1.0  2.0666
  Gd  Gd4  1  0.231700  0.364240  0.730580  1.0  2.0666
  Gd  Gd5  1  0.231700  0.135760  0.769420  1.0  2.0655
  Gd  Gd6  1  0.731700  0.635760  0.769420  1.0  2.0655
  Gd  Gd7  1  0.268300  0.864240  0.769420  1.0  2.0671
  Gd  Gd8  1  0.768300  0.364240  0.769420  1.0  2.0671
  Gd  Gd9  1  0.231700  0.864240  0.269420  1.0  2.0654
  Gd  Gd10  1  0.731700  0.364240  0.269420  1.0  2.0654
  Gd  Gd11  1  0.268300  0.135760  0.269420  1.0  2.067
  Gd  Gd12  1  0.768300  0.635760  0.269420  1.0  2.067
  Gd  Gd13  1  0.768300  0.864240  0.230580  1.0  2.0684
  Gd  Gd14  1  0.268300  0.364240  0.230580  1.0  2.0684
  Gd  Gd15  1  0.731700  0.135760  0.230580  1.0  2.0673
  Gd  Gd16  1  0.231700  0.635760  0.230580  1.0  2.0673
  Gd  Gd17  1  0.000000  0.099520  0.750000  1.0  2.2417
  Gd  Gd18  1  0.500000  0.599520  0.750000  1.0  2.2417
  Gd  Gd19  1  0.500000  0.900480  0.750000  1.0  2.2407
  Gd  Gd20  1  0.000000  0.400480  0.750000  1.0  2.2407
  Gd  Gd21  1  0.000000  0.900480  0.250000  1.0  2.2407
  Gd  Gd22  1  0.500000  0.400480  0.250000  1.0  2.2407
  Gd  Gd23  1  0.500000  0.099520  0.250000  1.0  2.2417
  Gd  Gd24  1  0.000000  0.599520  0.250000  1.0  2.2417
  H  H25  1  0.976100  0.230800  0.573200  1.0  0.0951
  H  H26  1  0.066700  0.175400  0.517900  1.0  0.1021
  H  H27  1  0.053700  0.236200  0.456600  1.0  0.0923
  H  H28  1  0.897700  0.201400  0.604000  1.0  0.0969
  H  H29  1  0.872700  0.178800  0.661500  1.0  0.0931
  H  H30  1  0.075700  0.145900  0.645300  1.0  0.0917
  H  H31  1  0.100000  0.167100  0.586500  1.0  0.0988
  H  H32  1  0.068400  0.160600  0.455400  1.0  0.0847
  H  H33  1  0.124100  0.143000  0.397600  1.0  0.0916
  H  H34  1  0.193100  0.202500  0.359800  1.0  0.0757
  H  H35  1  0.140000  0.220100  0.415300  1.0  0.0816
  H  H36  1  0.218800  0.018300  0.572400  1.0  0.0936
  H  H37  1  0.259700  0.077200  0.510900  1.0  0.0972
  H  H38  1  0.290700  0.016500  0.454800  1.0  0.0951
  H  H39  1  0.301900  0.087000  0.579000  1.0  0.0947
  H  H40  1  0.275100  0.108400  0.636500  1.0  0.1054
  H  H41  1  0.099000  0.066400  0.663400  1.0  0.08
  H  H42  1  0.126500  0.044300  0.606000  1.0  0.1043
  H  H43  1  0.390200  0.038700  0.423500  1.0  0.1056
  H  H44  1  0.429500  0.057300  0.363400  1.0  0.0924
  H  H45  1  0.257400  0.103400  0.377700  1.0  0.0833
  H  H46  1  0.221900  0.085900  0.439900  1.0  0.1057
  H  H47  1  0.476100  0.730800  0.573200  1.0  0.0951
  H  H48  1  0.566700  0.675400  0.517900  1.0  0.1021
  H  H49  1  0.553700  0.736200  0.456600  1.0  0.0923
  H  H50  1  0.397700  0.701400  0.604000  1.0  0.0969
  H  H51  1  0.372700  0.678800  0.661500  1.0  0.0931
  H  H52  1  0.575700  0.645900  0.645300  1.0  0.0917
  H  H53  1  0.600000  0.667100  0.586500  1.0  0.0988
  H  H54  1  0.568400  0.660600  0.455400  1.0  0.0847
  H  H55  1  0.624100  0.643000  0.397600  1.0  0.0916
  H  H56  1  0.693100  0.702500  0.359800  1.0  0.0757
  H  H57  1  0.640000  0.720100  0.415300  1.0  0.0816
  H  H58  1  0.718800  0.518300  0.572400  1.0  0.0936
  H  H59  1  0.759700  0.577200  0.510900  1.0  0.0972
  H  H60  1  0.790700  0.516500  0.454800  1.0  0.0951
  H  H61  1  0.801900  0.587000  0.579000  1.0  0.0947
  H  H62  1  0.775100  0.608400  0.636500  1.0  0.1054
  H  H63  1  0.599000  0.566400  0.663400  1.0  0.08
  H  H64  1  0.626500  0.544300  0.606000  1.0  0.1043
  H  H65  1  0.890200  0.538700  0.423500  1.0  0.1056
  H  H66  1  0.929500  0.557300  0.363400  1.0  0.0924
  H  H67  1  0.757400  0.603400  0.377700  1.0  0.0833
  H  H68  1  0.721900  0.585900  0.439900  1.0  0.1057
  H  H69  1  0.523900  0.769200  0.573200  1.0  0.0951
  H  H70  1  0.433300  0.824600  0.517900  1.0  0.1018
  H  H71  1  0.446300  0.763800  0.456600  1.0  0.0929
  H  H72  1  0.602300  0.798600  0.604000  1.0  0.0967
  H  H73  1  0.627300  0.821200  0.661500  1.0  0.0932
  H  H74  1  0.424300  0.854100  0.645300  1.0  0.0917
  H  H75  1  0.400000  0.832900  0.586500  1.0  0.0996
  H  H76  1  0.431600  0.839400  0.455400  1.0  0.0845
  H  H77  1  0.375900  0.857000  0.397600  1.0  0.0909
  H  H78  1  0.306900  0.797500  0.359800  1.0  0.075
  H  H79  1  0.360000  0.779900  0.415300  1.0  0.0843
  H  H80  1  0.281200  0.981700  0.572400  1.0  0.0933
  H  H81  1  0.240300  0.922800  0.510900  1.0  0.0969
  H  H82  1  0.209300  0.983500  0.454800  1.0  0.0938
  H  H83  1  0.198100  0.913000  0.579000  1.0  0.0948
  H  H84  1  0.224900  0.891600  0.636500  1.0  0.1042
  H  H85  1  0.401000  0.933600  0.663400  1.0  0.0796
  H  H86  1  0.373500  0.955700  0.606000  1.0  0.1044
  H  H87  1  0.109800  0.961300  0.423500  1.0  0.1057
  H  H88  1  0.070500  0.942700  0.363400  1.0  0.0926
  H  H89  1  0.242600  0.896600  0.377700  1.0  0.0841
  H  H90  1  0.278100  0.914100  0.439900  1.0  0.1059
  H  H91  1  0.023900  0.269200  0.573200  1.0  0.0951
  H  H92  1  0.933300  0.324600  0.517900  1.0  0.1018
  H  H93  1  0.946300  0.263800  0.456600  1.0  0.0929
  H  H94  1  0.102300  0.298600  0.604000  1.0  0.0967
  H  H95  1  0.127300  0.321200  0.661500  1.0  0.0932
  H  H96  1  0.924300  0.354100  0.645300  1.0  0.0917
  H  H97  1  0.900000  0.332900  0.586500  1.0  0.0996
  H  H98  1  0.931600  0.339400  0.455400  1.0  0.0845
  H  H99  1  0.875900  0.357000  0.397600  1.0  0.0909
  H  H100  1  0.806900  0.297500  0.359800  1.0  0.075
  H  H101  1  0.860000  0.279900  0.415300  1.0  0.0843
  H  H102  1  0.781200  0.481700  0.572400  1.0  0.0933
  H  H103  1  0.740300  0.422800  0.510900  1.0  0.0969
  H  H104  1  0.709300  0.483500  0.454800  1.0  0.0938
  H  H105  1  0.698100  0.413000  0.579000  1.0  0.0948
  H  H106  1  0.724900  0.391600  0.636500  1.0  0.1042
  H  H107  1  0.901000  0.433600  0.663400  1.0  0.0796
  H  H108  1  0.873500  0.455700  0.606000  1.0  0.1044
  H  H109  1  0.609800  0.461300  0.423500  1.0  0.1057
  H  H110  1  0.570500  0.442700  0.363400  1.0  0.0926
  H  H111  1  0.742600  0.396600  0.377700  1.0  0.0841
  H  H112  1  0.778100  0.414100  0.439900  1.0  0.1059
  H  H113  1  0.023900  0.230800  0.926800  1.0  0.0946
  H  H114  1  0.933300  0.175400  0.982100  1.0  0.1013
  H  H115  1  0.946300  0.236200  0.043400  1.0  0.0927
  H  H116  1  0.102300  0.201400  0.896000  1.0  0.0963
  H  H117  1  0.127300  0.178800  0.838500  1.0  0.0931
  H  H118  1  0.924300  0.145900  0.854700  1.0  0.092
  H  H119  1  0.900000  0.167100  0.913500  1.0  0.0995
  H  H120  1  0.931600  0.160600  0.044600  1.0  0.0853
  H  H121  1  0.875900  0.143000  0.102400  1.0  0.0913
  H  H122  1  0.806900  0.202500  0.140200  1.0  0.0753
  H  H123  1  0.860000  0.220100  0.084700  1.0  0.0805
  H  H124  1  0.781200  0.018300  0.927600  1.0  0.094
  H  H125  1  0.740300  0.077200  0.989100  1.0  0.0971
  H  H126  1  0.709300  0.016500  0.045200  1.0  0.0953
  H  H127  1  0.698100  0.087000  0.921000  1.0  0.0943
  H  H128  1  0.724900  0.108400  0.863500  1.0  0.1054
  H  H129  1  0.901000  0.066400  0.836600  1.0  0.0796
  H  H130  1  0.873500  0.044300  0.894000  1.0  0.1045
  H  H131  1  0.609800  0.038700  0.076500  1.0  0.1057
  H  H132  1  0.570500  0.057300  0.136600  1.0  0.0929
  H  H133  1  0.742600  0.103400  0.122300  1.0  0.0833
  H  H134  1  0.778100  0.085900  0.060100  1.0  0.1064
  H  H135  1  0.523900  0.730800  0.926800  1.0  0.0946
  H  H136  1  0.433300  0.675400  0.982100  1.0  0.1013
  H  H137  1  0.446300  0.736200  0.043400  1.0  0.0927
  H  H138  1  0.602300  0.701400  0.896000  1.0  0.0963
  H  H139  1  0.627300  0.678800  0.838500  1.0  0.0931
  H  H140  1  0.424300  0.645900  0.854700  1.0  0.092
  H  H141  1  0.400000  0.667100  0.913500  1.0  0.0995
  H  H142  1  0.431600  0.660600  0.044600  1.0  0.0853
  H  H143  1  0.375900  0.643000  0.102400  1.0  0.0913
  H  H144  1  0.306900  0.702500  0.140200  1.0  0.0753
  H  H145  1  0.360000  0.720100  0.084700  1.0  0.0805
  H  H146  1  0.281200  0.518300  0.927600  1.0  0.094
  H  H147  1  0.240300  0.577200  0.989100  1.0  0.0971
  H  H148  1  0.209300  0.516500  0.045200  1.0  0.0953
  H  H149  1  0.198100  0.587000  0.921000  1.0  0.0943
  H  H150  1  0.224900  0.608400  0.863500  1.0  0.1054
  H  H151  1  0.401000  0.566400  0.836600  1.0  0.0796
  H  H152  1  0.373500  0.544300  0.894000  1.0  0.1045
  H  H153  1  0.109800  0.538700  0.076500  1.0  0.1057
  H  H154  1  0.070500  0.557300  0.136600  1.0  0.0929
  H  H155  1  0.242600  0.603400  0.122300  1.0  0.0833
  H  H156  1  0.278100  0.585900  0.060100  1.0  0.1064
  H  H157  1  0.476100  0.769200  0.926800  1.0  0.0945
  H  H158  1  0.566700  0.824600  0.982100  1.0  0.1021
  H  H159  1  0.553700  0.763800  0.043400  1.0  0.0929
  H  H160  1  0.397700  0.798600  0.896000  1.0  0.0964
  H  H161  1  0.372700  0.821200  0.838500  1.0  0.0931
  H  H162  1  0.575700  0.854100  0.854700  1.0  0.0916
  H  H163  1  0.600000  0.832900  0.913500  1.0  0.0992
  H  H164  1  0.568400  0.839400  0.044600  1.0  0.0856
  H  H165  1  0.624100  0.857000  0.102400  1.0  0.0909
  H  H166  1  0.693100  0.797500  0.140200  1.0  0.0754
  H  H167  1  0.640000  0.779900  0.084700  1.0  0.0842
  H  H168  1  0.718800  0.981700  0.927600  1.0  0.0936
  H  H169  1  0.759700  0.922800  0.989100  1.0  0.097
  H  H170  1  0.790700  0.983500  0.045200  1.0  0.0947
  H  H171  1  0.801900  0.913000  0.921000  1.0  0.0943
  H  H172  1  0.775100  0.891600  0.863500  1.0  0.1055
  H  H173  1  0.599000  0.933600  0.836600  1.0  0.08
  H  H174  1  0.626500  0.955700  0.894000  1.0  0.1043
  H  H175  1  0.890200  0.961300  0.076500  1.0  0.1056
  H  H176  1  0.929500  0.942700  0.136600  1.0  0.0933
  H  H177  1  0.757400  0.896600  0.122300  1.0  0.0836
  H  H178  1  0.721900  0.914100  0.060100  1.0  0.1057
  H  H179  1  0.976100  0.269200  0.926800  1.0  0.0945
  H  H180  1  0.066700  0.324600  0.982100  1.0  0.1021
  H  H181  1  0.053700  0.263800  0.043400  1.0  0.0929
  H  H182  1  0.897700  0.298600  0.896000  1.0  0.0964
  H  H183  1  0.872700  0.321200  0.838500  1.0  0.0931
  H  H184  1  0.075700  0.354100  0.854700  1.0  0.0916
  H  H185  1  0.100000  0.332900  0.913500  1.0  0.0992
  H  H186  1  0.068400  0.339400  0.044600  1.0  0.0856
  H  H187  1  0.124100  0.357000  0.102400  1.0  0.0909
  H  H188  1  0.193100  0.297500  0.140200  1.0  0.0754
  H  H189  1  0.140000  0.279900  0.084700  1.0  0.0842
  H  H190  1  0.218800  0.481700  0.927600  1.0  0.0936
  H  H191  1  0.259700  0.422800  0.989100  1.0  0.097
  H  H192  1  0.290700  0.483500  0.045200  1.0  0.0947
  H  H193  1  0.301900  0.413000  0.921000  1.0  0.0943
  H  H194  1  0.275100  0.391600  0.863500  1.0  0.1055
  H  H195  1  0.099000  0.433600  0.836600  1.0  0.08
  H  H196  1  0.126500  0.455700  0.894000  1.0  0.1043
  H  H197  1  0.390200  0.461300  0.076500  1.0  0.1056
  H  H198  1  0.429500  0.442700  0.136600  1.0  0.0933
  H  H199  1  0.257400  0.396600  0.122300  1.0  0.0836
  H  H200  1  0.221900  0.414100  0.060100  1.0  0.1057
  H  H201  1  0.023900  0.769200  0.426800  1.0  0.0946
  H  H202  1  0.933300  0.824600  0.482100  1.0  0.1018
  H  H203  1  0.946300  0.763800  0.543400  1.0  0.0932
  H  H204  1  0.102300  0.798600  0.396000  1.0  0.0966
  H  H205  1  0.127300  0.821200  0.338500  1.0  0.0931
  H  H206  1  0.924300  0.854100  0.354700  1.0  0.0919
  H  H207  1  0.900000  0.832900  0.413500  1.0  0.0993
  H  H208  1  0.931600  0.839400  0.544600  1.0  0.0857
  H  H209  1  0.875900  0.857000  0.602400  1.0  0.0908
  H  H210  1  0.806900  0.797500  0.640200  1.0  0.0752
  H  H211  1  0.860000  0.779900  0.584700  1.0  0.0838
  H  H212  1  0.781200  0.981700  0.427600  1.0  0.0937
  H  H213  1  0.740300  0.922800  0.489100  1.0  0.097
  H  H214  1  0.709300  0.983500  0.545200  1.0  0.0945
  H  H215  1  0.698100  0.913000  0.421000  1.0  0.0947
  H  H216  1  0.724900  0.891600  0.363500  1.0  0.1043
  H  H217  1  0.901000  0.933600  0.336600  1.0  0.0798
  H  H218  1  0.873500  0.955700  0.394000  1.0  0.1043
  H  H219  1  0.609800  0.961300  0.576500  1.0  0.1059
  H  H220  1  0.570500  0.942700  0.636600  1.0  0.0929
  H  H221  1  0.742600  0.896600  0.622300  1.0  0.0838
  H  H222  1  0.778100  0.914100  0.560100  1.0  0.1057
  H  H223  1  0.523900  0.269200  0.426800  1.0  0.0946
  H  H224  1  0.433300  0.324600  0.482100  1.0  0.1018
  H  H225  1  0.446300  0.263800  0.543400  1.0  0.0932
  H  H226  1  0.602300  0.298600  0.396000  1.0  0.0966
  H  H227  1  0.627300  0.321200  0.338500  1.0  0.0931
  H  H228  1  0.424300  0.354100  0.354700  1.0  0.0919
  H  H229  1  0.400000  0.332900  0.413500  1.0  0.0993
  H  H230  1  0.431600  0.339400  0.544600  1.0  0.0857
  H  H231  1  0.375900  0.357000  0.602400  1.0  0.0908
  H  H232  1  0.306900  0.297500  0.640200  1.0  0.0752
  H  H233  1  0.360000  0.279900  0.584700  1.0  0.0838
  H  H234  1  0.281200  0.481700  0.427600  1.0  0.0937
  H  H235  1  0.240300  0.422800  0.489100  1.0  0.097
  H  H236  1  0.209300  0.483500  0.545200  1.0  0.0945
  H  H237  1  0.198100  0.413000  0.421000  1.0  0.0947
  H  H238  1  0.224900  0.391600  0.363500  1.0  0.1043
  H  H239  1  0.401000  0.433600  0.336600  1.0  0.0798
  H  H240  1  0.373500  0.455700  0.394000  1.0  0.1043
  H  H241  1  0.109800  0.461300  0.576500  1.0  0.1059
  H  H242  1  0.070500  0.442700  0.636600  1.0  0.0929
  H  H243  1  0.242600  0.396600  0.622300  1.0  0.0838
  H  H244  1  0.278100  0.414100  0.560100  1.0  0.1057
  H  H245  1  0.476100  0.230800  0.426800  1.0  0.0945
  H  H246  1  0.566700  0.175400  0.482100  1.0  0.102
  H  H247  1  0.553700  0.236200  0.543400  1.0  0.0924
  H  H248  1  0.397700  0.201400  0.396000  1.0  0.0968
  H  H249  1  0.372700  0.178800  0.338500  1.0  0.0931
  H  H250  1  0.575700  0.145900  0.354700  1.0  0.092
  H  H251  1  0.600000  0.167100  0.413500  1.0  0.0991
  H  H252  1  0.568400  0.160600  0.544600  1.0  0.0851
  H  H253  1  0.624100  0.143000  0.602400  1.0  0.0915
  H  H254  1  0.693100  0.202500  0.640200  1.0  0.0753
  H  H255  1  0.640000  0.220100  0.584700  1.0  0.0811
  H  H256  1  0.718800  0.018300  0.427600  1.0  0.0939
  H  H257  1  0.759700  0.077200  0.489100  1.0  0.097
  H  H258  1  0.790700  0.016500  0.545200  1.0  0.0954
  H  H259  1  0.801900  0.087000  0.421000  1.0  0.0943
  H  H260  1  0.775100  0.108400  0.363500  1.0  0.1057
  H  H261  1  0.599000  0.066400  0.336600  1.0  0.0798
  H  H262  1  0.626500  0.044300  0.394000  1.0  0.104
  H  H263  1  0.890200  0.038700  0.576500  1.0  0.1057
  H  H264  1  0.929500  0.057300  0.636600  1.0  0.0933
  H  H265  1  0.757400  0.103400  0.622300  1.0  0.0832
  H  H266  1  0.721900  0.085900  0.560100  1.0  0.1061
  H  H267  1  0.976100  0.730800  0.426800  1.0  0.0945
  H  H268  1  0.066700  0.675400  0.482100  1.0  0.102
  H  H269  1  0.053700  0.736200  0.543400  1.0  0.0924
  H  H270  1  0.897700  0.701400  0.396000  1.0  0.0968
  H  H271  1  0.872700  0.678800  0.338500  1.0  0.0931
  H  H272  1  0.075700  0.645900  0.354700  1.0  0.092
  H  H273  1  0.100000  0.667100  0.413500  1.0  0.0991
  H  H274  1  0.068400  0.660600  0.544600  1.0  0.0851
  H  H275  1  0.124100  0.643000  0.602400  1.0  0.0915
  H  H276  1  0.193100  0.702500  0.640200  1.0  0.0753
  H  H277  1  0.140000  0.720100  0.584700  1.0  0.0811
  H  H278  1  0.218800  0.518300  0.427600  1.0  0.0939
  H  H279  1  0.259700  0.577200  0.489100  1.0  0.097
  H  H280  1  0.290700  0.516500  0.545200  1.0  0.0954
  H  H281  1  0.301900  0.587000  0.421000  1.0  0.0943
  H  H282  1  0.275100  0.608400  0.363500  1.0  0.1057
  H  H283  1  0.099000  0.566400  0.336600  1.0  0.0798
  H  H284  1  0.126500  0.544300  0.394000  1.0  0.104
  H  H285  1  0.390200  0.538700  0.576500  1.0  0.1057
  H  H286  1  0.429500  0.557300  0.636600  1.0  0.093
  H  H287  1  0.257400  0.603400  0.622300  1.0  0.0832
  H  H288  1  0.221900  0.585900  0.560100  1.0  0.1061
  H  H289  1  0.976100  0.769200  0.073200  1.0  0.0953
  H  H290  1  0.066700  0.824600  0.017900  1.0  0.1021
  H  H291  1  0.053700  0.763800  0.956600  1.0  0.0927
  H  H292  1  0.897700  0.798600  0.104000  1.0  0.0964
  H  H293  1  0.872700  0.821200  0.161500  1.0  0.0933
  H  H294  1  0.075700  0.854100  0.145300  1.0  0.0914
  H  H295  1  0.100000  0.832900  0.086500  1.0  0.0994
  H  H296  1  0.068400  0.839400  0.955400  1.0  0.0845
  H  H297  1  0.124100  0.857000  0.897600  1.0  0.091
  H  H298  1  0.193100  0.797500  0.859800  1.0  0.0752
  H  H299  1  0.140000  0.779900  0.915300  1.0  0.0847
  H  H300  1  0.218800  0.981700  0.072400  1.0  0.0934
  H  H301  1  0.259700  0.922800  0.010900  1.0  0.0968
  H  H302  1  0.290700  0.983500  0.954800  1.0  0.0943
  H  H303  1  0.301900  0.913000  0.079000  1.0  0.0944
  H  H304  1  0.275100  0.891600  0.136500  1.0  0.1051
  H  H305  1  0.099000  0.933600  0.163400  1.0  0.0797
  H  H306  1  0.126500  0.955700  0.106000  1.0  0.1045
  H  H307  1  0.390200  0.961300  0.923500  1.0  0.1055
  H  H308  1  0.429500  0.942700  0.863400  1.0  0.0929
  H  H309  1  0.257400  0.896600  0.877700  1.0  0.0837
  H  H310  1  0.221900  0.914100  0.939900  1.0  0.106
  H  H311  1  0.476100  0.269200  0.073200  1.0  0.0953
  H  H312  1  0.566700  0.324600  0.017900  1.0  0.1021
  H  H313  1  0.553700  0.263800  0.956600  1.0  0.0927
  H  H314  1  0.397700  0.298600  0.104000  1.0  0.0964
  H  H315  1  0.372700  0.321200  0.161500  1.0  0.0933
  H  H316  1  0.575700  0.354100  0.145300  1.0  0.0914
  H  H317  1  0.600000  0.332900  0.086500  1.0  0.0994
  H  H318  1  0.568400  0.339400  0.955400  1.0  0.0845
  H  H319  1  0.624100  0.357000  0.897600  1.0  0.091
  H  H320  1  0.693100  0.297500  0.859800  1.0  0.0752
  H  H321  1  0.640000  0.279900  0.915300  1.0  0.0847
  H  H322  1  0.718800  0.481700  0.072400  1.0  0.0934
  H  H323  1  0.759700  0.422800  0.010900  1.0  0.0968
  H  H324  1  0.790700  0.483500  0.954800  1.0  0.0943
  H  H325  1  0.801900  0.413000  0.079000  1.0  0.0944
  H  H326  1  0.775100  0.391600  0.136500  1.0  0.1051
  H  H327  1  0.599000  0.433600  0.163400  1.0  0.0797
  H  H328  1  0.626500  0.455700  0.106000  1.0  0.1045
  H  H329  1  0.890200  0.461300  0.923500  1.0  0.1055
  H  H330  1  0.929500  0.442700  0.863400  1.0  0.0929
  H  H331  1  0.757400  0.396600  0.877700  1.0  0.0837
  H  H332  1  0.721900  0.414100  0.939900  1.0  0.106
  H  H333  1  0.523900  0.230800  0.073200  1.0  0.095
  H  H334  1  0.433300  0.175400  0.017900  1.0  0.1016
  H  H335  1  0.446300  0.236200  0.956600  1.0  0.0925
  H  H336  1  0.602300  0.201400  0.104000  1.0  0.0964
  H  H337  1  0.627300  0.178800  0.161500  1.0  0.0931
  H  H338  1  0.424300  0.145900  0.145300  1.0  0.0919
  H  H339  1  0.400000  0.167100  0.086500  1.0  0.0994
  H  H340  1  0.431600  0.160600  0.955400  1.0  0.0847
  H  H341  1  0.375900  0.143000  0.897600  1.0  0.0916
  H  H342  1  0.306900  0.202500  0.859800  1.0  0.0757
  H  H343  1  0.360000  0.220100  0.915300  1.0  0.0809
  H  H344  1  0.281200  0.018300  0.072400  1.0  0.0935
  H  H345  1  0.240300  0.077200  0.010900  1.0  0.0973
  H  H346  1  0.209300  0.016500  0.954800  1.0  0.0946
  H  H347  1  0.198100  0.087000  0.079000  1.0  0.0948
  H  H348  1  0.224900  0.108400  0.136500  1.0  0.1052
  H  H349  1  0.401000  0.066400  0.163400  1.0  0.08
  H  H350  1  0.373500  0.044300  0.106000  1.0  0.1044
  H  H351  1  0.109800  0.038700  0.923500  1.0  0.1056
  H  H352  1  0.070500  0.057300  0.863400  1.0  0.0924
  H  H353  1  0.242600  0.103400  0.877700  1.0  0.0834
  H  H354  1  0.278100  0.085900  0.939900  1.0  0.106
  H  H355  1  0.023900  0.730800  0.073200  1.0  0.095
  H  H356  1  0.933300  0.675400  0.017900  1.0  0.1016
  H  H357  1  0.946300  0.736200  0.956600  1.0  0.0925
  H  H358  1  0.102300  0.701400  0.104000  1.0  0.0964
  H  H359  1  0.127300  0.678800  0.161500  1.0  0.0931
  H  H360  1  0.924300  0.645900  0.145300  1.0  0.0919
  H  H361  1  0.900000  0.667100  0.086500  1.0  0.0994
  H  H362  1  0.931600  0.660600  0.955400  1.0  0.0847
  H  H363  1  0.875900  0.643000  0.897600  1.0  0.0916
  H  H364  1  0.806900  0.702500  0.859800  1.0  0.0757
  H  H365  1  0.860000  0.720100  0.915300  1.0  0.0809
  H  H366  1  0.781200  0.518300  0.072400  1.0  0.0935
  H  H367  1  0.740300  0.577200  0.010900  1.0  0.0973
  H  H368  1  0.709300  0.516500  0.954800  1.0  0.0946
  H  H369  1  0.698100  0.587000  0.079000  1.0  0.0948
  H  H370  1  0.724900  0.608400  0.136500  1.0  0.1052
  H  H371  1  0.901000  0.566400  0.163400  1.0  0.08
  H  H372  1  0.873500  0.544300  0.106000  1.0  0.1044
  H  H373  1  0.609800  0.538700  0.923500  1.0  0.1056
  H  H374  1  0.570500  0.557300  0.863400  1.0  0.0923
  H  H375  1  0.742600  0.603400  0.877700  1.0  0.0834
  H  H376  1  0.778100  0.585900  0.939900  1.0  0.106
  C  C377  1  0.010600  0.237610  0.513590  1.0  0.0039
  C  C378  1  0.997900  0.224060  0.549780  1.0  -0.0894
  C  C379  1  0.017700  0.200940  0.550210  1.0  0.0334
  C  C380  1  0.051600  0.190830  0.516820  1.0  -0.117
  C  C381  1  0.063900  0.204000  0.479700  1.0  0.0235
  C  C382  1  0.044000  0.227370  0.479970  1.0  -0.119
  C  C383  1  0.001200  0.186960  0.588210  1.0  0.0753
  C  C384  1  0.933700  0.190100  0.611700  1.0  -0.1409
  C  C385  1  0.918900  0.176660  0.646500  1.0  -0.0425
  C  C386  1  0.971900  0.160470  0.658720  1.0  -0.1497
  C  C387  1  0.039700  0.156950  0.636600  1.0  -0.0637
  C  C388  1  0.054400  0.169810  0.601540  1.0  -0.1389
  C  C389  1  0.955500  0.144590  0.696200  1.0  0.7047
  C  C390  1  0.100300  0.192500  0.442840  1.0  0.0798
  C  C391  1  0.095100  0.169650  0.436300  1.0  -0.167
  C  C392  1  0.129000  0.158920  0.401200  1.0  -0.1031
  C  C393  1  0.166400  0.170970  0.374150  1.0  -0.0568
  C  C394  1  0.168500  0.193470  0.379700  1.0  -0.0655
  C  C395  1  0.136400  0.204120  0.413200  1.0  -0.1724
  C  C396  1  0.202800  0.159490  0.336300  1.0  0.6549
  C  C397  1  0.251200  0.013080  0.513480  1.0  0.0251
  C  C398  1  0.232800  0.025950  0.548220  1.0  -0.0917
  C  C399  1  0.234800  0.050070  0.547960  1.0  0.0358
  C  C400  1  0.257500  0.061150  0.511620  1.0  -0.1157
  C  C401  1  0.276700  0.048700  0.476520  1.0  -0.007
  C  C402  1  0.275300  0.024880  0.477940  1.0  -0.0915
  C  C403  1  0.215700  0.063490  0.585790  1.0  0.0522
  C  C404  1  0.260500  0.082710  0.596100  1.0  -0.1617
  C  C405  1  0.245300  0.095380  0.630400  1.0  -0.1027
  C  C406  1  0.184300  0.088570  0.656600  1.0  -0.1545
  C  C407  1  0.141100  0.070470  0.646500  1.0  -0.0574
  C  C408  1  0.156600  0.057330  0.611650  1.0  -0.1792
  C  C409  1  0.169900  0.101900  0.697100  1.0  0.7317
  C  C410  1  0.301800  0.060610  0.437390  1.0  -0.0104
  C  C411  1  0.363900  0.051890  0.414560  1.0  -0.1424
  C  C412  1  0.386800  0.062840  0.378340  1.0  -0.056
  C  C413  1  0.346100  0.082100  0.364350  1.0  -0.1487
  C  C414  1  0.284900  0.090490  0.386980  1.0  -0.0469
  C  C415  1  0.262800  0.079870  0.424290  1.0  -0.1452
  C  C416  1  0.369800  0.092690  0.322800  1.0  0.7319
  C  C417  1  0.510600  0.737610  0.513590  1.0  0.0039
  C  C418  1  0.497900  0.724060  0.549780  1.0  -0.0894
  C  C419  1  0.517700  0.700940  0.550210  1.0  0.0334
  C  C420  1  0.551600  0.690830  0.516820  1.0  -0.117
  C  C421  1  0.563900  0.704000  0.479700  1.0  0.0235
  C  C422  1  0.544000  0.727370  0.479970  1.0  -0.119
  C  C423  1  0.501200  0.686960  0.588210  1.0  0.0753
  C  C424  1  0.433700  0.690100  0.611700  1.0  -0.1409
  C  C425  1  0.418900  0.676660  0.646500  1.0  -0.0425
  C  C426  1  0.471900  0.660470  0.658720  1.0  -0.1497
  C  C427  1  0.539700  0.656950  0.636600  1.0  -0.0637
  C  C428  1  0.554400  0.669810  0.601540  1.0  -0.1389
  C  C429  1  0.455500  0.644590  0.696200  1.0  0.7047
  C  C430  1  0.600300  0.692500  0.442840  1.0  0.0798
  C  C431  1  0.595100  0.669650  0.436300  1.0  -0.167
  C  C432  1  0.629000  0.658920  0.401200  1.0  -0.1031
  C  C433  1  0.666400  0.670970  0.374150  1.0  -0.0568
  C  C434  1  0.668500  0.693470  0.379700  1.0  -0.0655
  C  C435  1  0.636400  0.704120  0.413200  1.0  -0.1724
  C  C436  1  0.702800  0.659490  0.336300  1.0  0.6549
  C  C437  1  0.751200  0.513080  0.513480  1.0  0.0251
  C  C438  1  0.732800  0.525950  0.548220  1.0  -0.0917
  C  C439  1  0.734800  0.550070  0.547960  1.0  0.0358
  C  C440  1  0.757500  0.561150  0.511620  1.0  -0.1157
  C  C441  1  0.776700  0.548700  0.476520  1.0  -0.007
  C  C442  1  0.775300  0.524880  0.477940  1.0  -0.0915
  C  C443  1  0.715700  0.563490  0.585790  1.0  0.0522
  C  C444  1  0.760500  0.582710  0.596100  1.0  -0.1617
  C  C445  1  0.745300  0.595380  0.630400  1.0  -0.1027
  C  C446  1  0.684300  0.588570  0.656600  1.0  -0.1545
  C  C447  1  0.641100  0.570470  0.646500  1.0  -0.0574
  C  C448  1  0.656600  0.557330  0.611650  1.0  -0.1792
  C  C449  1  0.669900  0.601900  0.697100  1.0  0.7317
  C  C450  1  0.801800  0.560610  0.437390  1.0  -0.0104
  C  C451  1  0.863900  0.551890  0.414560  1.0  -0.1424
  C  C452  1  0.886800  0.562840  0.378340  1.0  -0.056
  C  C453  1  0.846100  0.582100  0.364350  1.0  -0.1487
  C  C454  1  0.784900  0.590490  0.386980  1.0  -0.0469
  C  C455  1  0.762800  0.579870  0.424290  1.0  -0.1452
  C  C456  1  0.869800  0.592690  0.322800  1.0  0.7319
  C  C457  1  0.489400  0.762390  0.513590  1.0  0.0037
  C  C458  1  0.502100  0.775940  0.549780  1.0  -0.0893
  C  C459  1  0.482300  0.799060  0.550210  1.0  0.0335
  C  C460  1  0.448400  0.809170  0.516820  1.0  -0.1173
  C  C461  1  0.436100  0.796000  0.479700  1.0  0.0228
  C  C462  1  0.456000  0.772630  0.479970  1.0  -0.1205
  C  C463  1  0.498800  0.813040  0.588210  1.0  0.0764
  C  C464  1  0.566300  0.809900  0.611700  1.0  -0.1414
  C  C465  1  0.581100  0.823340  0.646500  1.0  -0.0423
  C  C466  1  0.528100  0.839530  0.658720  1.0  -0.1497
  C  C467  1  0.460300  0.843050  0.636600  1.0  -0.0657
  C  C468  1  0.445600  0.830190  0.601540  1.0  -0.1407
  C  C469  1  0.544500  0.855410  0.696200  1.0  0.7047
  C  C470  1  0.399700  0.807500  0.442840  1.0  0.0795
  C  C471  1  0.404900  0.830350  0.436300  1.0  -0.1667
  C  C472  1  0.371000  0.841080  0.401200  1.0  -0.1019
  C  C473  1  0.333600  0.829030  0.374150  1.0  -0.0582
  C  C474  1  0.331500  0.806530  0.379700  1.0  -0.0637
  C  C475  1  0.363600  0.795880  0.413200  1.0  -0.1718
  C  C476  1  0.297200  0.840510  0.336300  1.0  0.6565
  C  C477  1  0.248800  0.986920  0.513480  1.0  0.0251
  C  C478  1  0.267200  0.974050  0.548220  1.0  -0.0916
  C  C479  1  0.265200  0.949930  0.547960  1.0  0.0356
  C  C480  1  0.242500  0.938850  0.511620  1.0  -0.1158
  C  C481  1  0.223300  0.951300  0.476520  1.0  -0.0074
  C  C482  1  0.224700  0.975120  0.477940  1.0  -0.0918
  C  C483  1  0.284300  0.936510  0.585790  1.0  0.0523
  C  C484  1  0.239500  0.917290  0.596100  1.0  -0.163
  C  C485  1  0.254700  0.904620  0.630400  1.0  -0.1023
  C  C486  1  0.315700  0.911430  0.656600  1.0  -0.153
  C  C487  1  0.358900  0.929530  0.646500  1.0  -0.0555
  C  C488  1  0.343400  0.942670  0.611650  1.0  -0.1805
  C  C489  1  0.330100  0.898100  0.697100  1.0  0.7308
  C  C490  1  0.198200  0.939390  0.437390  1.0  -0.0107
  C  C491  1  0.136100  0.948110  0.414560  1.0  -0.1434
  C  C492  1  0.113200  0.937160  0.378340  1.0  -0.0566
  C  C493  1  0.153900  0.917900  0.364350  1.0  -0.1504
  C  C494  1  0.215100  0.909510  0.386980  1.0  -0.046
  C  C495  1  0.237200  0.920130  0.424290  1.0  -0.1443
  C  C496  1  0.130200  0.907310  0.322800  1.0  0.7328
  C  C497  1  0.989400  0.262390  0.513590  1.0  0.0037
  C  C498  1  0.002100  0.275940  0.549780  1.0  -0.0893
  C  C499  1  0.982300  0.299060  0.550210  1.0  0.0335
  C  C500  1  0.948400  0.309170  0.516820  1.0  -0.1173
  C  C501  1  0.936100  0.296000  0.479700  1.0  0.0228
  C  C502  1  0.956000  0.272630  0.479970  1.0  -0.1205
  C  C503  1  0.998800  0.313040  0.588210  1.0  0.0764
  C  C504  1  0.066300  0.309900  0.611700  1.0  -0.1414
  C  C505  1  0.081100  0.323340  0.646500  1.0  -0.0423
  C  C506  1  0.028100  0.339530  0.658720  1.0  -0.1497
  C  C507  1  0.960300  0.343050  0.636600  1.0  -0.0657
  C  C508  1  0.945600  0.330190  0.601540  1.0  -0.1407
  C  C509  1  0.044500  0.355410  0.696200  1.0  0.7047
  C  C510  1  0.899700  0.307500  0.442840  1.0  0.0795
  C  C511  1  0.904900  0.330350  0.436300  1.0  -0.1667
  C  C512  1  0.871000  0.341080  0.401200  1.0  -0.1019
  C  C513  1  0.833600  0.329030  0.374150  1.0  -0.0582
  C  C514  1  0.831500  0.306530  0.379700  1.0  -0.0637
  C  C515  1  0.863600  0.295880  0.413200  1.0  -0.1718
  C  C516  1  0.797200  0.340510  0.336300  1.0  0.6565
  C  C517  1  0.748800  0.486920  0.513480  1.0  0.0251
  C  C518  1  0.767200  0.474050  0.548220  1.0  -0.0916
  C  C519  1  0.765200  0.449930  0.547960  1.0  0.0356
  C  C520  1  0.742500  0.438850  0.511620  1.0  -0.1158
  C  C521  1  0.723300  0.451300  0.476520  1.0  -0.0074
  C  C522  1  0.724700  0.475120  0.477940  1.0  -0.0918
  C  C523  1  0.784300  0.436510  0.585790  1.0  0.0523
  C  C524  1  0.739500  0.417290  0.596100  1.0  -0.163
  C  C525  1  0.754700  0.404620  0.630400  1.0  -0.1023
  C  C526  1  0.815700  0.411430  0.656600  1.0  -0.153
  C  C527  1  0.858900  0.429530  0.646500  1.0  -0.0555
  C  C528  1  0.843400  0.442670  0.611650  1.0  -0.1805
  C  C529  1  0.830100  0.398100  0.697100  1.0  0.7308
  C  C530  1  0.698200  0.439390  0.437390  1.0  -0.0107
  C  C531  1  0.636100  0.448110  0.414560  1.0  -0.1434
  C  C532  1  0.613200  0.437160  0.378340  1.0  -0.0566
  C  C533  1  0.653900  0.417900  0.364350  1.0  -0.1504
  C  C534  1  0.715100  0.409510  0.386980  1.0  -0.046
  C  C535  1  0.737200  0.420130  0.424290  1.0  -0.1443
  C  C536  1  0.630200  0.407310  0.322800  1.0  0.7328
  C  C537  1  0.989400  0.237610  0.986410  1.0  0.0036
  C  C538  1  0.002100  0.224060  0.950220  1.0  -0.0884
  C  C539  1  0.982300  0.200940  0.949790  1.0  0.0334
  C  C540  1  0.948400  0.190830  0.983180  1.0  -0.1179
  C  C541  1  0.936100  0.204000  0.020300  1.0  0.0226
  C  C542  1  0.956000  0.227370  0.020030  1.0  -0.1209
  C  C543  1  0.998800  0.186960  0.911790  1.0  0.0761
  C  C544  1  0.066300  0.190100  0.888300  1.0  -0.1419
  C  C545  1  0.081100  0.176660  0.853500  1.0  -0.0411
  C  C546  1  0.028100  0.160470  0.841280  1.0  -0.15
  C  C547  1  0.960300  0.156950  0.863400  1.0  -0.065
  C  C548  1  0.945600  0.169810  0.898460  1.0  -0.1406
  C  C549  1  0.044500  0.144590  0.803800  1.0  0.7067
  C  C550  1  0.899700  0.192500  0.057160  1.0  0.0793
  C  C551  1  0.904900  0.169650  0.063700  1.0  -0.1673
  C  C552  1  0.871000  0.158920  0.098800  1.0  -0.1027
  C  C553  1  0.833600  0.170970  0.125850  1.0  -0.057
  C  C554  1  0.831500  0.193470  0.120300  1.0  -0.0646
  C  C555  1  0.863600  0.204120  0.086800  1.0  -0.1711
  C  C556  1  0.797200  0.159490  0.163700  1.0  0.6577
  C  C557  1  0.748800  0.013080  0.986520  1.0  0.0251
  C  C558  1  0.767200  0.025950  0.951780  1.0  -0.0919
  C  C559  1  0.765200  0.050070  0.952040  1.0  0.0358
  C  C560  1  0.742500  0.061150  0.988380  1.0  -0.1158
  C  C561  1  0.723300  0.048700  0.023480  1.0  -0.0079
  C  C562  1  0.724700  0.024880  0.022060  1.0  -0.0927
  C  C563  1  0.784300  0.063490  0.914210  1.0  0.0521
  C  C564  1  0.739500  0.082710  0.903900  1.0  -0.1636
  C  C565  1  0.754700  0.095380  0.869600  1.0  -0.1034
  C  C566  1  0.815700  0.088570  0.843400  1.0  -0.1521
  C  C567  1  0.858900  0.070470  0.853500  1.0  -0.0566
  C  C568  1  0.843400  0.057330  0.888350  1.0  -0.1802
  C  C569  1  0.830100  0.101900  0.802900  1.0  0.7326
  C  C570  1  0.698200  0.060610  0.062610  1.0  -0.0105
  C  C571  1  0.636100  0.051890  0.085440  1.0  -0.1426
  C  C572  1  0.613200  0.062840  0.121660  1.0  -0.0571
  C  C573  1  0.653900  0.082100  0.135650  1.0  -0.1495
  C  C574  1  0.715100  0.090490  0.113020  1.0  -0.0476
  C  C575  1  0.737200  0.079870  0.075710  1.0  -0.144
  C  C576  1  0.630200  0.092690  0.177200  1.0  0.7313
  C  C577  1  0.489400  0.737610  0.986410  1.0  0.0036
  C  C578  1  0.502100  0.724060  0.950220  1.0  -0.0884
  C  C579  1  0.482300  0.700940  0.949790  1.0  0.0334
  C  C580  1  0.448400  0.690830  0.983180  1.0  -0.1179
  C  C581  1  0.436100  0.704000  0.020300  1.0  0.0226
  C  C582  1  0.456000  0.727370  0.020030  1.0  -0.1209
  C  C583  1  0.498800  0.686960  0.911790  1.0  0.0761
  C  C584  1  0.566300  0.690100  0.888300  1.0  -0.1419
  C  C585  1  0.581100  0.676660  0.853500  1.0  -0.0411
  C  C586  1  0.528100  0.660470  0.841280  1.0  -0.15
  C  C587  1  0.460300  0.656950  0.863400  1.0  -0.065
  C  C588  1  0.445600  0.669810  0.898460  1.0  -0.1406
  C  C589  1  0.544500  0.644590  0.803800  1.0  0.7067
  C  C590  1  0.399700  0.692500  0.057160  1.0  0.0793
  C  C591  1  0.404900  0.669650  0.063700  1.0  -0.1673
  C  C592  1  0.371000  0.658920  0.098800  1.0  -0.1027
  C  C593  1  0.333600  0.670970  0.125850  1.0  -0.057
  C  C594  1  0.331500  0.693470  0.120300  1.0  -0.0646
  C  C595  1  0.363600  0.704120  0.086800  1.0  -0.1711
  C  C596  1  0.297200  0.659490  0.163700  1.0  0.6577
  C  C597  1  0.248800  0.513080  0.986520  1.0  0.0251
  C  C598  1  0.267200  0.525950  0.951780  1.0  -0.0919
  C  C599  1  0.265200  0.550070  0.952040  1.0  0.0358
  C  C600  1  0.242500  0.561150  0.988380  1.0  -0.1158
  C  C601  1  0.223300  0.548700  0.023480  1.0  -0.0079
  C  C602  1  0.224700  0.524880  0.022060  1.0  -0.0927
  C  C603  1  0.284300  0.563490  0.914210  1.0  0.0521
  C  C604  1  0.239500  0.582710  0.903900  1.0  -0.1636
  C  C605  1  0.254700  0.595380  0.869600  1.0  -0.1034
  C  C606  1  0.315700  0.588570  0.843400  1.0  -0.1521
  C  C607  1  0.358900  0.570470  0.853500  1.0  -0.0566
  C  C608  1  0.343400  0.557330  0.888350  1.0  -0.1802
  C  C609  1  0.330100  0.601900  0.802900  1.0  0.7326
  C  C610  1  0.198200  0.560610  0.062610  1.0  -0.0105
  C  C611  1  0.136100  0.551890  0.085440  1.0  -0.1426
  C  C612  1  0.113200  0.562840  0.121660  1.0  -0.0571
  C  C613  1  0.153900  0.582100  0.135650  1.0  -0.1495
  C  C614  1  0.215100  0.590490  0.113020  1.0  -0.0476
  C  C615  1  0.237200  0.579870  0.075710  1.0  -0.144
  C  C616  1  0.130200  0.592690  0.177200  1.0  0.7313
  C  C617  1  0.510600  0.762390  0.986410  1.0  0.0033
  C  C618  1  0.497900  0.775940  0.950220  1.0  -0.0887
  C  C619  1  0.517700  0.799060  0.949790  1.0  0.0336
  C  C620  1  0.551600  0.809170  0.983180  1.0  -0.1166
  C  C621  1  0.563900  0.796000  0.020300  1.0  0.0227
  C  C622  1  0.544000  0.772630  0.020030  1.0  -0.1198
  C  C623  1  0.501200  0.813040  0.911790  1.0  0.0752
  C  C624  1  0.433700  0.809900  0.888300  1.0  -0.1414
  C  C625  1  0.418900  0.823340  0.853500  1.0  -0.0423
  C  C626  1  0.471900  0.839530  0.841280  1.0  -0.1495
  C  C627  1  0.539700  0.843050  0.863400  1.0  -0.0646
  C  C628  1  0.554400  0.830190  0.898460  1.0  -0.1392
  C  C629  1  0.455500  0.855410  0.803800  1.0  0.7066
  C  C630  1  0.600300  0.807500  0.057160  1.0  0.0795
  C  C631  1  0.595100  0.830350  0.063700  1.0  -0.1674
  C  C632  1  0.629000  0.841080  0.098800  1.0  -0.1026
  C  C633  1  0.666400  0.829030  0.125850  1.0  -0.0563
  C  C634  1  0.668500  0.806530  0.120300  1.0  -0.0645
  C  C635  1  0.636400  0.795880  0.086800  1.0  -0.1722
  C  C636  1  0.702800  0.840510  0.163700  1.0  0.6559
  C  C637  1  0.751200  0.986920  0.986520  1.0  0.0252
  C  C638  1  0.732800  0.974050  0.951780  1.0  -0.0921
  C  C639  1  0.734800  0.949930  0.952040  1.0  0.0358
  C  C640  1  0.757500  0.938850  0.988380  1.0  -0.1159
  C  C641  1  0.776700  0.951300  0.023480  1.0  -0.0075
  C  C642  1  0.775300  0.975120  0.022060  1.0  -0.0922
  C  C643  1  0.715700  0.936510  0.914210  1.0  0.0521
  C  C644  1  0.760500  0.917290  0.903900  1.0  -0.1615
  C  C645  1  0.745300  0.904620  0.869600  1.0  -0.1029
  C  C646  1  0.684300  0.911430  0.843400  1.0  -0.1521
  C  C647  1  0.641100  0.929530  0.853500  1.0  -0.0576
  C  C648  1  0.656600  0.942670  0.888350  1.0  -0.18
  C  C649  1  0.669900  0.898100  0.802900  1.0  0.7318
  C  C650  1  0.801800  0.939390  0.062610  1.0  -0.0108
  C  C651  1  0.863900  0.948110  0.085440  1.0  -0.1422
  C  C652  1  0.886800  0.937160  0.121660  1.0  -0.0568
  C  C653  1  0.846100  0.917900  0.135650  1.0  -0.1487
  C  C654  1  0.784900  0.909510  0.113020  1.0  -0.0452
  C  C655  1  0.762800  0.920130  0.075710  1.0  -0.1454
  C  C656  1  0.869800  0.907310  0.177200  1.0  0.7299
  C  C657  1  0.010600  0.262390  0.986410  1.0  0.0033
  C  C658  1  0.997900  0.275940  0.950220  1.0  -0.0887
  C  C659  1  0.017700  0.299060  0.949790  1.0  0.0336
  C  C660  1  0.051600  0.309170  0.983180  1.0  -0.1166
  C  C661  1  0.063900  0.296000  0.020300  1.0  0.0227
  C  C662  1  0.044000  0.272630  0.020030  1.0  -0.1198
  C  C663  1  0.001200  0.313040  0.911790  1.0  0.0752
  C  C664  1  0.933700  0.309900  0.888300  1.0  -0.1414
  C  C665  1  0.918900  0.323340  0.853500  1.0  -0.0423
  C  C666  1  0.971900  0.339530  0.841280  1.0  -0.1495
  C  C667  1  0.039700  0.343050  0.863400  1.0  -0.0646
  C  C668  1  0.054400  0.330190  0.898460  1.0  -0.1392
  C  C669  1  0.955500  0.355410  0.803800  1.0  0.7066
  C  C670  1  0.100300  0.307500  0.057160  1.0  0.0795
  C  C671  1  0.095100  0.330350  0.063700  1.0  -0.1674
  C  C672  1  0.129000  0.341080  0.098800  1.0  -0.1026
  C  C673  1  0.166400  0.329030  0.125850  1.0  -0.0563
  C  C674  1  0.168500  0.306530  0.120300  1.0  -0.0645
  C  C675  1  0.136400  0.295880  0.086800  1.0  -0.1722
  C  C676  1  0.202800  0.340510  0.163700  1.0  0.6559
  C  C677  1  0.251200  0.486920  0.986520  1.0  0.0252
  C  C678  1  0.232800  0.474050  0.951780  1.0  -0.0921
  C  C679  1  0.234800  0.449930  0.952040  1.0  0.0358
  C  C680  1  0.257500  0.438850  0.988380  1.0  -0.1159
  C  C681  1  0.276700  0.451300  0.023480  1.0  -0.0075
  C  C682  1  0.275300  0.475120  0.022060  1.0  -0.0922
  C  C683  1  0.215700  0.436510  0.914210  1.0  0.0521
  C  C684  1  0.260500  0.417290  0.903900  1.0  -0.1615
  C  C685  1  0.245300  0.404620  0.869600  1.0  -0.1029
  C  C686  1  0.184300  0.411430  0.843400  1.0  -0.1521
  C  C687  1  0.141100  0.429530  0.853500  1.0  -0.0576
  C  C688  1  0.156600  0.442670  0.888350  1.0  -0.18
  C  C689  1  0.169900  0.398100  0.802900  1.0  0.7318
  C  C690  1  0.301800  0.439390  0.062610  1.0  -0.0108
  C  C691  1  0.363900  0.448110  0.085440  1.0  -0.1422
  C  C692  1  0.386800  0.437160  0.121660  1.0  -0.0568
  C  C693  1  0.346100  0.417900  0.135650  1.0  -0.1487
  C  C694  1  0.284900  0.409510  0.113020  1.0  -0.0452
  C  C695  1  0.262800  0.420130  0.075710  1.0  -0.1454
  C  C696  1  0.369800  0.407310  0.177200  1.0  0.7299
  C  C697  1  0.989400  0.762390  0.486410  1.0  0.0033
  C  C698  1  0.002100  0.775940  0.450220  1.0  -0.0885
  C  C699  1  0.982300  0.799060  0.449790  1.0  0.0336
  C  C700  1  0.948400  0.809170  0.483180  1.0  -0.1173
  C  C701  1  0.936100  0.796000  0.520300  1.0  0.0223
  C  C702  1  0.956000  0.772630  0.520030  1.0  -0.121
  C  C703  1  0.998800  0.813040  0.411790  1.0  0.0762
  C  C704  1  0.066300  0.809900  0.388300  1.0  -0.1416
  C  C705  1  0.081100  0.823340  0.353500  1.0  -0.0422
  C  C706  1  0.028100  0.839530  0.341280  1.0  -0.1495
  C  C707  1  0.960300  0.843050  0.363400  1.0  -0.0657
  C  C708  1  0.945600  0.830190  0.398460  1.0  -0.1411
  C  C709  1  0.044500  0.855410  0.303800  1.0  0.7066
  C  C710  1  0.899700  0.807500  0.557160  1.0  0.0791
  C  C711  1  0.904900  0.830350  0.563700  1.0  -0.1669
  C  C712  1  0.871000  0.841080  0.598800  1.0  -0.102
  C  C713  1  0.833600  0.829030  0.625850  1.0  -0.058
  C  C714  1  0.831500  0.806530  0.620300  1.0  -0.0634
  C  C715  1  0.863600  0.795880  0.586800  1.0  -0.1712
  C  C716  1  0.797200  0.840510  0.663700  1.0  0.6579
  C  C717  1  0.748800  0.986920  0.486520  1.0  0.0252
  C  C718  1  0.767200  0.974050  0.451780  1.0  -0.0921
  C  C719  1  0.765200  0.949930  0.452040  1.0  0.0358
  C  C720  1  0.742500  0.938850  0.488380  1.0  -0.1159
  C  C721  1  0.723300  0.951300  0.523480  1.0  -0.0079
  C  C722  1  0.724700  0.975120  0.522060  1.0  -0.0928
  C  C723  1  0.784300  0.936510  0.414210  1.0  0.0522
  C  C724  1  0.739500  0.917290  0.403900  1.0  -0.1633
  C  C725  1  0.754700  0.904620  0.369600  1.0  -0.1018
  C  C726  1  0.815700  0.911430  0.343400  1.0  -0.152
  C  C727  1  0.858900  0.929530  0.353500  1.0  -0.0559
  C  C728  1  0.843400  0.942670  0.388350  1.0  -0.1805
  C  C729  1  0.830100  0.898100  0.302900  1.0  0.7321
  C  C730  1  0.698200  0.939390  0.562610  1.0  -0.0107
  C  C731  1  0.636100  0.948110  0.585440  1.0  -0.1431
  C  C732  1  0.613200  0.937160  0.621660  1.0  -0.0576
  C  C733  1  0.653900  0.917900  0.635650  1.0  -0.1496
  C  C734  1  0.715100  0.909510  0.613020  1.0  -0.0459
  C  C735  1  0.737200  0.920130  0.575710  1.0  -0.1445
  C  C736  1  0.630200  0.907310  0.677200  1.0  0.7308
  C  C737  1  0.489400  0.262390  0.486410  1.0  0.0033
  C  C738  1  0.502100  0.275940  0.450220  1.0  -0.0885
  C  C739  1  0.482300  0.299060  0.449790  1.0  0.0336
  C  C740  1  0.448400  0.309170  0.483180  1.0  -0.1173
  C  C741  1  0.436100  0.296000  0.520300  1.0  0.0223
  C  C742  1  0.456000  0.272630  0.520030  1.0  -0.121
  C  C743  1  0.498800  0.313040  0.411790  1.0  0.0762
  C  C744  1  0.566300  0.309900  0.388300  1.0  -0.1416
  C  C745  1  0.581100  0.323340  0.353500  1.0  -0.0422
  C  C746  1  0.528100  0.339530  0.341280  1.0  -0.1495
  C  C747  1  0.460300  0.343050  0.363400  1.0  -0.0657
  C  C748  1  0.445600  0.330190  0.398460  1.0  -0.1411
  C  C749  1  0.544500  0.355410  0.303800  1.0  0.7066
  C  C750  1  0.399700  0.307500  0.557160  1.0  0.0791
  C  C751  1  0.404900  0.330350  0.563700  1.0  -0.1669
  C  C752  1  0.371000  0.341080  0.598800  1.0  -0.102
  C  C753  1  0.333600  0.329030  0.625850  1.0  -0.058
  C  C754  1  0.331500  0.306530  0.620300  1.0  -0.0634
  C  C755  1  0.363600  0.295880  0.586800  1.0  -0.1712
  C  C756  1  0.297200  0.340510  0.663700  1.0  0.6579
  C  C757  1  0.248800  0.486920  0.486520  1.0  0.0252
  C  C758  1  0.267200  0.474050  0.451780  1.0  -0.0921
  C  C759  1  0.265200  0.449930  0.452040  1.0  0.0358
  C  C760  1  0.242500  0.438850  0.488380  1.0  -0.1159
  C  C761  1  0.223300  0.451300  0.523480  1.0  -0.0079
  C  C762  1  0.224700  0.475120  0.522060  1.0  -0.0928
  C  C763  1  0.284300  0.436510  0.414210  1.0  0.0522
  C  C764  1  0.239500  0.417290  0.403900  1.0  -0.1633
  C  C765  1  0.254700  0.404620  0.369600  1.0  -0.1018
  C  C766  1  0.315700  0.411430  0.343400  1.0  -0.152
  C  C767  1  0.358900  0.429530  0.353500  1.0  -0.0559
  C  C768  1  0.343400  0.442670  0.388350  1.0  -0.1805
  C  C769  1  0.330100  0.398100  0.302900  1.0  0.7321
  C  C770  1  0.198200  0.439390  0.562610  1.0  -0.0107
  C  C771  1  0.136100  0.448110  0.585440  1.0  -0.1431
  C  C772  1  0.113200  0.437160  0.621660  1.0  -0.0576
  C  C773  1  0.153900  0.417900  0.635650  1.0  -0.1496
  C  C774  1  0.215100  0.409510  0.613020  1.0  -0.0459
  C  C775  1  0.237200  0.420130  0.575710  1.0  -0.1445
  C  C776  1  0.130200  0.407310  0.677200  1.0  0.7308
  C  C777  1  0.510600  0.237610  0.486410  1.0  0.0036
  C  C778  1  0.497900  0.224060  0.450220  1.0  -0.0886
  C  C779  1  0.517700  0.200940  0.449790  1.0  0.0334
  C  C780  1  0.551600  0.190830  0.483180  1.0  -0.1169
  C  C781  1  0.563900  0.204000  0.520300  1.0  0.023
  C  C782  1  0.544000  0.227370  0.520030  1.0  -0.1197
  C  C783  1  0.501200  0.186960  0.411790  1.0  0.0751
  C  C784  1  0.433700  0.190100  0.388300  1.0  -0.1413
  C  C785  1  0.418900  0.176660  0.353500  1.0  -0.0419
  C  C786  1  0.471900  0.160470  0.341280  1.0  -0.1497
  C  C787  1  0.539700  0.156950  0.363400  1.0  -0.0638
  C  C788  1  0.554400  0.169810  0.398460  1.0  -0.1389
  C  C789  1  0.455500  0.144590  0.303800  1.0  0.7066
  C  C790  1  0.600300  0.192500  0.557160  1.0  0.0798
  C  C791  1  0.595100  0.169650  0.563700  1.0  -0.1677
  C  C792  1  0.629000  0.158920  0.598800  1.0  -0.1036
  C  C793  1  0.666400  0.170970  0.625850  1.0  -0.0555
  C  C794  1  0.668500  0.193470  0.620300  1.0  -0.0652
  C  C795  1  0.636400  0.204120  0.586800  1.0  -0.172
  C  C796  1  0.702800  0.159490  0.663700  1.0  0.6557
  C  C797  1  0.751200  0.013080  0.486520  1.0  0.0251
  C  C798  1  0.732800  0.025950  0.451780  1.0  -0.092
  C  C799  1  0.734800  0.050070  0.452040  1.0  0.0357
  C  C800  1  0.757500  0.061150  0.488380  1.0  -0.1159
  C  C801  1  0.776700  0.048700  0.523480  1.0  -0.0075
  C  C802  1  0.775300  0.024880  0.522060  1.0  -0.0922
  C  C803  1  0.715700  0.063490  0.414210  1.0  0.0521
  C  C804  1  0.760500  0.082710  0.403900  1.0  -0.1617
  C  C805  1  0.745300  0.095380  0.369600  1.0  -0.1026
  C  C806  1  0.684300  0.088570  0.343400  1.0  -0.1527
  C  C807  1  0.641100  0.070470  0.353500  1.0  -0.0579
  C  C808  1  0.656600  0.057330  0.388350  1.0  -0.1791
  C  C809  1  0.669900  0.101900  0.302900  1.0  0.7318
  C  C810  1  0.801800  0.060610  0.562610  1.0  -0.0105
  C  C811  1  0.863900  0.051890  0.585440  1.0  -0.1423
  C  C812  1  0.886800  0.062840  0.621660  1.0  -0.0568
  C  C813  1  0.846100  0.082100  0.635650  1.0  -0.1486
  C  C814  1  0.784900  0.090490  0.613020  1.0  -0.0469
  C  C815  1  0.762800  0.079870  0.575710  1.0  -0.1449
  C  C816  1  0.869800  0.092690  0.677200  1.0  0.7304
  C  C817  1  0.010600  0.737610  0.486410  1.0  0.0036
  C  C818  1  0.997900  0.724060  0.450220  1.0  -0.0886
  C  C819  1  0.017700  0.700940  0.449790  1.0  0.0334
  C  C820  1  0.051600  0.690830  0.483180  1.0  -0.1169
  C  C821  1  0.063900  0.704000  0.520300  1.0  0.023
  C  C822  1  0.044000  0.727370  0.520030  1.0  -0.1197
  C  C823  1  0.001200  0.686960  0.411790  1.0  0.0751
  C  C824  1  0.933700  0.690100  0.388300  1.0  -0.1413
  C  C825  1  0.918900  0.676660  0.353500  1.0  -0.0419
  C  C826  1  0.971900  0.660470  0.341280  1.0  -0.1497
  C  C827  1  0.039700  0.656950  0.363400  1.0  -0.0638
  C  C828  1  0.054400  0.669810  0.398460  1.0  -0.1389
  C  C829  1  0.955500  0.644590  0.303800  1.0  0.7066
  C  C830  1  0.100300  0.692500  0.557160  1.0  0.0798
  C  C831  1  0.095100  0.669650  0.563700  1.0  -0.1677
  C  C832  1  0.129000  0.658920  0.598800  1.0  -0.1036
  C  C833  1  0.166400  0.670970  0.625850  1.0  -0.0555
  C  C834  1  0.168500  0.693470  0.620300  1.0  -0.0652
  C  C835  1  0.136400  0.704120  0.586800  1.0  -0.172
  C  C836  1  0.202800  0.659490  0.663700  1.0  0.6557
  C  C837  1  0.251200  0.513080  0.486520  1.0  0.0251
  C  C838  1  0.232800  0.525950  0.451780  1.0  -0.092
  C  C839  1  0.234800  0.550070  0.452040  1.0  0.0357
  C  C840  1  0.257500  0.561150  0.488380  1.0  -0.1159
  C  C841  1  0.276700  0.548700  0.523480  1.0  -0.0075
  C  C842  1  0.275300  0.524880  0.522060  1.0  -0.0922
  C  C843  1  0.215700  0.563490  0.414210  1.0  0.0521
  C  C844  1  0.260500  0.582710  0.403900  1.0  -0.1617
  C  C845  1  0.245300  0.595380  0.369600  1.0  -0.1026
  C  C846  1  0.184300  0.588570  0.343400  1.0  -0.1527
  C  C847  1  0.141100  0.570470  0.353500  1.0  -0.0579
  C  C848  1  0.156600  0.557330  0.388350  1.0  -0.1791
  C  C849  1  0.169900  0.601900  0.302900  1.0  0.7318
  C  C850  1  0.301800  0.560610  0.562610  1.0  -0.0105
  C  C851  1  0.363900  0.551890  0.585440  1.0  -0.1423
  C  C852  1  0.386800  0.562840  0.621660  1.0  -0.0568
  C  C853  1  0.346100  0.582100  0.635650  1.0  -0.1486
  C  C854  1  0.284900  0.590490  0.613020  1.0  -0.0469
  C  C855  1  0.262800  0.579870  0.575710  1.0  -0.1449
  C  C856  1  0.369800  0.592690  0.677200  1.0  0.7304
  C  C857  1  0.010600  0.762390  0.013590  1.0  0.0036
  C  C858  1  0.997900  0.775940  0.049780  1.0  -0.09
  C  C859  1  0.017700  0.799060  0.050210  1.0  0.0335
  C  C860  1  0.051600  0.809170  0.016820  1.0  -0.1167
  C  C861  1  0.063900  0.796000  0.979700  1.0  0.0232
  C  C862  1  0.044000  0.772630  0.979970  1.0  -0.1188
  C  C863  1  0.001200  0.813040  0.088210  1.0  0.0755
  C  C864  1  0.933700  0.809900  0.111700  1.0  -0.141
  C  C865  1  0.918900  0.823340  0.146500  1.0  -0.0425
  C  C866  1  0.971900  0.839530  0.158720  1.0  -0.1496
  C  C867  1  0.039700  0.843050  0.136600  1.0  -0.0644
  C  C868  1  0.054400  0.830190  0.101540  1.0  -0.1391
  C  C869  1  0.955500  0.855410  0.196200  1.0  0.7046
  C  C870  1  0.100300  0.807500  0.942840  1.0  0.0799
  C  C871  1  0.095100  0.830350  0.936300  1.0  -0.167
  C  C872  1  0.129000  0.841080  0.901200  1.0  -0.1025
  C  C873  1  0.166400  0.829030  0.874150  1.0  -0.0563
  C  C874  1  0.168500  0.806530  0.879700  1.0  -0.0654
  C  C875  1  0.136400  0.795880  0.913200  1.0  -0.1725
  C  C876  1  0.202800  0.840510  0.836300  1.0  0.6553
  C  C877  1  0.251200  0.986920  0.013480  1.0  0.0252
  C  C878  1  0.232800  0.974050  0.048220  1.0  -0.0918
  C  C879  1  0.234800  0.949930  0.047960  1.0  0.0358
  C  C880  1  0.257500  0.938850  0.011620  1.0  -0.1157
  C  C881  1  0.276700  0.951300  0.976520  1.0  -0.0071
  C  C882  1  0.275300  0.975120  0.977940  1.0  -0.0916
  C  C883  1  0.215700  0.936510  0.085790  1.0  0.0523
  C  C884  1  0.260500  0.917290  0.096100  1.0  -0.1616
  C  C885  1  0.245300  0.904620  0.130400  1.0  -0.1033
  C  C886  1  0.184300  0.911430  0.156600  1.0  -0.1533
  C  C887  1  0.141100  0.929530  0.146500  1.0  -0.0575
  C  C888  1  0.156600  0.942670  0.111650  1.0  -0.1799
  C  C889  1  0.169900  0.898100  0.197100  1.0  0.7318
  C  C890  1  0.301800  0.939390  0.937390  1.0  -0.0108
  C  C891  1  0.363900  0.948110  0.914560  1.0  -0.1425
  C  C892  1  0.386800  0.937160  0.878340  1.0  -0.0559
  C  C893  1  0.346100  0.917900  0.864350  1.0  -0.1494
  C  C894  1  0.284900  0.909510  0.886980  1.0  -0.0452
  C  C895  1  0.262800  0.920130  0.924290  1.0  -0.1453
  C  C896  1  0.369800  0.907310  0.822800  1.0  0.7324
  C  C897  1  0.510600  0.262390  0.013590  1.0  0.0036
  C  C898  1  0.497900  0.275940  0.049780  1.0  -0.09
  C  C899  1  0.517700  0.299060  0.050210  1.0  0.0335
  C  C900  1  0.551600  0.309170  0.016820  1.0  -0.1167
  C  C901  1  0.563900  0.296000  0.979700  1.0  0.0232
  C  C902  1  0.544000  0.272630  0.979970  1.0  -0.1188
  C  C903  1  0.501200  0.313040  0.088210  1.0  0.0755
  C  C904  1  0.433700  0.309900  0.111700  1.0  -0.141
  C  C905  1  0.418900  0.323340  0.146500  1.0  -0.0425
  C  C906  1  0.471900  0.339530  0.158720  1.0  -0.1496
  C  C907  1  0.539700  0.343050  0.136600  1.0  -0.0644
  C  C908  1  0.554400  0.330190  0.101540  1.0  -0.1391
  C  C909  1  0.455500  0.355410  0.196200  1.0  0.7046
  C  C910  1  0.600300  0.307500  0.942840  1.0  0.0799
  C  C911  1  0.595100  0.330350  0.936300  1.0  -0.167
  C  C912  1  0.629000  0.341080  0.901200  1.0  -0.1025
  C  C913  1  0.666400  0.329030  0.874150  1.0  -0.0563
  C  C914  1  0.668500  0.306530  0.879700  1.0  -0.0654
  C  C915  1  0.636400  0.295880  0.913200  1.0  -0.1725
  C  C916  1  0.702800  0.340510  0.836300  1.0  0.6553
  C  C917  1  0.751200  0.486920  0.013480  1.0  0.0252
  C  C918  1  0.732800  0.474050  0.048220  1.0  -0.0918
  C  C919  1  0.734800  0.449930  0.047960  1.0  0.0358
  C  C920  1  0.757500  0.438850  0.011620  1.0  -0.1157
  C  C921  1  0.776700  0.451300  0.976520  1.0  -0.0071
  C  C922  1  0.775300  0.475120  0.977940  1.0  -0.0916
  C  C923  1  0.715700  0.436510  0.085790  1.0  0.0523
  C  C924  1  0.760500  0.417290  0.096100  1.0  -0.1616
  C  C925  1  0.745300  0.404620  0.130400  1.0  -0.1033
  C  C926  1  0.684300  0.411430  0.156600  1.0  -0.1533
  C  C927  1  0.641100  0.429530  0.146500  1.0  -0.0575
  C  C928  1  0.656600  0.442670  0.111650  1.0  -0.1799
  C  C929  1  0.669900  0.398100  0.197100  1.0  0.7318
  C  C930  1  0.801800  0.439390  0.937390  1.0  -0.0108
  C  C931  1  0.863900  0.448110  0.914560  1.0  -0.1425
  C  C932  1  0.886800  0.437160  0.878340  1.0  -0.0559
  C  C933  1  0.846100  0.417900  0.864350  1.0  -0.1494
  C  C934  1  0.784900  0.409510  0.886980  1.0  -0.0452
  C  C935  1  0.762800  0.420130  0.924290  1.0  -0.1453
  C  C936  1  0.869800  0.407310  0.822800  1.0  0.7324
  C  C937  1  0.489400  0.237610  0.013590  1.0  0.0039
  C  C938  1  0.502100  0.224060  0.049780  1.0  -0.0888
  C  C939  1  0.482300  0.200940  0.050210  1.0  0.0334
  C  C940  1  0.448400  0.190830  0.016820  1.0  -0.118
  C  C941  1  0.436100  0.204000  0.979700  1.0  0.0231
  C  C942  1  0.456000  0.227370  0.979970  1.0  -0.1207
  C  C943  1  0.498800  0.186960  0.088210  1.0  0.0763
  C  C944  1  0.566300  0.190100  0.111700  1.0  -0.1417
  C  C945  1  0.581100  0.176660  0.146500  1.0  -0.0417
  C  C946  1  0.528100  0.160470  0.158720  1.0  -0.15
  C  C947  1  0.460300  0.156950  0.136600  1.0  -0.065
  C  C948  1  0.445600  0.169810  0.101540  1.0  -0.1403
  C  C949  1  0.544500  0.144590  0.196200  1.0  0.7048
  C  C950  1  0.399700  0.192500  0.942840  1.0  0.0795
  C  C951  1  0.404900  0.169650  0.936300  1.0  -0.1669
  C  C952  1  0.371000  0.158920  0.901200  1.0  -0.1022
  C  C953  1  0.333600  0.170970  0.874150  1.0  -0.0591
  C  C954  1  0.331500  0.193470  0.879700  1.0  -0.0641
  C  C955  1  0.363600  0.204120  0.913200  1.0  -0.1717
  C  C956  1  0.297200  0.159490  0.836300  1.0  0.6562
  C  C957  1  0.248800  0.013080  0.013480  1.0  0.0251
  C  C958  1  0.267200  0.025950  0.048220  1.0  -0.0914
  C  C959  1  0.265200  0.050070  0.047960  1.0  0.0356
  C  C960  1  0.242500  0.061150  0.011620  1.0  -0.1155
  C  C961  1  0.223300  0.048700  0.976520  1.0  -0.0074
  C  C962  1  0.224700  0.024880  0.977940  1.0  -0.0917
  C  C963  1  0.284300  0.063490  0.085790  1.0  0.0522
  C  C964  1  0.239500  0.082710  0.096100  1.0  -0.1634
  C  C965  1  0.254700  0.095380  0.130400  1.0  -0.1035
  C  C966  1  0.315700  0.088570  0.156600  1.0  -0.1539
  C  C967  1  0.358900  0.070470  0.146500  1.0  -0.0555
  C  C968  1  0.343400  0.057330  0.111650  1.0  -0.1801
  C  C969  1  0.330100  0.101900  0.197100  1.0  0.7312
  C  C970  1  0.198200  0.060610  0.937390  1.0  -0.0104
  C  C971  1  0.136100  0.051890  0.914560  1.0  -0.1428
  C  C972  1  0.113200  0.062840  0.878340  1.0  -0.0562
  C  C973  1  0.153900  0.082100  0.864350  1.0  -0.1496
  C  C974  1  0.215100  0.090490  0.886980  1.0  -0.0475
  C  C975  1  0.237200  0.079870  0.924290  1.0  -0.144
  C  C976  1  0.130200  0.092690  0.822800  1.0  0.7324
  C  C977  1  0.989400  0.737610  0.013590  1.0  0.0039
  C  C978  1  0.002100  0.724060  0.049780  1.0  -0.0888
  C  C979  1  0.982300  0.700940  0.050210  1.0  0.0334
  C  C980  1  0.948400  0.690830  0.016820  1.0  -0.118
  C  C981  1  0.936100  0.704000  0.979700  1.0  0.0231
  C  C982  1  0.956000  0.727370  0.979970  1.0  -0.1207
  C  C983  1  0.998800  0.686960  0.088210  1.0  0.0763
  C  C984  1  0.066300  0.690100  0.111700  1.0  -0.1417
  C  C985  1  0.081100  0.676660  0.146500  1.0  -0.0417
  C  C986  1  0.028100  0.660470  0.158720  1.0  -0.15
  C  C987  1  0.960300  0.656950  0.136600  1.0  -0.065
  C  C988  1  0.945600  0.669810  0.101540  1.0  -0.1403
  C  C989  1  0.044500  0.644590  0.196200  1.0  0.7048
  C  C990  1  0.899700  0.692500  0.942840  1.0  0.0795
  C  C991  1  0.904900  0.669650  0.936300  1.0  -0.1669
  C  C992  1  0.871000  0.658920  0.901200  1.0  -0.1022
  C  C993  1  0.833600  0.670970  0.874150  1.0  -0.0591
  C  C994  1  0.831500  0.693470  0.879700  1.0  -0.0641
  C  C995  1  0.863600  0.704120  0.913200  1.0  -0.1717
  C  C996  1  0.797200  0.659490  0.836300  1.0  0.6562
  C  C997  1  0.748800  0.513080  0.013480  1.0  0.0251
  C  C998  1  0.767200  0.525950  0.048220  1.0  -0.0914
  C  C999  1  0.765200  0.550070  0.047960  1.0  0.0356
  C  C1000  1  0.742500  0.561150  0.011620  1.0  -0.1155
  C  C1001  1  0.723300  0.548700  0.976520  1.0  -0.0074
  C  C1002  1  0.724700  0.524880  0.977940  1.0  -0.0917
  C  C1003  1  0.784300  0.563490  0.085790  1.0  0.0522
  C  C1004  1  0.739500  0.582710  0.096100  1.0  -0.1634
  C  C1005  1  0.754700  0.595380  0.130400  1.0  -0.1035
  C  C1006  1  0.815700  0.588570  0.156600  1.0  -0.1539
  C  C1007  1  0.858900  0.570470  0.146500  1.0  -0.0555
  C  C1008  1  0.843400  0.557330  0.111650  1.0  -0.1801
  C  C1009  1  0.830100  0.601900  0.197100  1.0  0.7312
  C  C1010  1  0.698200  0.560610  0.937390  1.0  -0.0104
  C  C1011  1  0.636100  0.551890  0.914560  1.0  -0.1428
  C  C1012  1  0.613200  0.562840  0.878340  1.0  -0.0562
  C  C1013  1  0.653900  0.582100  0.864350  1.0  -0.1496
  C  C1014  1  0.715100  0.590490  0.886980  1.0  -0.0475
  C  C1015  1  0.737200  0.579870  0.924290  1.0  -0.144
  C  C1016  1  0.630200  0.592690  0.822800  1.0  0.7324
  O  O1017  1  0.004200  0.130010  0.704920  1.0  -0.6211
  O  O1018  1  0.892100  0.148600  0.714270  1.0  -0.7585
  O  O1019  1  0.196400  0.137890  0.333640  1.0  -0.6945
  O  O1020  1  0.232200  0.170220  0.308710  1.0  -0.6103
  O  O1021  1  0.114700  0.094850  0.718630  1.0  -0.707
  O  O1022  1  0.210000  0.117950  0.705400  1.0  -0.6326
  O  O1023  1  0.324200  0.107000  0.309100  1.0  -0.7594
  O  O1024  1  0.431600  0.086460  0.307020  1.0  -0.6788
  O  O1025  1  0.504200  0.630010  0.704920  1.0  -0.6211
  O  O1026  1  0.392100  0.648600  0.714270  1.0  -0.7585
  O  O1027  1  0.696400  0.637890  0.333640  1.0  -0.6945
  O  O1028  1  0.732200  0.670220  0.308710  1.0  -0.6103
  O  O1029  1  0.614700  0.594850  0.718630  1.0  -0.707
  O  O1030  1  0.710000  0.617950  0.705400  1.0  -0.6326
  O  O1031  1  0.824200  0.607000  0.309100  1.0  -0.7594
  O  O1032  1  0.931600  0.586460  0.307020  1.0  -0.6788
  O  O1033  1  0.495800  0.869990  0.704920  1.0  -0.6219
  O  O1034  1  0.607900  0.851400  0.714270  1.0  -0.7578
  O  O1035  1  0.303600  0.862110  0.333640  1.0  -0.6943
  O  O1036  1  0.267800  0.829780  0.308710  1.0  -0.6086
  O  O1037  1  0.385300  0.905150  0.718630  1.0  -0.7085
  O  O1038  1  0.290000  0.882050  0.705400  1.0  -0.6336
  O  O1039  1  0.175800  0.893000  0.309100  1.0  -0.7585
  O  O1040  1  0.068400  0.913540  0.307020  1.0  -0.6765
  O  O1041  1  0.995800  0.369990  0.704920  1.0  -0.6219
  O  O1042  1  0.107900  0.351400  0.714270  1.0  -0.7578
  O  O1043  1  0.803600  0.362110  0.333640  1.0  -0.6943
  O  O1044  1  0.767800  0.329780  0.308710  1.0  -0.6086
  O  O1045  1  0.885300  0.405150  0.718630  1.0  -0.7085
  O  O1046  1  0.790000  0.382050  0.705400  1.0  -0.6336
  O  O1047  1  0.675800  0.393000  0.309100  1.0  -0.7585
  O  O1048  1  0.568400  0.413540  0.307020  1.0  -0.6765
  O  O1049  1  0.995800  0.130010  0.795080  1.0  -0.6219
  O  O1050  1  0.107900  0.148600  0.785730  1.0  -0.759
  O  O1051  1  0.803600  0.137890  0.166360  1.0  -0.6973
  O  O1052  1  0.767800  0.170220  0.191290  1.0  -0.6066
  O  O1053  1  0.885300  0.094850  0.781370  1.0  -0.7082
  O  O1054  1  0.790000  0.117950  0.794600  1.0  -0.6344
  O  O1055  1  0.675800  0.107000  0.190900  1.0  -0.7588
  O  O1056  1  0.568400  0.086460  0.192980  1.0  -0.6786
  O  O1057  1  0.495800  0.630010  0.795080  1.0  -0.6219
  O  O1058  1  0.607900  0.648600  0.785730  1.0  -0.759
  O  O1059  1  0.303600  0.637890  0.166360  1.0  -0.6973
  O  O1060  1  0.267800  0.670220  0.191290  1.0  -0.6066
  O  O1061  1  0.385300  0.594850  0.781370  1.0  -0.7082
  O  O1062  1  0.290000  0.617950  0.794600  1.0  -0.6344
  O  O1063  1  0.175800  0.607000  0.190900  1.0  -0.7588
  O  O1064  1  0.068400  0.586460  0.192980  1.0  -0.6786
  O  O1065  1  0.504200  0.869990  0.795080  1.0  -0.6214
  O  O1066  1  0.392100  0.851400  0.785730  1.0  -0.7593
  O  O1067  1  0.696400  0.862110  0.166360  1.0  -0.6951
  O  O1068  1  0.732200  0.829780  0.191290  1.0  -0.6071
  O  O1069  1  0.614700  0.905150  0.781370  1.0  -0.706
  O  O1070  1  0.710000  0.882050  0.794600  1.0  -0.6331
  O  O1071  1  0.824200  0.893000  0.190900  1.0  -0.7601
  O  O1072  1  0.931600  0.913540  0.192980  1.0  -0.6796
  O  O1073  1  0.004200  0.369990  0.795080  1.0  -0.6214
  O  O1074  1  0.892100  0.351400  0.785730  1.0  -0.7593
  O  O1075  1  0.196400  0.362110  0.166360  1.0  -0.6951
  O  O1076  1  0.232200  0.329780  0.191290  1.0  -0.6071
  O  O1077  1  0.114700  0.405150  0.781370  1.0  -0.706
  O  O1078  1  0.210000  0.382050  0.794600  1.0  -0.6331
  O  O1079  1  0.324200  0.393000  0.190900  1.0  -0.7601
  O  O1080  1  0.431600  0.413540  0.192980  1.0  -0.6796
  O  O1081  1  0.995800  0.869990  0.295080  1.0  -0.6227
  O  O1082  1  0.107900  0.851400  0.285730  1.0  -0.7594
  O  O1083  1  0.803600  0.862110  0.666360  1.0  -0.6939
  O  O1084  1  0.767800  0.829780  0.691290  1.0  -0.608
  O  O1085  1  0.885300  0.905150  0.281370  1.0  -0.7075
  O  O1086  1  0.790000  0.882050  0.294600  1.0  -0.6339
  O  O1087  1  0.675800  0.893000  0.690900  1.0  -0.7603
  O  O1088  1  0.568400  0.913540  0.692980  1.0  -0.6776
  O  O1089  1  0.495800  0.369990  0.295080  1.0  -0.6227
  O  O1090  1  0.607900  0.351400  0.285730  1.0  -0.7594
  O  O1091  1  0.303600  0.362110  0.666360  1.0  -0.6939
  O  O1092  1  0.267800  0.329780  0.691290  1.0  -0.608
  O  O1093  1  0.385300  0.405150  0.281370  1.0  -0.7075
  O  O1094  1  0.290000  0.382050  0.294600  1.0  -0.6339
  O  O1095  1  0.175800  0.393000  0.690900  1.0  -0.7603
  O  O1096  1  0.068400  0.413540  0.692980  1.0  -0.6776
  O  O1097  1  0.504200  0.130010  0.295080  1.0  -0.6217
  O  O1098  1  0.392100  0.148600  0.285730  1.0  -0.759
  O  O1099  1  0.696400  0.137890  0.666360  1.0  -0.694
  O  O1100  1  0.732200  0.170220  0.691290  1.0  -0.6064
  O  O1101  1  0.614700  0.094850  0.281370  1.0  -0.7069
  O  O1102  1  0.710000  0.117950  0.294600  1.0  -0.6326
  O  O1103  1  0.824200  0.107000  0.690900  1.0  -0.7606
  O  O1104  1  0.931600  0.086460  0.692980  1.0  -0.6799
  O  O1105  1  0.004200  0.630010  0.295080  1.0  -0.6217
  O  O1106  1  0.892100  0.648600  0.285730  1.0  -0.759
  O  O1107  1  0.196400  0.637890  0.666360  1.0  -0.694
  O  O1108  1  0.232200  0.670220  0.691290  1.0  -0.6064
  O  O1109  1  0.114700  0.594850  0.281370  1.0  -0.7069
  O  O1110  1  0.210000  0.617950  0.294600  1.0  -0.6326
  O  O1111  1  0.324200  0.607000  0.690900  1.0  -0.7606
  O  O1112  1  0.431600  0.586460  0.692980  1.0  -0.6799
  O  O1113  1  0.004200  0.869990  0.204920  1.0  -0.622
  O  O1114  1  0.892100  0.851400  0.214270  1.0  -0.7579
  O  O1115  1  0.196400  0.862110  0.833640  1.0  -0.6958
  O  O1116  1  0.232200  0.829780  0.808710  1.0  -0.6083
  O  O1117  1  0.114700  0.905150  0.218630  1.0  -0.7073
  O  O1118  1  0.210000  0.882050  0.205400  1.0  -0.633
  O  O1119  1  0.324200  0.893000  0.809100  1.0  -0.761
  O  O1120  1  0.431600  0.913540  0.807020  1.0  -0.6798
  O  O1121  1  0.504200  0.369990  0.204920  1.0  -0.622
  O  O1122  1  0.392100  0.351400  0.214270  1.0  -0.7579
  O  O1123  1  0.696400  0.362110  0.833640  1.0  -0.6958
  O  O1124  1  0.732200  0.329780  0.808710  1.0  -0.6083
  O  O1125  1  0.614700  0.405150  0.218630  1.0  -0.7073
  O  O1126  1  0.710000  0.382050  0.205400  1.0  -0.633
  O  O1127  1  0.824200  0.393000  0.809100  1.0  -0.761
  O  O1128  1  0.931600  0.413540  0.807020  1.0  -0.6798
  O  O1129  1  0.495800  0.130010  0.204920  1.0  -0.6223
  O  O1130  1  0.607900  0.148600  0.214270  1.0  -0.7579
  O  O1131  1  0.303600  0.137890  0.833640  1.0  -0.6967
  O  O1132  1  0.267800  0.170220  0.808710  1.0  -0.6098
  O  O1133  1  0.385300  0.094850  0.218630  1.0  -0.7076
  O  O1134  1  0.290000  0.117950  0.205400  1.0  -0.6346
  O  O1135  1  0.175800  0.107000  0.809100  1.0  -0.7598
  O  O1136  1  0.068400  0.086460  0.807020  1.0  -0.6783
  O  O1137  1  0.995800  0.630010  0.204920  1.0  -0.6223
  O  O1138  1  0.107900  0.648600  0.214270  1.0  -0.7579
  O  O1139  1  0.803600  0.637890  0.833640  1.0  -0.6967
  O  O1140  1  0.767800  0.670220  0.808710  1.0  -0.6098
  O  O1141  1  0.885300  0.594850  0.218630  1.0  -0.7076
  O  O1142  1  0.790000  0.617950  0.205400  1.0  -0.6346
  O  O1143  1  0.675800  0.607000  0.809100  1.0  -0.7598
  O  O1144  1  0.568400  0.586460  0.807020  1.0  -0.6783
