# generated using pymatgen
data_Ho3H44(C5O)16
_symmetry_space_group_name_H-M   'P 1'
_cell_length_a   16.32570000
_cell_length_b   59.16770000
_cell_length_c   32.15080000
_cell_angle_alpha   90.00000000
_cell_angle_beta   90.00000000
_cell_angle_gamma   90.00000000
_symmetry_Int_Tables_number   1
_chemical_formula_structural   Ho3H44(C5O)16
_chemical_formula_sum   'Ho24 H352 C640 O128'
_cell_volume   31056.19771776
_cell_formula_units_Z   8
loop_
 _symmetry_equiv_pos_site_id
 _symmetry_equiv_pos_as_xyz
  1  'x, y, z'
loop_
 _atom_site_type_symbol
 _atom_site_label
 _atom_site_symmetry_multiplicity
 _atom_site_fract_x
 _atom_site_fract_y
 _atom_site_fract_z
 _atom_site_occupancy
 _atom_site_charge
  Ho  Ho1  1  0.761370  0.134270  0.729490  1.0  2.1201
  Ho  Ho2  1  0.261370  0.634270  0.729490  1.0  2.1201
  Ho  Ho3  1  0.738630  0.865730  0.729490  1.0  2.119
  Ho  Ho4  1  0.238630  0.365730  0.729490  1.0  2.119
  Ho  Ho5  1  0.238630  0.134270  0.770510  1.0  2.1171
  Ho  Ho6  1  0.738630  0.634270  0.770510  1.0  2.1171
  Ho  Ho7  1  0.261370  0.865730  0.770510  1.0  2.1185
  Ho  Ho8  1  0.761370  0.365730  0.770510  1.0  2.1185
  Ho  Ho9  1  0.238630  0.865730  0.270510  1.0  2.1175
  Ho  Ho10  1  0.738630  0.365730  0.270510  1.0  2.1175
  Ho  Ho11  1  0.261370  0.134270  0.270510  1.0  2.1179
  Ho  Ho12  1  0.761370  0.634270  0.270510  1.0  2.1179
  Ho  Ho13  1  0.761370  0.865730  0.229490  1.0  2.1202
  Ho  Ho14  1  0.261370  0.365730  0.229490  1.0  2.1202
  Ho  Ho15  1  0.738630  0.134270  0.229490  1.0  2.1192
  Ho  Ho16  1  0.238630  0.634270  0.229490  1.0  2.1192
  Ho  Ho17  1  0.000000  0.099870  0.750000  1.0  2.2122
  Ho  Ho18  1  0.500000  0.599870  0.750000  1.0  2.2122
  Ho  Ho19  1  0.500000  0.900130  0.750000  1.0  2.2111
  Ho  Ho20  1  0.000000  0.400130  0.750000  1.0  2.2111
  Ho  Ho21  1  0.000000  0.900130  0.250000  1.0  2.2111
  Ho  Ho22  1  0.500000  0.400130  0.250000  1.0  2.2111
  Ho  Ho23  1  0.500000  0.099870  0.250000  1.0  2.2122
  Ho  Ho24  1  0.000000  0.599870  0.250000  1.0  2.2122
  H  H25  1  0.976200  0.231200  0.574800  1.0  0.099
  H  H26  1  0.066300  0.176100  0.517900  1.0  0.0963
  H  H27  1  0.051300  0.235900  0.457200  1.0  0.0987
  H  H28  1  0.895500  0.200900  0.605200  1.0  0.0988
  H  H29  1  0.868300  0.177900  0.661300  1.0  0.0928
  H  H30  1  0.079800  0.146000  0.643900  1.0  0.1003
  H  H31  1  0.105200  0.168600  0.587500  1.0  0.0966
  H  H32  1  0.071700  0.161100  0.459000  1.0  0.0974
  H  H33  1  0.124600  0.143500  0.401100  1.0  0.0987
  H  H34  1  0.193900  0.201800  0.358200  1.0  0.085
  H  H35  1  0.136100  0.220000  0.414700  1.0  0.0924
  H  H36  1  0.217100  0.018400  0.572900  1.0  0.0978
  H  H37  1  0.265200  0.076400  0.511500  1.0  0.1086
  H  H38  1  0.289000  0.016700  0.454500  1.0  0.0997
  H  H39  1  0.309800  0.086200  0.579400  1.0  0.1003
  H  H40  1  0.286600  0.106400  0.638600  1.0  0.1065
  H  H41  1  0.097500  0.066400  0.664400  1.0  0.0883
  H  H42  1  0.126500  0.044500  0.606900  1.0  0.1016
  H  H43  1  0.395600  0.039300  0.422800  1.0  0.1077
  H  H44  1  0.430800  0.056800  0.362300  1.0  0.0986
  H  H45  1  0.251600  0.102300  0.378500  1.0  0.1017
  H  H46  1  0.220800  0.085400  0.441400  1.0  0.0994
  H  H47  1  0.476200  0.731200  0.574800  1.0  0.099
  H  H48  1  0.566300  0.676100  0.517900  1.0  0.0963
  H  H49  1  0.551300  0.735900  0.457200  1.0  0.0987
  H  H50  1  0.395500  0.700900  0.605200  1.0  0.0988
  H  H51  1  0.368300  0.677900  0.661300  1.0  0.0928
  H  H52  1  0.579800  0.646000  0.643900  1.0  0.1003
  H  H53  1  0.605200  0.668600  0.587500  1.0  0.0966
  H  H54  1  0.571700  0.661100  0.459000  1.0  0.0974
  H  H55  1  0.624600  0.643500  0.401100  1.0  0.0987
  H  H56  1  0.693900  0.701800  0.358200  1.0  0.085
  H  H57  1  0.636100  0.720000  0.414700  1.0  0.0924
  H  H58  1  0.717100  0.518400  0.572900  1.0  0.0978
  H  H59  1  0.765200  0.576400  0.511500  1.0  0.1086
  H  H60  1  0.789000  0.516700  0.454500  1.0  0.0997
  H  H61  1  0.809800  0.586200  0.579400  1.0  0.1003
  H  H62  1  0.786600  0.606400  0.638600  1.0  0.1065
  H  H63  1  0.597500  0.566400  0.664400  1.0  0.0883
  H  H64  1  0.626500  0.544500  0.606900  1.0  0.1016
  H  H65  1  0.895600  0.539300  0.422800  1.0  0.1077
  H  H66  1  0.930800  0.556800  0.362300  1.0  0.0986
  H  H67  1  0.751600  0.602300  0.378500  1.0  0.1017
  H  H68  1  0.720800  0.585400  0.441400  1.0  0.0994
  H  H69  1  0.523800  0.768800  0.574800  1.0  0.0994
  H  H70  1  0.433700  0.823900  0.517900  1.0  0.0956
  H  H71  1  0.448700  0.764100  0.457200  1.0  0.0988
  H  H72  1  0.604500  0.799100  0.605200  1.0  0.0991
  H  H73  1  0.631700  0.822100  0.661300  1.0  0.0931
  H  H74  1  0.420200  0.854000  0.643900  1.0  0.1002
  H  H75  1  0.394800  0.831400  0.587500  1.0  0.0971
  H  H76  1  0.428300  0.838900  0.459000  1.0  0.0969
  H  H77  1  0.375400  0.856500  0.401100  1.0  0.0995
  H  H78  1  0.306100  0.798200  0.358200  1.0  0.0843
  H  H79  1  0.363900  0.780000  0.414700  1.0  0.0944
  H  H80  1  0.282900  0.981600  0.572900  1.0  0.0978
  H  H81  1  0.234800  0.923600  0.511500  1.0  0.1094
  H  H82  1  0.211000  0.983300  0.454500  1.0  0.0992
  H  H83  1  0.190200  0.913800  0.579400  1.0  0.1001
  H  H84  1  0.213400  0.893600  0.638600  1.0  0.1057
  H  H85  1  0.402500  0.933600  0.664400  1.0  0.0882
  H  H86  1  0.373500  0.955500  0.606900  1.0  0.102
  H  H87  1  0.104400  0.960700  0.422800  1.0  0.1077
  H  H88  1  0.069200  0.943200  0.362300  1.0  0.0988
  H  H89  1  0.248400  0.897700  0.378500  1.0  0.1022
  H  H90  1  0.279200  0.914600  0.441400  1.0  0.099
  H  H91  1  0.023800  0.268800  0.574800  1.0  0.0994
  H  H92  1  0.933700  0.323900  0.517900  1.0  0.0956
  H  H93  1  0.948700  0.264100  0.457200  1.0  0.0988
  H  H94  1  0.104500  0.299100  0.605200  1.0  0.0991
  H  H95  1  0.131700  0.322100  0.661300  1.0  0.0931
  H  H96  1  0.920200  0.354000  0.643900  1.0  0.1002
  H  H97  1  0.894800  0.331400  0.587500  1.0  0.0971
  H  H98  1  0.928300  0.338900  0.459000  1.0  0.0969
  H  H99  1  0.875400  0.356500  0.401100  1.0  0.0995
  H  H100  1  0.806100  0.298200  0.358200  1.0  0.0843
  H  H101  1  0.863900  0.280000  0.414700  1.0  0.0944
  H  H102  1  0.782900  0.481600  0.572900  1.0  0.0978
  H  H103  1  0.734800  0.423600  0.511500  1.0  0.1094
  H  H104  1  0.711000  0.483300  0.454500  1.0  0.0992
  H  H105  1  0.690200  0.413800  0.579400  1.0  0.1001
  H  H106  1  0.713400  0.393600  0.638600  1.0  0.1057
  H  H107  1  0.902500  0.433600  0.664400  1.0  0.0882
  H  H108  1  0.873500  0.455500  0.606900  1.0  0.102
  H  H109  1  0.604400  0.460700  0.422800  1.0  0.1077
  H  H110  1  0.569200  0.443200  0.362300  1.0  0.0987
  H  H111  1  0.748400  0.397700  0.378500  1.0  0.1022
  H  H112  1  0.779200  0.414600  0.441400  1.0  0.099
  H  H113  1  0.023800  0.231200  0.925200  1.0  0.0989
  H  H114  1  0.933700  0.176100  0.982100  1.0  0.0959
  H  H115  1  0.948700  0.235900  0.042800  1.0  0.0989
  H  H116  1  0.104500  0.200900  0.894800  1.0  0.0987
  H  H117  1  0.131700  0.177900  0.838700  1.0  0.0925
  H  H118  1  0.920200  0.146000  0.856100  1.0  0.1005
  H  H119  1  0.894800  0.168600  0.912500  1.0  0.0971
  H  H120  1  0.928300  0.161100  0.041000  1.0  0.0976
  H  H121  1  0.875400  0.143500  0.098900  1.0  0.0997
  H  H122  1  0.806100  0.201800  0.141800  1.0  0.0852
  H  H123  1  0.863900  0.220000  0.085300  1.0  0.0922
  H  H124  1  0.782900  0.018400  0.927100  1.0  0.0979
  H  H125  1  0.734800  0.076400  0.988500  1.0  0.1089
  H  H126  1  0.711000  0.016700  0.045500  1.0  0.1
  H  H127  1  0.690200  0.086200  0.920600  1.0  0.0998
  H  H128  1  0.713400  0.106400  0.861400  1.0  0.1067
  H  H129  1  0.902500  0.066400  0.835600  1.0  0.0883
  H  H130  1  0.873500  0.044500  0.893100  1.0  0.1015
  H  H131  1  0.604400  0.039300  0.077200  1.0  0.1074
  H  H132  1  0.569200  0.056800  0.137700  1.0  0.0989
  H  H133  1  0.748400  0.102300  0.121500  1.0  0.1015
  H  H134  1  0.779200  0.085400  0.058600  1.0  0.0997
  H  H135  1  0.523800  0.731200  0.925200  1.0  0.0989
  H  H136  1  0.433700  0.676100  0.982100  1.0  0.0959
  H  H137  1  0.448700  0.735900  0.042800  1.0  0.0989
  H  H138  1  0.604500  0.700900  0.894800  1.0  0.0987
  H  H139  1  0.631700  0.677900  0.838700  1.0  0.0925
  H  H140  1  0.420200  0.646000  0.856100  1.0  0.1005
  H  H141  1  0.394800  0.668600  0.912500  1.0  0.0971
  H  H142  1  0.428300  0.661100  0.041000  1.0  0.0976
  H  H143  1  0.375400  0.643500  0.098900  1.0  0.0997
  H  H144  1  0.306100  0.701800  0.141800  1.0  0.0852
  H  H145  1  0.363900  0.720000  0.085300  1.0  0.0922
  H  H146  1  0.282900  0.518400  0.927100  1.0  0.0979
  H  H147  1  0.234800  0.576400  0.988500  1.0  0.1089
  H  H148  1  0.211000  0.516700  0.045500  1.0  0.1
  H  H149  1  0.190200  0.586200  0.920600  1.0  0.0998
  H  H150  1  0.213400  0.606400  0.861400  1.0  0.1067
  H  H151  1  0.402500  0.566400  0.835600  1.0  0.0883
  H  H152  1  0.373500  0.544500  0.893100  1.0  0.1015
  H  H153  1  0.104400  0.539300  0.077200  1.0  0.1074
  H  H154  1  0.069200  0.556800  0.137700  1.0  0.0989
  H  H155  1  0.248400  0.602300  0.121500  1.0  0.1015
  H  H156  1  0.279200  0.585400  0.058600  1.0  0.0997
  H  H157  1  0.476200  0.768800  0.925200  1.0  0.0992
  H  H158  1  0.566300  0.823900  0.982100  1.0  0.0957
  H  H159  1  0.551300  0.764100  0.042800  1.0  0.0995
  H  H160  1  0.395500  0.799100  0.894800  1.0  0.0986
  H  H161  1  0.368300  0.822100  0.838700  1.0  0.0925
  H  H162  1  0.579800  0.854000  0.856100  1.0  0.0999
  H  H163  1  0.605200  0.831400  0.912500  1.0  0.0968
  H  H164  1  0.571700  0.838900  0.041000  1.0  0.098
  H  H165  1  0.624600  0.856500  0.098900  1.0  0.0992
  H  H166  1  0.693900  0.798200  0.141800  1.0  0.0849
  H  H167  1  0.636100  0.780000  0.085300  1.0  0.0939
  H  H168  1  0.717100  0.981600  0.927100  1.0  0.0976
  H  H169  1  0.765200  0.923600  0.988500  1.0  0.109
  H  H170  1  0.789000  0.983300  0.045500  1.0  0.0998
  H  H171  1  0.809800  0.913800  0.920600  1.0  0.0995
  H  H172  1  0.786600  0.893600  0.861400  1.0  0.1067
  H  H173  1  0.597500  0.933600  0.835600  1.0  0.0885
  H  H174  1  0.626500  0.955500  0.893100  1.0  0.1019
  H  H175  1  0.895600  0.960700  0.077200  1.0  0.1075
  H  H176  1  0.930800  0.943200  0.137700  1.0  0.0987
  H  H177  1  0.751600  0.897700  0.121500  1.0  0.1018
  H  H178  1  0.720800  0.914600  0.058600  1.0  0.0995
  H  H179  1  0.976200  0.268800  0.925200  1.0  0.0992
  H  H180  1  0.066300  0.323900  0.982100  1.0  0.0957
  H  H181  1  0.051300  0.264100  0.042800  1.0  0.0995
  H  H182  1  0.895500  0.299100  0.894800  1.0  0.0986
  H  H183  1  0.868300  0.322100  0.838700  1.0  0.0925
  H  H184  1  0.079800  0.354000  0.856100  1.0  0.0999
  H  H185  1  0.105200  0.331400  0.912500  1.0  0.0968
  H  H186  1  0.071700  0.338900  0.041000  1.0  0.098
  H  H187  1  0.124600  0.356500  0.098900  1.0  0.0992
  H  H188  1  0.193900  0.298200  0.141800  1.0  0.0849
  H  H189  1  0.136100  0.280000  0.085300  1.0  0.0939
  H  H190  1  0.217100  0.481600  0.927100  1.0  0.0976
  H  H191  1  0.265200  0.423600  0.988500  1.0  0.109
  H  H192  1  0.289000  0.483300  0.045500  1.0  0.0998
  H  H193  1  0.309800  0.413800  0.920600  1.0  0.0995
  H  H194  1  0.286600  0.393600  0.861400  1.0  0.1067
  H  H195  1  0.097500  0.433600  0.835600  1.0  0.0885
  H  H196  1  0.126500  0.455500  0.893100  1.0  0.1019
  H  H197  1  0.395600  0.460700  0.077200  1.0  0.1075
  H  H198  1  0.430800  0.443200  0.137700  1.0  0.0986
  H  H199  1  0.251600  0.397700  0.121500  1.0  0.1018
  H  H200  1  0.220800  0.414600  0.058600  1.0  0.0995
  H  H201  1  0.023800  0.768800  0.425200  1.0  0.0991
  H  H202  1  0.933700  0.823900  0.482100  1.0  0.0956
  H  H203  1  0.948700  0.764100  0.542800  1.0  0.0994
  H  H204  1  0.104500  0.799100  0.394800  1.0  0.0989
  H  H205  1  0.131700  0.822100  0.338700  1.0  0.0926
  H  H206  1  0.920200  0.854000  0.356100  1.0  0.1005
  H  H207  1  0.894800  0.831400  0.412500  1.0  0.0969
  H  H208  1  0.928300  0.838900  0.541000  1.0  0.098
  H  H209  1  0.875400  0.856500  0.598900  1.0  0.0998
  H  H210  1  0.806100  0.798200  0.641800  1.0  0.0845
  H  H211  1  0.863900  0.780000  0.585300  1.0  0.0944
  H  H212  1  0.782900  0.981600  0.427100  1.0  0.0977
  H  H213  1  0.734800  0.923600  0.488500  1.0  0.1094
  H  H214  1  0.711000  0.983300  0.545500  1.0  0.0997
  H  H215  1  0.690200  0.913800  0.420600  1.0  0.0999
  H  H216  1  0.713400  0.893600  0.361400  1.0  0.1059
  H  H217  1  0.902500  0.933600  0.335600  1.0  0.0885
  H  H218  1  0.873500  0.955500  0.393100  1.0  0.102
  H  H219  1  0.604400  0.960700  0.577200  1.0  0.1079
  H  H220  1  0.569200  0.943200  0.637700  1.0  0.0987
  H  H221  1  0.748400  0.897700  0.621500  1.0  0.1019
  H  H222  1  0.779200  0.914600  0.558600  1.0  0.099
  H  H223  1  0.523800  0.268800  0.425200  1.0  0.0991
  H  H224  1  0.433700  0.323900  0.482100  1.0  0.0956
  H  H225  1  0.448700  0.264100  0.542800  1.0  0.0994
  H  H226  1  0.604500  0.299100  0.394800  1.0  0.0989
  H  H227  1  0.631700  0.322100  0.338700  1.0  0.0926
  H  H228  1  0.420200  0.354000  0.356100  1.0  0.1005
  H  H229  1  0.394800  0.331400  0.412500  1.0  0.0969
  H  H230  1  0.428300  0.338900  0.541000  1.0  0.098
  H  H231  1  0.375400  0.356500  0.598900  1.0  0.0998
  H  H232  1  0.306100  0.298200  0.641800  1.0  0.0845
  H  H233  1  0.363900  0.280000  0.585300  1.0  0.0944
  H  H234  1  0.282900  0.481600  0.427100  1.0  0.0977
  H  H235  1  0.234800  0.423600  0.488500  1.0  0.1094
  H  H236  1  0.211000  0.483300  0.545500  1.0  0.0997
  H  H237  1  0.190200  0.413800  0.420600  1.0  0.0999
  H  H238  1  0.213400  0.393600  0.361400  1.0  0.1059
  H  H239  1  0.402500  0.433600  0.335600  1.0  0.0885
  H  H240  1  0.373500  0.455500  0.393100  1.0  0.102
  H  H241  1  0.104400  0.460700  0.577200  1.0  0.1079
  H  H242  1  0.069200  0.443200  0.637700  1.0  0.0987
  H  H243  1  0.248400  0.397700  0.621500  1.0  0.1019
  H  H244  1  0.279200  0.414600  0.558600  1.0  0.099
  H  H245  1  0.476200  0.231200  0.425200  1.0  0.099
  H  H246  1  0.566300  0.176100  0.482100  1.0  0.0962
  H  H247  1  0.551300  0.235900  0.542800  1.0  0.0993
  H  H248  1  0.395500  0.200900  0.394800  1.0  0.0986
  H  H249  1  0.368300  0.177900  0.338700  1.0  0.0926
  H  H250  1  0.579800  0.146000  0.356100  1.0  0.1005
  H  H251  1  0.605200  0.168600  0.412500  1.0  0.0968
  H  H252  1  0.571700  0.161100  0.541000  1.0  0.0976
  H  H253  1  0.624600  0.143500  0.598900  1.0  0.099
  H  H254  1  0.693900  0.201800  0.641800  1.0  0.0853
  H  H255  1  0.636100  0.220000  0.585300  1.0  0.0922
  H  H256  1  0.717100  0.018400  0.427100  1.0  0.0977
  H  H257  1  0.765200  0.076400  0.488500  1.0  0.1084
  H  H258  1  0.789000  0.016700  0.545500  1.0  0.1001
  H  H259  1  0.809800  0.086200  0.420600  1.0  0.0999
  H  H260  1  0.786600  0.106400  0.361400  1.0  0.1069
  H  H261  1  0.597500  0.066400  0.335600  1.0  0.0882
  H  H262  1  0.626500  0.044500  0.393100  1.0  0.1014
  H  H263  1  0.895600  0.039300  0.577200  1.0  0.1078
  H  H264  1  0.930800  0.056800  0.637700  1.0  0.0991
  H  H265  1  0.751600  0.102300  0.621500  1.0  0.1015
  H  H266  1  0.720800  0.085400  0.558600  1.0  0.1
  H  H267  1  0.976200  0.731200  0.425200  1.0  0.099
  H  H268  1  0.066300  0.676100  0.482100  1.0  0.0962
  H  H269  1  0.051300  0.735900  0.542800  1.0  0.0993
  H  H270  1  0.895500  0.700900  0.394800  1.0  0.0986
  H  H271  1  0.868300  0.677900  0.338700  1.0  0.0926
  H  H272  1  0.079800  0.646000  0.356100  1.0  0.1005
  H  H273  1  0.105200  0.668600  0.412500  1.0  0.0968
  H  H274  1  0.071700  0.661100  0.541000  1.0  0.0976
  H  H275  1  0.124600  0.643500  0.598900  1.0  0.099
  H  H276  1  0.193900  0.701800  0.641800  1.0  0.0853
  H  H277  1  0.136100  0.720000  0.585300  1.0  0.0922
  H  H278  1  0.217100  0.518400  0.427100  1.0  0.0977
  H  H279  1  0.265200  0.576400  0.488500  1.0  0.1084
  H  H280  1  0.289000  0.516700  0.545500  1.0  0.1001
  H  H281  1  0.309800  0.586200  0.420600  1.0  0.0999
  H  H282  1  0.286600  0.606400  0.361400  1.0  0.1069
  H  H283  1  0.097500  0.566400  0.335600  1.0  0.0882
  H  H284  1  0.126500  0.544500  0.393100  1.0  0.1014
  H  H285  1  0.395600  0.539300  0.577200  1.0  0.1078
  H  H286  1  0.430800  0.556800  0.637700  1.0  0.0991
  H  H287  1  0.251600  0.602300  0.621500  1.0  0.1015
  H  H288  1  0.220800  0.585400  0.558600  1.0  0.1
  H  H289  1  0.976200  0.768800  0.074800  1.0  0.0993
  H  H290  1  0.066300  0.823900  0.017900  1.0  0.0958
  H  H291  1  0.051300  0.764100  0.957200  1.0  0.099
  H  H292  1  0.895500  0.799100  0.105200  1.0  0.0987
  H  H293  1  0.868300  0.822100  0.161300  1.0  0.0931
  H  H294  1  0.079800  0.854000  0.143900  1.0  0.0997
  H  H295  1  0.105200  0.831400  0.087500  1.0  0.097
  H  H296  1  0.071700  0.838900  0.959000  1.0  0.0968
  H  H297  1  0.124600  0.856500  0.901100  1.0  0.0989
  H  H298  1  0.193900  0.798200  0.858200  1.0  0.0843
  H  H299  1  0.136100  0.780000  0.914700  1.0  0.0941
  H  H300  1  0.217100  0.981600  0.072900  1.0  0.0977
  H  H301  1  0.265200  0.923600  0.011500  1.0  0.109
  H  H302  1  0.289000  0.983300  0.954500  1.0  0.0994
  H  H303  1  0.309800  0.913800  0.079400  1.0  0.0998
  H  H304  1  0.286600  0.893600  0.138600  1.0  0.1062
  H  H305  1  0.097500  0.933600  0.164400  1.0  0.0882
  H  H306  1  0.126500  0.955500  0.106900  1.0  0.102
  H  H307  1  0.395600  0.960700  0.922800  1.0  0.1074
  H  H308  1  0.430800  0.943200  0.862300  1.0  0.0987
  H  H309  1  0.251600  0.897700  0.878500  1.0  0.1019
  H  H310  1  0.220800  0.914600  0.941400  1.0  0.0995
  H  H311  1  0.476200  0.268800  0.074800  1.0  0.0993
  H  H312  1  0.566300  0.323900  0.017900  1.0  0.0958
  H  H313  1  0.551300  0.264100  0.957200  1.0  0.099
  H  H314  1  0.395500  0.299100  0.105200  1.0  0.0987
  H  H315  1  0.368300  0.322100  0.161300  1.0  0.0931
  H  H316  1  0.579800  0.354000  0.143900  1.0  0.0997
  H  H317  1  0.605200  0.331400  0.087500  1.0  0.097
  H  H318  1  0.571700  0.338900  0.959000  1.0  0.0968
  H  H319  1  0.624600  0.356500  0.901100  1.0  0.0989
  H  H320  1  0.693900  0.298200  0.858200  1.0  0.0843
  H  H321  1  0.636100  0.280000  0.914700  1.0  0.0941
  H  H322  1  0.717100  0.481600  0.072900  1.0  0.0977
  H  H323  1  0.765200  0.423600  0.011500  1.0  0.109
  H  H324  1  0.789000  0.483300  0.954500  1.0  0.0994
  H  H325  1  0.809800  0.413800  0.079400  1.0  0.0998
  H  H326  1  0.786600  0.393600  0.138600  1.0  0.1062
  H  H327  1  0.597500  0.433600  0.164400  1.0  0.0882
  H  H328  1  0.626500  0.455500  0.106900  1.0  0.102
  H  H329  1  0.895600  0.460700  0.922800  1.0  0.1074
  H  H330  1  0.930800  0.443200  0.862300  1.0  0.0987
  H  H331  1  0.751600  0.397700  0.878500  1.0  0.1019
  H  H332  1  0.720800  0.414600  0.941400  1.0  0.0995
  H  H333  1  0.523800  0.231200  0.074800  1.0  0.0992
  H  H334  1  0.433700  0.176100  0.017900  1.0  0.0961
  H  H335  1  0.448700  0.235900  0.957200  1.0  0.0985
  H  H336  1  0.604500  0.200900  0.105200  1.0  0.0987
  H  H337  1  0.631700  0.177900  0.161300  1.0  0.0928
  H  H338  1  0.420200  0.146000  0.143900  1.0  0.1001
  H  H339  1  0.394800  0.168600  0.087500  1.0  0.097
  H  H340  1  0.428300  0.161100  0.959000  1.0  0.0971
  H  H341  1  0.375400  0.143500  0.901100  1.0  0.0998
  H  H342  1  0.306100  0.201800  0.858200  1.0  0.0852
  H  H343  1  0.363900  0.220000  0.914700  1.0  0.0923
  H  H344  1  0.282900  0.018400  0.072900  1.0  0.0978
  H  H345  1  0.234800  0.076400  0.011500  1.0  0.1091
  H  H346  1  0.211000  0.016700  0.954500  1.0  0.0995
  H  H347  1  0.190200  0.086200  0.079400  1.0  0.1003
  H  H348  1  0.213400  0.106400  0.138600  1.0  0.1064
  H  H349  1  0.402500  0.066400  0.164400  1.0  0.0886
  H  H350  1  0.373500  0.044500  0.106900  1.0  0.1018
  H  H351  1  0.104400  0.039300  0.922800  1.0  0.1072
  H  H352  1  0.069200  0.056800  0.862300  1.0  0.0986
  H  H353  1  0.248400  0.102300  0.878500  1.0  0.1018
  H  H354  1  0.279200  0.085400  0.941400  1.0  0.0991
  H  H355  1  0.023800  0.731200  0.074800  1.0  0.0992
  H  H356  1  0.933700  0.676100  0.017900  1.0  0.0961
  H  H357  1  0.948700  0.735900  0.957200  1.0  0.0985
  H  H358  1  0.104500  0.700900  0.105200  1.0  0.0987
  H  H359  1  0.131700  0.677900  0.161300  1.0  0.0928
  H  H360  1  0.920200  0.646000  0.143900  1.0  0.1001
  H  H361  1  0.894800  0.668600  0.087500  1.0  0.097
  H  H362  1  0.928300  0.661100  0.959000  1.0  0.0971
  H  H363  1  0.875400  0.643500  0.901100  1.0  0.0998
  H  H364  1  0.806100  0.701800  0.858200  1.0  0.0852
  H  H365  1  0.863900  0.720000  0.914700  1.0  0.0923
  H  H366  1  0.782900  0.518400  0.072900  1.0  0.0978
  H  H367  1  0.734800  0.576400  0.011500  1.0  0.1091
  H  H368  1  0.711000  0.516700  0.954500  1.0  0.0995
  H  H369  1  0.690200  0.586200  0.079400  1.0  0.1003
  H  H370  1  0.713400  0.606400  0.138600  1.0  0.1064
  H  H371  1  0.902500  0.566400  0.164400  1.0  0.0886
  H  H372  1  0.873500  0.544500  0.106900  1.0  0.1018
  H  H373  1  0.604400  0.539300  0.922800  1.0  0.1072
  H  H374  1  0.569200  0.556800  0.862300  1.0  0.0985
  H  H375  1  0.748400  0.602300  0.878500  1.0  0.1018
  H  H376  1  0.779200  0.585400  0.941400  1.0  0.0991
  C  C377  1  0.009800  0.237600  0.515690  1.0  -0.0053
  C  C378  1  0.997720  0.224390  0.551140  1.0  -0.0849
  C  C379  1  0.017100  0.200970  0.552310  1.0  0.0297
  C  C380  1  0.051600  0.191240  0.517420  1.0  -0.1985
  C  C381  1  0.064800  0.204010  0.481230  1.0  -0.0209
  C  C382  1  0.042900  0.227370  0.481140  1.0  -0.1109
  C  C383  1  0.002500  0.187160  0.589320  1.0  0.0655
  C  C384  1  0.932900  0.189730  0.612450  1.0  -0.1428
  C  C385  1  0.916600  0.176100  0.646360  1.0  -0.0842
  C  C386  1  0.972700  0.159650  0.658080  1.0  -0.1695
  C  C387  1  0.041900  0.157010  0.636210  1.0  -0.0534
  C  C388  1  0.056800  0.170620  0.602260  1.0  -0.1326
  C  C389  1  0.956000  0.144290  0.695310  1.0  0.7495
  C  C390  1  0.099500  0.192730  0.443930  1.0  0.0434
  C  C391  1  0.096400  0.169850  0.438570  1.0  -0.1208
  C  C392  1  0.128800  0.159070  0.403740  1.0  -0.1196
  C  C393  1  0.165500  0.171080  0.374410  1.0  -0.1701
  C  C394  1  0.168400  0.193250  0.378730  1.0  -0.0559
  C  C395  1  0.134300  0.204340  0.413240  1.0  -0.1564
  C  C396  1  0.200200  0.159470  0.336770  1.0  0.609
  C  C397  1  0.253000  0.012990  0.513980  1.0  0.0163
  C  C398  1  0.233700  0.025720  0.548710  1.0  -0.1018
  C  C399  1  0.238500  0.049710  0.548570  1.0  0.0459
  C  C400  1  0.261400  0.060700  0.512160  1.0  -0.1167
  C  C401  1  0.278300  0.048230  0.477000  1.0  0.0167
  C  C402  1  0.275400  0.024790  0.478300  1.0  -0.0806
  C  C403  1  0.220700  0.062900  0.586350  1.0  0.0738
  C  C404  1  0.267600  0.081800  0.597070  1.0  -0.143
  C  C405  1  0.254000  0.094000  0.632470  1.0  -0.0784
  C  C406  1  0.192400  0.087840  0.658690  1.0  -0.1962
  C  C407  1  0.142500  0.069890  0.647840  1.0  -0.0782
  C  C408  1  0.158400  0.057110  0.612690  1.0  -0.1397
  C  C409  1  0.180500  0.101510  0.698590  1.0  0.7169
  C  C410  1  0.303000  0.060240  0.437880  1.0  0.0269
  C  C411  1  0.366700  0.052030  0.414050  1.0  -0.1517
  C  C412  1  0.387400  0.062350  0.377980  1.0  -0.0676
  C  C413  1  0.344400  0.081220  0.364060  1.0  -0.154
  C  C414  1  0.281100  0.089730  0.387590  1.0  -0.0661
  C  C415  1  0.262000  0.079400  0.424840  1.0  -0.1336
  C  C416  1  0.365300  0.092570  0.323110  1.0  0.7453
  C  C417  1  0.509800  0.737600  0.515690  1.0  -0.0053
  C  C418  1  0.497720  0.724390  0.551140  1.0  -0.0849
  C  C419  1  0.517100  0.700970  0.552310  1.0  0.0297
  C  C420  1  0.551600  0.691240  0.517420  1.0  -0.1985
  C  C421  1  0.564800  0.704010  0.481230  1.0  -0.0209
  C  C422  1  0.542900  0.727370  0.481140  1.0  -0.1109
  C  C423  1  0.502500  0.687160  0.589320  1.0  0.0655
  C  C424  1  0.432900  0.689730  0.612450  1.0  -0.1428
  C  C425  1  0.416600  0.676100  0.646360  1.0  -0.0842
  C  C426  1  0.472700  0.659650  0.658080  1.0  -0.1695
  C  C427  1  0.541900  0.657010  0.636210  1.0  -0.0534
  C  C428  1  0.556800  0.670620  0.602260  1.0  -0.1326
  C  C429  1  0.456000  0.644290  0.695310  1.0  0.7495
  C  C430  1  0.599500  0.692730  0.443930  1.0  0.0434
  C  C431  1  0.596400  0.669850  0.438570  1.0  -0.1208
  C  C432  1  0.628800  0.659070  0.403740  1.0  -0.1196
  C  C433  1  0.665500  0.671080  0.374410  1.0  -0.1701
  C  C434  1  0.668400  0.693250  0.378730  1.0  -0.0559
  C  C435  1  0.634300  0.704340  0.413240  1.0  -0.1564
  C  C436  1  0.700200  0.659470  0.336770  1.0  0.609
  C  C437  1  0.753000  0.512990  0.513980  1.0  0.0163
  C  C438  1  0.733700  0.525720  0.548710  1.0  -0.1018
  C  C439  1  0.738500  0.549710  0.548570  1.0  0.0459
  C  C440  1  0.761400  0.560700  0.512160  1.0  -0.1167
  C  C441  1  0.778300  0.548230  0.477000  1.0  0.0167
  C  C442  1  0.775400  0.524790  0.478300  1.0  -0.0806
  C  C443  1  0.720700  0.562900  0.586350  1.0  0.0738
  C  C444  1  0.767600  0.581800  0.597070  1.0  -0.143
  C  C445  1  0.754000  0.594000  0.632470  1.0  -0.0784
  C  C446  1  0.692400  0.587840  0.658690  1.0  -0.1962
  C  C447  1  0.642500  0.569890  0.647840  1.0  -0.0782
  C  C448  1  0.658400  0.557110  0.612690  1.0  -0.1397
  C  C449  1  0.680500  0.601510  0.698590  1.0  0.7169
  C  C450  1  0.803000  0.560240  0.437880  1.0  0.0269
  C  C451  1  0.866700  0.552030  0.414050  1.0  -0.1517
  C  C452  1  0.887400  0.562350  0.377980  1.0  -0.0676
  C  C453  1  0.844400  0.581220  0.364060  1.0  -0.154
  C  C454  1  0.781100  0.589730  0.387590  1.0  -0.0661
  C  C455  1  0.762000  0.579400  0.424840  1.0  -0.1336
  C  C456  1  0.865300  0.592570  0.323110  1.0  0.7453
  C  C457  1  0.490200  0.762400  0.515690  1.0  -0.0053
  C  C458  1  0.502280  0.775610  0.551140  1.0  -0.0843
  C  C459  1  0.482900  0.799030  0.552310  1.0  0.0291
  C  C460  1  0.448400  0.808760  0.517420  1.0  -0.1979
  C  C461  1  0.435200  0.795990  0.481230  1.0  -0.021
  C  C462  1  0.457100  0.772630  0.481140  1.0  -0.1096
  C  C463  1  0.497500  0.812840  0.589320  1.0  0.0654
  C  C464  1  0.567100  0.810270  0.612450  1.0  -0.1423
  C  C465  1  0.583400  0.823900  0.646360  1.0  -0.0844
  C  C466  1  0.527300  0.840350  0.658080  1.0  -0.1691
  C  C467  1  0.458100  0.842990  0.636210  1.0  -0.0543
  C  C468  1  0.443200  0.829380  0.602260  1.0  -0.1341
  C  C469  1  0.544000  0.855710  0.695310  1.0  0.7498
  C  C470  1  0.400500  0.807270  0.443930  1.0  0.0431
  C  C471  1  0.403600  0.830150  0.438570  1.0  -0.1205
  C  C472  1  0.371200  0.840930  0.403740  1.0  -0.1197
  C  C473  1  0.334500  0.828920  0.374410  1.0  -0.1706
  C  C474  1  0.331600  0.806750  0.378730  1.0  -0.0559
  C  C475  1  0.365700  0.795660  0.413240  1.0  -0.1546
  C  C476  1  0.299800  0.840530  0.336770  1.0  0.6097
  C  C477  1  0.247000  0.987010  0.513980  1.0  0.016
  C  C478  1  0.266300  0.974280  0.548710  1.0  -0.1017
  C  C479  1  0.261500  0.950290  0.548570  1.0  0.0459
  C  C480  1  0.238600  0.939300  0.512160  1.0  -0.1169
  C  C481  1  0.221700  0.951770  0.477000  1.0  0.0168
  C  C482  1  0.224600  0.975210  0.478300  1.0  -0.0813
  C  C483  1  0.279300  0.937100  0.586350  1.0  0.074
  C  C484  1  0.232400  0.918200  0.597070  1.0  -0.1444
  C  C485  1  0.246000  0.906000  0.632470  1.0  -0.0792
  C  C486  1  0.307600  0.912160  0.658690  1.0  -0.195
  C  C487  1  0.357500  0.930110  0.647840  1.0  -0.0772
  C  C488  1  0.341600  0.942890  0.612690  1.0  -0.1406
  C  C489  1  0.319500  0.898490  0.698590  1.0  0.7155
  C  C490  1  0.197000  0.939760  0.437880  1.0  0.0271
  C  C491  1  0.133300  0.947970  0.414050  1.0  -0.153
  C  C492  1  0.112600  0.937650  0.377980  1.0  -0.0675
  C  C493  1  0.155600  0.918780  0.364060  1.0  -0.1536
  C  C494  1  0.218900  0.910270  0.387590  1.0  -0.0665
  C  C495  1  0.238000  0.920600  0.424840  1.0  -0.1322
  C  C496  1  0.134700  0.907430  0.323110  1.0  0.745
  C  C497  1  0.990200  0.262400  0.515690  1.0  -0.0053
  C  C498  1  0.002280  0.275610  0.551140  1.0  -0.0843
  C  C499  1  0.982900  0.299030  0.552310  1.0  0.0291
  C  C500  1  0.948400  0.308760  0.517420  1.0  -0.1979
  C  C501  1  0.935200  0.295990  0.481230  1.0  -0.021
  C  C502  1  0.957100  0.272630  0.481140  1.0  -0.1096
  C  C503  1  0.997500  0.312840  0.589320  1.0  0.0654
  C  C504  1  0.067100  0.310270  0.612450  1.0  -0.1423
  C  C505  1  0.083400  0.323900  0.646360  1.0  -0.0844
  C  C506  1  0.027300  0.340350  0.658080  1.0  -0.1691
  C  C507  1  0.958100  0.342990  0.636210  1.0  -0.0543
  C  C508  1  0.943200  0.329380  0.602260  1.0  -0.1341
  C  C509  1  0.044000  0.355710  0.695310  1.0  0.7498
  C  C510  1  0.900500  0.307270  0.443930  1.0  0.0431
  C  C511  1  0.903600  0.330150  0.438570  1.0  -0.1205
  C  C512  1  0.871200  0.340930  0.403740  1.0  -0.1197
  C  C513  1  0.834500  0.328920  0.374410  1.0  -0.1706
  C  C514  1  0.831600  0.306750  0.378730  1.0  -0.0559
  C  C515  1  0.865700  0.295660  0.413240  1.0  -0.1546
  C  C516  1  0.799800  0.340530  0.336770  1.0  0.6097
  C  C517  1  0.747000  0.487010  0.513980  1.0  0.016
  C  C518  1  0.766300  0.474280  0.548710  1.0  -0.1017
  C  C519  1  0.761500  0.450290  0.548570  1.0  0.0459
  C  C520  1  0.738600  0.439300  0.512160  1.0  -0.1169
  C  C521  1  0.721700  0.451770  0.477000  1.0  0.0168
  C  C522  1  0.724600  0.475210  0.478300  1.0  -0.0813
  C  C523  1  0.779300  0.437100  0.586350  1.0  0.074
  C  C524  1  0.732400  0.418200  0.597070  1.0  -0.1444
  C  C525  1  0.746000  0.406000  0.632470  1.0  -0.0792
  C  C526  1  0.807600  0.412160  0.658690  1.0  -0.195
  C  C527  1  0.857500  0.430110  0.647840  1.0  -0.0772
  C  C528  1  0.841600  0.442890  0.612690  1.0  -0.1406
  C  C529  1  0.819500  0.398490  0.698590  1.0  0.7155
  C  C530  1  0.697000  0.439760  0.437880  1.0  0.0271
  C  C531  1  0.633300  0.447970  0.414050  1.0  -0.153
  C  C532  1  0.612600  0.437650  0.377980  1.0  -0.0675
  C  C533  1  0.655600  0.418780  0.364060  1.0  -0.1536
  C  C534  1  0.718900  0.410270  0.387590  1.0  -0.0665
  C  C535  1  0.738000  0.420600  0.424840  1.0  -0.1322
  C  C536  1  0.634700  0.407430  0.323110  1.0  0.745
  C  C537  1  0.990200  0.237600  0.984310  1.0  -0.0052
  C  C538  1  0.002280  0.224390  0.948860  1.0  -0.084
  C  C539  1  0.982900  0.200970  0.947690  1.0  0.0297
  C  C540  1  0.948400  0.191240  0.982580  1.0  -0.1993
  C  C541  1  0.935200  0.204010  0.018770  1.0  -0.0217
  C  C542  1  0.957100  0.227370  0.018860  1.0  -0.1101
  C  C543  1  0.997500  0.187160  0.910680  1.0  0.0654
  C  C544  1  0.067100  0.189730  0.887550  1.0  -0.1426
  C  C545  1  0.083400  0.176100  0.853640  1.0  -0.0849
  C  C546  1  0.027300  0.159650  0.841920  1.0  -0.1686
  C  C547  1  0.958100  0.157010  0.863790  1.0  -0.0532
  C  C548  1  0.943200  0.170620  0.897740  1.0  -0.135
  C  C549  1  0.044000  0.144290  0.804690  1.0  0.7506
  C  C550  1  0.900500  0.192730  0.056070  1.0  0.0431
  C  C551  1  0.903600  0.169850  0.061430  1.0  -0.1205
  C  C552  1  0.871200  0.159070  0.096260  1.0  -0.1191
  C  C553  1  0.834500  0.171080  0.125590  1.0  -0.1679
  C  C554  1  0.831600  0.193250  0.121270  1.0  -0.0565
  C  C555  1  0.865700  0.204340  0.086760  1.0  -0.1569
  C  C556  1  0.799800  0.159470  0.163230  1.0  0.6113
  C  C557  1  0.747000  0.012990  0.986020  1.0  0.0163
  C  C558  1  0.766300  0.025720  0.951290  1.0  -0.1012
  C  C559  1  0.761500  0.049710  0.951430  1.0  0.0465
  C  C560  1  0.738600  0.060700  0.987840  1.0  -0.1174
  C  C561  1  0.721700  0.048230  0.023000  1.0  0.0157
  C  C562  1  0.724600  0.024790  0.021700  1.0  -0.0813
  C  C563  1  0.779300  0.062900  0.913650  1.0  0.074
  C  C564  1  0.732400  0.081800  0.902930  1.0  -0.1444
  C  C565  1  0.746000  0.094000  0.867530  1.0  -0.0794
  C  C566  1  0.807600  0.087840  0.841310  1.0  -0.1942
  C  C567  1  0.857500  0.069890  0.852160  1.0  -0.078
  C  C568  1  0.841600  0.057110  0.887310  1.0  -0.1403
  C  C569  1  0.819500  0.101510  0.801410  1.0  0.7157
  C  C570  1  0.697000  0.060240  0.062120  1.0  0.0271
  C  C571  1  0.633300  0.052030  0.085950  1.0  -0.1515
  C  C572  1  0.612600  0.062350  0.122020  1.0  -0.0676
  C  C573  1  0.655600  0.081220  0.135940  1.0  -0.1545
  C  C574  1  0.718900  0.089730  0.112410  1.0  -0.0662
  C  C575  1  0.738000  0.079400  0.075160  1.0  -0.1329
  C  C576  1  0.634700  0.092570  0.176890  1.0  0.7455
  C  C577  1  0.490200  0.737600  0.984310  1.0  -0.0052
  C  C578  1  0.502280  0.724390  0.948860  1.0  -0.084
  C  C579  1  0.482900  0.700970  0.947690  1.0  0.0297
  C  C580  1  0.448400  0.691240  0.982580  1.0  -0.1993
  C  C581  1  0.435200  0.704010  0.018770  1.0  -0.0217
  C  C582  1  0.457100  0.727370  0.018860  1.0  -0.1101
  C  C583  1  0.497500  0.687160  0.910680  1.0  0.0654
  C  C584  1  0.567100  0.689730  0.887550  1.0  -0.1426
  C  C585  1  0.583400  0.676100  0.853640  1.0  -0.0849
  C  C586  1  0.527300  0.659650  0.841920  1.0  -0.1686
  C  C587  1  0.458100  0.657010  0.863790  1.0  -0.0532
  C  C588  1  0.443200  0.670620  0.897740  1.0  -0.135
  C  C589  1  0.544000  0.644290  0.804690  1.0  0.7506
  C  C590  1  0.400500  0.692730  0.056070  1.0  0.0431
  C  C591  1  0.403600  0.669850  0.061430  1.0  -0.1205
  C  C592  1  0.371200  0.659070  0.096260  1.0  -0.1191
  C  C593  1  0.334500  0.671080  0.125590  1.0  -0.1679
  C  C594  1  0.331600  0.693250  0.121270  1.0  -0.0565
  C  C595  1  0.365700  0.704340  0.086760  1.0  -0.1569
  C  C596  1  0.299800  0.659470  0.163230  1.0  0.6113
  C  C597  1  0.247000  0.512990  0.986020  1.0  0.0163
  C  C598  1  0.266300  0.525720  0.951290  1.0  -0.1012
  C  C599  1  0.261500  0.549710  0.951430  1.0  0.0465
  C  C600  1  0.238600  0.560700  0.987840  1.0  -0.1174
  C  C601  1  0.221700  0.548230  0.023000  1.0  0.0157
  C  C602  1  0.224600  0.524790  0.021700  1.0  -0.0813
  C  C603  1  0.279300  0.562900  0.913650  1.0  0.074
  C  C604  1  0.232400  0.581800  0.902930  1.0  -0.1444
  C  C605  1  0.246000  0.594000  0.867530  1.0  -0.0794
  C  C606  1  0.307600  0.587840  0.841310  1.0  -0.1942
  C  C607  1  0.357500  0.569890  0.852160  1.0  -0.078
  C  C608  1  0.341600  0.557110  0.887310  1.0  -0.1403
  C  C609  1  0.319500  0.601510  0.801410  1.0  0.7157
  C  C610  1  0.197000  0.560240  0.062120  1.0  0.0271
  C  C611  1  0.133300  0.552030  0.085950  1.0  -0.1515
  C  C612  1  0.112600  0.562350  0.122020  1.0  -0.0676
  C  C613  1  0.155600  0.581220  0.135940  1.0  -0.1545
  C  C614  1  0.218900  0.589730  0.112410  1.0  -0.0662
  C  C615  1  0.238000  0.579400  0.075160  1.0  -0.1329
  C  C616  1  0.134700  0.592570  0.176890  1.0  0.7455
  C  C617  1  0.509800  0.762400  0.984310  1.0  -0.0054
  C  C618  1  0.497720  0.775610  0.948860  1.0  -0.0846
  C  C619  1  0.517100  0.799030  0.947690  1.0  0.0302
  C  C620  1  0.551600  0.808760  0.982580  1.0  -0.197
  C  C621  1  0.564800  0.795990  0.018770  1.0  -0.0219
  C  C622  1  0.542900  0.772630  0.018860  1.0  -0.1102
  C  C623  1  0.502500  0.812840  0.910680  1.0  0.0653
  C  C624  1  0.432900  0.810270  0.887550  1.0  -0.1431
  C  C625  1  0.416600  0.823900  0.853640  1.0  -0.0845
  C  C626  1  0.472700  0.840350  0.841920  1.0  -0.1691
  C  C627  1  0.541900  0.842990  0.863790  1.0  -0.0553
  C  C628  1  0.556800  0.829380  0.897740  1.0  -0.1324
  C  C629  1  0.456000  0.855710  0.804690  1.0  0.7509
  C  C630  1  0.599500  0.807270  0.056070  1.0  0.0429
  C  C631  1  0.596400  0.830150  0.061430  1.0  -0.1214
  C  C632  1  0.628800  0.840930  0.096260  1.0  -0.1198
  C  C633  1  0.665500  0.828920  0.125590  1.0  -0.1687
  C  C634  1  0.668400  0.806750  0.121270  1.0  -0.0554
  C  C635  1  0.634300  0.795660  0.086760  1.0  -0.1555
  C  C636  1  0.700200  0.840530  0.163230  1.0  0.61
  C  C637  1  0.753000  0.987010  0.986020  1.0  0.0164
  C  C638  1  0.733700  0.974280  0.951290  1.0  -0.1029
  C  C639  1  0.738500  0.950290  0.951430  1.0  0.0463
  C  C640  1  0.761400  0.939300  0.987840  1.0  -0.1164
  C  C641  1  0.778300  0.951770  0.023000  1.0  0.0156
  C  C642  1  0.775400  0.975210  0.021700  1.0  -0.0816
  C  C643  1  0.720700  0.937100  0.913650  1.0  0.0737
  C  C644  1  0.767600  0.918200  0.902930  1.0  -0.1426
  C  C645  1  0.754000  0.906000  0.867530  1.0  -0.0789
  C  C646  1  0.692400  0.912160  0.841310  1.0  -0.1955
  C  C647  1  0.642500  0.930110  0.852160  1.0  -0.0783
  C  C648  1  0.658400  0.942890  0.887310  1.0  -0.1402
  C  C649  1  0.680500  0.898490  0.801410  1.0  0.7154
  C  C650  1  0.803000  0.939760  0.062120  1.0  0.0273
  C  C651  1  0.866700  0.947970  0.085950  1.0  -0.1503
  C  C652  1  0.887400  0.937650  0.122020  1.0  -0.068
  C  C653  1  0.844400  0.918780  0.135940  1.0  -0.1556
  C  C654  1  0.781100  0.910270  0.112410  1.0  -0.0649
  C  C655  1  0.762000  0.920600  0.075160  1.0  -0.1336
  C  C656  1  0.865300  0.907430  0.176890  1.0  0.745
  C  C657  1  0.009800  0.262400  0.984310  1.0  -0.0054
  C  C658  1  0.997720  0.275610  0.948860  1.0  -0.0846
  C  C659  1  0.017100  0.299030  0.947690  1.0  0.0302
  C  C660  1  0.051600  0.308760  0.982580  1.0  -0.197
  C  C661  1  0.064800  0.295990  0.018770  1.0  -0.0219
  C  C662  1  0.042900  0.272630  0.018860  1.0  -0.1102
  C  C663  1  0.002500  0.312840  0.910680  1.0  0.0653
  C  C664  1  0.932900  0.310270  0.887550  1.0  -0.1431
  C  C665  1  0.916600  0.323900  0.853640  1.0  -0.0845
  C  C666  1  0.972700  0.340350  0.841920  1.0  -0.1691
  C  C667  1  0.041900  0.342990  0.863790  1.0  -0.0553
  C  C668  1  0.056800  0.329380  0.897740  1.0  -0.1324
  C  C669  1  0.956000  0.355710  0.804690  1.0  0.7509
  C  C670  1  0.099500  0.307270  0.056070  1.0  0.0429
  C  C671  1  0.096400  0.330150  0.061430  1.0  -0.1214
  C  C672  1  0.128800  0.340930  0.096260  1.0  -0.1198
  C  C673  1  0.165500  0.328920  0.125590  1.0  -0.1687
  C  C674  1  0.168400  0.306750  0.121270  1.0  -0.0554
  C  C675  1  0.134300  0.295660  0.086760  1.0  -0.1555
  C  C676  1  0.200200  0.340530  0.163230  1.0  0.61
  C  C677  1  0.253000  0.487010  0.986020  1.0  0.0164
  C  C678  1  0.233700  0.474280  0.951290  1.0  -0.1029
  C  C679  1  0.238500  0.450290  0.951430  1.0  0.0463
  C  C680  1  0.261400  0.439300  0.987840  1.0  -0.1164
  C  C681  1  0.278300  0.451770  0.023000  1.0  0.0156
  C  C682  1  0.275400  0.475210  0.021700  1.0  -0.0816
  C  C683  1  0.220700  0.437100  0.913650  1.0  0.0737
  C  C684  1  0.267600  0.418200  0.902930  1.0  -0.1426
  C  C685  1  0.254000  0.406000  0.867530  1.0  -0.0789
  C  C686  1  0.192400  0.412160  0.841310  1.0  -0.1955
  C  C687  1  0.142500  0.430110  0.852160  1.0  -0.0783
  C  C688  1  0.158400  0.442890  0.887310  1.0  -0.1402
  C  C689  1  0.180500  0.398490  0.801410  1.0  0.7154
  C  C690  1  0.303000  0.439760  0.062120  1.0  0.0273
  C  C691  1  0.366700  0.447970  0.085950  1.0  -0.1503
  C  C692  1  0.387400  0.437650  0.122020  1.0  -0.068
  C  C693  1  0.344400  0.418780  0.135940  1.0  -0.1556
  C  C694  1  0.281100  0.410270  0.112410  1.0  -0.0649
  C  C695  1  0.262000  0.420600  0.075160  1.0  -0.1336
  C  C696  1  0.365300  0.407430  0.176890  1.0  0.745
  C  C697  1  0.990200  0.762400  0.484310  1.0  -0.0053
  C  C698  1  0.002280  0.775610  0.448860  1.0  -0.0839
  C  C699  1  0.982900  0.799030  0.447690  1.0  0.0297
  C  C700  1  0.948400  0.808760  0.482580  1.0  -0.1977
  C  C701  1  0.935200  0.795990  0.518770  1.0  -0.0218
  C  C702  1  0.957100  0.772630  0.518860  1.0  -0.1097
  C  C703  1  0.997500  0.812840  0.410680  1.0  0.0652
  C  C704  1  0.067100  0.810270  0.387550  1.0  -0.1427
  C  C705  1  0.083400  0.823900  0.353640  1.0  -0.0854
  C  C706  1  0.027300  0.840350  0.341920  1.0  -0.168
  C  C707  1  0.958100  0.842990  0.363790  1.0  -0.0547
  C  C708  1  0.943200  0.829380  0.397740  1.0  -0.1348
  C  C709  1  0.044000  0.855710  0.304690  1.0  0.7508
  C  C710  1  0.900500  0.807270  0.556070  1.0  0.0429
  C  C711  1  0.903600  0.830150  0.561430  1.0  -0.1205
  C  C712  1  0.871200  0.840930  0.596260  1.0  -0.1198
  C  C713  1  0.834500  0.828920  0.625590  1.0  -0.1692
  C  C714  1  0.831600  0.806750  0.621270  1.0  -0.056
  C  C715  1  0.865700  0.795660  0.586760  1.0  -0.1557
  C  C716  1  0.799800  0.840530  0.663230  1.0  0.6115
  C  C717  1  0.747000  0.987010  0.486020  1.0  0.0163
  C  C718  1  0.766300  0.974280  0.451290  1.0  -0.1019
  C  C719  1  0.761500  0.950290  0.451430  1.0  0.0464
  C  C720  1  0.738600  0.939300  0.487840  1.0  -0.117
  C  C721  1  0.721700  0.951770  0.523000  1.0  0.0158
  C  C722  1  0.724600  0.975210  0.521700  1.0  -0.0817
  C  C723  1  0.779300  0.937100  0.413650  1.0  0.074
  C  C724  1  0.732400  0.918200  0.402930  1.0  -0.1443
  C  C725  1  0.746000  0.906000  0.367530  1.0  -0.0784
  C  C726  1  0.807600  0.912160  0.341310  1.0  -0.1948
  C  C727  1  0.857500  0.930110  0.352160  1.0  -0.0776
  C  C728  1  0.841600  0.942890  0.387310  1.0  -0.1403
  C  C729  1  0.819500  0.898490  0.301410  1.0  0.7149
  C  C730  1  0.697000  0.939760  0.562120  1.0  0.0273
  C  C731  1  0.633300  0.947970  0.585950  1.0  -0.1517
  C  C732  1  0.612600  0.937650  0.622020  1.0  -0.0684
  C  C733  1  0.655600  0.918780  0.635940  1.0  -0.1545
  C  C734  1  0.718900  0.910270  0.612410  1.0  -0.0664
  C  C735  1  0.738000  0.920600  0.575160  1.0  -0.1326
  C  C736  1  0.634700  0.907430  0.676890  1.0  0.7447
  C  C737  1  0.490200  0.262400  0.484310  1.0  -0.0053
  C  C738  1  0.502280  0.275610  0.448860  1.0  -0.0839
  C  C739  1  0.482900  0.299030  0.447690  1.0  0.0297
  C  C740  1  0.448400  0.308760  0.482580  1.0  -0.1977
  C  C741  1  0.435200  0.295990  0.518770  1.0  -0.0218
  C  C742  1  0.457100  0.272630  0.518860  1.0  -0.1097
  C  C743  1  0.497500  0.312840  0.410680  1.0  0.0652
  C  C744  1  0.567100  0.310270  0.387550  1.0  -0.1427
  C  C745  1  0.583400  0.323900  0.353640  1.0  -0.0854
  C  C746  1  0.527300  0.340350  0.341920  1.0  -0.168
  C  C747  1  0.458100  0.342990  0.363790  1.0  -0.0547
  C  C748  1  0.443200  0.329380  0.397740  1.0  -0.1348
  C  C749  1  0.544000  0.355710  0.304690  1.0  0.7508
  C  C750  1  0.400500  0.307270  0.556070  1.0  0.0429
  C  C751  1  0.403600  0.330150  0.561430  1.0  -0.1205
  C  C752  1  0.371200  0.340930  0.596260  1.0  -0.1198
  C  C753  1  0.334500  0.328920  0.625590  1.0  -0.1692
  C  C754  1  0.331600  0.306750  0.621270  1.0  -0.056
  C  C755  1  0.365700  0.295660  0.586760  1.0  -0.1557
  C  C756  1  0.299800  0.340530  0.663230  1.0  0.6115
  C  C757  1  0.247000  0.487010  0.486020  1.0  0.0163
  C  C758  1  0.266300  0.474280  0.451290  1.0  -0.1019
  C  C759  1  0.261500  0.450290  0.451430  1.0  0.0464
  C  C760  1  0.238600  0.439300  0.487840  1.0  -0.117
  C  C761  1  0.221700  0.451770  0.523000  1.0  0.0158
  C  C762  1  0.224600  0.475210  0.521700  1.0  -0.0817
  C  C763  1  0.279300  0.437100  0.413650  1.0  0.074
  C  C764  1  0.232400  0.418200  0.402930  1.0  -0.1443
  C  C765  1  0.246000  0.406000  0.367530  1.0  -0.0784
  C  C766  1  0.307600  0.412160  0.341310  1.0  -0.1948
  C  C767  1  0.357500  0.430110  0.352160  1.0  -0.0776
  C  C768  1  0.341600  0.442890  0.387310  1.0  -0.1403
  C  C769  1  0.319500  0.398490  0.301410  1.0  0.7149
  C  C770  1  0.197000  0.439760  0.562120  1.0  0.0273
  C  C771  1  0.133300  0.447970  0.585950  1.0  -0.1517
  C  C772  1  0.112600  0.437650  0.622020  1.0  -0.0684
  C  C773  1  0.155600  0.418780  0.635940  1.0  -0.1545
  C  C774  1  0.218900  0.410270  0.612410  1.0  -0.0664
  C  C775  1  0.238000  0.420600  0.575160  1.0  -0.1326
  C  C776  1  0.134700  0.407430  0.676890  1.0  0.7447
  C  C777  1  0.509800  0.237600  0.484310  1.0  -0.0052
  C  C778  1  0.497720  0.224390  0.448860  1.0  -0.0845
  C  C779  1  0.517100  0.200970  0.447690  1.0  0.0302
  C  C780  1  0.551600  0.191240  0.482580  1.0  -0.1983
  C  C781  1  0.564800  0.204010  0.518770  1.0  -0.0217
  C  C782  1  0.542900  0.227370  0.518860  1.0  -0.1105
  C  C783  1  0.502500  0.187160  0.410680  1.0  0.0655
  C  C784  1  0.432900  0.189730  0.387550  1.0  -0.1434
  C  C785  1  0.416600  0.176100  0.353640  1.0  -0.0844
  C  C786  1  0.472700  0.159650  0.341920  1.0  -0.1693
  C  C787  1  0.541900  0.157010  0.363790  1.0  -0.0541
  C  C788  1  0.556800  0.170620  0.397740  1.0  -0.1323
  C  C789  1  0.456000  0.144290  0.304690  1.0  0.7507
  C  C790  1  0.599500  0.192730  0.556070  1.0  0.0431
  C  C791  1  0.596400  0.169850  0.561430  1.0  -0.121
  C  C792  1  0.628800  0.159070  0.596260  1.0  -0.1197
  C  C793  1  0.665500  0.171080  0.625590  1.0  -0.1677
  C  C794  1  0.668400  0.193250  0.621270  1.0  -0.0561
  C  C795  1  0.634300  0.204340  0.586760  1.0  -0.1567
  C  C796  1  0.700200  0.159470  0.663230  1.0  0.6098
  C  C797  1  0.753000  0.012990  0.486020  1.0  0.0164
  C  C798  1  0.733700  0.025720  0.451290  1.0  -0.1023
  C  C799  1  0.738500  0.049710  0.451430  1.0  0.0464
  C  C800  1  0.761400  0.060700  0.487840  1.0  -0.1169
  C  C801  1  0.778300  0.048230  0.523000  1.0  0.0156
  C  C802  1  0.775400  0.024790  0.521700  1.0  -0.0811
  C  C803  1  0.720700  0.062900  0.413650  1.0  0.0737
  C  C804  1  0.767600  0.081800  0.402930  1.0  -0.1425
  C  C805  1  0.754000  0.094000  0.367530  1.0  -0.0782
  C  C806  1  0.692400  0.087840  0.341310  1.0  -0.1954
  C  C807  1  0.642500  0.069890  0.352160  1.0  -0.0786
  C  C808  1  0.658400  0.057110  0.387310  1.0  -0.1401
  C  C809  1  0.680500  0.101510  0.301410  1.0  0.7159
  C  C810  1  0.803000  0.060240  0.562120  1.0  0.027
  C  C811  1  0.866700  0.052030  0.585950  1.0  -0.1509
  C  C812  1  0.887400  0.062350  0.622020  1.0  -0.0684
  C  C813  1  0.844400  0.081220  0.635940  1.0  -0.1554
  C  C814  1  0.781100  0.089730  0.612410  1.0  -0.0658
  C  C815  1  0.762000  0.079400  0.575160  1.0  -0.1336
  C  C816  1  0.865300  0.092570  0.676890  1.0  0.7456
  C  C817  1  0.009800  0.737600  0.484310  1.0  -0.0052
  C  C818  1  0.997720  0.724390  0.448860  1.0  -0.0845
  C  C819  1  0.017100  0.700970  0.447690  1.0  0.0302
  C  C820  1  0.051600  0.691240  0.482580  1.0  -0.1983
  C  C821  1  0.064800  0.704010  0.518770  1.0  -0.0217
  C  C822  1  0.042900  0.727370  0.518860  1.0  -0.1105
  C  C823  1  0.002500  0.687160  0.410680  1.0  0.0655
  C  C824  1  0.932900  0.689730  0.387550  1.0  -0.1434
  C  C825  1  0.916600  0.676100  0.353640  1.0  -0.0844
  C  C826  1  0.972700  0.659650  0.341920  1.0  -0.1693
  C  C827  1  0.041900  0.657010  0.363790  1.0  -0.0541
  C  C828  1  0.056800  0.670620  0.397740  1.0  -0.1323
  C  C829  1  0.956000  0.644290  0.304690  1.0  0.7507
  C  C830  1  0.099500  0.692730  0.556070  1.0  0.0431
  C  C831  1  0.096400  0.669850  0.561430  1.0  -0.121
  C  C832  1  0.128800  0.659070  0.596260  1.0  -0.1197
  C  C833  1  0.165500  0.671080  0.625590  1.0  -0.1677
  C  C834  1  0.168400  0.693250  0.621270  1.0  -0.0561
  C  C835  1  0.134300  0.704340  0.586760  1.0  -0.1567
  C  C836  1  0.200200  0.659470  0.663230  1.0  0.6098
  C  C837  1  0.253000  0.512990  0.486020  1.0  0.0164
  C  C838  1  0.233700  0.525720  0.451290  1.0  -0.1023
  C  C839  1  0.238500  0.549710  0.451430  1.0  0.0464
  C  C840  1  0.261400  0.560700  0.487840  1.0  -0.1169
  C  C841  1  0.278300  0.548230  0.523000  1.0  0.0156
  C  C842  1  0.275400  0.524790  0.521700  1.0  -0.0811
  C  C843  1  0.220700  0.562900  0.413650  1.0  0.0737
  C  C844  1  0.267600  0.581800  0.402930  1.0  -0.1425
  C  C845  1  0.254000  0.594000  0.367530  1.0  -0.0782
  C  C846  1  0.192400  0.587840  0.341310  1.0  -0.1954
  C  C847  1  0.142500  0.569890  0.352160  1.0  -0.0786
  C  C848  1  0.158400  0.557110  0.387310  1.0  -0.1401
  C  C849  1  0.180500  0.601510  0.301410  1.0  0.7159
  C  C850  1  0.303000  0.560240  0.562120  1.0  0.027
  C  C851  1  0.366700  0.552030  0.585950  1.0  -0.1509
  C  C852  1  0.387400  0.562350  0.622020  1.0  -0.0684
  C  C853  1  0.344400  0.581220  0.635940  1.0  -0.1554
  C  C854  1  0.281100  0.589730  0.612410  1.0  -0.0658
  C  C855  1  0.262000  0.579400  0.575160  1.0  -0.1336
  C  C856  1  0.365300  0.592570  0.676890  1.0  0.7456
  C  C857  1  0.009800  0.762400  0.015690  1.0  -0.0054
  C  C858  1  0.997720  0.775610  0.051140  1.0  -0.0853
  C  C859  1  0.017100  0.799030  0.052310  1.0  0.0297
  C  C860  1  0.051600  0.808760  0.017420  1.0  -0.1971
  C  C861  1  0.064800  0.795990  0.981230  1.0  -0.021
  C  C862  1  0.042900  0.772630  0.981140  1.0  -0.1108
  C  C863  1  0.002500  0.812840  0.089320  1.0  0.0653
  C  C864  1  0.932900  0.810270  0.112450  1.0  -0.1426
  C  C865  1  0.916600  0.823900  0.146360  1.0  -0.0837
  C  C866  1  0.972700  0.840350  0.158080  1.0  -0.1701
  C  C867  1  0.041900  0.842990  0.136210  1.0  -0.0544
  C  C868  1  0.056800  0.829380  0.102260  1.0  -0.1326
  C  C869  1  0.956000  0.855710  0.195310  1.0  0.7499
  C  C870  1  0.099500  0.807270  0.943930  1.0  0.0433
  C  C871  1  0.096400  0.830150  0.938570  1.0  -0.1211
  C  C872  1  0.128800  0.840930  0.903740  1.0  -0.1196
  C  C873  1  0.165500  0.828920  0.874410  1.0  -0.17
  C  C874  1  0.168400  0.806750  0.878730  1.0  -0.0555
  C  C875  1  0.134300  0.795660  0.913240  1.0  -0.1545
  C  C876  1  0.200200  0.840530  0.836770  1.0  0.6095
  C  C877  1  0.253000  0.987010  0.013980  1.0  0.0161
  C  C878  1  0.233700  0.974280  0.048710  1.0  -0.1029
  C  C879  1  0.238500  0.950290  0.048570  1.0  0.0459
  C  C880  1  0.261400  0.939300  0.012160  1.0  -0.1162
  C  C881  1  0.278300  0.951770  0.977000  1.0  0.0167
  C  C882  1  0.275400  0.975210  0.978300  1.0  -0.0814
  C  C883  1  0.220700  0.937100  0.086350  1.0  0.0737
  C  C884  1  0.267600  0.918200  0.097070  1.0  -0.1431
  C  C885  1  0.254000  0.906000  0.132470  1.0  -0.0793
  C  C886  1  0.192400  0.912160  0.158690  1.0  -0.1957
  C  C887  1  0.142500  0.930110  0.147840  1.0  -0.0782
  C  C888  1  0.158400  0.942890  0.112690  1.0  -0.1402
  C  C889  1  0.180500  0.898490  0.198590  1.0  0.7168
  C  C890  1  0.303000  0.939760  0.937880  1.0  0.0271
  C  C891  1  0.366700  0.947970  0.914050  1.0  -0.1515
  C  C892  1  0.387400  0.937650  0.877980  1.0  -0.0675
  C  C893  1  0.344400  0.918780  0.864060  1.0  -0.1542
  C  C894  1  0.281100  0.910270  0.887590  1.0  -0.0651
  C  C895  1  0.262000  0.920600  0.924840  1.0  -0.1334
  C  C896  1  0.365300  0.907430  0.823110  1.0  0.745
  C  C897  1  0.509800  0.262400  0.015690  1.0  -0.0054
  C  C898  1  0.497720  0.275610  0.051140  1.0  -0.0853
  C  C899  1  0.517100  0.299030  0.052310  1.0  0.0297
  C  C900  1  0.551600  0.308760  0.017420  1.0  -0.1971
  C  C901  1  0.564800  0.295990  0.981230  1.0  -0.021
  C  C902  1  0.542900  0.272630  0.981140  1.0  -0.1108
  C  C903  1  0.502500  0.312840  0.089320  1.0  0.0653
  C  C904  1  0.432900  0.310270  0.112450  1.0  -0.1426
  C  C905  1  0.416600  0.323900  0.146360  1.0  -0.0837
  C  C906  1  0.472700  0.340350  0.158080  1.0  -0.1701
  C  C907  1  0.541900  0.342990  0.136210  1.0  -0.0544
  C  C908  1  0.556800  0.329380  0.102260  1.0  -0.1326
  C  C909  1  0.456000  0.355710  0.195310  1.0  0.7499
  C  C910  1  0.599500  0.307270  0.943930  1.0  0.0433
  C  C911  1  0.596400  0.330150  0.938570  1.0  -0.1211
  C  C912  1  0.628800  0.340930  0.903740  1.0  -0.1196
  C  C913  1  0.665500  0.328920  0.874410  1.0  -0.17
  C  C914  1  0.668400  0.306750  0.878730  1.0  -0.0555
  C  C915  1  0.634300  0.295660  0.913240  1.0  -0.1545
  C  C916  1  0.700200  0.340530  0.836770  1.0  0.6095
  C  C917  1  0.753000  0.487010  0.013980  1.0  0.0161
  C  C918  1  0.733700  0.474280  0.048710  1.0  -0.1029
  C  C919  1  0.738500  0.450290  0.048570  1.0  0.0459
  C  C920  1  0.761400  0.439300  0.012160  1.0  -0.1162
  C  C921  1  0.778300  0.451770  0.977000  1.0  0.0167
  C  C922  1  0.775400  0.475210  0.978300  1.0  -0.0814
  C  C923  1  0.720700  0.437100  0.086350  1.0  0.0737
  C  C924  1  0.767600  0.418200  0.097070  1.0  -0.1431
  C  C925  1  0.754000  0.406000  0.132470  1.0  -0.0793
  C  C926  1  0.692400  0.412160  0.158690  1.0  -0.1957
  C  C927  1  0.642500  0.430110  0.147840  1.0  -0.0782
  C  C928  1  0.658400  0.442890  0.112690  1.0  -0.1402
  C  C929  1  0.680500  0.398490  0.198590  1.0  0.7168
  C  C930  1  0.803000  0.439760  0.937880  1.0  0.0271
  C  C931  1  0.866700  0.447970  0.914050  1.0  -0.1515
  C  C932  1  0.887400  0.437650  0.877980  1.0  -0.0675
  C  C933  1  0.844400  0.418780  0.864060  1.0  -0.1542
  C  C934  1  0.781100  0.410270  0.887590  1.0  -0.0651
  C  C935  1  0.762000  0.420600  0.924840  1.0  -0.1334
  C  C936  1  0.865300  0.407430  0.823110  1.0  0.745
  C  C937  1  0.490200  0.237600  0.015690  1.0  -0.0053
  C  C938  1  0.502280  0.224390  0.051140  1.0  -0.084
  C  C939  1  0.482900  0.200970  0.052310  1.0  0.0292
  C  C940  1  0.448400  0.191240  0.017420  1.0  -0.1995
  C  C941  1  0.435200  0.204010  0.981230  1.0  -0.0209
  C  C942  1  0.457100  0.227370  0.981140  1.0  -0.1097
  C  C943  1  0.497500  0.187160  0.089320  1.0  0.0656
  C  C944  1  0.567100  0.189730  0.112450  1.0  -0.1423
  C  C945  1  0.583400  0.176100  0.146360  1.0  -0.0846
  C  C946  1  0.527300  0.159650  0.158080  1.0  -0.1688
  C  C947  1  0.458100  0.157010  0.136210  1.0  -0.0528
  C  C948  1  0.443200  0.170620  0.102260  1.0  -0.1342
  C  C949  1  0.544000  0.144290  0.195310  1.0  0.7494
  C  C950  1  0.400500  0.192730  0.943930  1.0  0.0432
  C  C951  1  0.403600  0.169850  0.938570  1.0  -0.1207
  C  C952  1  0.371200  0.159070  0.903740  1.0  -0.119
  C  C953  1  0.334500  0.171080  0.874410  1.0  -0.1708
  C  C954  1  0.331600  0.193250  0.878730  1.0  -0.0564
  C  C955  1  0.365700  0.204340  0.913240  1.0  -0.1566
  C  C956  1  0.299800  0.159470  0.836770  1.0  0.6093
  C  C957  1  0.247000  0.012990  0.013980  1.0  0.0162
  C  C958  1  0.266300  0.025720  0.048710  1.0  -0.1006
  C  C959  1  0.261500  0.049710  0.048570  1.0  0.046
  C  C960  1  0.238600  0.060700  0.012160  1.0  -0.1173
  C  C961  1  0.221700  0.048230  0.977000  1.0  0.0169
  C  C962  1  0.224600  0.024790  0.978300  1.0  -0.0806
  C  C963  1  0.279300  0.062900  0.086350  1.0  0.074
  C  C964  1  0.232400  0.081800  0.097070  1.0  -0.1444
  C  C965  1  0.246000  0.094000  0.132470  1.0  -0.0799
  C  C966  1  0.307600  0.087840  0.158690  1.0  -0.1953
  C  C967  1  0.357500  0.069890  0.147840  1.0  -0.0774
  C  C968  1  0.341600  0.057110  0.112690  1.0  -0.1402
  C  C969  1  0.319500  0.101510  0.198590  1.0  0.7157
  C  C970  1  0.197000  0.060240  0.937880  1.0  0.027
  C  C971  1  0.133300  0.052030  0.914050  1.0  -0.1524
  C  C972  1  0.112600  0.062350  0.877980  1.0  -0.0666
  C  C973  1  0.155600  0.081220  0.864060  1.0  -0.1534
  C  C974  1  0.218900  0.089730  0.887590  1.0  -0.0662
  C  C975  1  0.238000  0.079400  0.924840  1.0  -0.1326
  C  C976  1  0.134700  0.092570  0.823110  1.0  0.7455
  C  C977  1  0.990200  0.737600  0.015690  1.0  -0.0053
  C  C978  1  0.002280  0.724390  0.051140  1.0  -0.084
  C  C979  1  0.982900  0.700970  0.052310  1.0  0.0292
  C  C980  1  0.948400  0.691240  0.017420  1.0  -0.1995
  C  C981  1  0.935200  0.704010  0.981230  1.0  -0.0209
  C  C982  1  0.957100  0.727370  0.981140  1.0  -0.1097
  C  C983  1  0.997500  0.687160  0.089320  1.0  0.0656
  C  C984  1  0.067100  0.689730  0.112450  1.0  -0.1423
  C  C985  1  0.083400  0.676100  0.146360  1.0  -0.0846
  C  C986  1  0.027300  0.659650  0.158080  1.0  -0.1688
  C  C987  1  0.958100  0.657010  0.136210  1.0  -0.0528
  C  C988  1  0.943200  0.670620  0.102260  1.0  -0.1342
  C  C989  1  0.044000  0.644290  0.195310  1.0  0.7494
  C  C990  1  0.900500  0.692730  0.943930  1.0  0.0432
  C  C991  1  0.903600  0.669850  0.938570  1.0  -0.1207
  C  C992  1  0.871200  0.659070  0.903740  1.0  -0.119
  C  C993  1  0.834500  0.671080  0.874410  1.0  -0.1708
  C  C994  1  0.831600  0.693250  0.878730  1.0  -0.0564
  C  C995  1  0.865700  0.704340  0.913240  1.0  -0.1566
  C  C996  1  0.799800  0.659470  0.836770  1.0  0.6093
  C  C997  1  0.747000  0.512990  0.013980  1.0  0.0162
  C  C998  1  0.766300  0.525720  0.048710  1.0  -0.1006
  C  C999  1  0.761500  0.549710  0.048570  1.0  0.046
  C  C1000  1  0.738600  0.560700  0.012160  1.0  -0.1173
  C  C1001  1  0.721700  0.548230  0.977000  1.0  0.0169
  C  C1002  1  0.724600  0.524790  0.978300  1.0  -0.0806
  C  C1003  1  0.779300  0.562900  0.086350  1.0  0.074
  C  C1004  1  0.732400  0.581800  0.097070  1.0  -0.1444
  C  C1005  1  0.746000  0.594000  0.132470  1.0  -0.0799
  C  C1006  1  0.807600  0.587840  0.158690  1.0  -0.1953
  C  C1007  1  0.857500  0.569890  0.147840  1.0  -0.0774
  C  C1008  1  0.841600  0.557110  0.112690  1.0  -0.1402
  C  C1009  1  0.819500  0.601510  0.198590  1.0  0.7157
  C  C1010  1  0.697000  0.560240  0.937880  1.0  0.027
  C  C1011  1  0.633300  0.552030  0.914050  1.0  -0.1524
  C  C1012  1  0.612600  0.562350  0.877980  1.0  -0.0666
  C  C1013  1  0.655600  0.581220  0.864060  1.0  -0.1534
  C  C1014  1  0.718900  0.589730  0.887590  1.0  -0.0662
  C  C1015  1  0.738000  0.579400  0.924840  1.0  -0.1326
  C  C1016  1  0.634700  0.592570  0.823110  1.0  0.7455
  O  O1017  1  0.008130  0.130630  0.705390  1.0  -0.6071
  O  O1018  1  0.888500  0.146400  0.713180  1.0  -0.7292
  O  O1019  1  0.198300  0.137890  0.336200  1.0  -0.6817
  O  O1020  1  0.226570  0.169940  0.307540  1.0  -0.6606
  O  O1021  1  0.119900  0.095330  0.718760  1.0  -0.6913
  O  O1022  1  0.227200  0.116140  0.707640  1.0  -0.5855
  O  O1023  1  0.313700  0.105090  0.307680  1.0  -0.7381
  O  O1024  1  0.431090  0.087600  0.307510  1.0  -0.7049
  O  O1025  1  0.508130  0.630630  0.705390  1.0  -0.6071
  O  O1026  1  0.388500  0.646400  0.713180  1.0  -0.7292
  O  O1027  1  0.698300  0.637890  0.336200  1.0  -0.6817
  O  O1028  1  0.726570  0.669940  0.307540  1.0  -0.6606
  O  O1029  1  0.619900  0.595330  0.718760  1.0  -0.6913
  O  O1030  1  0.727200  0.616140  0.707640  1.0  -0.5855
  O  O1031  1  0.813700  0.605090  0.307680  1.0  -0.7381
  O  O1032  1  0.931090  0.587600  0.307510  1.0  -0.7049
  O  O1033  1  0.491870  0.869370  0.705390  1.0  -0.6079
  O  O1034  1  0.611500  0.853600  0.713180  1.0  -0.7288
  O  O1035  1  0.301700  0.862110  0.336200  1.0  -0.6816
  O  O1036  1  0.273430  0.830060  0.307540  1.0  -0.6552
  O  O1037  1  0.380100  0.904670  0.718760  1.0  -0.6914
  O  O1038  1  0.272800  0.883860  0.707640  1.0  -0.5871
  O  O1039  1  0.186300  0.894910  0.307680  1.0  -0.7386
  O  O1040  1  0.068910  0.912400  0.307510  1.0  -0.7049
  O  O1041  1  0.991870  0.369370  0.705390  1.0  -0.6079
  O  O1042  1  0.111500  0.353600  0.713180  1.0  -0.7288
  O  O1043  1  0.801700  0.362110  0.336200  1.0  -0.6816
  O  O1044  1  0.773430  0.330060  0.307540  1.0  -0.6552
  O  O1045  1  0.880100  0.404670  0.718760  1.0  -0.6914
  O  O1046  1  0.772800  0.383860  0.707640  1.0  -0.5871
  O  O1047  1  0.686300  0.394910  0.307680  1.0  -0.7386
  O  O1048  1  0.568910  0.412400  0.307510  1.0  -0.7049
  O  O1049  1  0.991870  0.130630  0.794610  1.0  -0.6079
  O  O1050  1  0.111500  0.146400  0.786820  1.0  -0.7287
  O  O1051  1  0.801700  0.137890  0.163800  1.0  -0.6813
  O  O1052  1  0.773430  0.169940  0.192460  1.0  -0.6549
  O  O1053  1  0.880100  0.095330  0.781240  1.0  -0.6922
  O  O1054  1  0.772800  0.116140  0.792360  1.0  -0.5877
  O  O1055  1  0.686300  0.105090  0.192320  1.0  -0.7394
  O  O1056  1  0.568910  0.087600  0.192490  1.0  -0.7052
  O  O1057  1  0.491870  0.630630  0.794610  1.0  -0.6079
  O  O1058  1  0.611500  0.646400  0.786820  1.0  -0.7287
  O  O1059  1  0.301700  0.637890  0.163800  1.0  -0.6813
  O  O1060  1  0.273430  0.669940  0.192460  1.0  -0.6549
  O  O1061  1  0.380100  0.595330  0.781240  1.0  -0.6922
  O  O1062  1  0.272800  0.616140  0.792360  1.0  -0.5877
  O  O1063  1  0.186300  0.605090  0.192320  1.0  -0.7394
  O  O1064  1  0.068910  0.587600  0.192490  1.0  -0.7052
  O  O1065  1  0.508130  0.869370  0.794610  1.0  -0.6074
  O  O1066  1  0.388500  0.853600  0.786820  1.0  -0.7297
  O  O1067  1  0.698300  0.862110  0.163800  1.0  -0.6847
  O  O1068  1  0.726570  0.830060  0.192460  1.0  -0.6588
  O  O1069  1  0.619900  0.904670  0.781240  1.0  -0.6897
  O  O1070  1  0.727200  0.883860  0.792360  1.0  -0.588
  O  O1071  1  0.813700  0.894910  0.192320  1.0  -0.7386
  O  O1072  1  0.931090  0.912400  0.192490  1.0  -0.705
  O  O1073  1  0.008130  0.369370  0.794610  1.0  -0.6074
  O  O1074  1  0.888500  0.353600  0.786820  1.0  -0.7297
  O  O1075  1  0.198300  0.362110  0.163800  1.0  -0.6847
  O  O1076  1  0.226570  0.330060  0.192460  1.0  -0.6588
  O  O1077  1  0.119900  0.404670  0.781240  1.0  -0.6897
  O  O1078  1  0.227200  0.383860  0.792360  1.0  -0.588
  O  O1079  1  0.313700  0.394910  0.192320  1.0  -0.7386
  O  O1080  1  0.431090  0.412400  0.192490  1.0  -0.705
  O  O1081  1  0.991870  0.869370  0.294610  1.0  -0.6082
  O  O1082  1  0.111500  0.853600  0.286820  1.0  -0.7297
  O  O1083  1  0.801700  0.862110  0.663800  1.0  -0.6816
  O  O1084  1  0.773430  0.830060  0.692460  1.0  -0.6568
  O  O1085  1  0.880100  0.904670  0.281240  1.0  -0.6906
  O  O1086  1  0.772800  0.883860  0.292360  1.0  -0.5875
  O  O1087  1  0.686300  0.894910  0.692320  1.0  -0.7392
  O  O1088  1  0.568910  0.912400  0.692490  1.0  -0.7053
  O  O1089  1  0.491870  0.369370  0.294610  1.0  -0.6082
  O  O1090  1  0.611500  0.353600  0.286820  1.0  -0.7297
  O  O1091  1  0.301700  0.362110  0.663800  1.0  -0.6816
  O  O1092  1  0.273430  0.330060  0.692460  1.0  -0.6568
  O  O1093  1  0.380100  0.404670  0.281240  1.0  -0.6906
  O  O1094  1  0.272800  0.383860  0.292360  1.0  -0.5875
  O  O1095  1  0.186300  0.394910  0.692320  1.0  -0.7392
  O  O1096  1  0.068910  0.412400  0.692490  1.0  -0.7053
  O  O1097  1  0.508130  0.130630  0.294610  1.0  -0.6069
  O  O1098  1  0.388500  0.146400  0.286820  1.0  -0.7287
  O  O1099  1  0.698300  0.137890  0.663800  1.0  -0.6805
  O  O1100  1  0.726570  0.169940  0.692460  1.0  -0.6581
  O  O1101  1  0.619900  0.095330  0.281240  1.0  -0.6917
  O  O1102  1  0.727200  0.116140  0.292360  1.0  -0.5863
  O  O1103  1  0.813700  0.105090  0.692320  1.0  -0.7382
  O  O1104  1  0.931090  0.087600  0.692490  1.0  -0.7046
  O  O1105  1  0.008130  0.630630  0.294610  1.0  -0.6069
  O  O1106  1  0.888500  0.646400  0.286820  1.0  -0.7287
  O  O1107  1  0.198300  0.637890  0.663800  1.0  -0.6805
  O  O1108  1  0.226570  0.669940  0.692460  1.0  -0.6581
  O  O1109  1  0.119900  0.595330  0.281240  1.0  -0.6917
  O  O1110  1  0.227200  0.616140  0.292360  1.0  -0.5863
  O  O1111  1  0.313700  0.605090  0.692320  1.0  -0.7382
  O  O1112  1  0.431090  0.587600  0.692490  1.0  -0.7046
  O  O1113  1  0.008130  0.869370  0.205390  1.0  -0.6073
  O  O1114  1  0.888500  0.853600  0.213180  1.0  -0.7292
  O  O1115  1  0.198300  0.862110  0.836200  1.0  -0.6845
  O  O1116  1  0.226570  0.830060  0.807540  1.0  -0.6573
  O  O1117  1  0.119900  0.904670  0.218760  1.0  -0.6904
  O  O1118  1  0.227200  0.883860  0.207640  1.0  -0.5872
  O  O1119  1  0.313700  0.894910  0.807680  1.0  -0.738
  O  O1120  1  0.431090  0.912400  0.807510  1.0  -0.7051
  O  O1121  1  0.508130  0.369370  0.205390  1.0  -0.6073
  O  O1122  1  0.388500  0.353600  0.213180  1.0  -0.7292
  O  O1123  1  0.698300  0.362110  0.836200  1.0  -0.6845
  O  O1124  1  0.726570  0.330060  0.807540  1.0  -0.6573
  O  O1125  1  0.619900  0.404670  0.218760  1.0  -0.6904
  O  O1126  1  0.727200  0.383860  0.207640  1.0  -0.5872
  O  O1127  1  0.813700  0.394910  0.807680  1.0  -0.738
  O  O1128  1  0.931090  0.412400  0.807510  1.0  -0.7051
  O  O1129  1  0.491870  0.130630  0.205390  1.0  -0.6078
  O  O1130  1  0.611500  0.146400  0.213180  1.0  -0.7287
  O  O1131  1  0.301700  0.137890  0.836200  1.0  -0.6819
  O  O1132  1  0.273430  0.169940  0.807540  1.0  -0.657
  O  O1133  1  0.380100  0.095330  0.218760  1.0  -0.6915
  O  O1134  1  0.272800  0.116140  0.207640  1.0  -0.5875
  O  O1135  1  0.186300  0.105090  0.807680  1.0  -0.7389
  O  O1136  1  0.068910  0.087600  0.807510  1.0  -0.7054
  O  O1137  1  0.991870  0.630630  0.205390  1.0  -0.6078
  O  O1138  1  0.111500  0.646400  0.213180  1.0  -0.7287
  O  O1139  1  0.801700  0.637890  0.836200  1.0  -0.6819
  O  O1140  1  0.773430  0.669940  0.807540  1.0  -0.657
  O  O1141  1  0.880100  0.595330  0.218760  1.0  -0.6915
  O  O1142  1  0.772800  0.616140  0.207640  1.0  -0.5875
  O  O1143  1  0.686300  0.605090  0.807680  1.0  -0.7389
  O  O1144  1  0.568910  0.587600  0.807510  1.0  -0.7054
