# generated using pymatgen
data_Cu3H48C78(NO6)2
_symmetry_space_group_name_H-M   'P 1'
_cell_length_a   60.91000000
_cell_length_b   60.91000000
_cell_length_c   60.91000000
_cell_angle_alpha   90.00000000
_cell_angle_beta   90.00000000
_cell_angle_gamma   90.00000000
_symmetry_Int_Tables_number   1
_chemical_formula_structural   Cu3H48C78(NO6)2
_chemical_formula_sum   'Cu48 H768 C1248 N32 O192'
_cell_volume   225977.81157100
_cell_formula_units_Z   16
loop_
 _symmetry_equiv_pos_site_id
 _symmetry_equiv_pos_as_xyz
  1  'x, y, z'
loop_
 _atom_site_type_symbol
 _atom_site_label
 _atom_site_symmetry_multiplicity
 _atom_site_fract_x
 _atom_site_fract_y
 _atom_site_fract_z
 _atom_site_occupancy
 _atom_site_charge
  Cu  Cu1  1  0.000000  0.765240  0.234760  1.0  0.8038
  Cu  Cu2  1  0.000000  0.265240  0.734760  1.0  0.8038
  Cu  Cu3  1  0.500000  0.765240  0.734760  1.0  0.8038
  Cu  Cu4  1  0.500000  0.265240  0.234760  1.0  0.8038
  Cu  Cu5  1  0.000000  0.234760  0.234760  1.0  0.806
  Cu  Cu6  1  0.000000  0.734760  0.734760  1.0  0.806
  Cu  Cu7  1  0.500000  0.234760  0.734760  1.0  0.806
  Cu  Cu8  1  0.500000  0.734760  0.234760  1.0  0.806
  Cu  Cu9  1  0.000000  0.765240  0.765240  1.0  0.8042
  Cu  Cu10  1  0.000000  0.265240  0.265240  1.0  0.8042
  Cu  Cu11  1  0.500000  0.765240  0.265240  1.0  0.8042
  Cu  Cu12  1  0.500000  0.265240  0.765240  1.0  0.8042
  Cu  Cu13  1  0.000000  0.234760  0.765240  1.0  0.8055
  Cu  Cu14  1  0.000000  0.734760  0.265240  1.0  0.8055
  Cu  Cu15  1  0.500000  0.234760  0.265240  1.0  0.8055
  Cu  Cu16  1  0.500000  0.734760  0.765240  1.0  0.8055
  Cu  Cu17  1  0.234760  0.000000  0.765240  1.0  0.8079
  Cu  Cu18  1  0.234760  0.500000  0.265240  1.0  0.8079
  Cu  Cu19  1  0.734760  0.000000  0.265240  1.0  0.8079
  Cu  Cu20  1  0.734760  0.500000  0.765240  1.0  0.8079
  Cu  Cu21  1  0.234760  0.000000  0.234760  1.0  0.8087
  Cu  Cu22  1  0.234760  0.500000  0.734760  1.0  0.8087
  Cu  Cu23  1  0.734760  0.000000  0.734760  1.0  0.8087
  Cu  Cu24  1  0.734760  0.500000  0.234760  1.0  0.8087
  Cu  Cu25  1  0.765240  0.000000  0.765240  1.0  0.8089
  Cu  Cu26  1  0.765240  0.500000  0.265240  1.0  0.8089
  Cu  Cu27  1  0.265240  0.000000  0.265240  1.0  0.8089
  Cu  Cu28  1  0.265240  0.500000  0.765240  1.0  0.8089
  Cu  Cu29  1  0.765240  0.000000  0.234760  1.0  0.8083
  Cu  Cu30  1  0.765240  0.500000  0.734760  1.0  0.8083
  Cu  Cu31  1  0.265240  0.000000  0.734760  1.0  0.8083
  Cu  Cu32  1  0.265240  0.500000  0.234760  1.0  0.8083
  Cu  Cu33  1  0.765240  0.234760  0.000000  1.0  0.8099
  Cu  Cu34  1  0.765240  0.734760  0.500000  1.0  0.8099
  Cu  Cu35  1  0.265240  0.234760  0.500000  1.0  0.8099
  Cu  Cu36  1  0.265240  0.734760  0.000000  1.0  0.8099
  Cu  Cu37  1  0.234760  0.234760  0.000000  1.0  0.8107
  Cu  Cu38  1  0.234760  0.734760  0.500000  1.0  0.8107
  Cu  Cu39  1  0.734760  0.234760  0.500000  1.0  0.8107
  Cu  Cu40  1  0.734760  0.734760  0.000000  1.0  0.8107
  Cu  Cu41  1  0.765240  0.765240  0.000000  1.0  0.8094
  Cu  Cu42  1  0.765240  0.265240  0.500000  1.0  0.8094
  Cu  Cu43  1  0.265240  0.765240  0.500000  1.0  0.8094
  Cu  Cu44  1  0.265240  0.265240  0.000000  1.0  0.8094
  Cu  Cu45  1  0.234760  0.765240  0.000000  1.0  0.8087
  Cu  Cu46  1  0.234760  0.265240  0.500000  1.0  0.8087
  Cu  Cu47  1  0.734760  0.765240  0.500000  1.0  0.8087
  Cu  Cu48  1  0.734760  0.265240  0.000000  1.0  0.8087
  H  H49  1  0.049300  0.737400  0.193500  1.0  0.1294
  H  H50  1  0.078600  0.719900  0.176500  1.0  0.137
  H  H51  1  0.079700  0.674900  0.224700  1.0  0.1332
  H  H52  1  0.050500  0.692400  0.241800  1.0  0.1355
  H  H53  1  0.113200  0.711900  0.176600  1.0  0.1373
  H  H54  1  0.142300  0.696500  0.157500  1.0  0.1317
  H  H55  1  0.122700  0.636300  0.176200  1.0  0.127
  H  H56  1  0.093700  0.651700  0.195400  1.0  0.1306
  H  H57  1  0.049300  0.237400  0.693500  1.0  0.1294
  H  H58  1  0.078600  0.219900  0.676500  1.0  0.137
  H  H59  1  0.079700  0.174900  0.724700  1.0  0.1324
  H  H60  1  0.050500  0.192400  0.741800  1.0  0.1353
  H  H61  1  0.113200  0.211900  0.676600  1.0  0.1373
  H  H62  1  0.142300  0.196500  0.657500  1.0  0.1317
  H  H63  1  0.122700  0.136300  0.676200  1.0  0.1281
  H  H64  1  0.093700  0.151700  0.695400  1.0  0.1304
  H  H65  1  0.549300  0.737400  0.693500  1.0  0.1294
  H  H66  1  0.578600  0.719900  0.676500  1.0  0.137
  H  H67  1  0.579700  0.674900  0.724700  1.0  0.1328
  H  H68  1  0.550500  0.692400  0.741800  1.0  0.1353
  H  H69  1  0.613200  0.711900  0.676600  1.0  0.1373
  H  H70  1  0.642300  0.696500  0.657500  1.0  0.1317
  H  H71  1  0.622700  0.636300  0.676200  1.0  0.1273
  H  H72  1  0.593700  0.651700  0.695400  1.0  0.1309
  H  H73  1  0.549300  0.237400  0.193500  1.0  0.1294
  H  H74  1  0.578600  0.219900  0.176500  1.0  0.137
  H  H75  1  0.579700  0.174900  0.224700  1.0  0.1328
  H  H76  1  0.550500  0.192400  0.241800  1.0  0.1353
  H  H77  1  0.613200  0.211900  0.176600  1.0  0.1373
  H  H78  1  0.642300  0.196500  0.157500  1.0  0.1317
  H  H79  1  0.622700  0.136300  0.176200  1.0  0.1279
  H  H80  1  0.593700  0.151700  0.195400  1.0  0.1309
  H  H81  1  0.950700  0.262600  0.193500  1.0  0.1296
  H  H82  1  0.921400  0.280100  0.176500  1.0  0.1371
  H  H83  1  0.920300  0.325100  0.224700  1.0  0.1336
  H  H84  1  0.949500  0.307600  0.241800  1.0  0.1356
  H  H85  1  0.886800  0.288100  0.176600  1.0  0.1362
  H  H86  1  0.857700  0.303500  0.157500  1.0  0.1313
  H  H87  1  0.877300  0.363700  0.176200  1.0  0.1266
  H  H88  1  0.906300  0.348300  0.195400  1.0  0.1309
  H  H89  1  0.950700  0.762600  0.693500  1.0  0.1296
  H  H90  1  0.921400  0.780100  0.676500  1.0  0.1371
  H  H91  1  0.920300  0.825100  0.724700  1.0  0.1329
  H  H92  1  0.949500  0.807600  0.741800  1.0  0.1353
  H  H93  1  0.886800  0.788100  0.676600  1.0  0.1362
  H  H94  1  0.857700  0.803500  0.657500  1.0  0.1313
  H  H95  1  0.877300  0.863700  0.676200  1.0  0.1281
  H  H96  1  0.906300  0.848300  0.695400  1.0  0.1307
  H  H97  1  0.450700  0.262600  0.693500  1.0  0.1296
  H  H98  1  0.421400  0.280100  0.676500  1.0  0.1371
  H  H99  1  0.420300  0.325100  0.724700  1.0  0.1333
  H  H100  1  0.449500  0.307600  0.741800  1.0  0.1354
  H  H101  1  0.386800  0.288100  0.676600  1.0  0.1362
  H  H102  1  0.357700  0.303500  0.657500  1.0  0.1313
  H  H103  1  0.377300  0.363700  0.676200  1.0  0.1277
  H  H104  1  0.406300  0.348300  0.695400  1.0  0.1313
  H  H105  1  0.450700  0.762600  0.193500  1.0  0.1296
  H  H106  1  0.421400  0.780100  0.176500  1.0  0.1371
  H  H107  1  0.420300  0.825100  0.224700  1.0  0.1333
  H  H108  1  0.449500  0.807600  0.241800  1.0  0.1354
  H  H109  1  0.386800  0.788100  0.176600  1.0  0.1362
  H  H110  1  0.357700  0.803500  0.157500  1.0  0.1313
  H  H111  1  0.377300  0.863700  0.176200  1.0  0.1279
  H  H112  1  0.406300  0.848300  0.195400  1.0  0.1313
  H  H113  1  0.950700  0.737400  0.806500  1.0  0.1294
  H  H114  1  0.921400  0.719900  0.823500  1.0  0.1373
  H  H115  1  0.920300  0.674900  0.775300  1.0  0.1329
  H  H116  1  0.949500  0.692400  0.758200  1.0  0.1357
  H  H117  1  0.886800  0.711900  0.823400  1.0  0.1372
  H  H118  1  0.857700  0.696500  0.842500  1.0  0.1322
  H  H119  1  0.877300  0.636300  0.823800  1.0  0.1268
  H  H120  1  0.906300  0.651700  0.804600  1.0  0.1302
  H  H121  1  0.950700  0.237400  0.306500  1.0  0.1294
  H  H122  1  0.921400  0.219900  0.323500  1.0  0.1373
  H  H123  1  0.920300  0.174900  0.275300  1.0  0.1319
  H  H124  1  0.949500  0.192400  0.258200  1.0  0.1353
  H  H125  1  0.886800  0.211900  0.323400  1.0  0.1372
  H  H126  1  0.857700  0.196500  0.342500  1.0  0.1322
  H  H127  1  0.877300  0.136300  0.323800  1.0  0.1279
  H  H128  1  0.906300  0.151700  0.304600  1.0  0.1299
  H  H129  1  0.450700  0.737400  0.306500  1.0  0.1294
  H  H130  1  0.421400  0.719900  0.323500  1.0  0.1373
  H  H131  1  0.420300  0.674900  0.275300  1.0  0.1326
  H  H132  1  0.449500  0.692400  0.258200  1.0  0.1355
  H  H133  1  0.386800  0.711900  0.323400  1.0  0.1372
  H  H134  1  0.357700  0.696500  0.342500  1.0  0.1322
  H  H135  1  0.377300  0.636300  0.323800  1.0  0.1272
  H  H136  1  0.406300  0.651700  0.304600  1.0  0.1304
  H  H137  1  0.450700  0.237400  0.806500  1.0  0.1294
  H  H138  1  0.421400  0.219900  0.823500  1.0  0.1373
  H  H139  1  0.420300  0.174900  0.775300  1.0  0.1326
  H  H140  1  0.449500  0.192400  0.758200  1.0  0.1355
  H  H141  1  0.386800  0.211900  0.823400  1.0  0.1372
  H  H142  1  0.357700  0.196500  0.842500  1.0  0.1322
  H  H143  1  0.377300  0.136300  0.823800  1.0  0.1275
  H  H144  1  0.406300  0.151700  0.804600  1.0  0.1304
  H  H145  1  0.049300  0.262600  0.806500  1.0  0.1297
  H  H146  1  0.078600  0.280100  0.823500  1.0  0.1377
  H  H147  1  0.079700  0.325100  0.775300  1.0  0.1334
  H  H148  1  0.050500  0.307600  0.758200  1.0  0.1356
  H  H149  1  0.113200  0.288100  0.823400  1.0  0.1364
  H  H150  1  0.142300  0.303500  0.842500  1.0  0.1321
  H  H151  1  0.122700  0.363700  0.823800  1.0  0.1264
  H  H152  1  0.093700  0.348300  0.804600  1.0  0.1308
  H  H153  1  0.049300  0.762600  0.306500  1.0  0.1297
  H  H154  1  0.078600  0.780100  0.323500  1.0  0.1377
  H  H155  1  0.079700  0.825100  0.275300  1.0  0.1325
  H  H156  1  0.050500  0.807600  0.258200  1.0  0.1352
  H  H157  1  0.113200  0.788100  0.323400  1.0  0.1364
  H  H158  1  0.142300  0.803500  0.342500  1.0  0.1321
  H  H159  1  0.122700  0.863700  0.323800  1.0  0.1278
  H  H160  1  0.093700  0.848300  0.304600  1.0  0.1305
  H  H161  1  0.549300  0.262600  0.306500  1.0  0.1297
  H  H162  1  0.578600  0.280100  0.323500  1.0  0.1377
  H  H163  1  0.579700  0.325100  0.275300  1.0  0.1332
  H  H164  1  0.550500  0.307600  0.258200  1.0  0.1354
  H  H165  1  0.613200  0.288100  0.323400  1.0  0.1364
  H  H166  1  0.642300  0.303500  0.342500  1.0  0.1321
  H  H167  1  0.622700  0.363700  0.323800  1.0  0.1273
  H  H168  1  0.593700  0.348300  0.304600  1.0  0.1312
  H  H169  1  0.549300  0.762600  0.806500  1.0  0.1297
  H  H170  1  0.578600  0.780100  0.823500  1.0  0.1377
  H  H171  1  0.579700  0.825100  0.775300  1.0  0.1332
  H  H172  1  0.550500  0.807600  0.758200  1.0  0.1354
  H  H173  1  0.613200  0.788100  0.823400  1.0  0.1364
  H  H174  1  0.642300  0.803500  0.842500  1.0  0.1321
  H  H175  1  0.622700  0.863700  0.823800  1.0  0.1277
  H  H176  1  0.593700  0.848300  0.804600  1.0  0.1312
  H  H177  1  0.193500  0.049300  0.737400  1.0  0.1298
  H  H178  1  0.176500  0.078600  0.719900  1.0  0.137
  H  H179  1  0.224700  0.079700  0.674900  1.0  0.1337
  H  H180  1  0.241800  0.050500  0.692400  1.0  0.1358
  H  H181  1  0.176600  0.113200  0.711900  1.0  0.1386
  H  H182  1  0.157500  0.142300  0.696500  1.0  0.1312
  H  H183  1  0.176200  0.122700  0.636300  1.0  0.1288
  H  H184  1  0.195400  0.093700  0.651700  1.0  0.1296
  H  H185  1  0.193500  0.549300  0.237400  1.0  0.1298
  H  H186  1  0.176500  0.578600  0.219900  1.0  0.137
  H  H187  1  0.224700  0.579700  0.174900  1.0  0.1333
  H  H188  1  0.241800  0.550500  0.192400  1.0  0.1357
  H  H189  1  0.176600  0.613200  0.211900  1.0  0.1386
  H  H190  1  0.157500  0.642300  0.196500  1.0  0.1312
  H  H191  1  0.176200  0.622700  0.136300  1.0  0.13
  H  H192  1  0.195400  0.593700  0.151700  1.0  0.1299
  H  H193  1  0.693500  0.049300  0.237400  1.0  0.1298
  H  H194  1  0.676500  0.078600  0.219900  1.0  0.137
  H  H195  1  0.724700  0.079700  0.174900  1.0  0.1331
  H  H196  1  0.741800  0.050500  0.192400  1.0  0.1356
  H  H197  1  0.676600  0.113200  0.211900  1.0  0.1386
  H  H198  1  0.657500  0.142300  0.196500  1.0  0.1312
  H  H199  1  0.676200  0.122700  0.136300  1.0  0.1305
  H  H200  1  0.695400  0.093700  0.151700  1.0  0.1294
  H  H201  1  0.693500  0.549300  0.737400  1.0  0.1298
  H  H202  1  0.676500  0.578600  0.719900  1.0  0.137
  H  H203  1  0.724700  0.579700  0.674900  1.0  0.1333
  H  H204  1  0.741800  0.550500  0.692400  1.0  0.1357
  H  H205  1  0.676600  0.613200  0.711900  1.0  0.1386
  H  H206  1  0.657500  0.642300  0.696500  1.0  0.1312
  H  H207  1  0.676200  0.622700  0.636300  1.0  0.13
  H  H208  1  0.695400  0.593700  0.651700  1.0  0.1299
  H  H209  1  0.193500  0.950700  0.262600  1.0  0.1293
  H  H210  1  0.176500  0.921400  0.280100  1.0  0.1369
  H  H211  1  0.224700  0.920300  0.325100  1.0  0.1335
  H  H212  1  0.241800  0.949500  0.307600  1.0  0.1358
  H  H213  1  0.176600  0.886800  0.288100  1.0  0.1384
  H  H214  1  0.157500  0.857700  0.303500  1.0  0.1312
  H  H215  1  0.176200  0.877300  0.363700  1.0  0.1286
  H  H216  1  0.195400  0.906300  0.348300  1.0  0.1305
  H  H217  1  0.193500  0.450700  0.762600  1.0  0.1293
  H  H218  1  0.176500  0.421400  0.780100  1.0  0.1369
  H  H219  1  0.224700  0.420300  0.825100  1.0  0.1332
  H  H220  1  0.241800  0.449500  0.807600  1.0  0.1356
  H  H221  1  0.176600  0.386800  0.788100  1.0  0.1384
  H  H222  1  0.157500  0.357700  0.803500  1.0  0.1312
  H  H223  1  0.176200  0.377300  0.863700  1.0  0.1296
  H  H224  1  0.195400  0.406300  0.848300  1.0  0.1308
  H  H225  1  0.693500  0.950700  0.762600  1.0  0.1293
  H  H226  1  0.676500  0.921400  0.780100  1.0  0.1369
  H  H227  1  0.724700  0.920300  0.825100  1.0  0.1329
  H  H228  1  0.741800  0.949500  0.807600  1.0  0.1355
  H  H229  1  0.676600  0.886800  0.788100  1.0  0.1384
  H  H230  1  0.657500  0.857700  0.803500  1.0  0.1312
  H  H231  1  0.676200  0.877300  0.863700  1.0  0.1304
  H  H232  1  0.695400  0.906300  0.848300  1.0  0.1304
  H  H233  1  0.693500  0.450700  0.262600  1.0  0.1293
  H  H234  1  0.676500  0.421400  0.280100  1.0  0.1369
  H  H235  1  0.724700  0.420300  0.325100  1.0  0.1332
  H  H236  1  0.741800  0.449500  0.307600  1.0  0.1356
  H  H237  1  0.676600  0.386800  0.288100  1.0  0.1384
  H  H238  1  0.657500  0.357700  0.303500  1.0  0.1312
  H  H239  1  0.676200  0.377300  0.363700  1.0  0.1296
  H  H240  1  0.695400  0.406300  0.348300  1.0  0.1308
  H  H241  1  0.806500  0.950700  0.737400  1.0  0.1293
  H  H242  1  0.823500  0.921400  0.719900  1.0  0.1374
  H  H243  1  0.775300  0.920300  0.674900  1.0  0.1332
  H  H244  1  0.758200  0.949500  0.692400  1.0  0.1349
  H  H245  1  0.823400  0.886800  0.711900  1.0  0.1385
  H  H246  1  0.842500  0.857700  0.696500  1.0  0.1325
  H  H247  1  0.823800  0.877300  0.636300  1.0  0.1276
  H  H248  1  0.804600  0.906300  0.651700  1.0  0.1303
  H  H249  1  0.806500  0.450700  0.237400  1.0  0.1293
  H  H250  1  0.823500  0.421400  0.219900  1.0  0.1374
  H  H251  1  0.775300  0.420300  0.174900  1.0  0.1329
  H  H252  1  0.758200  0.449500  0.192400  1.0  0.1347
  H  H253  1  0.823400  0.386800  0.211900  1.0  0.1385
  H  H254  1  0.842500  0.357700  0.196500  1.0  0.1325
  H  H255  1  0.823800  0.377300  0.136300  1.0  0.1289
  H  H256  1  0.804600  0.406300  0.151700  1.0  0.1306
  H  H257  1  0.306500  0.950700  0.237400  1.0  0.1293
  H  H258  1  0.323500  0.921400  0.219900  1.0  0.1374
  H  H259  1  0.275300  0.920300  0.174900  1.0  0.1327
  H  H260  1  0.258200  0.949500  0.192400  1.0  0.1347
  H  H261  1  0.323400  0.886800  0.211900  1.0  0.1385
  H  H262  1  0.342500  0.857700  0.196500  1.0  0.1325
  H  H263  1  0.323800  0.877300  0.136300  1.0  0.1294
  H  H264  1  0.304600  0.906300  0.151700  1.0  0.1301
  H  H265  1  0.306500  0.450700  0.737400  1.0  0.1293
  H  H266  1  0.323500  0.421400  0.719900  1.0  0.1374
  H  H267  1  0.275300  0.420300  0.674900  1.0  0.1329
  H  H268  1  0.258200  0.449500  0.692400  1.0  0.1347
  H  H269  1  0.323400  0.386800  0.711900  1.0  0.1385
  H  H270  1  0.342500  0.357700  0.696500  1.0  0.1325
  H  H271  1  0.323800  0.377300  0.636300  1.0  0.1289
  H  H272  1  0.304600  0.406300  0.651700  1.0  0.1306
  H  H273  1  0.806500  0.049300  0.262600  1.0  0.1299
  H  H274  1  0.823500  0.078600  0.280100  1.0  0.137
  H  H275  1  0.775300  0.079700  0.325100  1.0  0.1332
  H  H276  1  0.758200  0.050500  0.307600  1.0  0.1357
  H  H277  1  0.823400  0.113200  0.288100  1.0  0.1378
  H  H278  1  0.842500  0.142300  0.303500  1.0  0.1319
  H  H279  1  0.823800  0.122700  0.363700  1.0  0.1287
  H  H280  1  0.804600  0.093700  0.348300  1.0  0.1307
  H  H281  1  0.806500  0.549300  0.762600  1.0  0.1299
  H  H282  1  0.823500  0.578600  0.780100  1.0  0.137
  H  H283  1  0.775300  0.579700  0.825100  1.0  0.133
  H  H284  1  0.758200  0.550500  0.807600  1.0  0.1354
  H  H285  1  0.823400  0.613200  0.788100  1.0  0.1378
  H  H286  1  0.842500  0.642300  0.803500  1.0  0.1319
  H  H287  1  0.823800  0.622700  0.863700  1.0  0.1295
  H  H288  1  0.804600  0.593700  0.848300  1.0  0.131
  H  H289  1  0.306500  0.049300  0.762600  1.0  0.1299
  H  H290  1  0.323500  0.078600  0.780100  1.0  0.137
  H  H291  1  0.275300  0.079700  0.825100  1.0  0.1328
  H  H292  1  0.258200  0.050500  0.807600  1.0  0.1353
  H  H293  1  0.323400  0.113200  0.788100  1.0  0.1378
  H  H294  1  0.342500  0.142300  0.803500  1.0  0.1319
  H  H295  1  0.323800  0.122700  0.863700  1.0  0.1302
  H  H296  1  0.304600  0.093700  0.848300  1.0  0.1305
  H  H297  1  0.306500  0.549300  0.262600  1.0  0.1299
  H  H298  1  0.323500  0.578600  0.280100  1.0  0.137
  H  H299  1  0.275300  0.579700  0.325100  1.0  0.133
  H  H300  1  0.258200  0.550500  0.307600  1.0  0.1354
  H  H301  1  0.323400  0.613200  0.288100  1.0  0.1378
  H  H302  1  0.342500  0.642300  0.303500  1.0  0.1319
  H  H303  1  0.323800  0.622700  0.363700  1.0  0.1296
  H  H304  1  0.304600  0.593700  0.348300  1.0  0.131
  H  H305  1  0.737400  0.193500  0.049300  1.0  0.1294
  H  H306  1  0.719900  0.176500  0.078600  1.0  0.1372
  H  H307  1  0.674900  0.224700  0.079700  1.0  0.1336
  H  H308  1  0.692400  0.241800  0.050500  1.0  0.1352
  H  H309  1  0.711900  0.176600  0.113200  1.0  0.1383
  H  H310  1  0.696500  0.157500  0.142300  1.0  0.131
  H  H311  1  0.636300  0.176200  0.122700  1.0  0.1305
  H  H312  1  0.651700  0.195400  0.093700  1.0  0.1299
  H  H313  1  0.737400  0.693500  0.549300  1.0  0.1294
  H  H314  1  0.719900  0.676500  0.578600  1.0  0.1372
  H  H315  1  0.674900  0.724700  0.579700  1.0  0.1333
  H  H316  1  0.692400  0.741800  0.550500  1.0  0.1349
  H  H317  1  0.711900  0.676600  0.613200  1.0  0.1383
  H  H318  1  0.696500  0.657500  0.642300  1.0  0.131
  H  H319  1  0.636300  0.676200  0.622700  1.0  0.1312
  H  H320  1  0.651700  0.695400  0.593700  1.0  0.1301
  H  H321  1  0.237400  0.193500  0.549300  1.0  0.1294
  H  H322  1  0.219900  0.176500  0.578600  1.0  0.1372
  H  H323  1  0.174900  0.224700  0.579700  1.0  0.1333
  H  H324  1  0.192400  0.241800  0.550500  1.0  0.1349
  H  H325  1  0.211900  0.176600  0.613200  1.0  0.1383
  H  H326  1  0.196500  0.157500  0.642300  1.0  0.131
  H  H327  1  0.136300  0.176200  0.622700  1.0  0.1313
  H  H328  1  0.151700  0.195400  0.593700  1.0  0.1301
  H  H329  1  0.237400  0.693500  0.049300  1.0  0.1294
  H  H330  1  0.219900  0.676500  0.078600  1.0  0.1372
  H  H331  1  0.174900  0.724700  0.079700  1.0  0.1332
  H  H332  1  0.192400  0.741800  0.050500  1.0  0.1349
  H  H333  1  0.211900  0.676600  0.113200  1.0  0.1383
  H  H334  1  0.196500  0.657500  0.142300  1.0  0.131
  H  H335  1  0.136300  0.676200  0.122700  1.0  0.1316
  H  H336  1  0.151700  0.695400  0.093700  1.0  0.1296
  H  H337  1  0.262600  0.193500  0.950700  1.0  0.1295
  H  H338  1  0.280100  0.176500  0.921400  1.0  0.1372
  H  H339  1  0.325100  0.224700  0.920300  1.0  0.134
  H  H340  1  0.307600  0.241800  0.949500  1.0  0.1355
  H  H341  1  0.288100  0.176600  0.886800  1.0  0.1393
  H  H342  1  0.303500  0.157500  0.857700  1.0  0.1309
  H  H343  1  0.363700  0.176200  0.877300  1.0  0.1289
  H  H344  1  0.348300  0.195400  0.906300  1.0  0.1303
  H  H345  1  0.262600  0.693500  0.450700  1.0  0.1295
  H  H346  1  0.280100  0.676500  0.421400  1.0  0.1372
  H  H347  1  0.325100  0.724700  0.420300  1.0  0.1335
  H  H348  1  0.307600  0.741800  0.449500  1.0  0.1353
  H  H349  1  0.288100  0.676600  0.386800  1.0  0.1393
  H  H350  1  0.303500  0.657500  0.357700  1.0  0.1309
  H  H351  1  0.363700  0.676200  0.377300  1.0  0.1296
  H  H352  1  0.348300  0.695400  0.406300  1.0  0.1306
  H  H353  1  0.762600  0.193500  0.450700  1.0  0.1295
  H  H354  1  0.780100  0.176500  0.421400  1.0  0.1372
  H  H355  1  0.825100  0.224700  0.420300  1.0  0.1335
  H  H356  1  0.807600  0.241800  0.449500  1.0  0.1353
  H  H357  1  0.788100  0.176600  0.386800  1.0  0.1393
  H  H358  1  0.803500  0.157500  0.357700  1.0  0.1309
  H  H359  1  0.863700  0.176200  0.377300  1.0  0.1296
  H  H360  1  0.848300  0.195400  0.406300  1.0  0.1306
  H  H361  1  0.762600  0.693500  0.950700  1.0  0.1295
  H  H362  1  0.780100  0.676500  0.921400  1.0  0.1372
  H  H363  1  0.825100  0.724700  0.920300  1.0  0.1333
  H  H364  1  0.807600  0.741800  0.949500  1.0  0.1353
  H  H365  1  0.788100  0.676600  0.886800  1.0  0.1393
  H  H366  1  0.803500  0.657500  0.857700  1.0  0.1309
  H  H367  1  0.863700  0.676200  0.877300  1.0  0.1301
  H  H368  1  0.848300  0.695400  0.906300  1.0  0.1301
  H  H369  1  0.737400  0.806500  0.950700  1.0  0.1293
  H  H370  1  0.719900  0.823500  0.921400  1.0  0.1376
  H  H371  1  0.674900  0.775300  0.920300  1.0  0.1332
  H  H372  1  0.692400  0.758200  0.949500  1.0  0.1352
  H  H373  1  0.711900  0.823400  0.886800  1.0  0.1381
  H  H374  1  0.696500  0.842500  0.857700  1.0  0.1317
  H  H375  1  0.636300  0.823800  0.877300  1.0  0.1302
  H  H376  1  0.651700  0.804600  0.906300  1.0  0.1303
  H  H377  1  0.737400  0.306500  0.450700  1.0  0.1293
  H  H378  1  0.719900  0.323500  0.421400  1.0  0.1376
  H  H379  1  0.674900  0.275300  0.420300  1.0  0.1329
  H  H380  1  0.692400  0.258200  0.449500  1.0  0.1351
  H  H381  1  0.711900  0.323400  0.386800  1.0  0.1381
  H  H382  1  0.696500  0.342500  0.357700  1.0  0.1317
  H  H383  1  0.636300  0.323800  0.377300  1.0  0.1308
  H  H384  1  0.651700  0.304600  0.406300  1.0  0.1306
  H  H385  1  0.237400  0.806500  0.450700  1.0  0.1293
  H  H386  1  0.219900  0.823500  0.421400  1.0  0.1376
  H  H387  1  0.174900  0.775300  0.420300  1.0  0.1329
  H  H388  1  0.192400  0.758200  0.449500  1.0  0.1351
  H  H389  1  0.211900  0.823400  0.386800  1.0  0.1381
  H  H390  1  0.196500  0.842500  0.357700  1.0  0.1317
  H  H391  1  0.136300  0.823800  0.377300  1.0  0.1311
  H  H392  1  0.151700  0.804600  0.406300  1.0  0.1306
  H  H393  1  0.237400  0.306500  0.950700  1.0  0.1293
  H  H394  1  0.219900  0.323500  0.921400  1.0  0.1376
  H  H395  1  0.174900  0.275300  0.920300  1.0  0.1326
  H  H396  1  0.192400  0.258200  0.949500  1.0  0.1349
  H  H397  1  0.211900  0.323400  0.886800  1.0  0.1381
  H  H398  1  0.196500  0.342500  0.857700  1.0  0.1317
  H  H399  1  0.136300  0.323800  0.877300  1.0  0.1315
  H  H400  1  0.151700  0.304600  0.906300  1.0  0.1301
  H  H401  1  0.262600  0.806500  0.049300  1.0  0.1295
  H  H402  1  0.280100  0.823500  0.078600  1.0  0.1373
  H  H403  1  0.325100  0.775300  0.079700  1.0  0.1334
  H  H404  1  0.307600  0.758200  0.050500  1.0  0.1352
  H  H405  1  0.288100  0.823400  0.113200  1.0  0.1392
  H  H406  1  0.303500  0.842500  0.142300  1.0  0.1311
  H  H407  1  0.363700  0.823800  0.122700  1.0  0.1286
  H  H408  1  0.348300  0.804600  0.093700  1.0  0.1302
  H  H409  1  0.262600  0.306500  0.549300  1.0  0.1295
  H  H410  1  0.280100  0.323500  0.578600  1.0  0.1373
  H  H411  1  0.325100  0.275300  0.579700  1.0  0.133
  H  H412  1  0.307600  0.258200  0.550500  1.0  0.135
  H  H413  1  0.288100  0.323400  0.613200  1.0  0.1392
  H  H414  1  0.303500  0.342500  0.642300  1.0  0.1311
  H  H415  1  0.363700  0.323800  0.622700  1.0  0.1291
  H  H416  1  0.348300  0.304600  0.593700  1.0  0.1304
  H  H417  1  0.762600  0.806500  0.549300  1.0  0.1295
  H  H418  1  0.780100  0.823500  0.578600  1.0  0.1373
  H  H419  1  0.825100  0.775300  0.579700  1.0  0.133
  H  H420  1  0.807600  0.758200  0.550500  1.0  0.135
  H  H421  1  0.788100  0.823400  0.613200  1.0  0.1392
  H  H422  1  0.803500  0.842500  0.642300  1.0  0.1311
  H  H423  1  0.863700  0.823800  0.622700  1.0  0.1293
  H  H424  1  0.848300  0.804600  0.593700  1.0  0.1304
  H  H425  1  0.762600  0.306500  0.049300  1.0  0.1295
  H  H426  1  0.780100  0.323500  0.078600  1.0  0.1373
  H  H427  1  0.825100  0.275300  0.079700  1.0  0.1328
  H  H428  1  0.807600  0.258200  0.050500  1.0  0.135
  H  H429  1  0.788100  0.323400  0.113200  1.0  0.1392
  H  H430  1  0.803500  0.342500  0.142300  1.0  0.1311
  H  H431  1  0.863700  0.323800  0.122700  1.0  0.1296
  H  H432  1  0.848300  0.304600  0.093700  1.0  0.1298
  H  H433  1  0.737400  0.049300  0.806500  1.0  0.1299
  H  H434  1  0.719900  0.078600  0.823500  1.0  0.137
  H  H435  1  0.674900  0.079700  0.775300  1.0  0.1333
  H  H436  1  0.692400  0.050500  0.758200  1.0  0.1353
  H  H437  1  0.711900  0.113200  0.823400  1.0  0.1377
  H  H438  1  0.696500  0.142300  0.842500  1.0  0.1314
  H  H439  1  0.636300  0.122700  0.823800  1.0  0.1304
  H  H440  1  0.651700  0.093700  0.804600  1.0  0.13
  H  H441  1  0.737400  0.549300  0.306500  1.0  0.1299
  H  H442  1  0.719900  0.578600  0.323500  1.0  0.137
  H  H443  1  0.674900  0.579700  0.275300  1.0  0.1331
  H  H444  1  0.692400  0.550500  0.258200  1.0  0.1351
  H  H445  1  0.711900  0.613200  0.323400  1.0  0.1377
  H  H446  1  0.696500  0.642300  0.342500  1.0  0.1314
  H  H447  1  0.636300  0.622700  0.323800  1.0  0.1311
  H  H448  1  0.651700  0.593700  0.304600  1.0  0.1302
  H  H449  1  0.237400  0.049300  0.306500  1.0  0.1299
  H  H450  1  0.219900  0.078600  0.323500  1.0  0.137
  H  H451  1  0.174900  0.079700  0.275300  1.0  0.1327
  H  H452  1  0.192400  0.050500  0.258200  1.0  0.135
  H  H453  1  0.211900  0.113200  0.323400  1.0  0.1377
  H  H454  1  0.196500  0.142300  0.342500  1.0  0.1314
  H  H455  1  0.136300  0.122700  0.323800  1.0  0.1318
  H  H456  1  0.151700  0.093700  0.304600  1.0  0.1297
  H  H457  1  0.237400  0.549300  0.806500  1.0  0.1299
  H  H458  1  0.219900  0.578600  0.823500  1.0  0.137
  H  H459  1  0.174900  0.579700  0.775300  1.0  0.1331
  H  H460  1  0.192400  0.550500  0.758200  1.0  0.1351
  H  H461  1  0.211900  0.613200  0.823400  1.0  0.1377
  H  H462  1  0.196500  0.642300  0.842500  1.0  0.1314
  H  H463  1  0.136300  0.622700  0.823800  1.0  0.1314
  H  H464  1  0.151700  0.593700  0.804600  1.0  0.1302
  H  H465  1  0.262600  0.950700  0.806500  1.0  0.1294
  H  H466  1  0.280100  0.921400  0.823500  1.0  0.1376
  H  H467  1  0.325100  0.920300  0.775300  1.0  0.1337
  H  H468  1  0.307600  0.949500  0.758200  1.0  0.1359
  H  H469  1  0.288100  0.886800  0.823400  1.0  0.1389
  H  H470  1  0.303500  0.857700  0.842500  1.0  0.1316
  H  H471  1  0.363700  0.877300  0.823800  1.0  0.1291
  H  H472  1  0.348300  0.906300  0.804600  1.0  0.1307
  H  H473  1  0.262600  0.450700  0.306500  1.0  0.1294
  H  H474  1  0.280100  0.421400  0.323500  1.0  0.1376
  H  H475  1  0.325100  0.420300  0.275300  1.0  0.1334
  H  H476  1  0.307600  0.449500  0.258200  1.0  0.1357
  H  H477  1  0.288100  0.386800  0.323400  1.0  0.1389
  H  H478  1  0.303500  0.357700  0.342500  1.0  0.1316
  H  H479  1  0.363700  0.377300  0.323800  1.0  0.1297
  H  H480  1  0.348300  0.406300  0.304600  1.0  0.1309
  H  H481  1  0.762600  0.950700  0.306500  1.0  0.1294
  H  H482  1  0.780100  0.921400  0.323500  1.0  0.1376
  H  H483  1  0.825100  0.920300  0.275300  1.0  0.1328
  H  H484  1  0.807600  0.949500  0.258200  1.0  0.1356
  H  H485  1  0.788100  0.886800  0.323400  1.0  0.1389
  H  H486  1  0.803500  0.857700  0.342500  1.0  0.1316
  H  H487  1  0.863700  0.877300  0.323800  1.0  0.1303
  H  H488  1  0.848300  0.906300  0.304600  1.0  0.1304
  H  H489  1  0.762600  0.450700  0.806500  1.0  0.1294
  H  H490  1  0.780100  0.421400  0.823500  1.0  0.1376
  H  H491  1  0.825100  0.420300  0.775300  1.0  0.1334
  H  H492  1  0.807600  0.449500  0.758200  1.0  0.1357
  H  H493  1  0.788100  0.386800  0.823400  1.0  0.1389
  H  H494  1  0.803500  0.357700  0.842500  1.0  0.1316
  H  H495  1  0.863700  0.377300  0.823800  1.0  0.1299
  H  H496  1  0.848300  0.406300  0.804600  1.0  0.1309
  H  H497  1  0.737400  0.950700  0.193500  1.0  0.1297
  H  H498  1  0.719900  0.921400  0.176500  1.0  0.1375
  H  H499  1  0.674900  0.920300  0.224700  1.0  0.1335
  H  H500  1  0.692400  0.949500  0.241800  1.0  0.1354
  H  H501  1  0.711900  0.886800  0.176600  1.0  0.1379
  H  H502  1  0.696500  0.857700  0.157500  1.0  0.1315
  H  H503  1  0.636300  0.877300  0.176200  1.0  0.1294
  H  H504  1  0.651700  0.906300  0.195400  1.0  0.1306
  H  H505  1  0.737400  0.450700  0.693500  1.0  0.1297
  H  H506  1  0.719900  0.421400  0.676500  1.0  0.1375
  H  H507  1  0.674900  0.420300  0.724700  1.0  0.1333
  H  H508  1  0.692400  0.449500  0.741800  1.0  0.1352
  H  H509  1  0.711900  0.386800  0.676600  1.0  0.1379
  H  H510  1  0.696500  0.357700  0.657500  1.0  0.1315
  H  H511  1  0.636300  0.377300  0.676200  1.0  0.1301
  H  H512  1  0.651700  0.406300  0.695400  1.0  0.1309
  H  H513  1  0.237400  0.950700  0.693500  1.0  0.1297
  H  H514  1  0.219900  0.921400  0.676500  1.0  0.1375
  H  H515  1  0.174900  0.920300  0.724700  1.0  0.133
  H  H516  1  0.192400  0.949500  0.741800  1.0  0.1351
  H  H517  1  0.211900  0.886800  0.676600  1.0  0.1379
  H  H518  1  0.196500  0.857700  0.657500  1.0  0.1315
  H  H519  1  0.136300  0.877300  0.676200  1.0  0.1309
  H  H520  1  0.151700  0.906300  0.695400  1.0  0.1303
  H  H521  1  0.237400  0.450700  0.193500  1.0  0.1297
  H  H522  1  0.219900  0.421400  0.176500  1.0  0.1375
  H  H523  1  0.174900  0.420300  0.224700  1.0  0.1333
  H  H524  1  0.192400  0.449500  0.241800  1.0  0.1352
  H  H525  1  0.211900  0.386800  0.176600  1.0  0.1379
  H  H526  1  0.196500  0.357700  0.157500  1.0  0.1315
  H  H527  1  0.136300  0.377300  0.176200  1.0  0.1305
  H  H528  1  0.151700  0.406300  0.195400  1.0  0.1309
  H  H529  1  0.262600  0.049300  0.193500  1.0  0.13
  H  H530  1  0.280100  0.078600  0.176500  1.0  0.1368
  H  H531  1  0.325100  0.079700  0.224700  1.0  0.1332
  H  H532  1  0.307600  0.050500  0.241800  1.0  0.1354
  H  H533  1  0.288100  0.113200  0.176600  1.0  0.1386
  H  H534  1  0.303500  0.142300  0.157500  1.0  0.1313
  H  H535  1  0.363700  0.122700  0.176200  1.0  0.1294
  H  H536  1  0.348300  0.093700  0.195400  1.0  0.1308
  H  H537  1  0.262600  0.549300  0.693500  1.0  0.13
  H  H538  1  0.280100  0.578600  0.676500  1.0  0.1368
  H  H539  1  0.325100  0.579700  0.724700  1.0  0.1329
  H  H540  1  0.307600  0.550500  0.741800  1.0  0.1352
  H  H541  1  0.288100  0.613200  0.676600  1.0  0.1386
  H  H542  1  0.303500  0.642300  0.657500  1.0  0.1313
  H  H543  1  0.363700  0.622700  0.676200  1.0  0.13
  H  H544  1  0.348300  0.593700  0.695400  1.0  0.1311
  H  H545  1  0.762600  0.049300  0.693500  1.0  0.13
  H  H546  1  0.780100  0.078600  0.676500  1.0  0.1368
  H  H547  1  0.825100  0.079700  0.724700  1.0  0.1327
  H  H548  1  0.807600  0.050500  0.741800  1.0  0.135
  H  H549  1  0.788100  0.113200  0.676600  1.0  0.1386
  H  H550  1  0.803500  0.142300  0.657500  1.0  0.1313
  H  H551  1  0.863700  0.122700  0.676200  1.0  0.1305
  H  H552  1  0.848300  0.093700  0.695400  1.0  0.1305
  H  H553  1  0.762600  0.549300  0.193500  1.0  0.13
  H  H554  1  0.780100  0.578600  0.176500  1.0  0.1368
  H  H555  1  0.825100  0.579700  0.224700  1.0  0.1329
  H  H556  1  0.807600  0.550500  0.241800  1.0  0.1352
  H  H557  1  0.788100  0.613200  0.176600  1.0  0.1386
  H  H558  1  0.803500  0.642300  0.157500  1.0  0.1313
  H  H559  1  0.863700  0.622700  0.176200  1.0  0.1302
  H  H560  1  0.848300  0.593700  0.195400  1.0  0.1311
  H  H561  1  0.049300  0.193500  0.262600  1.0  0.1298
  H  H562  1  0.078600  0.176500  0.280100  1.0  0.1371
  H  H563  1  0.079700  0.224700  0.325100  1.0  0.1337
  H  H564  1  0.050500  0.241800  0.307600  1.0  0.1354
  H  H565  1  0.113200  0.176600  0.288100  1.0  0.1376
  H  H566  1  0.142300  0.157500  0.303500  1.0  0.1318
  H  H567  1  0.122700  0.176200  0.363700  1.0  0.1291
  H  H568  1  0.093700  0.195400  0.348300  1.0  0.1301
  H  H569  1  0.049300  0.693500  0.762600  1.0  0.1298
  H  H570  1  0.078600  0.676500  0.780100  1.0  0.1371
  H  H571  1  0.079700  0.724700  0.825100  1.0  0.1332
  H  H572  1  0.050500  0.741800  0.807600  1.0  0.1352
  H  H573  1  0.113200  0.676600  0.788100  1.0  0.1376
  H  H574  1  0.142300  0.657500  0.803500  1.0  0.1318
  H  H575  1  0.122700  0.676200  0.863700  1.0  0.1306
  H  H576  1  0.093700  0.695400  0.848300  1.0  0.1299
  H  H577  1  0.549300  0.193500  0.762600  1.0  0.1298
  H  H578  1  0.578600  0.176500  0.780100  1.0  0.1371
  H  H579  1  0.579700  0.224700  0.825100  1.0  0.1334
  H  H580  1  0.550500  0.241800  0.807600  1.0  0.1352
  H  H581  1  0.613200  0.176600  0.788100  1.0  0.1376
  H  H582  1  0.642300  0.157500  0.803500  1.0  0.1318
  H  H583  1  0.622700  0.176200  0.863700  1.0  0.13
  H  H584  1  0.593700  0.195400  0.848300  1.0  0.1304
  H  H585  1  0.549300  0.693500  0.262600  1.0  0.1298
  H  H586  1  0.578600  0.676500  0.280100  1.0  0.1371
  H  H587  1  0.579700  0.724700  0.325100  1.0  0.1334
  H  H588  1  0.550500  0.741800  0.307600  1.0  0.1352
  H  H589  1  0.613200  0.676600  0.288100  1.0  0.1376
  H  H590  1  0.642300  0.657500  0.303500  1.0  0.1318
  H  H591  1  0.622700  0.676200  0.363700  1.0  0.1297
  H  H592  1  0.593700  0.695400  0.348300  1.0  0.1304
  H  H593  1  0.950700  0.193500  0.737400  1.0  0.1296
  H  H594  1  0.921400  0.176500  0.719900  1.0  0.1373
  H  H595  1  0.920300  0.224700  0.674900  1.0  0.1341
  H  H596  1  0.949500  0.241800  0.692400  1.0  0.1353
  H  H597  1  0.886800  0.176600  0.711900  1.0  0.1383
  H  H598  1  0.857700  0.157500  0.696500  1.0  0.1318
  H  H599  1  0.877300  0.176200  0.636300  1.0  0.1284
  H  H600  1  0.906300  0.195400  0.651700  1.0  0.1301
  H  H601  1  0.950700  0.693500  0.237400  1.0  0.1296
  H  H602  1  0.921400  0.676500  0.219900  1.0  0.1373
  H  H603  1  0.920300  0.724700  0.174900  1.0  0.1334
  H  H604  1  0.949500  0.741800  0.192400  1.0  0.135
  H  H605  1  0.886800  0.676600  0.211900  1.0  0.1383
  H  H606  1  0.857700  0.657500  0.196500  1.0  0.1318
  H  H607  1  0.877300  0.676200  0.136300  1.0  0.1297
  H  H608  1  0.906300  0.695400  0.151700  1.0  0.1299
  H  H609  1  0.450700  0.193500  0.237400  1.0  0.1296
  H  H610  1  0.421400  0.176500  0.219900  1.0  0.1373
  H  H611  1  0.420300  0.224700  0.174900  1.0  0.1337
  H  H612  1  0.449500  0.241800  0.192400  1.0  0.1351
  H  H613  1  0.386800  0.176600  0.211900  1.0  0.1383
  H  H614  1  0.357700  0.157500  0.196500  1.0  0.1318
  H  H615  1  0.377300  0.176200  0.136300  1.0  0.1294
  H  H616  1  0.406300  0.195400  0.151700  1.0  0.1304
  H  H617  1  0.450700  0.693500  0.737400  1.0  0.1296
  H  H618  1  0.421400  0.676500  0.719900  1.0  0.1373
  H  H619  1  0.420300  0.724700  0.674900  1.0  0.1337
  H  H620  1  0.449500  0.741800  0.692400  1.0  0.1351
  H  H621  1  0.386800  0.676600  0.711900  1.0  0.1383
  H  H622  1  0.357700  0.657500  0.696500  1.0  0.1318
  H  H623  1  0.377300  0.676200  0.636300  1.0  0.1293
  H  H624  1  0.406300  0.695400  0.651700  1.0  0.1304
  H  H625  1  0.950700  0.806500  0.262600  1.0  0.1297
  H  H626  1  0.921400  0.823500  0.280100  1.0  0.1373
  H  H627  1  0.920300  0.775300  0.325100  1.0  0.1334
  H  H628  1  0.949500  0.758200  0.307600  1.0  0.1359
  H  H629  1  0.886800  0.823400  0.288100  1.0  0.1384
  H  H630  1  0.857700  0.842500  0.303500  1.0  0.132
  H  H631  1  0.877300  0.823800  0.363700  1.0  0.1282
  H  H632  1  0.906300  0.804600  0.348300  1.0  0.1305
  H  H633  1  0.950700  0.306500  0.762600  1.0  0.1297
  H  H634  1  0.921400  0.323500  0.780100  1.0  0.1373
  H  H635  1  0.920300  0.275300  0.825100  1.0  0.1328
  H  H636  1  0.949500  0.258200  0.807600  1.0  0.1356
  H  H637  1  0.886800  0.323400  0.788100  1.0  0.1384
  H  H638  1  0.857700  0.342500  0.803500  1.0  0.132
  H  H639  1  0.877300  0.323800  0.863700  1.0  0.1297
  H  H640  1  0.906300  0.304600  0.848300  1.0  0.1303
  H  H641  1  0.450700  0.806500  0.762600  1.0  0.1297
  H  H642  1  0.421400  0.823500  0.780100  1.0  0.1373
  H  H643  1  0.420300  0.775300  0.825100  1.0  0.1331
  H  H644  1  0.449500  0.758200  0.807600  1.0  0.1357
  H  H645  1  0.386800  0.823400  0.788100  1.0  0.1384
  H  H646  1  0.357700  0.842500  0.803500  1.0  0.132
  H  H647  1  0.377300  0.823800  0.863700  1.0  0.1291
  H  H648  1  0.406300  0.804600  0.848300  1.0  0.1309
  H  H649  1  0.450700  0.306500  0.262600  1.0  0.1297
  H  H650  1  0.421400  0.323500  0.280100  1.0  0.1373
  H  H651  1  0.420300  0.275300  0.325100  1.0  0.1331
  H  H652  1  0.449500  0.258200  0.307600  1.0  0.1357
  H  H653  1  0.386800  0.323400  0.288100  1.0  0.1384
  H  H654  1  0.357700  0.342500  0.303500  1.0  0.132
  H  H655  1  0.377300  0.323800  0.363700  1.0  0.1288
  H  H656  1  0.406300  0.304600  0.348300  1.0  0.1309
  H  H657  1  0.049300  0.806500  0.737400  1.0  0.1296
  H  H658  1  0.078600  0.823500  0.719900  1.0  0.1377
  H  H659  1  0.079700  0.775300  0.674900  1.0  0.1333
  H  H660  1  0.050500  0.758200  0.692400  1.0  0.1354
  H  H661  1  0.113200  0.823400  0.711900  1.0  0.1382
  H  H662  1  0.142300  0.842500  0.696500  1.0  0.1317
  H  H663  1  0.122700  0.823800  0.636300  1.0  0.128
  H  H664  1  0.093700  0.804600  0.651700  1.0  0.1294
  H  H665  1  0.049300  0.306500  0.237400  1.0  0.1296
  H  H666  1  0.078600  0.323500  0.219900  1.0  0.1377
  H  H667  1  0.079700  0.275300  0.174900  1.0  0.1327
  H  H668  1  0.050500  0.258200  0.192400  1.0  0.1351
  H  H669  1  0.113200  0.323400  0.211900  1.0  0.1382
  H  H670  1  0.142300  0.342500  0.196500  1.0  0.1317
  H  H671  1  0.122700  0.323800  0.136300  1.0  0.1294
  H  H672  1  0.093700  0.304600  0.151700  1.0  0.1291
  H  H673  1  0.549300  0.806500  0.237400  1.0  0.1296
  H  H674  1  0.578600  0.823500  0.219900  1.0  0.1377
  H  H675  1  0.579700  0.775300  0.174900  1.0  0.1329
  H  H676  1  0.550500  0.758200  0.192400  1.0  0.1352
  H  H677  1  0.613200  0.823400  0.211900  1.0  0.1382
  H  H678  1  0.642300  0.842500  0.196500  1.0  0.1317
  H  H679  1  0.622700  0.823800  0.136300  1.0  0.129
  H  H680  1  0.593700  0.804600  0.151700  1.0  0.1296
  H  H681  1  0.549300  0.306500  0.737400  1.0  0.1296
  H  H682  1  0.578600  0.323500  0.719900  1.0  0.1377
  H  H683  1  0.579700  0.275300  0.674900  1.0  0.1329
  H  H684  1  0.550500  0.258200  0.692400  1.0  0.1352
  H  H685  1  0.613200  0.323400  0.711900  1.0  0.1382
  H  H686  1  0.642300  0.342500  0.696500  1.0  0.1317
  H  H687  1  0.622700  0.323800  0.636300  1.0  0.1286
  H  H688  1  0.593700  0.304600  0.651700  1.0  0.1296
  H  H689  1  0.193500  0.737400  0.950700  1.0  0.1292
  H  H690  1  0.176500  0.719900  0.921400  1.0  0.1371
  H  H691  1  0.224700  0.674900  0.920300  1.0  0.1334
  H  H692  1  0.241800  0.692400  0.949500  1.0  0.136
  H  H693  1  0.176600  0.711900  0.886800  1.0  0.1381
  H  H694  1  0.157500  0.696500  0.857700  1.0  0.1323
  H  H695  1  0.176200  0.636300  0.877300  1.0  0.1268
  H  H696  1  0.195400  0.651700  0.906300  1.0  0.1307
  H  H697  1  0.193500  0.237400  0.450700  1.0  0.1292
  H  H698  1  0.176500  0.219900  0.421400  1.0  0.1371
  H  H699  1  0.224700  0.174900  0.420300  1.0  0.1329
  H  H700  1  0.241800  0.192400  0.449500  1.0  0.1358
  H  H701  1  0.176600  0.211900  0.386800  1.0  0.1381
  H  H702  1  0.157500  0.196500  0.357700  1.0  0.1323
  H  H703  1  0.176200  0.136300  0.377300  1.0  0.1278
  H  H704  1  0.195400  0.151700  0.406300  1.0  0.131
  H  H705  1  0.693500  0.737400  0.450700  1.0  0.1292
  H  H706  1  0.676500  0.719900  0.421400  1.0  0.1371
  H  H707  1  0.724700  0.674900  0.420300  1.0  0.1329
  H  H708  1  0.741800  0.692400  0.449500  1.0  0.1358
  H  H709  1  0.676600  0.711900  0.386800  1.0  0.1381
  H  H710  1  0.657500  0.696500  0.357700  1.0  0.1323
  H  H711  1  0.676200  0.636300  0.377300  1.0  0.1277
  H  H712  1  0.695400  0.651700  0.406300  1.0  0.131
  H  H713  1  0.693500  0.237400  0.950700  1.0  0.1292
  H  H714  1  0.676500  0.219900  0.921400  1.0  0.1371
  H  H715  1  0.724700  0.174900  0.920300  1.0  0.1326
  H  H716  1  0.741800  0.192400  0.949500  1.0  0.1357
  H  H717  1  0.676600  0.211900  0.886800  1.0  0.1381
  H  H718  1  0.657500  0.196500  0.857700  1.0  0.1323
  H  H719  1  0.676200  0.136300  0.877300  1.0  0.1282
  H  H720  1  0.695400  0.151700  0.906300  1.0  0.1304
  H  H721  1  0.193500  0.262600  0.049300  1.0  0.1287
  H  H722  1  0.176500  0.280100  0.078600  1.0  0.1371
  H  H723  1  0.224700  0.325100  0.079700  1.0  0.1334
  H  H724  1  0.241800  0.307600  0.050500  1.0  0.136
  H  H725  1  0.176600  0.288100  0.113200  1.0  0.1375
  H  H726  1  0.157500  0.303500  0.142300  1.0  0.131
  H  H727  1  0.176200  0.363700  0.122700  1.0  0.1278
  H  H728  1  0.195400  0.348300  0.093700  1.0  0.1306
  H  H729  1  0.193500  0.762600  0.549300  1.0  0.1287
  H  H730  1  0.176500  0.780100  0.578600  1.0  0.1371
  H  H731  1  0.224700  0.825100  0.579700  1.0  0.1328
  H  H732  1  0.241800  0.807600  0.550500  1.0  0.1358
  H  H733  1  0.176600  0.788100  0.613200  1.0  0.1375
  H  H734  1  0.157500  0.803500  0.642300  1.0  0.131
  H  H735  1  0.176200  0.863700  0.622700  1.0  0.129
  H  H736  1  0.195400  0.848300  0.593700  1.0  0.1309
  H  H737  1  0.693500  0.262600  0.549300  1.0  0.1287
  H  H738  1  0.676500  0.280100  0.578600  1.0  0.1371
  H  H739  1  0.724700  0.325100  0.579700  1.0  0.1328
  H  H740  1  0.741800  0.307600  0.550500  1.0  0.1358
  H  H741  1  0.676600  0.288100  0.613200  1.0  0.1375
  H  H742  1  0.657500  0.303500  0.642300  1.0  0.131
  H  H743  1  0.676200  0.363700  0.622700  1.0  0.129
  H  H744  1  0.695400  0.348300  0.593700  1.0  0.1309
  H  H745  1  0.693500  0.762600  0.049300  1.0  0.1287
  H  H746  1  0.676500  0.780100  0.078600  1.0  0.1371
  H  H747  1  0.724700  0.825100  0.079700  1.0  0.1327
  H  H748  1  0.741800  0.807600  0.050500  1.0  0.1357
  H  H749  1  0.676600  0.788100  0.113200  1.0  0.1375
  H  H750  1  0.657500  0.803500  0.142300  1.0  0.131
  H  H751  1  0.676200  0.863700  0.122700  1.0  0.1293
  H  H752  1  0.695400  0.848300  0.093700  1.0  0.1302
  H  H753  1  0.806500  0.737400  0.049300  1.0  0.1295
  H  H754  1  0.823500  0.719900  0.078600  1.0  0.1371
  H  H755  1  0.775300  0.674900  0.079700  1.0  0.1328
  H  H756  1  0.758200  0.692400  0.050500  1.0  0.1353
  H  H757  1  0.823400  0.711900  0.113200  1.0  0.1376
  H  H758  1  0.842500  0.696500  0.142300  1.0  0.1312
  H  H759  1  0.823800  0.636300  0.122700  1.0  0.1273
  H  H760  1  0.804600  0.651700  0.093700  1.0  0.1299
  H  H761  1  0.806500  0.237400  0.549300  1.0  0.1295
  H  H762  1  0.823500  0.219900  0.578600  1.0  0.1371
  H  H763  1  0.775300  0.174900  0.579700  1.0  0.1324
  H  H764  1  0.758200  0.192400  0.550500  1.0  0.1351
  H  H765  1  0.823400  0.211900  0.613200  1.0  0.1376
  H  H766  1  0.842500  0.196500  0.642300  1.0  0.1312
  H  H767  1  0.823800  0.136300  0.622700  1.0  0.1281
  H  H768  1  0.804600  0.151700  0.593700  1.0  0.1302
  H  H769  1  0.306500  0.737400  0.549300  1.0  0.1295
  H  H770  1  0.323500  0.719900  0.578600  1.0  0.1371
  H  H771  1  0.275300  0.674900  0.579700  1.0  0.1324
  H  H772  1  0.258200  0.692400  0.550500  1.0  0.1351
  H  H773  1  0.323400  0.711900  0.613200  1.0  0.1376
  H  H774  1  0.342500  0.696500  0.642300  1.0  0.1312
  H  H775  1  0.323800  0.636300  0.622700  1.0  0.128
  H  H776  1  0.304600  0.651700  0.593700  1.0  0.1302
  H  H777  1  0.306500  0.237400  0.049300  1.0  0.1295
  H  H778  1  0.323500  0.219900  0.078600  1.0  0.1371
  H  H779  1  0.275300  0.174900  0.079700  1.0  0.1322
  H  H780  1  0.258200  0.192400  0.050500  1.0  0.1351
  H  H781  1  0.323400  0.211900  0.113200  1.0  0.1376
  H  H782  1  0.342500  0.196500  0.142300  1.0  0.1312
  H  H783  1  0.323800  0.136300  0.122700  1.0  0.1284
  H  H784  1  0.304600  0.151700  0.093700  1.0  0.1296
  H  H785  1  0.806500  0.262600  0.950700  1.0  0.1293
  H  H786  1  0.823500  0.280100  0.921400  1.0  0.1373
  H  H787  1  0.775300  0.325100  0.920300  1.0  0.1334
  H  H788  1  0.758200  0.307600  0.949500  1.0  0.1351
  H  H789  1  0.823400  0.288100  0.886800  1.0  0.1373
  H  H790  1  0.842500  0.303500  0.857700  1.0  0.1313
  H  H791  1  0.823800  0.363700  0.877300  1.0  0.1274
  H  H792  1  0.804600  0.348300  0.906300  1.0  0.1307
  H  H793  1  0.806500  0.762600  0.450700  1.0  0.1293
  H  H794  1  0.823500  0.780100  0.421400  1.0  0.1373
  H  H795  1  0.775300  0.825100  0.420300  1.0  0.1331
  H  H796  1  0.758200  0.807600  0.449500  1.0  0.1349
  H  H797  1  0.823400  0.788100  0.386800  1.0  0.1373
  H  H798  1  0.842500  0.803500  0.357700  1.0  0.1313
  H  H799  1  0.823800  0.863700  0.377300  1.0  0.1287
  H  H800  1  0.804600  0.848300  0.406300  1.0  0.1311
  H  H801  1  0.306500  0.262600  0.450700  1.0  0.1293
  H  H802  1  0.323500  0.280100  0.421400  1.0  0.1373
  H  H803  1  0.275300  0.325100  0.420300  1.0  0.1331
  H  H804  1  0.258200  0.307600  0.449500  1.0  0.1349
  H  H805  1  0.323400  0.288100  0.386800  1.0  0.1373
  H  H806  1  0.342500  0.303500  0.357700  1.0  0.1313
  H  H807  1  0.323800  0.363700  0.377300  1.0  0.1289
  H  H808  1  0.304600  0.348300  0.406300  1.0  0.1311
  H  H809  1  0.306500  0.762600  0.950700  1.0  0.1293
  H  H810  1  0.323500  0.780100  0.921400  1.0  0.1373
  H  H811  1  0.275300  0.825100  0.920300  1.0  0.133
  H  H812  1  0.258200  0.807600  0.949500  1.0  0.1347
  H  H813  1  0.323400  0.788100  0.886800  1.0  0.1373
  H  H814  1  0.342500  0.803500  0.857700  1.0  0.1313
  H  H815  1  0.323800  0.863700  0.877300  1.0  0.129
  H  H816  1  0.304600  0.848300  0.906300  1.0  0.1305
  C  C817  1  0.028130  0.730100  0.232230  1.0  0.5157
  C  C818  1  0.047030  0.716610  0.219350  1.0  -0.1137
  C  C819  1  0.055430  0.724850  0.199800  1.0  -0.0311
  C  C820  1  0.072940  0.714370  0.189580  1.0  -0.1251
  C  C821  1  0.082050  0.695640  0.198920  1.0  0.0161
  C  C822  1  0.073650  0.687400  0.218470  1.0  -0.097
  C  C823  1  0.056140  0.697880  0.228690  1.0  -0.0404
  C  C824  1  0.100550  0.683350  0.187910  1.0  0.0727
  C  C825  1  0.115120  0.696760  0.176560  1.0  -0.1785
  C  C826  1  0.132540  0.687520  0.165070  1.0  -0.1443
  C  C827  1  0.135400  0.664880  0.164950  1.0  0.1662
  C  C828  1  0.120830  0.651480  0.176300  1.0  -0.2025
  C  C829  1  0.103410  0.660710  0.187790  1.0  -0.0902
  C  C830  1  0.028130  0.230100  0.732230  1.0  0.5157
  C  C831  1  0.047030  0.216610  0.719350  1.0  -0.1137
  C  C832  1  0.055430  0.224850  0.699800  1.0  -0.0311
  C  C833  1  0.072940  0.214370  0.689580  1.0  -0.1251
  C  C834  1  0.082050  0.195640  0.698920  1.0  0.0161
  C  C835  1  0.073650  0.187400  0.718470  1.0  -0.097
  C  C836  1  0.056140  0.197880  0.728690  1.0  -0.0404
  C  C837  1  0.100550  0.183350  0.687910  1.0  0.0727
  C  C838  1  0.115120  0.196760  0.676560  1.0  -0.1785
  C  C839  1  0.132540  0.187520  0.665070  1.0  -0.1443
  C  C840  1  0.135400  0.164880  0.664950  1.0  0.1662
  C  C841  1  0.120830  0.151480  0.676300  1.0  -0.2025
  C  C842  1  0.103410  0.160710  0.687790  1.0  -0.0902
  C  C843  1  0.528130  0.730100  0.732230  1.0  0.5157
  C  C844  1  0.547030  0.716610  0.719350  1.0  -0.1137
  C  C845  1  0.555430  0.724850  0.699800  1.0  -0.0311
  C  C846  1  0.572940  0.714370  0.689580  1.0  -0.1251
  C  C847  1  0.582050  0.695640  0.698920  1.0  0.0161
  C  C848  1  0.573650  0.687400  0.718470  1.0  -0.097
  C  C849  1  0.556140  0.697880  0.728690  1.0  -0.0404
  C  C850  1  0.600550  0.683350  0.687910  1.0  0.0727
  C  C851  1  0.615120  0.696760  0.676560  1.0  -0.1785
  C  C852  1  0.632540  0.687520  0.665070  1.0  -0.1443
  C  C853  1  0.635400  0.664880  0.664950  1.0  0.1662
  C  C854  1  0.620830  0.651480  0.676300  1.0  -0.2025
  C  C855  1  0.603410  0.660710  0.687790  1.0  -0.0902
  C  C856  1  0.528130  0.230100  0.232230  1.0  0.5157
  C  C857  1  0.547030  0.216610  0.219350  1.0  -0.1137
  C  C858  1  0.555430  0.224850  0.199800  1.0  -0.0311
  C  C859  1  0.572940  0.214370  0.189580  1.0  -0.1251
  C  C860  1  0.582050  0.195640  0.198920  1.0  0.0161
  C  C861  1  0.573650  0.187400  0.218470  1.0  -0.097
  C  C862  1  0.556140  0.197880  0.228690  1.0  -0.0404
  C  C863  1  0.600550  0.183350  0.187910  1.0  0.0727
  C  C864  1  0.615120  0.196760  0.176560  1.0  -0.1785
  C  C865  1  0.632540  0.187520  0.165070  1.0  -0.1443
  C  C866  1  0.635400  0.164880  0.164950  1.0  0.1662
  C  C867  1  0.620830  0.151480  0.176300  1.0  -0.2025
  C  C868  1  0.603410  0.160710  0.187790  1.0  -0.0902
  C  C869  1  0.971870  0.269900  0.232230  1.0  0.5143
  C  C870  1  0.952970  0.283390  0.219350  1.0  -0.1199
  C  C871  1  0.944570  0.275150  0.199800  1.0  -0.0306
  C  C872  1  0.927060  0.285630  0.189580  1.0  -0.1247
  C  C873  1  0.917950  0.304360  0.198920  1.0  0.0172
  C  C874  1  0.926350  0.312600  0.218470  1.0  -0.0979
  C  C875  1  0.943860  0.302120  0.228690  1.0  -0.0358
  C  C876  1  0.899450  0.316650  0.187910  1.0  0.0722
  C  C877  1  0.884880  0.303240  0.176560  1.0  -0.1833
  C  C878  1  0.867460  0.312480  0.165070  1.0  -0.1456
  C  C879  1  0.864600  0.335120  0.164950  1.0  0.165
  C  C880  1  0.879170  0.348520  0.176300  1.0  -0.208
  C  C881  1  0.896590  0.339290  0.187790  1.0  -0.0929
  C  C882  1  0.971870  0.769900  0.732230  1.0  0.5143
  C  C883  1  0.952970  0.783390  0.719350  1.0  -0.1199
  C  C884  1  0.944570  0.775150  0.699800  1.0  -0.0306
  C  C885  1  0.927060  0.785630  0.689580  1.0  -0.1247
  C  C886  1  0.917950  0.804360  0.698920  1.0  0.0172
  C  C887  1  0.926350  0.812600  0.718470  1.0  -0.0979
  C  C888  1  0.943860  0.802120  0.728690  1.0  -0.0358
  C  C889  1  0.899450  0.816650  0.687910  1.0  0.0722
  C  C890  1  0.884880  0.803240  0.676560  1.0  -0.1833
  C  C891  1  0.867460  0.812480  0.665070  1.0  -0.1456
  C  C892  1  0.864600  0.835120  0.664950  1.0  0.165
  C  C893  1  0.879170  0.848520  0.676300  1.0  -0.208
  C  C894  1  0.896590  0.839290  0.687790  1.0  -0.0929
  C  C895  1  0.471870  0.269900  0.732230  1.0  0.5143
  C  C896  1  0.452970  0.283390  0.719350  1.0  -0.1199
  C  C897  1  0.444570  0.275150  0.699800  1.0  -0.0306
  C  C898  1  0.427060  0.285630  0.689580  1.0  -0.1247
  C  C899  1  0.417950  0.304360  0.698920  1.0  0.0172
  C  C900  1  0.426350  0.312600  0.718470  1.0  -0.0979
  C  C901  1  0.443860  0.302120  0.728690  1.0  -0.0358
  C  C902  1  0.399450  0.316650  0.687910  1.0  0.0722
  C  C903  1  0.384880  0.303240  0.676560  1.0  -0.1833
  C  C904  1  0.367460  0.312480  0.665070  1.0  -0.1456
  C  C905  1  0.364600  0.335120  0.664950  1.0  0.165
  C  C906  1  0.379170  0.348520  0.676300  1.0  -0.208
  C  C907  1  0.396590  0.339290  0.687790  1.0  -0.0929
  C  C908  1  0.471870  0.769900  0.232230  1.0  0.5143
  C  C909  1  0.452970  0.783390  0.219350  1.0  -0.1199
  C  C910  1  0.444570  0.775150  0.199800  1.0  -0.0306
  C  C911  1  0.427060  0.785630  0.189580  1.0  -0.1247
  C  C912  1  0.417950  0.804360  0.198920  1.0  0.0172
  C  C913  1  0.426350  0.812600  0.218470  1.0  -0.0979
  C  C914  1  0.443860  0.802120  0.228690  1.0  -0.0358
  C  C915  1  0.399450  0.816650  0.187910  1.0  0.0722
  C  C916  1  0.384880  0.803240  0.176560  1.0  -0.1833
  C  C917  1  0.367460  0.812480  0.165070  1.0  -0.1456
  C  C918  1  0.364600  0.835120  0.164950  1.0  0.165
  C  C919  1  0.379170  0.848520  0.176300  1.0  -0.208
  C  C920  1  0.396590  0.839290  0.187790  1.0  -0.0929
  C  C921  1  0.971870  0.730100  0.767770  1.0  0.5139
  C  C922  1  0.952970  0.716610  0.780650  1.0  -0.121
  C  C923  1  0.944570  0.724850  0.800200  1.0  -0.0292
  C  C924  1  0.927060  0.714370  0.810420  1.0  -0.1198
  C  C925  1  0.917950  0.695640  0.801080  1.0  0.0174
  C  C926  1  0.926350  0.687400  0.781530  1.0  -0.0958
  C  C927  1  0.943860  0.697880  0.771310  1.0  -0.0366
  C  C928  1  0.899450  0.683350  0.812090  1.0  0.0722
  C  C929  1  0.884880  0.696760  0.823440  1.0  -0.1827
  C  C930  1  0.867460  0.687520  0.834930  1.0  -0.1469
  C  C931  1  0.864600  0.664880  0.835050  1.0  0.165
  C  C932  1  0.879170  0.651480  0.823700  1.0  -0.2022
  C  C933  1  0.896590  0.660710  0.812210  1.0  -0.0916
  C  C934  1  0.971870  0.230100  0.267770  1.0  0.5139
  C  C935  1  0.952970  0.216610  0.280650  1.0  -0.121
  C  C936  1  0.944570  0.224850  0.300200  1.0  -0.0292
  C  C937  1  0.927060  0.214370  0.310420  1.0  -0.1198
  C  C938  1  0.917950  0.195640  0.301080  1.0  0.0174
  C  C939  1  0.926350  0.187400  0.281530  1.0  -0.0958
  C  C940  1  0.943860  0.197880  0.271310  1.0  -0.0366
  C  C941  1  0.899450  0.183350  0.312090  1.0  0.0722
  C  C942  1  0.884880  0.196760  0.323440  1.0  -0.1827
  C  C943  1  0.867460  0.187520  0.334930  1.0  -0.1469
  C  C944  1  0.864600  0.164880  0.335050  1.0  0.165
  C  C945  1  0.879170  0.151480  0.323700  1.0  -0.2022
  C  C946  1  0.896590  0.160710  0.312210  1.0  -0.0916
  C  C947  1  0.471870  0.730100  0.267770  1.0  0.5139
  C  C948  1  0.452970  0.716610  0.280650  1.0  -0.121
  C  C949  1  0.444570  0.724850  0.300200  1.0  -0.0292
  C  C950  1  0.427060  0.714370  0.310420  1.0  -0.1198
  C  C951  1  0.417950  0.695640  0.301080  1.0  0.0174
  C  C952  1  0.426350  0.687400  0.281530  1.0  -0.0958
  C  C953  1  0.443860  0.697880  0.271310  1.0  -0.0366
  C  C954  1  0.399450  0.683350  0.312090  1.0  0.0722
  C  C955  1  0.384880  0.696760  0.323440  1.0  -0.1827
  C  C956  1  0.367460  0.687520  0.334930  1.0  -0.1469
  C  C957  1  0.364600  0.664880  0.335050  1.0  0.165
  C  C958  1  0.379170  0.651480  0.323700  1.0  -0.2022
  C  C959  1  0.396590  0.660710  0.312210  1.0  -0.0916
  C  C960  1  0.471870  0.230100  0.767770  1.0  0.5139
  C  C961  1  0.452970  0.216610  0.780650  1.0  -0.121
  C  C962  1  0.444570  0.224850  0.800200  1.0  -0.0292
  C  C963  1  0.427060  0.214370  0.810420  1.0  -0.1198
  C  C964  1  0.417950  0.195640  0.801080  1.0  0.0174
  C  C965  1  0.426350  0.187400  0.781530  1.0  -0.0958
  C  C966  1  0.443860  0.197880  0.771310  1.0  -0.0366
  C  C967  1  0.399450  0.183350  0.812090  1.0  0.0722
  C  C968  1  0.384880  0.196760  0.823440  1.0  -0.1827
  C  C969  1  0.367460  0.187520  0.834930  1.0  -0.1469
  C  C970  1  0.364600  0.164880  0.835050  1.0  0.165
  C  C971  1  0.379170  0.151480  0.823700  1.0  -0.2022
  C  C972  1  0.396590  0.160710  0.812210  1.0  -0.0916
  C  C973  1  0.028130  0.269900  0.767770  1.0  0.5145
  C  C974  1  0.047030  0.283390  0.780650  1.0  -0.1252
  C  C975  1  0.055430  0.275150  0.800200  1.0  -0.0287
  C  C976  1  0.072940  0.285630  0.810420  1.0  -0.1229
  C  C977  1  0.082050  0.304360  0.801080  1.0  0.0175
  C  C978  1  0.073650  0.312600  0.781530  1.0  -0.0992
  C  C979  1  0.056140  0.302120  0.771310  1.0  -0.0356
  C  C980  1  0.100550  0.316650  0.812090  1.0  0.0726
  C  C981  1  0.115120  0.303240  0.823440  1.0  -0.1791
  C  C982  1  0.132540  0.312480  0.834930  1.0  -0.1447
  C  C983  1  0.135400  0.335120  0.835050  1.0  0.1665
  C  C984  1  0.120830  0.348520  0.823700  1.0  -0.2007
  C  C985  1  0.103410  0.339290  0.812210  1.0  -0.0926
  C  C986  1  0.028130  0.769900  0.267770  1.0  0.5145
  C  C987  1  0.047030  0.783390  0.280650  1.0  -0.1252
  C  C988  1  0.055430  0.775150  0.300200  1.0  -0.0287
  C  C989  1  0.072940  0.785630  0.310420  1.0  -0.1229
  C  C990  1  0.082050  0.804360  0.301080  1.0  0.0175
  C  C991  1  0.073650  0.812600  0.281530  1.0  -0.0992
  C  C992  1  0.056140  0.802120  0.271310  1.0  -0.0356
  C  C993  1  0.100550  0.816650  0.312090  1.0  0.0726
  C  C994  1  0.115120  0.803240  0.323440  1.0  -0.1791
  C  C995  1  0.132540  0.812480  0.334930  1.0  -0.1447
  C  C996  1  0.135400  0.835120  0.335050  1.0  0.1665
  C  C997  1  0.120830  0.848520  0.323700  1.0  -0.2007
  C  C998  1  0.103410  0.839290  0.312210  1.0  -0.0926
  C  C999  1  0.528130  0.269900  0.267770  1.0  0.5145
  C  C1000  1  0.547030  0.283390  0.280650  1.0  -0.1252
  C  C1001  1  0.555430  0.275150  0.300200  1.0  -0.0287
  C  C1002  1  0.572940  0.285630  0.310420  1.0  -0.1229
  C  C1003  1  0.582050  0.304360  0.301080  1.0  0.0175
  C  C1004  1  0.573650  0.312600  0.281530  1.0  -0.0992
  C  C1005  1  0.556140  0.302120  0.271310  1.0  -0.0356
  C  C1006  1  0.600550  0.316650  0.312090  1.0  0.0726
  C  C1007  1  0.615120  0.303240  0.323440  1.0  -0.1791
  C  C1008  1  0.632540  0.312480  0.334930  1.0  -0.1447
  C  C1009  1  0.635400  0.335120  0.335050  1.0  0.1665
  C  C1010  1  0.620830  0.348520  0.323700  1.0  -0.2007
  C  C1011  1  0.603410  0.339290  0.312210  1.0  -0.0926
  C  C1012  1  0.528130  0.769900  0.767770  1.0  0.5145
  C  C1013  1  0.547030  0.783390  0.780650  1.0  -0.1252
  C  C1014  1  0.555430  0.775150  0.800200  1.0  -0.0287
  C  C1015  1  0.572940  0.785630  0.810420  1.0  -0.1229
  C  C1016  1  0.582050  0.804360  0.801080  1.0  0.0175
  C  C1017  1  0.573650  0.812600  0.781530  1.0  -0.0992
  C  C1018  1  0.556140  0.802120  0.771310  1.0  -0.0356
  C  C1019  1  0.600550  0.816650  0.812090  1.0  0.0726
  C  C1020  1  0.615120  0.803240  0.823440  1.0  -0.1791
  C  C1021  1  0.632540  0.812480  0.834930  1.0  -0.1447
  C  C1022  1  0.635400  0.835120  0.835050  1.0  0.1665
  C  C1023  1  0.620830  0.848520  0.823700  1.0  -0.2007
  C  C1024  1  0.603410  0.839290  0.812210  1.0  -0.0926
  C  C1025  1  0.232230  0.028130  0.730100  1.0  0.5141
  C  C1026  1  0.219350  0.047030  0.716610  1.0  -0.1219
  C  C1027  1  0.199800  0.055430  0.724850  1.0  -0.0267
  C  C1028  1  0.189580  0.072940  0.714370  1.0  -0.1234
  C  C1029  1  0.198920  0.082050  0.695640  1.0  0.017
  C  C1030  1  0.218470  0.073650  0.687400  1.0  -0.0981
  C  C1031  1  0.228690  0.056140  0.697880  1.0  -0.0364
  C  C1032  1  0.187910  0.100550  0.683350  1.0  0.0736
  C  C1033  1  0.176560  0.115120  0.696760  1.0  -0.1813
  C  C1034  1  0.165070  0.132540  0.687520  1.0  -0.1489
  C  C1035  1  0.164950  0.135400  0.664880  1.0  0.1659
  C  C1036  1  0.176300  0.120830  0.651480  1.0  -0.2032
  C  C1037  1  0.187790  0.103410  0.660710  1.0  -0.0937
  C  C1038  1  0.232230  0.528130  0.230100  1.0  0.5141
  C  C1039  1  0.219350  0.547030  0.216610  1.0  -0.1219
  C  C1040  1  0.199800  0.555430  0.224850  1.0  -0.0267
  C  C1041  1  0.189580  0.572940  0.214370  1.0  -0.1234
  C  C1042  1  0.198920  0.582050  0.195640  1.0  0.017
  C  C1043  1  0.218470  0.573650  0.187400  1.0  -0.0981
  C  C1044  1  0.228690  0.556140  0.197880  1.0  -0.0364
  C  C1045  1  0.187910  0.600550  0.183350  1.0  0.0736
  C  C1046  1  0.176560  0.615120  0.196760  1.0  -0.1813
  C  C1047  1  0.165070  0.632540  0.187520  1.0  -0.1489
  C  C1048  1  0.164950  0.635400  0.164880  1.0  0.1659
  C  C1049  1  0.176300  0.620830  0.151480  1.0  -0.2032
  C  C1050  1  0.187790  0.603410  0.160710  1.0  -0.0937
  C  C1051  1  0.732230  0.028130  0.230100  1.0  0.5141
  C  C1052  1  0.719350  0.047030  0.216610  1.0  -0.1219
  C  C1053  1  0.699800  0.055430  0.224850  1.0  -0.0267
  C  C1054  1  0.689580  0.072940  0.214370  1.0  -0.1234
  C  C1055  1  0.698920  0.082050  0.195640  1.0  0.017
  C  C1056  1  0.718470  0.073650  0.187400  1.0  -0.0981
  C  C1057  1  0.728690  0.056140  0.197880  1.0  -0.0364
  C  C1058  1  0.687910  0.100550  0.183350  1.0  0.0736
  C  C1059  1  0.676560  0.115120  0.196760  1.0  -0.1813
  C  C1060  1  0.665070  0.132540  0.187520  1.0  -0.1489
  C  C1061  1  0.664950  0.135400  0.164880  1.0  0.1659
  C  C1062  1  0.676300  0.120830  0.151480  1.0  -0.2032
  C  C1063  1  0.687790  0.103410  0.160710  1.0  -0.0937
  C  C1064  1  0.732230  0.528130  0.730100  1.0  0.5141
  C  C1065  1  0.719350  0.547030  0.716610  1.0  -0.1219
  C  C1066  1  0.699800  0.555430  0.724850  1.0  -0.0267
  C  C1067  1  0.689580  0.572940  0.714370  1.0  -0.1234
  C  C1068  1  0.698920  0.582050  0.695640  1.0  0.017
  C  C1069  1  0.718470  0.573650  0.687400  1.0  -0.0981
  C  C1070  1  0.728690  0.556140  0.697880  1.0  -0.0364
  C  C1071  1  0.687910  0.600550  0.683350  1.0  0.0736
  C  C1072  1  0.676560  0.615120  0.696760  1.0  -0.1813
  C  C1073  1  0.665070  0.632540  0.687520  1.0  -0.1489
  C  C1074  1  0.664950  0.635400  0.664880  1.0  0.1659
  C  C1075  1  0.676300  0.620830  0.651480  1.0  -0.2032
  C  C1076  1  0.687790  0.603410  0.660710  1.0  -0.0937
  C  C1077  1  0.232230  0.971870  0.269900  1.0  0.515
  C  C1078  1  0.219350  0.952970  0.283390  1.0  -0.122
  C  C1079  1  0.199800  0.944570  0.275150  1.0  -0.0295
  C  C1080  1  0.189580  0.927060  0.285630  1.0  -0.1234
  C  C1081  1  0.198920  0.917950  0.304360  1.0  0.0179
  C  C1082  1  0.218470  0.926350  0.312600  1.0  -0.0966
  C  C1083  1  0.228690  0.943860  0.302120  1.0  -0.0339
  C  C1084  1  0.187910  0.899450  0.316650  1.0  0.0734
  C  C1085  1  0.176560  0.884880  0.303240  1.0  -0.1828
  C  C1086  1  0.165070  0.867460  0.312480  1.0  -0.1469
  C  C1087  1  0.164950  0.864600  0.335120  1.0  0.1663
  C  C1088  1  0.176300  0.879170  0.348520  1.0  -0.2084
  C  C1089  1  0.187790  0.896590  0.339290  1.0  -0.0938
  C  C1090  1  0.232230  0.471870  0.769900  1.0  0.515
  C  C1091  1  0.219350  0.452970  0.783390  1.0  -0.122
  C  C1092  1  0.199800  0.444570  0.775150  1.0  -0.0295
  C  C1093  1  0.189580  0.427060  0.785630  1.0  -0.1234
  C  C1094  1  0.198920  0.417950  0.804360  1.0  0.0179
  C  C1095  1  0.218470  0.426350  0.812600  1.0  -0.0966
  C  C1096  1  0.228690  0.443860  0.802120  1.0  -0.0339
  C  C1097  1  0.187910  0.399450  0.816650  1.0  0.0734
  C  C1098  1  0.176560  0.384880  0.803240  1.0  -0.1828
  C  C1099  1  0.165070  0.367460  0.812480  1.0  -0.1469
  C  C1100  1  0.164950  0.364600  0.835120  1.0  0.1663
  C  C1101  1  0.176300  0.379170  0.848520  1.0  -0.2084
  C  C1102  1  0.187790  0.396590  0.839290  1.0  -0.0938
  C  C1103  1  0.732230  0.971870  0.769900  1.0  0.515
  C  C1104  1  0.719350  0.952970  0.783390  1.0  -0.122
  C  C1105  1  0.699800  0.944570  0.775150  1.0  -0.0295
  C  C1106  1  0.689580  0.927060  0.785630  1.0  -0.1234
  C  C1107  1  0.698920  0.917950  0.804360  1.0  0.0179
  C  C1108  1  0.718470  0.926350  0.812600  1.0  -0.0966
  C  C1109  1  0.728690  0.943860  0.802120  1.0  -0.0339
  C  C1110  1  0.687910  0.899450  0.816650  1.0  0.0734
  C  C1111  1  0.676560  0.884880  0.803240  1.0  -0.1828
  C  C1112  1  0.665070  0.867460  0.812480  1.0  -0.1469
  C  C1113  1  0.664950  0.864600  0.835120  1.0  0.1663
  C  C1114  1  0.676300  0.879170  0.848520  1.0  -0.2084
  C  C1115  1  0.687790  0.896590  0.839290  1.0  -0.0938
  C  C1116  1  0.732230  0.471870  0.269900  1.0  0.515
  C  C1117  1  0.719350  0.452970  0.283390  1.0  -0.122
  C  C1118  1  0.699800  0.444570  0.275150  1.0  -0.0295
  C  C1119  1  0.689580  0.427060  0.285630  1.0  -0.1234
  C  C1120  1  0.698920  0.417950  0.304360  1.0  0.0179
  C  C1121  1  0.718470  0.426350  0.312600  1.0  -0.0966
  C  C1122  1  0.728690  0.443860  0.302120  1.0  -0.0339
  C  C1123  1  0.687910  0.399450  0.316650  1.0  0.0734
  C  C1124  1  0.676560  0.384880  0.303240  1.0  -0.1828
  C  C1125  1  0.665070  0.367460  0.312480  1.0  -0.1469
  C  C1126  1  0.664950  0.364600  0.335120  1.0  0.1663
  C  C1127  1  0.676300  0.379170  0.348520  1.0  -0.2084
  C  C1128  1  0.687790  0.396590  0.339290  1.0  -0.0938
  C  C1129  1  0.767770  0.971870  0.730100  1.0  0.5156
  C  C1130  1  0.780650  0.952970  0.716610  1.0  -0.1221
  C  C1131  1  0.800200  0.944570  0.724850  1.0  -0.0275
  C  C1132  1  0.810420  0.927060  0.714370  1.0  -0.1222
  C  C1133  1  0.801080  0.917950  0.695640  1.0  0.0163
  C  C1134  1  0.781530  0.926350  0.687400  1.0  -0.0968
  C  C1135  1  0.771310  0.943860  0.697880  1.0  -0.0351
  C  C1136  1  0.812090  0.899450  0.683350  1.0  0.0742
  C  C1137  1  0.823440  0.884880  0.696760  1.0  -0.1865
  C  C1138  1  0.834930  0.867460  0.687520  1.0  -0.1463
  C  C1139  1  0.835050  0.864600  0.664880  1.0  0.166
  C  C1140  1  0.823700  0.879170  0.651480  1.0  -0.2025
  C  C1141  1  0.812210  0.896590  0.660710  1.0  -0.0929
  C  C1142  1  0.767770  0.471870  0.230100  1.0  0.5156
  C  C1143  1  0.780650  0.452970  0.216610  1.0  -0.1221
  C  C1144  1  0.800200  0.444570  0.224850  1.0  -0.0275
  C  C1145  1  0.810420  0.427060  0.214370  1.0  -0.1222
  C  C1146  1  0.801080  0.417950  0.195640  1.0  0.0163
  C  C1147  1  0.781530  0.426350  0.187400  1.0  -0.0968
  C  C1148  1  0.771310  0.443860  0.197880  1.0  -0.0351
  C  C1149  1  0.812090  0.399450  0.183350  1.0  0.0742
  C  C1150  1  0.823440  0.384880  0.196760  1.0  -0.1865
  C  C1151  1  0.834930  0.367460  0.187520  1.0  -0.1463
  C  C1152  1  0.835050  0.364600  0.164880  1.0  0.166
  C  C1153  1  0.823700  0.379170  0.151480  1.0  -0.2025
  C  C1154  1  0.812210  0.396590  0.160710  1.0  -0.0929
  C  C1155  1  0.267770  0.971870  0.230100  1.0  0.5156
  C  C1156  1  0.280650  0.952970  0.216610  1.0  -0.1221
  C  C1157  1  0.300200  0.944570  0.224850  1.0  -0.0275
  C  C1158  1  0.310420  0.927060  0.214370  1.0  -0.1222
  C  C1159  1  0.301080  0.917950  0.195640  1.0  0.0163
  C  C1160  1  0.281530  0.926350  0.187400  1.0  -0.0968
  C  C1161  1  0.271310  0.943860  0.197880  1.0  -0.0351
  C  C1162  1  0.312090  0.899450  0.183350  1.0  0.0742
  C  C1163  1  0.323440  0.884880  0.196760  1.0  -0.1865
  C  C1164  1  0.334930  0.867460  0.187520  1.0  -0.1463
  C  C1165  1  0.335050  0.864600  0.164880  1.0  0.166
  C  C1166  1  0.323700  0.879170  0.151480  1.0  -0.2025
  C  C1167  1  0.312210  0.896590  0.160710  1.0  -0.0929
  C  C1168  1  0.267770  0.471870  0.730100  1.0  0.5156
  C  C1169  1  0.280650  0.452970  0.716610  1.0  -0.1221
  C  C1170  1  0.300200  0.444570  0.724850  1.0  -0.0275
  C  C1171  1  0.310420  0.427060  0.714370  1.0  -0.1222
  C  C1172  1  0.301080  0.417950  0.695640  1.0  0.0163
  C  C1173  1  0.281530  0.426350  0.687400  1.0  -0.0968
  C  C1174  1  0.271310  0.443860  0.697880  1.0  -0.0351
  C  C1175  1  0.312090  0.399450  0.683350  1.0  0.0742
  C  C1176  1  0.323440  0.384880  0.696760  1.0  -0.1865
  C  C1177  1  0.334930  0.367460  0.687520  1.0  -0.1463
  C  C1178  1  0.335050  0.364600  0.664880  1.0  0.166
  C  C1179  1  0.323700  0.379170  0.651480  1.0  -0.2025
  C  C1180  1  0.312210  0.396590  0.660710  1.0  -0.0929
  C  C1181  1  0.767770  0.028130  0.269900  1.0  0.5149
  C  C1182  1  0.780650  0.047030  0.283390  1.0  -0.1218
  C  C1183  1  0.800200  0.055430  0.275150  1.0  -0.0298
  C  C1184  1  0.810420  0.072940  0.285630  1.0  -0.1234
  C  C1185  1  0.801080  0.082050  0.304360  1.0  0.0176
  C  C1186  1  0.781530  0.073650  0.312600  1.0  -0.0971
  C  C1187  1  0.771310  0.056140  0.302120  1.0  -0.0337
  C  C1188  1  0.812090  0.100550  0.316650  1.0  0.0742
  C  C1189  1  0.823440  0.115120  0.303240  1.0  -0.1835
  C  C1190  1  0.834930  0.132540  0.312480  1.0  -0.146
  C  C1191  1  0.835050  0.135400  0.335120  1.0  0.1659
  C  C1192  1  0.823700  0.120830  0.348520  1.0  -0.2037
  C  C1193  1  0.812210  0.103410  0.339290  1.0  -0.0939
  C  C1194  1  0.767770  0.528130  0.769900  1.0  0.5149
  C  C1195  1  0.780650  0.547030  0.783390  1.0  -0.1218
  C  C1196  1  0.800200  0.555430  0.775150  1.0  -0.0298
  C  C1197  1  0.810420  0.572940  0.785630  1.0  -0.1234
  C  C1198  1  0.801080  0.582050  0.804360  1.0  0.0176
  C  C1199  1  0.781530  0.573650  0.812600  1.0  -0.0971
  C  C1200  1  0.771310  0.556140  0.802120  1.0  -0.0337
  C  C1201  1  0.812090  0.600550  0.816650  1.0  0.0742
  C  C1202  1  0.823440  0.615120  0.803240  1.0  -0.1835
  C  C1203  1  0.834930  0.632540  0.812480  1.0  -0.146
  C  C1204  1  0.835050  0.635400  0.835120  1.0  0.1659
  C  C1205  1  0.823700  0.620830  0.848520  1.0  -0.2037
  C  C1206  1  0.812210  0.603410  0.839290  1.0  -0.0939
  C  C1207  1  0.267770  0.028130  0.769900  1.0  0.5149
  C  C1208  1  0.280650  0.047030  0.783390  1.0  -0.1218
  C  C1209  1  0.300200  0.055430  0.775150  1.0  -0.0298
  C  C1210  1  0.310420  0.072940  0.785630  1.0  -0.1234
  C  C1211  1  0.301080  0.082050  0.804360  1.0  0.0176
  C  C1212  1  0.281530  0.073650  0.812600  1.0  -0.0971
  C  C1213  1  0.271310  0.056140  0.802120  1.0  -0.0337
  C  C1214  1  0.312090  0.100550  0.816650  1.0  0.0742
  C  C1215  1  0.323440  0.115120  0.803240  1.0  -0.1835
  C  C1216  1  0.334930  0.132540  0.812480  1.0  -0.146
  C  C1217  1  0.335050  0.135400  0.835120  1.0  0.1659
  C  C1218  1  0.323700  0.120830  0.848520  1.0  -0.2037
  C  C1219  1  0.312210  0.103410  0.839290  1.0  -0.0939
  C  C1220  1  0.267770  0.528130  0.269900  1.0  0.5149
  C  C1221  1  0.280650  0.547030  0.283390  1.0  -0.1218
  C  C1222  1  0.300200  0.555430  0.275150  1.0  -0.0298
  C  C1223  1  0.310420  0.572940  0.285630  1.0  -0.1234
  C  C1224  1  0.301080  0.582050  0.304360  1.0  0.0176
  C  C1225  1  0.281530  0.573650  0.312600  1.0  -0.0971
  C  C1226  1  0.271310  0.556140  0.302120  1.0  -0.0337
  C  C1227  1  0.312090  0.600550  0.316650  1.0  0.0742
  C  C1228  1  0.323440  0.615120  0.303240  1.0  -0.1835
  C  C1229  1  0.334930  0.632540  0.312480  1.0  -0.146
  C  C1230  1  0.335050  0.635400  0.335120  1.0  0.1659
  C  C1231  1  0.323700  0.620830  0.348520  1.0  -0.2037
  C  C1232  1  0.312210  0.603410  0.339290  1.0  -0.0939
  C  C1233  1  0.730100  0.232230  0.028130  1.0  0.5136
  C  C1234  1  0.716610  0.219350  0.047030  1.0  -0.1133
  C  C1235  1  0.724850  0.199800  0.055430  1.0  -0.0283
  C  C1236  1  0.714370  0.189580  0.072940  1.0  -0.1227
  C  C1237  1  0.695640  0.198920  0.082050  1.0  0.0163
  C  C1238  1  0.687400  0.218470  0.073650  1.0  -0.0986
  C  C1239  1  0.697880  0.228690  0.056140  1.0  -0.0358
  C  C1240  1  0.683350  0.187910  0.100550  1.0  0.0744
  C  C1241  1  0.696760  0.176560  0.115120  1.0  -0.1879
  C  C1242  1  0.687520  0.165070  0.132540  1.0  -0.1448
  C  C1243  1  0.664880  0.164950  0.135400  1.0  0.1664
  C  C1244  1  0.651480  0.176300  0.120830  1.0  -0.2128
  C  C1245  1  0.660710  0.187790  0.103410  1.0  -0.0935
  C  C1246  1  0.730100  0.732230  0.528130  1.0  0.5136
  C  C1247  1  0.716610  0.719350  0.547030  1.0  -0.1133
  C  C1248  1  0.724850  0.699800  0.555430  1.0  -0.0283
  C  C1249  1  0.714370  0.689580  0.572940  1.0  -0.1227
  C  C1250  1  0.695640  0.698920  0.582050  1.0  0.0163
  C  C1251  1  0.687400  0.718470  0.573650  1.0  -0.0986
  C  C1252  1  0.697880  0.728690  0.556140  1.0  -0.0358
  C  C1253  1  0.683350  0.687910  0.600550  1.0  0.0744
  C  C1254  1  0.696760  0.676560  0.615120  1.0  -0.1879
  C  C1255  1  0.687520  0.665070  0.632540  1.0  -0.1448
  C  C1256  1  0.664880  0.664950  0.635400  1.0  0.1664
  C  C1257  1  0.651480  0.676300  0.620830  1.0  -0.2128
  C  C1258  1  0.660710  0.687790  0.603410  1.0  -0.0935
  C  C1259  1  0.230100  0.232230  0.528130  1.0  0.5136
  C  C1260  1  0.216610  0.219350  0.547030  1.0  -0.1133
  C  C1261  1  0.224850  0.199800  0.555430  1.0  -0.0283
  C  C1262  1  0.214370  0.189580  0.572940  1.0  -0.1227
  C  C1263  1  0.195640  0.198920  0.582050  1.0  0.0163
  C  C1264  1  0.187400  0.218470  0.573650  1.0  -0.0986
  C  C1265  1  0.197880  0.228690  0.556140  1.0  -0.0358
  C  C1266  1  0.183350  0.187910  0.600550  1.0  0.0744
  C  C1267  1  0.196760  0.176560  0.615120  1.0  -0.1879
  C  C1268  1  0.187520  0.165070  0.632540  1.0  -0.1448
  C  C1269  1  0.164880  0.164950  0.635400  1.0  0.1664
  C  C1270  1  0.151480  0.176300  0.620830  1.0  -0.2128
  C  C1271  1  0.160710  0.187790  0.603410  1.0  -0.0935
  C  C1272  1  0.230100  0.732230  0.028130  1.0  0.5136
  C  C1273  1  0.216610  0.719350  0.047030  1.0  -0.1133
  C  C1274  1  0.224850  0.699800  0.055430  1.0  -0.0283
  C  C1275  1  0.214370  0.689580  0.072940  1.0  -0.1227
  C  C1276  1  0.195640  0.698920  0.082050  1.0  0.0163
  C  C1277  1  0.187400  0.718470  0.073650  1.0  -0.0986
  C  C1278  1  0.197880  0.728690  0.056140  1.0  -0.0358
  C  C1279  1  0.183350  0.687910  0.100550  1.0  0.0744
  C  C1280  1  0.196760  0.676560  0.115120  1.0  -0.1879
  C  C1281  1  0.187520  0.665070  0.132540  1.0  -0.1448
  C  C1282  1  0.164880  0.664950  0.135400  1.0  0.1664
  C  C1283  1  0.151480  0.676300  0.120830  1.0  -0.2128
  C  C1284  1  0.160710  0.687790  0.103410  1.0  -0.0935
  C  C1285  1  0.269900  0.232230  0.971870  1.0  0.5153
  C  C1286  1  0.283390  0.219350  0.952970  1.0  -0.1234
  C  C1287  1  0.275150  0.199800  0.944570  1.0  -0.0277
  C  C1288  1  0.285630  0.189580  0.927060  1.0  -0.1229
  C  C1289  1  0.304360  0.198920  0.917950  1.0  0.0171
  C  C1290  1  0.312600  0.218470  0.926350  1.0  -0.0973
  C  C1291  1  0.302120  0.228690  0.943860  1.0  -0.0353
  C  C1292  1  0.316650  0.187910  0.899450  1.0  0.0743
  C  C1293  1  0.303240  0.176560  0.884880  1.0  -0.1867
  C  C1294  1  0.312480  0.165070  0.867460  1.0  -0.143
  C  C1295  1  0.335120  0.164950  0.864600  1.0  0.167
  C  C1296  1  0.348520  0.176300  0.879170  1.0  -0.2043
  C  C1297  1  0.339290  0.187790  0.896590  1.0  -0.0919
  C  C1298  1  0.269900  0.732230  0.471870  1.0  0.5153
  C  C1299  1  0.283390  0.719350  0.452970  1.0  -0.1234
  C  C1300  1  0.275150  0.699800  0.444570  1.0  -0.0277
  C  C1301  1  0.285630  0.689580  0.427060  1.0  -0.1229
  C  C1302  1  0.304360  0.698920  0.417950  1.0  0.0171
  C  C1303  1  0.312600  0.718470  0.426350  1.0  -0.0973
  C  C1304  1  0.302120  0.728690  0.443860  1.0  -0.0353
  C  C1305  1  0.316650  0.687910  0.399450  1.0  0.0743
  C  C1306  1  0.303240  0.676560  0.384880  1.0  -0.1867
  C  C1307  1  0.312480  0.665070  0.367460  1.0  -0.143
  C  C1308  1  0.335120  0.664950  0.364600  1.0  0.167
  C  C1309  1  0.348520  0.676300  0.379170  1.0  -0.2043
  C  C1310  1  0.339290  0.687790  0.396590  1.0  -0.0919
  C  C1311  1  0.769900  0.232230  0.471870  1.0  0.5153
  C  C1312  1  0.783390  0.219350  0.452970  1.0  -0.1234
  C  C1313  1  0.775150  0.199800  0.444570  1.0  -0.0277
  C  C1314  1  0.785630  0.189580  0.427060  1.0  -0.1229
  C  C1315  1  0.804360  0.198920  0.417950  1.0  0.0171
  C  C1316  1  0.812600  0.218470  0.426350  1.0  -0.0973
  C  C1317  1  0.802120  0.228690  0.443860  1.0  -0.0353
  C  C1318  1  0.816650  0.187910  0.399450  1.0  0.0743
  C  C1319  1  0.803240  0.176560  0.384880  1.0  -0.1867
  C  C1320  1  0.812480  0.165070  0.367460  1.0  -0.143
  C  C1321  1  0.835120  0.164950  0.364600  1.0  0.167
  C  C1322  1  0.848520  0.176300  0.379170  1.0  -0.2043
  C  C1323  1  0.839290  0.187790  0.396590  1.0  -0.0919
  C  C1324  1  0.769900  0.732230  0.971870  1.0  0.5153
  C  C1325  1  0.783390  0.719350  0.952970  1.0  -0.1234
  C  C1326  1  0.775150  0.699800  0.944570  1.0  -0.0277
  C  C1327  1  0.785630  0.689580  0.927060  1.0  -0.1229
  C  C1328  1  0.804360  0.698920  0.917950  1.0  0.0171
  C  C1329  1  0.812600  0.718470  0.926350  1.0  -0.0973
  C  C1330  1  0.802120  0.728690  0.943860  1.0  -0.0353
  C  C1331  1  0.816650  0.687910  0.899450  1.0  0.0743
  C  C1332  1  0.803240  0.676560  0.884880  1.0  -0.1867
  C  C1333  1  0.812480  0.665070  0.867460  1.0  -0.143
  C  C1334  1  0.835120  0.664950  0.864600  1.0  0.167
  C  C1335  1  0.848520  0.676300  0.879170  1.0  -0.2043
  C  C1336  1  0.839290  0.687790  0.896590  1.0  -0.0919
  C  C1337  1  0.730100  0.767770  0.971870  1.0  0.5138
  C  C1338  1  0.716610  0.780650  0.952970  1.0  -0.1234
  C  C1339  1  0.724850  0.800200  0.944570  1.0  -0.0274
  C  C1340  1  0.714370  0.810420  0.927060  1.0  -0.1231
  C  C1341  1  0.695640  0.801080  0.917950  1.0  0.0159
  C  C1342  1  0.687400  0.781530  0.926350  1.0  -0.0965
  C  C1343  1  0.697880  0.771310  0.943860  1.0  -0.0363
  C  C1344  1  0.683350  0.812090  0.899450  1.0  0.0745
  C  C1345  1  0.696760  0.823440  0.884880  1.0  -0.187
  C  C1346  1  0.687520  0.834930  0.867460  1.0  -0.1421
  C  C1347  1  0.664880  0.835050  0.864600  1.0  0.1675
  C  C1348  1  0.651480  0.823700  0.879170  1.0  -0.2076
  C  C1349  1  0.660710  0.812210  0.896590  1.0  -0.0938
  C  C1350  1  0.730100  0.267770  0.471870  1.0  0.5138
  C  C1351  1  0.716610  0.280650  0.452970  1.0  -0.1234
  C  C1352  1  0.724850  0.300200  0.444570  1.0  -0.0274
  C  C1353  1  0.714370  0.310420  0.427060  1.0  -0.1231
  C  C1354  1  0.695640  0.301080  0.417950  1.0  0.0159
  C  C1355  1  0.687400  0.281530  0.426350  1.0  -0.0965
  C  C1356  1  0.697880  0.271310  0.443860  1.0  -0.0363
  C  C1357  1  0.683350  0.312090  0.399450  1.0  0.0745
  C  C1358  1  0.696760  0.323440  0.384880  1.0  -0.187
  C  C1359  1  0.687520  0.334930  0.367460  1.0  -0.1421
  C  C1360  1  0.664880  0.335050  0.364600  1.0  0.1675
  C  C1361  1  0.651480  0.323700  0.379170  1.0  -0.2076
  C  C1362  1  0.660710  0.312210  0.396590  1.0  -0.0938
  C  C1363  1  0.230100  0.767770  0.471870  1.0  0.5138
  C  C1364  1  0.216610  0.780650  0.452970  1.0  -0.1234
  C  C1365  1  0.224850  0.800200  0.444570  1.0  -0.0274
  C  C1366  1  0.214370  0.810420  0.427060  1.0  -0.1231
  C  C1367  1  0.195640  0.801080  0.417950  1.0  0.0159
  C  C1368  1  0.187400  0.781530  0.426350  1.0  -0.0965
  C  C1369  1  0.197880  0.771310  0.443860  1.0  -0.0363
  C  C1370  1  0.183350  0.812090  0.399450  1.0  0.0745
  C  C1371  1  0.196760  0.823440  0.384880  1.0  -0.187
  C  C1372  1  0.187520  0.834930  0.367460  1.0  -0.1421
  C  C1373  1  0.164880  0.835050  0.364600  1.0  0.1675
  C  C1374  1  0.151480  0.823700  0.379170  1.0  -0.2076
  C  C1375  1  0.160710  0.812210  0.396590  1.0  -0.0938
  C  C1376  1  0.230100  0.267770  0.971870  1.0  0.5138
  C  C1377  1  0.216610  0.280650  0.952970  1.0  -0.1234
  C  C1378  1  0.224850  0.300200  0.944570  1.0  -0.0274
  C  C1379  1  0.214370  0.310420  0.927060  1.0  -0.1231
  C  C1380  1  0.195640  0.301080  0.917950  1.0  0.0159
  C  C1381  1  0.187400  0.281530  0.926350  1.0  -0.0965
  C  C1382  1  0.197880  0.271310  0.943860  1.0  -0.0363
  C  C1383  1  0.183350  0.312090  0.899450  1.0  0.0745
  C  C1384  1  0.196760  0.323440  0.884880  1.0  -0.187
  C  C1385  1  0.187520  0.334930  0.867460  1.0  -0.1421
  C  C1386  1  0.164880  0.335050  0.864600  1.0  0.1675
  C  C1387  1  0.151480  0.323700  0.879170  1.0  -0.2076
  C  C1388  1  0.160710  0.312210  0.896590  1.0  -0.0938
  C  C1389  1  0.269900  0.767770  0.028130  1.0  0.5137
  C  C1390  1  0.283390  0.780650  0.047030  1.0  -0.1255
  C  C1391  1  0.275150  0.800200  0.055430  1.0  -0.0288
  C  C1392  1  0.285630  0.810420  0.072940  1.0  -0.1239
  C  C1393  1  0.304360  0.801080  0.082050  1.0  0.0172
  C  C1394  1  0.312600  0.781530  0.073650  1.0  -0.0973
  C  C1395  1  0.302120  0.771310  0.056140  1.0  -0.0357
  C  C1396  1  0.316650  0.812090  0.100550  1.0  0.0744
  C  C1397  1  0.303240  0.823440  0.115120  1.0  -0.1851
  C  C1398  1  0.312480  0.834930  0.132540  1.0  -0.1443
  C  C1399  1  0.335120  0.835050  0.135400  1.0  0.1661
  C  C1400  1  0.348520  0.823700  0.120830  1.0  -0.2042
  C  C1401  1  0.339290  0.812210  0.103410  1.0  -0.0915
  C  C1402  1  0.269900  0.267770  0.528130  1.0  0.5137
  C  C1403  1  0.283390  0.280650  0.547030  1.0  -0.1255
  C  C1404  1  0.275150  0.300200  0.555430  1.0  -0.0288
  C  C1405  1  0.285630  0.310420  0.572940  1.0  -0.1239
  C  C1406  1  0.304360  0.301080  0.582050  1.0  0.0172
  C  C1407  1  0.312600  0.281530  0.573650  1.0  -0.0973
  C  C1408  1  0.302120  0.271310  0.556140  1.0  -0.0357
  C  C1409  1  0.316650  0.312090  0.600550  1.0  0.0744
  C  C1410  1  0.303240  0.323440  0.615120  1.0  -0.1851
  C  C1411  1  0.312480  0.334930  0.632540  1.0  -0.1443
  C  C1412  1  0.335120  0.335050  0.635400  1.0  0.1661
  C  C1413  1  0.348520  0.323700  0.620830  1.0  -0.2042
  C  C1414  1  0.339290  0.312210  0.603410  1.0  -0.0915
  C  C1415  1  0.769900  0.767770  0.528130  1.0  0.5137
  C  C1416  1  0.783390  0.780650  0.547030  1.0  -0.1255
  C  C1417  1  0.775150  0.800200  0.555430  1.0  -0.0288
  C  C1418  1  0.785630  0.810420  0.572940  1.0  -0.1239
  C  C1419  1  0.804360  0.801080  0.582050  1.0  0.0172
  C  C1420  1  0.812600  0.781530  0.573650  1.0  -0.0973
  C  C1421  1  0.802120  0.771310  0.556140  1.0  -0.0357
  C  C1422  1  0.816650  0.812090  0.600550  1.0  0.0744
  C  C1423  1  0.803240  0.823440  0.615120  1.0  -0.1851
  C  C1424  1  0.812480  0.834930  0.632540  1.0  -0.1443
  C  C1425  1  0.835120  0.835050  0.635400  1.0  0.1661
  C  C1426  1  0.848520  0.823700  0.620830  1.0  -0.2042
  C  C1427  1  0.839290  0.812210  0.603410  1.0  -0.0915
  C  C1428  1  0.769900  0.267770  0.028130  1.0  0.5137
  C  C1429  1  0.783390  0.280650  0.047030  1.0  -0.1255
  C  C1430  1  0.775150  0.300200  0.055430  1.0  -0.0288
  C  C1431  1  0.785630  0.310420  0.072940  1.0  -0.1239
  C  C1432  1  0.804360  0.301080  0.082050  1.0  0.0172
  C  C1433  1  0.812600  0.281530  0.073650  1.0  -0.0973
  C  C1434  1  0.802120  0.271310  0.056140  1.0  -0.0357
  C  C1435  1  0.816650  0.312090  0.100550  1.0  0.0744
  C  C1436  1  0.803240  0.323440  0.115120  1.0  -0.1851
  C  C1437  1  0.812480  0.334930  0.132540  1.0  -0.1443
  C  C1438  1  0.835120  0.335050  0.135400  1.0  0.1661
  C  C1439  1  0.848520  0.323700  0.120830  1.0  -0.2042
  C  C1440  1  0.839290  0.312210  0.103410  1.0  -0.0915
  C  C1441  1  0.730100  0.028130  0.767770  1.0  0.5134
  C  C1442  1  0.716610  0.047030  0.780650  1.0  -0.1215
  C  C1443  1  0.724850  0.055430  0.800200  1.0  -0.0278
  C  C1444  1  0.714370  0.072940  0.810420  1.0  -0.122
  C  C1445  1  0.695640  0.082050  0.801080  1.0  0.0172
  C  C1446  1  0.687400  0.073650  0.781530  1.0  -0.0971
  C  C1447  1  0.697880  0.056140  0.771310  1.0  -0.0354
  C  C1448  1  0.683350  0.100550  0.812090  1.0  0.0747
  C  C1449  1  0.696760  0.115120  0.823440  1.0  -0.1848
  C  C1450  1  0.687520  0.132540  0.834930  1.0  -0.1433
  C  C1451  1  0.664880  0.135400  0.835050  1.0  0.1672
  C  C1452  1  0.651480  0.120830  0.823700  1.0  -0.2081
  C  C1453  1  0.660710  0.103410  0.812210  1.0  -0.0927
  C  C1454  1  0.730100  0.528130  0.267770  1.0  0.5134
  C  C1455  1  0.716610  0.547030  0.280650  1.0  -0.1215
  C  C1456  1  0.724850  0.555430  0.300200  1.0  -0.0278
  C  C1457  1  0.714370  0.572940  0.310420  1.0  -0.122
  C  C1458  1  0.695640  0.582050  0.301080  1.0  0.0172
  C  C1459  1  0.687400  0.573650  0.281530  1.0  -0.0971
  C  C1460  1  0.697880  0.556140  0.271310  1.0  -0.0354
  C  C1461  1  0.683350  0.600550  0.312090  1.0  0.0747
  C  C1462  1  0.696760  0.615120  0.323440  1.0  -0.1848
  C  C1463  1  0.687520  0.632540  0.334930  1.0  -0.1433
  C  C1464  1  0.664880  0.635400  0.335050  1.0  0.1672
  C  C1465  1  0.651480  0.620830  0.323700  1.0  -0.2081
  C  C1466  1  0.660710  0.603410  0.312210  1.0  -0.0927
  C  C1467  1  0.230100  0.028130  0.267770  1.0  0.5134
  C  C1468  1  0.216610  0.047030  0.280650  1.0  -0.1215
  C  C1469  1  0.224850  0.055430  0.300200  1.0  -0.0278
  C  C1470  1  0.214370  0.072940  0.310420  1.0  -0.122
  C  C1471  1  0.195640  0.082050  0.301080  1.0  0.0172
  C  C1472  1  0.187400  0.073650  0.281530  1.0  -0.0971
  C  C1473  1  0.197880  0.056140  0.271310  1.0  -0.0354
  C  C1474  1  0.183350  0.100550  0.312090  1.0  0.0747
  C  C1475  1  0.196760  0.115120  0.323440  1.0  -0.1848
  C  C1476  1  0.187520  0.132540  0.334930  1.0  -0.1433
  C  C1477  1  0.164880  0.135400  0.335050  1.0  0.1672
  C  C1478  1  0.151480  0.120830  0.323700  1.0  -0.2081
  C  C1479  1  0.160710  0.103410  0.312210  1.0  -0.0927
  C  C1480  1  0.230100  0.528130  0.767770  1.0  0.5134
  C  C1481  1  0.216610  0.547030  0.780650  1.0  -0.1215
  C  C1482  1  0.224850  0.555430  0.800200  1.0  -0.0278
  C  C1483  1  0.214370  0.572940  0.810420  1.0  -0.122
  C  C1484  1  0.195640  0.582050  0.801080  1.0  0.0172
  C  C1485  1  0.187400  0.573650  0.781530  1.0  -0.0971
  C  C1486  1  0.197880  0.556140  0.771310  1.0  -0.0354
  C  C1487  1  0.183350  0.600550  0.812090  1.0  0.0747
  C  C1488  1  0.196760  0.615120  0.823440  1.0  -0.1848
  C  C1489  1  0.187520  0.632540  0.834930  1.0  -0.1433
  C  C1490  1  0.164880  0.635400  0.835050  1.0  0.1672
  C  C1491  1  0.151480  0.620830  0.823700  1.0  -0.2081
  C  C1492  1  0.160710  0.603410  0.812210  1.0  -0.0927
  C  C1493  1  0.269900  0.971870  0.767770  1.0  0.515
  C  C1494  1  0.283390  0.952970  0.780650  1.0  -0.1233
  C  C1495  1  0.275150  0.944570  0.800200  1.0  -0.0276
  C  C1496  1  0.285630  0.927060  0.810420  1.0  -0.1233
  C  C1497  1  0.304360  0.917950  0.801080  1.0  0.0174
  C  C1498  1  0.312600  0.926350  0.781530  1.0  -0.0978
  C  C1499  1  0.302120  0.943860  0.771310  1.0  -0.0365
  C  C1500  1  0.316650  0.899450  0.812090  1.0  0.0746
  C  C1501  1  0.303240  0.884880  0.823440  1.0  -0.1851
  C  C1502  1  0.312480  0.867460  0.834930  1.0  -0.1441
  C  C1503  1  0.335120  0.864600  0.835050  1.0  0.1671
  C  C1504  1  0.348520  0.879170  0.823700  1.0  -0.2048
  C  C1505  1  0.339290  0.896590  0.812210  1.0  -0.0913
  C  C1506  1  0.269900  0.471870  0.267770  1.0  0.515
  C  C1507  1  0.283390  0.452970  0.280650  1.0  -0.1233
  C  C1508  1  0.275150  0.444570  0.300200  1.0  -0.0276
  C  C1509  1  0.285630  0.427060  0.310420  1.0  -0.1233
  C  C1510  1  0.304360  0.417950  0.301080  1.0  0.0174
  C  C1511  1  0.312600  0.426350  0.281530  1.0  -0.0978
  C  C1512  1  0.302120  0.443860  0.271310  1.0  -0.0365
  C  C1513  1  0.316650  0.399450  0.312090  1.0  0.0746
  C  C1514  1  0.303240  0.384880  0.323440  1.0  -0.1851
  C  C1515  1  0.312480  0.367460  0.334930  1.0  -0.1441
  C  C1516  1  0.335120  0.364600  0.335050  1.0  0.1671
  C  C1517  1  0.348520  0.379170  0.323700  1.0  -0.2048
  C  C1518  1  0.339290  0.396590  0.312210  1.0  -0.0913
  C  C1519  1  0.769900  0.971870  0.267770  1.0  0.515
  C  C1520  1  0.783390  0.952970  0.280650  1.0  -0.1233
  C  C1521  1  0.775150  0.944570  0.300200  1.0  -0.0276
  C  C1522  1  0.785630  0.927060  0.310420  1.0  -0.1233
  C  C1523  1  0.804360  0.917950  0.301080  1.0  0.0174
  C  C1524  1  0.812600  0.926350  0.281530  1.0  -0.0978
  C  C1525  1  0.802120  0.943860  0.271310  1.0  -0.0365
  C  C1526  1  0.816650  0.899450  0.312090  1.0  0.0746
  C  C1527  1  0.803240  0.884880  0.323440  1.0  -0.1851
  C  C1528  1  0.812480  0.867460  0.334930  1.0  -0.1441
  C  C1529  1  0.835120  0.864600  0.335050  1.0  0.1671
  C  C1530  1  0.848520  0.879170  0.323700  1.0  -0.2048
  C  C1531  1  0.839290  0.896590  0.312210  1.0  -0.0913
  C  C1532  1  0.769900  0.471870  0.767770  1.0  0.515
  C  C1533  1  0.783390  0.452970  0.780650  1.0  -0.1233
  C  C1534  1  0.775150  0.444570  0.800200  1.0  -0.0276
  C  C1535  1  0.785630  0.427060  0.810420  1.0  -0.1233
  C  C1536  1  0.804360  0.417950  0.801080  1.0  0.0174
  C  C1537  1  0.812600  0.426350  0.781530  1.0  -0.0978
  C  C1538  1  0.802120  0.443860  0.771310  1.0  -0.0365
  C  C1539  1  0.816650  0.399450  0.812090  1.0  0.0746
  C  C1540  1  0.803240  0.384880  0.823440  1.0  -0.1851
  C  C1541  1  0.812480  0.367460  0.834930  1.0  -0.1441
  C  C1542  1  0.835120  0.364600  0.835050  1.0  0.1671
  C  C1543  1  0.848520  0.379170  0.823700  1.0  -0.2048
  C  C1544  1  0.839290  0.396590  0.812210  1.0  -0.0913
  C  C1545  1  0.730100  0.971870  0.232230  1.0  0.5151
  C  C1546  1  0.716610  0.952970  0.219350  1.0  -0.1146
  C  C1547  1  0.724850  0.944570  0.199800  1.0  -0.0293
  C  C1548  1  0.714370  0.927060  0.189580  1.0  -0.1241
  C  C1549  1  0.695640  0.917950  0.198920  1.0  0.0141
  C  C1550  1  0.687400  0.926350  0.218470  1.0  -0.0981
  C  C1551  1  0.697880  0.943860  0.228690  1.0  -0.0359
  C  C1552  1  0.683350  0.899450  0.187910  1.0  0.0748
  C  C1553  1  0.696760  0.884880  0.176560  1.0  -0.1864
  C  C1554  1  0.687520  0.867460  0.165070  1.0  -0.1454
  C  C1555  1  0.664880  0.864600  0.164950  1.0  0.1674
  C  C1556  1  0.651480  0.879170  0.176300  1.0  -0.2117
  C  C1557  1  0.660710  0.896590  0.187790  1.0  -0.0935
  C  C1558  1  0.730100  0.471870  0.732230  1.0  0.5151
  C  C1559  1  0.716610  0.452970  0.719350  1.0  -0.1146
  C  C1560  1  0.724850  0.444570  0.699800  1.0  -0.0293
  C  C1561  1  0.714370  0.427060  0.689580  1.0  -0.1241
  C  C1562  1  0.695640  0.417950  0.698920  1.0  0.0141
  C  C1563  1  0.687400  0.426350  0.718470  1.0  -0.0981
  C  C1564  1  0.697880  0.443860  0.728690  1.0  -0.0359
  C  C1565  1  0.683350  0.399450  0.687910  1.0  0.0748
  C  C1566  1  0.696760  0.384880  0.676560  1.0  -0.1864
  C  C1567  1  0.687520  0.367460  0.665070  1.0  -0.1454
  C  C1568  1  0.664880  0.364600  0.664950  1.0  0.1674
  C  C1569  1  0.651480  0.379170  0.676300  1.0  -0.2117
  C  C1570  1  0.660710  0.396590  0.687790  1.0  -0.0935
  C  C1571  1  0.230100  0.971870  0.732230  1.0  0.5151
  C  C1572  1  0.216610  0.952970  0.719350  1.0  -0.1146
  C  C1573  1  0.224850  0.944570  0.699800  1.0  -0.0293
  C  C1574  1  0.214370  0.927060  0.689580  1.0  -0.1241
  C  C1575  1  0.195640  0.917950  0.698920  1.0  0.0141
  C  C1576  1  0.187400  0.926350  0.718470  1.0  -0.0981
  C  C1577  1  0.197880  0.943860  0.728690  1.0  -0.0359
  C  C1578  1  0.183350  0.899450  0.687910  1.0  0.0748
  C  C1579  1  0.196760  0.884880  0.676560  1.0  -0.1864
  C  C1580  1  0.187520  0.867460  0.665070  1.0  -0.1454
  C  C1581  1  0.164880  0.864600  0.664950  1.0  0.1674
  C  C1582  1  0.151480  0.879170  0.676300  1.0  -0.2117
  C  C1583  1  0.160710  0.896590  0.687790  1.0  -0.0935
  C  C1584  1  0.230100  0.471870  0.232230  1.0  0.5151
  C  C1585  1  0.216610  0.452970  0.219350  1.0  -0.1146
  C  C1586  1  0.224850  0.444570  0.199800  1.0  -0.0293
  C  C1587  1  0.214370  0.427060  0.189580  1.0  -0.1241
  C  C1588  1  0.195640  0.417950  0.198920  1.0  0.0141
  C  C1589  1  0.187400  0.426350  0.218470  1.0  -0.0981
  C  C1590  1  0.197880  0.443860  0.228690  1.0  -0.0359
  C  C1591  1  0.183350  0.399450  0.187910  1.0  0.0748
  C  C1592  1  0.196760  0.384880  0.176560  1.0  -0.1864
  C  C1593  1  0.187520  0.367460  0.165070  1.0  -0.1454
  C  C1594  1  0.164880  0.364600  0.164950  1.0  0.1674
  C  C1595  1  0.151480  0.379170  0.176300  1.0  -0.2117
  C  C1596  1  0.160710  0.396590  0.187790  1.0  -0.0935
  C  C1597  1  0.269900  0.028130  0.232230  1.0  0.5148
  C  C1598  1  0.283390  0.047030  0.219350  1.0  -0.1217
  C  C1599  1  0.275150  0.055430  0.199800  1.0  -0.028
  C  C1600  1  0.285630  0.072940  0.189580  1.0  -0.1242
  C  C1601  1  0.304360  0.082050  0.198920  1.0  0.0173
  C  C1602  1  0.312600  0.073650  0.218470  1.0  -0.0982
  C  C1603  1  0.302120  0.056140  0.228690  1.0  -0.0353
  C  C1604  1  0.316650  0.100550  0.187910  1.0  0.0747
  C  C1605  1  0.303240  0.115120  0.176560  1.0  -0.1845
  C  C1606  1  0.312480  0.132540  0.165070  1.0  -0.145
  C  C1607  1  0.335120  0.135400  0.164950  1.0  0.167
  C  C1608  1  0.348520  0.120830  0.176300  1.0  -0.2057
  C  C1609  1  0.339290  0.103410  0.187790  1.0  -0.0915
  C  C1610  1  0.269900  0.528130  0.732230  1.0  0.5148
  C  C1611  1  0.283390  0.547030  0.719350  1.0  -0.1217
  C  C1612  1  0.275150  0.555430  0.699800  1.0  -0.028
  C  C1613  1  0.285630  0.572940  0.689580  1.0  -0.1242
  C  C1614  1  0.304360  0.582050  0.698920  1.0  0.0173
  C  C1615  1  0.312600  0.573650  0.718470  1.0  -0.0982
  C  C1616  1  0.302120  0.556140  0.728690  1.0  -0.0353
  C  C1617  1  0.316650  0.600550  0.687910  1.0  0.0747
  C  C1618  1  0.303240  0.615120  0.676560  1.0  -0.1845
  C  C1619  1  0.312480  0.632540  0.665070  1.0  -0.145
  C  C1620  1  0.335120  0.635400  0.664950  1.0  0.167
  C  C1621  1  0.348520  0.620830  0.676300  1.0  -0.2057
  C  C1622  1  0.339290  0.603410  0.687790  1.0  -0.0915
  C  C1623  1  0.769900  0.028130  0.732230  1.0  0.5148
  C  C1624  1  0.783390  0.047030  0.719350  1.0  -0.1217
  C  C1625  1  0.775150  0.055430  0.699800  1.0  -0.028
  C  C1626  1  0.785630  0.072940  0.689580  1.0  -0.1242
  C  C1627  1  0.804360  0.082050  0.698920  1.0  0.0173
  C  C1628  1  0.812600  0.073650  0.718470  1.0  -0.0982
  C  C1629  1  0.802120  0.056140  0.728690  1.0  -0.0353
  C  C1630  1  0.816650  0.100550  0.687910  1.0  0.0747
  C  C1631  1  0.803240  0.115120  0.676560  1.0  -0.1845
  C  C1632  1  0.812480  0.132540  0.665070  1.0  -0.145
  C  C1633  1  0.835120  0.135400  0.664950  1.0  0.167
  C  C1634  1  0.848520  0.120830  0.676300  1.0  -0.2057
  C  C1635  1  0.839290  0.103410  0.687790  1.0  -0.0915
  C  C1636  1  0.769900  0.528130  0.232230  1.0  0.5148
  C  C1637  1  0.783390  0.547030  0.219350  1.0  -0.1217
  C  C1638  1  0.775150  0.555430  0.199800  1.0  -0.028
  C  C1639  1  0.785630  0.572940  0.189580  1.0  -0.1242
  C  C1640  1  0.804360  0.582050  0.198920  1.0  0.0173
  C  C1641  1  0.812600  0.573650  0.218470  1.0  -0.0982
  C  C1642  1  0.802120  0.556140  0.228690  1.0  -0.0353
  C  C1643  1  0.816650  0.600550  0.187910  1.0  0.0747
  C  C1644  1  0.803240  0.615120  0.176560  1.0  -0.1845
  C  C1645  1  0.812480  0.632540  0.165070  1.0  -0.145
  C  C1646  1  0.835120  0.635400  0.164950  1.0  0.167
  C  C1647  1  0.848520  0.620830  0.176300  1.0  -0.2057
  C  C1648  1  0.839290  0.603410  0.187790  1.0  -0.0915
  C  C1649  1  0.028130  0.232230  0.269900  1.0  0.5159
  C  C1650  1  0.047030  0.219350  0.283390  1.0  -0.1223
  C  C1651  1  0.055430  0.199800  0.275150  1.0  -0.0295
  C  C1652  1  0.072940  0.189580  0.285630  1.0  -0.1231
  C  C1653  1  0.082050  0.198920  0.304360  1.0  0.0175
  C  C1654  1  0.073650  0.218470  0.312600  1.0  -0.0985
  C  C1655  1  0.056140  0.228690  0.302120  1.0  -0.0364
  C  C1656  1  0.100550  0.187910  0.316650  1.0  0.0723
  C  C1657  1  0.115120  0.176560  0.303240  1.0  -0.1796
  C  C1658  1  0.132540  0.165070  0.312480  1.0  -0.1452
  C  C1659  1  0.135400  0.164950  0.335120  1.0  0.1663
  C  C1660  1  0.120830  0.176300  0.348520  1.0  -0.1995
  C  C1661  1  0.103410  0.187790  0.339290  1.0  -0.0922
  C  C1662  1  0.028130  0.732230  0.769900  1.0  0.5159
  C  C1663  1  0.047030  0.719350  0.783390  1.0  -0.1223
  C  C1664  1  0.055430  0.699800  0.775150  1.0  -0.0295
  C  C1665  1  0.072940  0.689580  0.785630  1.0  -0.1231
  C  C1666  1  0.082050  0.698920  0.804360  1.0  0.0175
  C  C1667  1  0.073650  0.718470  0.812600  1.0  -0.0985
  C  C1668  1  0.056140  0.728690  0.802120  1.0  -0.0364
  C  C1669  1  0.100550  0.687910  0.816650  1.0  0.0723
  C  C1670  1  0.115120  0.676560  0.803240  1.0  -0.1796
  C  C1671  1  0.132540  0.665070  0.812480  1.0  -0.1452
  C  C1672  1  0.135400  0.664950  0.835120  1.0  0.1663
  C  C1673  1  0.120830  0.676300  0.848520  1.0  -0.1995
  C  C1674  1  0.103410  0.687790  0.839290  1.0  -0.0922
  C  C1675  1  0.528130  0.232230  0.769900  1.0  0.5159
  C  C1676  1  0.547030  0.219350  0.783390  1.0  -0.1223
  C  C1677  1  0.555430  0.199800  0.775150  1.0  -0.0295
  C  C1678  1  0.572940  0.189580  0.785630  1.0  -0.1231
  C  C1679  1  0.582050  0.198920  0.804360  1.0  0.0175
  C  C1680  1  0.573650  0.218470  0.812600  1.0  -0.0985
  C  C1681  1  0.556140  0.228690  0.802120  1.0  -0.0364
  C  C1682  1  0.600550  0.187910  0.816650  1.0  0.0723
  C  C1683  1  0.615120  0.176560  0.803240  1.0  -0.1796
  C  C1684  1  0.632540  0.165070  0.812480  1.0  -0.1452
  C  C1685  1  0.635400  0.164950  0.835120  1.0  0.1663
  C  C1686  1  0.620830  0.176300  0.848520  1.0  -0.1995
  C  C1687  1  0.603410  0.187790  0.839290  1.0  -0.0922
  C  C1688  1  0.528130  0.732230  0.269900  1.0  0.5159
  C  C1689  1  0.547030  0.719350  0.283390  1.0  -0.1223
  C  C1690  1  0.555430  0.699800  0.275150  1.0  -0.0295
  C  C1691  1  0.572940  0.689580  0.285630  1.0  -0.1231
  C  C1692  1  0.582050  0.698920  0.304360  1.0  0.0175
  C  C1693  1  0.573650  0.718470  0.312600  1.0  -0.0985
  C  C1694  1  0.556140  0.728690  0.302120  1.0  -0.0364
  C  C1695  1  0.600550  0.687910  0.316650  1.0  0.0723
  C  C1696  1  0.615120  0.676560  0.303240  1.0  -0.1796
  C  C1697  1  0.632540  0.665070  0.312480  1.0  -0.1452
  C  C1698  1  0.635400  0.664950  0.335120  1.0  0.1663
  C  C1699  1  0.620830  0.676300  0.348520  1.0  -0.1995
  C  C1700  1  0.603410  0.687790  0.339290  1.0  -0.0922
  C  C1701  1  0.971870  0.232230  0.730100  1.0  0.5148
  C  C1702  1  0.952970  0.219350  0.716610  1.0  -0.121
  C  C1703  1  0.944570  0.199800  0.724850  1.0  -0.028
  C  C1704  1  0.927060  0.189580  0.714370  1.0  -0.1237
  C  C1705  1  0.917950  0.198920  0.695640  1.0  0.016
  C  C1706  1  0.926350  0.218470  0.687400  1.0  -0.0981
  C  C1707  1  0.943860  0.228690  0.697880  1.0  -0.0376
  C  C1708  1  0.899450  0.187910  0.683350  1.0  0.0719
  C  C1709  1  0.884880  0.176560  0.696760  1.0  -0.1861
  C  C1710  1  0.867460  0.165070  0.687520  1.0  -0.1482
  C  C1711  1  0.864600  0.164950  0.664880  1.0  0.1651
  C  C1712  1  0.879170  0.176300  0.651480  1.0  -0.2052
  C  C1713  1  0.896590  0.187790  0.660710  1.0  -0.0928
  C  C1714  1  0.971870  0.732230  0.230100  1.0  0.5148
  C  C1715  1  0.952970  0.719350  0.216610  1.0  -0.121
  C  C1716  1  0.944570  0.699800  0.224850  1.0  -0.028
  C  C1717  1  0.927060  0.689580  0.214370  1.0  -0.1237
  C  C1718  1  0.917950  0.698920  0.195640  1.0  0.016
  C  C1719  1  0.926350  0.718470  0.187400  1.0  -0.0981
  C  C1720  1  0.943860  0.728690  0.197880  1.0  -0.0376
  C  C1721  1  0.899450  0.687910  0.183350  1.0  0.0719
  C  C1722  1  0.884880  0.676560  0.196760  1.0  -0.1861
  C  C1723  1  0.867460  0.665070  0.187520  1.0  -0.1482
  C  C1724  1  0.864600  0.664950  0.164880  1.0  0.1651
  C  C1725  1  0.879170  0.676300  0.151480  1.0  -0.2052
  C  C1726  1  0.896590  0.687790  0.160710  1.0  -0.0928
  C  C1727  1  0.471870  0.232230  0.230100  1.0  0.5148
  C  C1728  1  0.452970  0.219350  0.216610  1.0  -0.121
  C  C1729  1  0.444570  0.199800  0.224850  1.0  -0.028
  C  C1730  1  0.427060  0.189580  0.214370  1.0  -0.1237
  C  C1731  1  0.417950  0.198920  0.195640  1.0  0.016
  C  C1732  1  0.426350  0.218470  0.187400  1.0  -0.0981
  C  C1733  1  0.443860  0.228690  0.197880  1.0  -0.0376
  C  C1734  1  0.399450  0.187910  0.183350  1.0  0.0719
  C  C1735  1  0.384880  0.176560  0.196760  1.0  -0.1861
  C  C1736  1  0.367460  0.165070  0.187520  1.0  -0.1482
  C  C1737  1  0.364600  0.164950  0.164880  1.0  0.1651
  C  C1738  1  0.379170  0.176300  0.151480  1.0  -0.2052
  C  C1739  1  0.396590  0.187790  0.160710  1.0  -0.0928
  C  C1740  1  0.471870  0.732230  0.730100  1.0  0.5148
  C  C1741  1  0.452970  0.719350  0.716610  1.0  -0.121
  C  C1742  1  0.444570  0.699800  0.724850  1.0  -0.028
  C  C1743  1  0.427060  0.689580  0.714370  1.0  -0.1237
  C  C1744  1  0.417950  0.698920  0.695640  1.0  0.016
  C  C1745  1  0.426350  0.718470  0.687400  1.0  -0.0981
  C  C1746  1  0.443860  0.728690  0.697880  1.0  -0.0376
  C  C1747  1  0.399450  0.687910  0.683350  1.0  0.0719
  C  C1748  1  0.384880  0.676560  0.696760  1.0  -0.1861
  C  C1749  1  0.367460  0.665070  0.687520  1.0  -0.1482
  C  C1750  1  0.364600  0.664950  0.664880  1.0  0.1651
  C  C1751  1  0.379170  0.676300  0.651480  1.0  -0.2052
  C  C1752  1  0.396590  0.687790  0.660710  1.0  -0.0928
  C  C1753  1  0.971870  0.767770  0.269900  1.0  0.5142
  C  C1754  1  0.952970  0.780650  0.283390  1.0  -0.1208
  C  C1755  1  0.944570  0.800200  0.275150  1.0  -0.0324
  C  C1756  1  0.927060  0.810420  0.285630  1.0  -0.1204
  C  C1757  1  0.917950  0.801080  0.304360  1.0  0.0173
  C  C1758  1  0.926350  0.781530  0.312600  1.0  -0.0963
  C  C1759  1  0.943860  0.771310  0.302120  1.0  -0.0364
  C  C1760  1  0.899450  0.812090  0.316650  1.0  0.0722
  C  C1761  1  0.884880  0.823440  0.303240  1.0  -0.183
  C  C1762  1  0.867460  0.834930  0.312480  1.0  -0.1464
  C  C1763  1  0.864600  0.835050  0.335120  1.0  0.1648
  C  C1764  1  0.879170  0.823700  0.348520  1.0  -0.1998
  C  C1765  1  0.896590  0.812210  0.339290  1.0  -0.092
  C  C1766  1  0.971870  0.267770  0.769900  1.0  0.5142
  C  C1767  1  0.952970  0.280650  0.783390  1.0  -0.1208
  C  C1768  1  0.944570  0.300200  0.775150  1.0  -0.0324
  C  C1769  1  0.927060  0.310420  0.785630  1.0  -0.1204
  C  C1770  1  0.917950  0.301080  0.804360  1.0  0.0173
  C  C1771  1  0.926350  0.281530  0.812600  1.0  -0.0963
  C  C1772  1  0.943860  0.271310  0.802120  1.0  -0.0364
  C  C1773  1  0.899450  0.312090  0.816650  1.0  0.0722
  C  C1774  1  0.884880  0.323440  0.803240  1.0  -0.183
  C  C1775  1  0.867460  0.334930  0.812480  1.0  -0.1464
  C  C1776  1  0.864600  0.335050  0.835120  1.0  0.1648
  C  C1777  1  0.879170  0.323700  0.848520  1.0  -0.1998
  C  C1778  1  0.896590  0.312210  0.839290  1.0  -0.092
  C  C1779  1  0.471870  0.767770  0.769900  1.0  0.5142
  C  C1780  1  0.452970  0.780650  0.783390  1.0  -0.1208
  C  C1781  1  0.444570  0.800200  0.775150  1.0  -0.0324
  C  C1782  1  0.427060  0.810420  0.785630  1.0  -0.1204
  C  C1783  1  0.417950  0.801080  0.804360  1.0  0.0173
  C  C1784  1  0.426350  0.781530  0.812600  1.0  -0.0963
  C  C1785  1  0.443860  0.771310  0.802120  1.0  -0.0364
  C  C1786  1  0.399450  0.812090  0.816650  1.0  0.0722
  C  C1787  1  0.384880  0.823440  0.803240  1.0  -0.183
  C  C1788  1  0.367460  0.834930  0.812480  1.0  -0.1464
  C  C1789  1  0.364600  0.835050  0.835120  1.0  0.1648
  C  C1790  1  0.379170  0.823700  0.848520  1.0  -0.1998
  C  C1791  1  0.396590  0.812210  0.839290  1.0  -0.092
  C  C1792  1  0.471870  0.267770  0.269900  1.0  0.5142
  C  C1793  1  0.452970  0.280650  0.283390  1.0  -0.1208
  C  C1794  1  0.444570  0.300200  0.275150  1.0  -0.0324
  C  C1795  1  0.427060  0.310420  0.285630  1.0  -0.1204
  C  C1796  1  0.417950  0.301080  0.304360  1.0  0.0173
  C  C1797  1  0.426350  0.281530  0.312600  1.0  -0.0963
  C  C1798  1  0.443860  0.271310  0.302120  1.0  -0.0364
  C  C1799  1  0.399450  0.312090  0.316650  1.0  0.0722
  C  C1800  1  0.384880  0.323440  0.303240  1.0  -0.183
  C  C1801  1  0.367460  0.334930  0.312480  1.0  -0.1464
  C  C1802  1  0.364600  0.335050  0.335120  1.0  0.1648
  C  C1803  1  0.379170  0.323700  0.348520  1.0  -0.1998
  C  C1804  1  0.396590  0.312210  0.339290  1.0  -0.092
  C  C1805  1  0.028130  0.767770  0.730100  1.0  0.5153
  C  C1806  1  0.047030  0.780650  0.716610  1.0  -0.1216
  C  C1807  1  0.055430  0.800200  0.724850  1.0  -0.0283
  C  C1808  1  0.072940  0.810420  0.714370  1.0  -0.1229
  C  C1809  1  0.082050  0.801080  0.695640  1.0  0.0166
  C  C1810  1  0.073650  0.781530  0.687400  1.0  -0.0985
  C  C1811  1  0.056140  0.771310  0.697880  1.0  -0.0384
  C  C1812  1  0.100550  0.812090  0.683350  1.0  0.0722
  C  C1813  1  0.115120  0.823440  0.696760  1.0  -0.1866
  C  C1814  1  0.132540  0.834930  0.687520  1.0  -0.1464
  C  C1815  1  0.135400  0.835050  0.664880  1.0  0.1663
  C  C1816  1  0.120830  0.823700  0.651480  1.0  -0.1997
  C  C1817  1  0.103410  0.812210  0.660710  1.0  -0.0902
  C  C1818  1  0.028130  0.267770  0.230100  1.0  0.5153
  C  C1819  1  0.047030  0.280650  0.216610  1.0  -0.1216
  C  C1820  1  0.055430  0.300200  0.224850  1.0  -0.0283
  C  C1821  1  0.072940  0.310420  0.214370  1.0  -0.1229
  C  C1822  1  0.082050  0.301080  0.195640  1.0  0.0166
  C  C1823  1  0.073650  0.281530  0.187400  1.0  -0.0985
  C  C1824  1  0.056140  0.271310  0.197880  1.0  -0.0384
  C  C1825  1  0.100550  0.312090  0.183350  1.0  0.0722
  C  C1826  1  0.115120  0.323440  0.196760  1.0  -0.1866
  C  C1827  1  0.132540  0.334930  0.187520  1.0  -0.1464
  C  C1828  1  0.135400  0.335050  0.164880  1.0  0.1663
  C  C1829  1  0.120830  0.323700  0.151480  1.0  -0.1997
  C  C1830  1  0.103410  0.312210  0.160710  1.0  -0.0902
  C  C1831  1  0.528130  0.767770  0.230100  1.0  0.5153
  C  C1832  1  0.547030  0.780650  0.216610  1.0  -0.1216
  C  C1833  1  0.555430  0.800200  0.224850  1.0  -0.0283
  C  C1834  1  0.572940  0.810420  0.214370  1.0  -0.1229
  C  C1835  1  0.582050  0.801080  0.195640  1.0  0.0166
  C  C1836  1  0.573650  0.781530  0.187400  1.0  -0.0985
  C  C1837  1  0.556140  0.771310  0.197880  1.0  -0.0384
  C  C1838  1  0.600550  0.812090  0.183350  1.0  0.0722
  C  C1839  1  0.615120  0.823440  0.196760  1.0  -0.1866
  C  C1840  1  0.632540  0.834930  0.187520  1.0  -0.1464
  C  C1841  1  0.635400  0.835050  0.164880  1.0  0.1663
  C  C1842  1  0.620830  0.823700  0.151480  1.0  -0.1997
  C  C1843  1  0.603410  0.812210  0.160710  1.0  -0.0902
  C  C1844  1  0.528130  0.267770  0.730100  1.0  0.5153
  C  C1845  1  0.547030  0.280650  0.716610  1.0  -0.1216
  C  C1846  1  0.555430  0.300200  0.724850  1.0  -0.0283
  C  C1847  1  0.572940  0.310420  0.714370  1.0  -0.1229
  C  C1848  1  0.582050  0.301080  0.695640  1.0  0.0166
  C  C1849  1  0.573650  0.281530  0.687400  1.0  -0.0985
  C  C1850  1  0.556140  0.271310  0.697880  1.0  -0.0384
  C  C1851  1  0.600550  0.312090  0.683350  1.0  0.0722
  C  C1852  1  0.615120  0.323440  0.696760  1.0  -0.1866
  C  C1853  1  0.632540  0.334930  0.687520  1.0  -0.1464
  C  C1854  1  0.635400  0.335050  0.664880  1.0  0.1663
  C  C1855  1  0.620830  0.323700  0.651480  1.0  -0.1997
  C  C1856  1  0.603410  0.312210  0.660710  1.0  -0.0902
  C  C1857  1  0.232230  0.730100  0.971870  1.0  0.5142
  C  C1858  1  0.219350  0.716610  0.952970  1.0  -0.123
  C  C1859  1  0.199800  0.724850  0.944570  1.0  -0.0284
  C  C1860  1  0.189580  0.714370  0.927060  1.0  -0.1239
  C  C1861  1  0.198920  0.695640  0.917950  1.0  0.0163
  C  C1862  1  0.218470  0.687400  0.926350  1.0  -0.0961
  C  C1863  1  0.228690  0.697880  0.943860  1.0  -0.0346
  C  C1864  1  0.187910  0.683350  0.899450  1.0  0.0734
  C  C1865  1  0.176560  0.696760  0.884880  1.0  -0.1853
  C  C1866  1  0.165070  0.687520  0.867460  1.0  -0.1453
  C  C1867  1  0.164950  0.664880  0.864600  1.0  0.1663
  C  C1868  1  0.176300  0.651480  0.879170  1.0  -0.21
  C  C1869  1  0.187790  0.660710  0.896590  1.0  -0.094
  C  C1870  1  0.232230  0.230100  0.471870  1.0  0.5142
  C  C1871  1  0.219350  0.216610  0.452970  1.0  -0.123
  C  C1872  1  0.199800  0.224850  0.444570  1.0  -0.0284
  C  C1873  1  0.189580  0.214370  0.427060  1.0  -0.1239
  C  C1874  1  0.198920  0.195640  0.417950  1.0  0.0163
  C  C1875  1  0.218470  0.187400  0.426350  1.0  -0.0961
  C  C1876  1  0.228690  0.197880  0.443860  1.0  -0.0346
  C  C1877  1  0.187910  0.183350  0.399450  1.0  0.0734
  C  C1878  1  0.176560  0.196760  0.384880  1.0  -0.1853
  C  C1879  1  0.165070  0.187520  0.367460  1.0  -0.1453
  C  C1880  1  0.164950  0.164880  0.364600  1.0  0.1663
  C  C1881  1  0.176300  0.151480  0.379170  1.0  -0.21
  C  C1882  1  0.187790  0.160710  0.396590  1.0  -0.094
  C  C1883  1  0.732230  0.730100  0.471870  1.0  0.5142
  C  C1884  1  0.719350  0.716610  0.452970  1.0  -0.123
  C  C1885  1  0.699800  0.724850  0.444570  1.0  -0.0284
  C  C1886  1  0.689580  0.714370  0.427060  1.0  -0.1239
  C  C1887  1  0.698920  0.695640  0.417950  1.0  0.0163
  C  C1888  1  0.718470  0.687400  0.426350  1.0  -0.0961
  C  C1889  1  0.728690  0.697880  0.443860  1.0  -0.0346
  C  C1890  1  0.687910  0.683350  0.399450  1.0  0.0734
  C  C1891  1  0.676560  0.696760  0.384880  1.0  -0.1853
  C  C1892  1  0.665070  0.687520  0.367460  1.0  -0.1453
  C  C1893  1  0.664950  0.664880  0.364600  1.0  0.1663
  C  C1894  1  0.676300  0.651480  0.379170  1.0  -0.21
  C  C1895  1  0.687790  0.660710  0.396590  1.0  -0.094
  C  C1896  1  0.732230  0.230100  0.971870  1.0  0.5142
  C  C1897  1  0.719350  0.216610  0.952970  1.0  -0.123
  C  C1898  1  0.699800  0.224850  0.944570  1.0  -0.0284
  C  C1899  1  0.689580  0.214370  0.927060  1.0  -0.1239
  C  C1900  1  0.698920  0.195640  0.917950  1.0  0.0163
  C  C1901  1  0.718470  0.187400  0.926350  1.0  -0.0961
  C  C1902  1  0.728690  0.197880  0.943860  1.0  -0.0346
  C  C1903  1  0.687910  0.183350  0.899450  1.0  0.0734
  C  C1904  1  0.676560  0.196760  0.884880  1.0  -0.1853
  C  C1905  1  0.665070  0.187520  0.867460  1.0  -0.1453
  C  C1906  1  0.664950  0.164880  0.864600  1.0  0.1663
  C  C1907  1  0.676300  0.151480  0.879170  1.0  -0.21
  C  C1908  1  0.687790  0.160710  0.896590  1.0  -0.094
  C  C1909  1  0.232230  0.269900  0.028130  1.0  0.5131
  C  C1910  1  0.219350  0.283390  0.047030  1.0  -0.1213
  C  C1911  1  0.199800  0.275150  0.055430  1.0  -0.0287
  C  C1912  1  0.189580  0.285630  0.072940  1.0  -0.1241
  C  C1913  1  0.198920  0.304360  0.082050  1.0  0.0179
  C  C1914  1  0.218470  0.312600  0.073650  1.0  -0.0962
  C  C1915  1  0.228690  0.302120  0.056140  1.0  -0.0336
  C  C1916  1  0.187910  0.316650  0.100550  1.0  0.0733
  C  C1917  1  0.176560  0.303240  0.115120  1.0  -0.1806
  C  C1918  1  0.165070  0.312480  0.132540  1.0  -0.1453
  C  C1919  1  0.164950  0.335120  0.135400  1.0  0.1654
  C  C1920  1  0.176300  0.348520  0.120830  1.0  -0.2028
  C  C1921  1  0.187790  0.339290  0.103410  1.0  -0.0955
  C  C1922  1  0.232230  0.769900  0.528130  1.0  0.5131
  C  C1923  1  0.219350  0.783390  0.547030  1.0  -0.1213
  C  C1924  1  0.199800  0.775150  0.555430  1.0  -0.0287
  C  C1925  1  0.189580  0.785630  0.572940  1.0  -0.1241
  C  C1926  1  0.198920  0.804360  0.582050  1.0  0.0179
  C  C1927  1  0.218470  0.812600  0.573650  1.0  -0.0962
  C  C1928  1  0.228690  0.802120  0.556140  1.0  -0.0336
  C  C1929  1  0.187910  0.816650  0.600550  1.0  0.0733
  C  C1930  1  0.176560  0.803240  0.615120  1.0  -0.1806
  C  C1931  1  0.165070  0.812480  0.632540  1.0  -0.1453
  C  C1932  1  0.164950  0.835120  0.635400  1.0  0.1654
  C  C1933  1  0.176300  0.848520  0.620830  1.0  -0.2028
  C  C1934  1  0.187790  0.839290  0.603410  1.0  -0.0955
  C  C1935  1  0.732230  0.269900  0.528130  1.0  0.5131
  C  C1936  1  0.719350  0.283390  0.547030  1.0  -0.1213
  C  C1937  1  0.699800  0.275150  0.555430  1.0  -0.0287
  C  C1938  1  0.689580  0.285630  0.572940  1.0  -0.1241
  C  C1939  1  0.698920  0.304360  0.582050  1.0  0.0179
  C  C1940  1  0.718470  0.312600  0.573650  1.0  -0.0962
  C  C1941  1  0.728690  0.302120  0.556140  1.0  -0.0336
  C  C1942  1  0.687910  0.316650  0.600550  1.0  0.0733
  C  C1943  1  0.676560  0.303240  0.615120  1.0  -0.1806
  C  C1944  1  0.665070  0.312480  0.632540  1.0  -0.1453
  C  C1945  1  0.664950  0.335120  0.635400  1.0  0.1654
  C  C1946  1  0.676300  0.348520  0.620830  1.0  -0.2028
  C  C1947  1  0.687790  0.339290  0.603410  1.0  -0.0955
  C  C1948  1  0.732230  0.769900  0.028130  1.0  0.5131
  C  C1949  1  0.719350  0.783390  0.047030  1.0  -0.1213
  C  C1950  1  0.699800  0.775150  0.055430  1.0  -0.0287
  C  C1951  1  0.689580  0.785630  0.072940  1.0  -0.1241
  C  C1952  1  0.698920  0.804360  0.082050  1.0  0.0179
  C  C1953  1  0.718470  0.812600  0.073650  1.0  -0.0962
  C  C1954  1  0.728690  0.802120  0.056140  1.0  -0.0336
  C  C1955  1  0.687910  0.816650  0.100550  1.0  0.0733
  C  C1956  1  0.676560  0.803240  0.115120  1.0  -0.1806
  C  C1957  1  0.665070  0.812480  0.132540  1.0  -0.1453
  C  C1958  1  0.664950  0.835120  0.135400  1.0  0.1654
  C  C1959  1  0.676300  0.848520  0.120830  1.0  -0.2028
  C  C1960  1  0.687790  0.839290  0.103410  1.0  -0.0955
  C  C1961  1  0.767770  0.730100  0.028130  1.0  0.5141
  C  C1962  1  0.780650  0.716610  0.047030  1.0  -0.1214
  C  C1963  1  0.800200  0.724850  0.055430  1.0  -0.0304
  C  C1964  1  0.810420  0.714370  0.072940  1.0  -0.1235
  C  C1965  1  0.801080  0.695640  0.082050  1.0  0.0168
  C  C1966  1  0.781530  0.687400  0.073650  1.0  -0.0949
  C  C1967  1  0.771310  0.697880  0.056140  1.0  -0.0344
  C  C1968  1  0.812090  0.683350  0.100550  1.0  0.0743
  C  C1969  1  0.823440  0.696760  0.115120  1.0  -0.1842
  C  C1970  1  0.834930  0.687520  0.132540  1.0  -0.1443
  C  C1971  1  0.835050  0.664880  0.135400  1.0  0.1652
  C  C1972  1  0.823700  0.651480  0.120830  1.0  -0.2048
  C  C1973  1  0.812210  0.660710  0.103410  1.0  -0.0919
  C  C1974  1  0.767770  0.230100  0.528130  1.0  0.5141
  C  C1975  1  0.780650  0.216610  0.547030  1.0  -0.1214
  C  C1976  1  0.800200  0.224850  0.555430  1.0  -0.0304
  C  C1977  1  0.810420  0.214370  0.572940  1.0  -0.1235
  C  C1978  1  0.801080  0.195640  0.582050  1.0  0.0168
  C  C1979  1  0.781530  0.187400  0.573650  1.0  -0.0949
  C  C1980  1  0.771310  0.197880  0.556140  1.0  -0.0344
  C  C1981  1  0.812090  0.183350  0.600550  1.0  0.0743
  C  C1982  1  0.823440  0.196760  0.615120  1.0  -0.1842
  C  C1983  1  0.834930  0.187520  0.632540  1.0  -0.1443
  C  C1984  1  0.835050  0.164880  0.635400  1.0  0.1652
  C  C1985  1  0.823700  0.151480  0.620830  1.0  -0.2048
  C  C1986  1  0.812210  0.160710  0.603410  1.0  -0.0919
  C  C1987  1  0.267770  0.730100  0.528130  1.0  0.5141
  C  C1988  1  0.280650  0.716610  0.547030  1.0  -0.1214
  C  C1989  1  0.300200  0.724850  0.555430  1.0  -0.0304
  C  C1990  1  0.310420  0.714370  0.572940  1.0  -0.1235
  C  C1991  1  0.301080  0.695640  0.582050  1.0  0.0168
  C  C1992  1  0.281530  0.687400  0.573650  1.0  -0.0949
  C  C1993  1  0.271310  0.697880  0.556140  1.0  -0.0344
  C  C1994  1  0.312090  0.683350  0.600550  1.0  0.0743
  C  C1995  1  0.323440  0.696760  0.615120  1.0  -0.1842
  C  C1996  1  0.334930  0.687520  0.632540  1.0  -0.1443
  C  C1997  1  0.335050  0.664880  0.635400  1.0  0.1652
  C  C1998  1  0.323700  0.651480  0.620830  1.0  -0.2048
  C  C1999  1  0.312210  0.660710  0.603410  1.0  -0.0919
  C  C2000  1  0.267770  0.230100  0.028130  1.0  0.5141
  C  C2001  1  0.280650  0.216610  0.047030  1.0  -0.1214
  C  C2002  1  0.300200  0.224850  0.055430  1.0  -0.0304
  C  C2003  1  0.310420  0.214370  0.072940  1.0  -0.1235
  C  C2004  1  0.301080  0.195640  0.082050  1.0  0.0168
  C  C2005  1  0.281530  0.187400  0.073650  1.0  -0.0949
  C  C2006  1  0.271310  0.197880  0.056140  1.0  -0.0344
  C  C2007  1  0.312090  0.183350  0.100550  1.0  0.0743
  C  C2008  1  0.323440  0.196760  0.115120  1.0  -0.1842
  C  C2009  1  0.334930  0.187520  0.132540  1.0  -0.1443
  C  C2010  1  0.335050  0.164880  0.135400  1.0  0.1652
  C  C2011  1  0.323700  0.151480  0.120830  1.0  -0.2048
  C  C2012  1  0.312210  0.160710  0.103410  1.0  -0.0919
  C  C2013  1  0.767770  0.269900  0.971870  1.0  0.5145
  C  C2014  1  0.780650  0.283390  0.952970  1.0  -0.1228
  C  C2015  1  0.800200  0.275150  0.944570  1.0  -0.0282
  C  C2016  1  0.810420  0.285630  0.927060  1.0  -0.1234
  C  C2017  1  0.801080  0.304360  0.917950  1.0  0.0173
  C  C2018  1  0.781530  0.312600  0.926350  1.0  -0.0968
  C  C2019  1  0.771310  0.302120  0.943860  1.0  -0.0343
  C  C2020  1  0.812090  0.316650  0.899450  1.0  0.0742
  C  C2021  1  0.823440  0.303240  0.884880  1.0  -0.1859
  C  C2022  1  0.834930  0.312480  0.867460  1.0  -0.1441
  C  C2023  1  0.835050  0.335120  0.864600  1.0  0.1661
  C  C2024  1  0.823700  0.348520  0.879170  1.0  -0.2039
  C  C2025  1  0.812210  0.339290  0.896590  1.0  -0.0944
  C  C2026  1  0.767770  0.769900  0.471870  1.0  0.5145
  C  C2027  1  0.780650  0.783390  0.452970  1.0  -0.1228
  C  C2028  1  0.800200  0.775150  0.444570  1.0  -0.0282
  C  C2029  1  0.810420  0.785630  0.427060  1.0  -0.1234
  C  C2030  1  0.801080  0.804360  0.417950  1.0  0.0173
  C  C2031  1  0.781530  0.812600  0.426350  1.0  -0.0968
  C  C2032  1  0.771310  0.802120  0.443860  1.0  -0.0343
  C  C2033  1  0.812090  0.816650  0.399450  1.0  0.0742
  C  C2034  1  0.823440  0.803240  0.384880  1.0  -0.1859
  C  C2035  1  0.834930  0.812480  0.367460  1.0  -0.1441
  C  C2036  1  0.835050  0.835120  0.364600  1.0  0.1661
  C  C2037  1  0.823700  0.848520  0.379170  1.0  -0.2039
  C  C2038  1  0.812210  0.839290  0.396590  1.0  -0.0944
  C  C2039  1  0.267770  0.269900  0.471870  1.0  0.5145
  C  C2040  1  0.280650  0.283390  0.452970  1.0  -0.1228
  C  C2041  1  0.300200  0.275150  0.444570  1.0  -0.0282
  C  C2042  1  0.310420  0.285630  0.427060  1.0  -0.1234
  C  C2043  1  0.301080  0.304360  0.417950  1.0  0.0173
  C  C2044  1  0.281530  0.312600  0.426350  1.0  -0.0968
  C  C2045  1  0.271310  0.302120  0.443860  1.0  -0.0343
  C  C2046  1  0.312090  0.316650  0.399450  1.0  0.0742
  C  C2047  1  0.323440  0.303240  0.384880  1.0  -0.1859
  C  C2048  1  0.334930  0.312480  0.367460  1.0  -0.1441
  C  C2049  1  0.335050  0.335120  0.364600  1.0  0.1661
  C  C2050  1  0.323700  0.348520  0.379170  1.0  -0.2039
  C  C2051  1  0.312210  0.339290  0.396590  1.0  -0.0944
  C  C2052  1  0.267770  0.769900  0.971870  1.0  0.5145
  C  C2053  1  0.280650  0.783390  0.952970  1.0  -0.1228
  C  C2054  1  0.300200  0.775150  0.944570  1.0  -0.0282
  C  C2055  1  0.310420  0.785630  0.927060  1.0  -0.1234
  C  C2056  1  0.301080  0.804360  0.917950  1.0  0.0173
  C  C2057  1  0.281530  0.812600  0.926350  1.0  -0.0968
  C  C2058  1  0.271310  0.802120  0.943860  1.0  -0.0343
  C  C2059  1  0.312090  0.816650  0.899450  1.0  0.0742
  C  C2060  1  0.323440  0.803240  0.884880  1.0  -0.1859
  C  C2061  1  0.334930  0.812480  0.867460  1.0  -0.1441
  C  C2062  1  0.335050  0.835120  0.864600  1.0  0.1661
  C  C2063  1  0.323700  0.848520  0.879170  1.0  -0.2039
  C  C2064  1  0.312210  0.839290  0.896590  1.0  -0.0944
  N  N2065  1  0.155020  0.655020  0.155020  1.0  -0.1705
  N  N2066  1  0.655020  0.655020  0.655020  1.0  -0.1705
  N  N2067  1  0.844980  0.344980  0.155020  1.0  -0.171
  N  N2068  1  0.844980  0.844980  0.655020  1.0  -0.171
  N  N2069  1  0.844980  0.655020  0.844980  1.0  -0.171
  N  N2070  1  0.155020  0.344980  0.844980  1.0  -0.1706
  N  N2071  1  0.655020  0.844980  0.844980  1.0  -0.1706
  N  N2072  1  0.155020  0.155020  0.655020  1.0  -0.1705
  N  N2073  1  0.155020  0.844980  0.344980  1.0  -0.1706
  N  N2074  1  0.844980  0.155020  0.344980  1.0  -0.171
  N  N2075  1  0.655020  0.155020  0.155020  1.0  -0.1705
  N  N2076  1  0.344980  0.155020  0.844980  1.0  -0.171
  N  N2077  1  0.344980  0.655020  0.344980  1.0  -0.171
  N  N2078  1  0.655020  0.344980  0.344980  1.0  -0.1706
  N  N2079  1  0.344980  0.844980  0.155020  1.0  -0.171
  N  N2080  1  0.344980  0.344980  0.655020  1.0  -0.171
  N  N2081  1  0.655020  0.155020  0.844980  1.0  -0.1706
  N  N2082  1  0.655020  0.655020  0.344980  1.0  -0.1706
  N  N2083  1  0.344980  0.844980  0.844980  1.0  -0.171
  N  N2084  1  0.344980  0.344980  0.344980  1.0  -0.171
  N  N2085  1  0.655020  0.844980  0.155020  1.0  -0.1706
  N  N2086  1  0.655020  0.344980  0.655020  1.0  -0.1706
  N  N2087  1  0.344980  0.155020  0.155020  1.0  -0.171
  N  N2088  1  0.344980  0.655020  0.655020  1.0  -0.171
  N  N2089  1  0.844980  0.155020  0.655020  1.0  -0.171
  N  N2090  1  0.844980  0.655020  0.155020  1.0  -0.171
  N  N2091  1  0.155020  0.155020  0.344980  1.0  -0.1706
  N  N2092  1  0.155020  0.655020  0.844980  1.0  -0.1706
  N  N2093  1  0.844980  0.844980  0.344980  1.0  -0.171
  N  N2094  1  0.155020  0.844980  0.655020  1.0  -0.1706
  N  N2095  1  0.155020  0.344980  0.155020  1.0  -0.1706
  N  N2096  1  0.844980  0.344980  0.844980  1.0  -0.171
  O  O2097  1  0.017160  0.745290  0.221610  1.0  -0.5676
  O  O2098  1  0.024850  0.719330  0.250320  1.0  -0.5853
  O  O2099  1  0.017160  0.245290  0.721610  1.0  -0.5676
  O  O2100  1  0.024850  0.219330  0.750320  1.0  -0.5853
  O  O2101  1  0.517160  0.745290  0.721610  1.0  -0.5676
  O  O2102  1  0.524850  0.719330  0.750320  1.0  -0.5848
  O  O2103  1  0.517160  0.245290  0.221610  1.0  -0.5676
  O  O2104  1  0.524850  0.219330  0.250320  1.0  -0.5848
  O  O2105  1  0.982840  0.254710  0.221610  1.0  -0.5674
  O  O2106  1  0.975150  0.280670  0.250320  1.0  -0.5857
  O  O2107  1  0.982840  0.754710  0.721610  1.0  -0.5674
  O  O2108  1  0.975150  0.780670  0.750320  1.0  -0.5857
  O  O2109  1  0.482840  0.254710  0.721610  1.0  -0.5674
  O  O2110  1  0.475150  0.280670  0.750320  1.0  -0.5857
  O  O2111  1  0.482840  0.754710  0.221610  1.0  -0.5674
  O  O2112  1  0.475150  0.780670  0.250320  1.0  -0.5857
  O  O2113  1  0.982840  0.745290  0.778390  1.0  -0.5667
  O  O2114  1  0.975150  0.719330  0.749680  1.0  -0.5834
  O  O2115  1  0.982840  0.245290  0.278390  1.0  -0.5667
  O  O2116  1  0.975150  0.219330  0.249680  1.0  -0.5834
  O  O2117  1  0.482840  0.745290  0.278390  1.0  -0.5667
  O  O2118  1  0.475150  0.719330  0.249680  1.0  -0.5834
  O  O2119  1  0.482840  0.245290  0.778390  1.0  -0.5667
  O  O2120  1  0.475150  0.219330  0.749680  1.0  -0.5834
  O  O2121  1  0.017160  0.254710  0.778390  1.0  -0.5682
  O  O2122  1  0.024850  0.280670  0.749680  1.0  -0.5841
  O  O2123  1  0.017160  0.754710  0.278390  1.0  -0.5682
  O  O2124  1  0.024850  0.780670  0.249680  1.0  -0.5841
  O  O2125  1  0.517160  0.254710  0.278390  1.0  -0.5682
  O  O2126  1  0.524850  0.280670  0.249680  1.0  -0.584
  O  O2127  1  0.517160  0.754710  0.778390  1.0  -0.5682
  O  O2128  1  0.524850  0.780670  0.749680  1.0  -0.584
  O  O2129  1  0.221610  0.017160  0.745290  1.0  -0.5639
  O  O2130  1  0.250320  0.024850  0.719330  1.0  -0.5833
  O  O2131  1  0.221610  0.517160  0.245290  1.0  -0.5639
  O  O2132  1  0.250320  0.524850  0.219330  1.0  -0.5833
  O  O2133  1  0.721610  0.017160  0.245290  1.0  -0.5639
  O  O2134  1  0.750320  0.024850  0.219330  1.0  -0.5833
  O  O2135  1  0.721610  0.517160  0.745290  1.0  -0.5639
  O  O2136  1  0.750320  0.524850  0.719330  1.0  -0.5833
  O  O2137  1  0.221610  0.982840  0.254710  1.0  -0.5647
  O  O2138  1  0.250320  0.975150  0.280670  1.0  -0.5835
  O  O2139  1  0.221610  0.482840  0.754710  1.0  -0.5647
  O  O2140  1  0.250320  0.475150  0.780670  1.0  -0.5835
  O  O2141  1  0.721610  0.982840  0.754710  1.0  -0.5647
  O  O2142  1  0.750320  0.975150  0.780670  1.0  -0.5835
  O  O2143  1  0.721610  0.482840  0.254710  1.0  -0.5647
  O  O2144  1  0.750320  0.475150  0.280670  1.0  -0.5835
  O  O2145  1  0.778390  0.982840  0.745290  1.0  -0.5643
  O  O2146  1  0.749680  0.975150  0.719330  1.0  -0.5831
  O  O2147  1  0.778390  0.482840  0.245290  1.0  -0.5643
  O  O2148  1  0.749680  0.475150  0.219330  1.0  -0.5827
  O  O2149  1  0.278390  0.982840  0.245290  1.0  -0.5643
  O  O2150  1  0.249680  0.975150  0.219330  1.0  -0.5831
  O  O2151  1  0.278390  0.482840  0.745290  1.0  -0.5643
  O  O2152  1  0.249680  0.475150  0.719330  1.0  -0.5827
  O  O2153  1  0.778390  0.017160  0.254710  1.0  -0.5652
  O  O2154  1  0.749680  0.024850  0.280670  1.0  -0.5841
  O  O2155  1  0.778390  0.517160  0.754710  1.0  -0.5652
  O  O2156  1  0.749680  0.524850  0.780670  1.0  -0.584
  O  O2157  1  0.278390  0.017160  0.754710  1.0  -0.5652
  O  O2158  1  0.249680  0.024850  0.780670  1.0  -0.5841
  O  O2159  1  0.278390  0.517160  0.254710  1.0  -0.5652
  O  O2160  1  0.249680  0.524850  0.280670  1.0  -0.584
  O  O2161  1  0.745290  0.221610  0.017160  1.0  -0.565
  O  O2162  1  0.719330  0.250320  0.024850  1.0  -0.5824
  O  O2163  1  0.745290  0.721610  0.517160  1.0  -0.565
  O  O2164  1  0.719330  0.750320  0.524850  1.0  -0.5824
  O  O2165  1  0.245290  0.221610  0.517160  1.0  -0.565
  O  O2166  1  0.219330  0.250320  0.524850  1.0  -0.5824
  O  O2167  1  0.245290  0.721610  0.017160  1.0  -0.565
  O  O2168  1  0.219330  0.750320  0.024850  1.0  -0.5824
  O  O2169  1  0.254710  0.221610  0.982840  1.0  -0.566
  O  O2170  1  0.280670  0.250320  0.975150  1.0  -0.5823
  O  O2171  1  0.254710  0.721610  0.482840  1.0  -0.566
  O  O2172  1  0.280670  0.750320  0.475150  1.0  -0.5827
  O  O2173  1  0.754710  0.221610  0.482840  1.0  -0.566
  O  O2174  1  0.780670  0.250320  0.475150  1.0  -0.5827
  O  O2175  1  0.754710  0.721610  0.982840  1.0  -0.566
  O  O2176  1  0.780670  0.750320  0.975150  1.0  -0.5823
  O  O2177  1  0.745290  0.778390  0.982840  1.0  -0.5649
  O  O2178  1  0.719330  0.749680  0.975150  1.0  -0.5807
  O  O2179  1  0.745290  0.278390  0.482840  1.0  -0.5649
  O  O2180  1  0.719330  0.249680  0.475150  1.0  -0.5807
  O  O2181  1  0.245290  0.778390  0.482840  1.0  -0.5649
  O  O2182  1  0.219330  0.749680  0.475150  1.0  -0.5807
  O  O2183  1  0.245290  0.278390  0.982840  1.0  -0.5649
  O  O2184  1  0.219330  0.249680  0.975150  1.0  -0.5807
  O  O2185  1  0.254710  0.778390  0.017160  1.0  -0.5655
  O  O2186  1  0.280670  0.749680  0.024850  1.0  -0.5829
  O  O2187  1  0.254710  0.278390  0.517160  1.0  -0.5655
  O  O2188  1  0.280670  0.249680  0.524850  1.0  -0.5828
  O  O2189  1  0.754710  0.778390  0.517160  1.0  -0.5655
  O  O2190  1  0.780670  0.749680  0.524850  1.0  -0.5828
  O  O2191  1  0.754710  0.278390  0.017160  1.0  -0.5655
  O  O2192  1  0.780670  0.249680  0.024850  1.0  -0.5829
  O  O2193  1  0.745290  0.017160  0.778390  1.0  -0.5663
  O  O2194  1  0.719330  0.024850  0.749680  1.0  -0.5811
  O  O2195  1  0.745290  0.517160  0.278390  1.0  -0.5663
  O  O2196  1  0.719330  0.524850  0.249680  1.0  -0.5811
  O  O2197  1  0.245290  0.017160  0.278390  1.0  -0.5663
  O  O2198  1  0.219330  0.024850  0.249680  1.0  -0.5811
  O  O2199  1  0.245290  0.517160  0.778390  1.0  -0.5663
  O  O2200  1  0.219330  0.524850  0.749680  1.0  -0.5811
  O  O2201  1  0.254710  0.982840  0.778390  1.0  -0.5669
  O  O2202  1  0.280670  0.975150  0.749680  1.0  -0.5816
  O  O2203  1  0.254710  0.482840  0.278390  1.0  -0.5669
  O  O2204  1  0.280670  0.475150  0.249680  1.0  -0.5819
  O  O2205  1  0.754710  0.982840  0.278390  1.0  -0.5669
  O  O2206  1  0.780670  0.975150  0.249680  1.0  -0.5816
  O  O2207  1  0.754710  0.482840  0.778390  1.0  -0.5669
  O  O2208  1  0.780670  0.475150  0.749680  1.0  -0.5819
  O  O2209  1  0.745290  0.982840  0.221610  1.0  -0.5665
  O  O2210  1  0.719330  0.975150  0.250320  1.0  -0.5844
  O  O2211  1  0.745290  0.482840  0.721610  1.0  -0.5665
  O  O2212  1  0.719330  0.475150  0.750320  1.0  -0.5844
  O  O2213  1  0.245290  0.982840  0.721610  1.0  -0.5665
  O  O2214  1  0.219330  0.975150  0.750320  1.0  -0.5844
  O  O2215  1  0.245290  0.482840  0.221610  1.0  -0.5665
  O  O2216  1  0.219330  0.475150  0.250320  1.0  -0.5844
  O  O2217  1  0.254710  0.017160  0.221610  1.0  -0.567
  O  O2218  1  0.280670  0.024850  0.250320  1.0  -0.5848
  O  O2219  1  0.254710  0.517160  0.721610  1.0  -0.567
  O  O2220  1  0.280670  0.524850  0.750320  1.0  -0.5848
  O  O2221  1  0.754710  0.017160  0.721610  1.0  -0.567
  O  O2222  1  0.780670  0.024850  0.750320  1.0  -0.5848
  O  O2223  1  0.754710  0.517160  0.221610  1.0  -0.567
  O  O2224  1  0.780670  0.524850  0.250320  1.0  -0.5848
  O  O2225  1  0.017160  0.221610  0.254710  1.0  -0.5662
  O  O2226  1  0.024850  0.250320  0.280670  1.0  -0.5838
  O  O2227  1  0.017160  0.721610  0.754710  1.0  -0.5662
  O  O2228  1  0.024850  0.750320  0.780670  1.0  -0.5838
  O  O2229  1  0.517160  0.221610  0.754710  1.0  -0.5662
  O  O2230  1  0.524850  0.250320  0.780670  1.0  -0.5838
  O  O2231  1  0.517160  0.721610  0.254710  1.0  -0.5662
  O  O2232  1  0.524850  0.750320  0.280670  1.0  -0.5838
  O  O2233  1  0.982840  0.221610  0.745290  1.0  -0.5649
  O  O2234  1  0.975150  0.250320  0.719330  1.0  -0.5858
  O  O2235  1  0.982840  0.721610  0.245290  1.0  -0.5649
  O  O2236  1  0.975150  0.750320  0.219330  1.0  -0.5858
  O  O2237  1  0.482840  0.221610  0.245290  1.0  -0.5649
  O  O2238  1  0.475150  0.250320  0.219330  1.0  -0.5858
  O  O2239  1  0.482840  0.721610  0.745290  1.0  -0.5649
  O  O2240  1  0.475150  0.750320  0.719330  1.0  -0.5858
  O  O2241  1  0.982840  0.778390  0.254710  1.0  -0.5658
  O  O2242  1  0.975150  0.749680  0.280670  1.0  -0.5856
  O  O2243  1  0.982840  0.278390  0.754710  1.0  -0.5658
  O  O2244  1  0.975150  0.249680  0.780670  1.0  -0.5856
  O  O2245  1  0.482840  0.778390  0.754710  1.0  -0.5658
  O  O2246  1  0.475150  0.749680  0.780670  1.0  -0.5847
  O  O2247  1  0.482840  0.278390  0.254710  1.0  -0.5658
  O  O2248  1  0.475150  0.249680  0.280670  1.0  -0.5847
  O  O2249  1  0.017160  0.778390  0.745290  1.0  -0.5651
  O  O2250  1  0.024850  0.749680  0.719330  1.0  -0.584
  O  O2251  1  0.017160  0.278390  0.245290  1.0  -0.5651
  O  O2252  1  0.024850  0.249680  0.219330  1.0  -0.584
  O  O2253  1  0.517160  0.778390  0.245290  1.0  -0.5651
  O  O2254  1  0.524850  0.749680  0.219330  1.0  -0.584
  O  O2255  1  0.517160  0.278390  0.745290  1.0  -0.5651
  O  O2256  1  0.524850  0.249680  0.719330  1.0  -0.584
  O  O2257  1  0.221610  0.745290  0.982840  1.0  -0.5647
  O  O2258  1  0.250320  0.719330  0.975150  1.0  -0.5832
  O  O2259  1  0.221610  0.245290  0.482840  1.0  -0.5647
  O  O2260  1  0.250320  0.219330  0.475150  1.0  -0.5832
  O  O2261  1  0.721610  0.745290  0.482840  1.0  -0.5647
  O  O2262  1  0.750320  0.719330  0.475150  1.0  -0.5832
  O  O2263  1  0.721610  0.245290  0.982840  1.0  -0.5647
  O  O2264  1  0.750320  0.219330  0.975150  1.0  -0.5832
  O  O2265  1  0.221610  0.254710  0.017160  1.0  -0.5647
  O  O2266  1  0.250320  0.280670  0.024850  1.0  -0.5823
  O  O2267  1  0.221610  0.754710  0.517160  1.0  -0.5647
  O  O2268  1  0.250320  0.780670  0.524850  1.0  -0.5823
  O  O2269  1  0.721610  0.254710  0.517160  1.0  -0.5647
  O  O2270  1  0.750320  0.280670  0.524850  1.0  -0.5823
  O  O2271  1  0.721610  0.754710  0.017160  1.0  -0.5647
  O  O2272  1  0.750320  0.780670  0.024850  1.0  -0.5823
  O  O2273  1  0.778390  0.745290  0.017160  1.0  -0.5654
  O  O2274  1  0.749680  0.719330  0.024850  1.0  -0.5828
  O  O2275  1  0.778390  0.245290  0.517160  1.0  -0.5654
  O  O2276  1  0.749680  0.219330  0.524850  1.0  -0.5828
  O  O2277  1  0.278390  0.745290  0.517160  1.0  -0.5654
  O  O2278  1  0.249680  0.719330  0.524850  1.0  -0.5828
  O  O2279  1  0.278390  0.245290  0.017160  1.0  -0.5654
  O  O2280  1  0.249680  0.219330  0.024850  1.0  -0.5828
  O  O2281  1  0.778390  0.254710  0.982840  1.0  -0.5661
  O  O2282  1  0.749680  0.280670  0.975150  1.0  -0.5834
  O  O2283  1  0.778390  0.754710  0.482840  1.0  -0.5661
  O  O2284  1  0.749680  0.780670  0.475150  1.0  -0.5837
  O  O2285  1  0.278390  0.254710  0.482840  1.0  -0.5661
  O  O2286  1  0.249680  0.280670  0.475150  1.0  -0.5837
  O  O2287  1  0.278390  0.754710  0.982840  1.0  -0.5661
  O  O2288  1  0.249680  0.780670  0.975150  1.0  -0.5834
