# generated using pymatgen
data_Cu3H72C96(NO6)2
_symmetry_space_group_name_H-M   'P 1'
_cell_length_a   35.40000000
_cell_length_b   35.40000000
_cell_length_c   35.40000000
_cell_angle_alpha   90.00000000
_cell_angle_beta   90.00000000
_cell_angle_gamma   90.00000000
_symmetry_Int_Tables_number   1
_chemical_formula_structural   Cu3H72C96(NO6)2
_chemical_formula_sum   'Cu12 H288 C384 N8 O48'
_cell_volume   44361.86400000
_cell_formula_units_Z   4
loop_
 _symmetry_equiv_pos_site_id
 _symmetry_equiv_pos_as_xyz
  1  'x, y, z'
loop_
 _atom_site_type_symbol
 _atom_site_label
 _atom_site_symmetry_multiplicity
 _atom_site_fract_x
 _atom_site_fract_y
 _atom_site_fract_z
 _atom_site_occupancy
 _atom_site_charge
  Cu  Cu1  1  0.000000  0.500000  0.787720  1.0  0.882
  Cu  Cu2  1  0.000000  0.500000  0.212280  1.0  0.8811
  Cu  Cu3  1  0.787720  0.000000  0.500000  1.0  0.8817
  Cu  Cu4  1  0.212280  0.000000  0.500000  1.0  0.8808
  Cu  Cu5  1  0.500000  0.787720  0.000000  1.0  0.8827
  Cu  Cu6  1  0.500000  0.212280  0.000000  1.0  0.8838
  Cu  Cu7  1  0.000000  0.500000  0.712280  1.0  0.8832
  Cu  Cu8  1  0.000000  0.500000  0.287720  1.0  0.8837
  Cu  Cu9  1  0.500000  0.287720  0.000000  1.0  0.8836
  Cu  Cu10  1  0.500000  0.712280  0.000000  1.0  0.8847
  Cu  Cu11  1  0.287720  0.000000  0.500000  1.0  0.8838
  Cu  Cu12  1  0.712280  0.000000  0.500000  1.0  0.8827
  H  H13  1  0.087600  0.582100  0.806600  1.0  0.1151
  H  H14  1  0.135100  0.626600  0.805800  1.0  0.1069
  H  H15  1  0.192900  0.649300  0.797200  1.0  0.1109
  H  H16  1  0.250300  0.633200  0.807700  1.0  0.082
  H  H17  1  0.283600  0.649000  0.783300  1.0  0.1091
  H  H18  1  0.286200  0.650000  0.827500  1.0  0.0746
  H  H19  1  0.912400  0.417900  0.806600  1.0  0.1153
  H  H20  1  0.864900  0.373400  0.805800  1.0  0.1063
  H  H21  1  0.807100  0.350700  0.797200  1.0  0.1082
  H  H22  1  0.749700  0.366800  0.807700  1.0  0.0804
  H  H23  1  0.716400  0.351000  0.783300  1.0  0.1084
  H  H24  1  0.713800  0.350000  0.827500  1.0  0.0748
  H  H25  1  0.912400  0.582100  0.193400  1.0  0.1155
  H  H26  1  0.864900  0.626600  0.194200  1.0  0.1057
  H  H27  1  0.807100  0.649300  0.202800  1.0  0.1086
  H  H28  1  0.749700  0.633200  0.192300  1.0  0.0812
  H  H29  1  0.716400  0.649000  0.216700  1.0  0.1091
  H  H30  1  0.713800  0.650000  0.172500  1.0  0.0765
  H  H31  1  0.087600  0.417900  0.193400  1.0  0.1156
  H  H32  1  0.135100  0.373400  0.194200  1.0  0.1056
  H  H33  1  0.192900  0.350700  0.202800  1.0  0.1093
  H  H34  1  0.250300  0.366800  0.192300  1.0  0.0813
  H  H35  1  0.283600  0.351000  0.216700  1.0  0.1082
  H  H36  1  0.286200  0.350000  0.172500  1.0  0.0761
  H  H37  1  0.806600  0.087600  0.582100  1.0  0.1164
  H  H38  1  0.805800  0.135100  0.626600  1.0  0.1048
  H  H39  1  0.797200  0.192900  0.649300  1.0  0.1076
  H  H40  1  0.807700  0.250300  0.633200  1.0  0.0797
  H  H41  1  0.783300  0.283600  0.649000  1.0  0.1065
  H  H42  1  0.827500  0.286200  0.650000  1.0  0.0738
  H  H43  1  0.806600  0.912400  0.417900  1.0  0.1162
  H  H44  1  0.805800  0.864900  0.373400  1.0  0.1048
  H  H45  1  0.797200  0.807100  0.350700  1.0  0.1084
  H  H46  1  0.807700  0.749700  0.366800  1.0  0.0796
  H  H47  1  0.783300  0.716400  0.351000  1.0  0.1102
  H  H48  1  0.827500  0.713800  0.350000  1.0  0.0738
  H  H49  1  0.193400  0.912400  0.582100  1.0  0.1164
  H  H50  1  0.194200  0.864900  0.626600  1.0  0.1047
  H  H51  1  0.202800  0.807100  0.649300  1.0  0.1098
  H  H52  1  0.192300  0.749700  0.633200  1.0  0.0795
  H  H53  1  0.216700  0.716400  0.649000  1.0  0.1085
  H  H54  1  0.172500  0.713800  0.650000  1.0  0.0749
  H  H55  1  0.193400  0.087600  0.417900  1.0  0.1158
  H  H56  1  0.194200  0.135100  0.373400  1.0  0.105
  H  H57  1  0.202800  0.192900  0.350700  1.0  0.1102
  H  H58  1  0.192300  0.250300  0.366800  1.0  0.0803
  H  H59  1  0.216700  0.283600  0.351000  1.0  0.1074
  H  H60  1  0.172500  0.286200  0.350000  1.0  0.0749
  H  H61  1  0.582100  0.806600  0.087600  1.0  0.1164
  H  H62  1  0.626600  0.805800  0.135100  1.0  0.1048
  H  H63  1  0.649300  0.797200  0.192900  1.0  0.1083
  H  H64  1  0.633200  0.807700  0.250300  1.0  0.0816
  H  H65  1  0.649000  0.783300  0.283600  1.0  0.1098
  H  H66  1  0.650000  0.827500  0.286200  1.0  0.0752
  H  H67  1  0.417900  0.806600  0.912400  1.0  0.1163
  H  H68  1  0.373400  0.805800  0.864900  1.0  0.1049
  H  H69  1  0.350700  0.797200  0.807100  1.0  0.1073
  H  H70  1  0.366800  0.807700  0.749700  1.0  0.0817
  H  H71  1  0.351000  0.783300  0.716400  1.0  0.1089
  H  H72  1  0.350000  0.827500  0.713800  1.0  0.0764
  H  H73  1  0.582100  0.193400  0.912400  1.0  0.1161
  H  H74  1  0.626600  0.194200  0.864900  1.0  0.1054
  H  H75  1  0.649300  0.202800  0.807100  1.0  0.1088
  H  H76  1  0.633200  0.192300  0.749700  1.0  0.0811
  H  H77  1  0.649000  0.216700  0.716400  1.0  0.1103
  H  H78  1  0.650000  0.172500  0.713800  1.0  0.0757
  H  H79  1  0.417900  0.193400  0.087600  1.0  0.1162
  H  H80  1  0.373400  0.194200  0.135100  1.0  0.1047
  H  H81  1  0.350700  0.202800  0.192900  1.0  0.1082
  H  H82  1  0.366800  0.192300  0.250300  1.0  0.081
  H  H83  1  0.351000  0.216700  0.283600  1.0  0.1104
  H  H84  1  0.350000  0.172500  0.286200  1.0  0.0759
  H  H85  1  0.082100  0.587600  0.693400  1.0  0.1152
  H  H86  1  0.126600  0.635100  0.694200  1.0  0.1053
  H  H87  1  0.149300  0.692900  0.702800  1.0  0.1082
  H  H88  1  0.133200  0.750300  0.692300  1.0  0.0815
  H  H89  1  0.149000  0.783600  0.716700  1.0  0.1116
  H  H90  1  0.150000  0.786200  0.672500  1.0  0.0782
  H  H91  1  0.917900  0.412400  0.693400  1.0  0.1155
  H  H92  1  0.873400  0.364900  0.694200  1.0  0.105
  H  H93  1  0.850700  0.307100  0.702800  1.0  0.1091
  H  H94  1  0.866800  0.249700  0.692300  1.0  0.0814
  H  H95  1  0.851000  0.216400  0.716700  1.0  0.111
  H  H96  1  0.850000  0.213800  0.672500  1.0  0.0769
  H  H97  1  0.082100  0.412400  0.306600  1.0  0.1151
  H  H98  1  0.126600  0.364900  0.305800  1.0  0.1065
  H  H99  1  0.149300  0.307100  0.297200  1.0  0.1096
  H  H100  1  0.133200  0.249700  0.307700  1.0  0.0809
  H  H101  1  0.149000  0.216400  0.283300  1.0  0.111
  H  H102  1  0.150000  0.213800  0.327500  1.0  0.0774
  H  H103  1  0.917900  0.587600  0.306600  1.0  0.115
  H  H104  1  0.873400  0.635100  0.305800  1.0  0.1061
  H  H105  1  0.850700  0.692900  0.297200  1.0  0.1086
  H  H106  1  0.866800  0.750300  0.307700  1.0  0.0813
  H  H107  1  0.851000  0.783600  0.283300  1.0  0.1129
  H  H108  1  0.850000  0.786200  0.327500  1.0  0.0763
  H  H109  1  0.587600  0.306600  0.917900  1.0  0.1158
  H  H110  1  0.635100  0.305800  0.873400  1.0  0.1048
  H  H111  1  0.692900  0.297200  0.850700  1.0  0.1097
  H  H112  1  0.750300  0.307700  0.866800  1.0  0.0805
  H  H113  1  0.783600  0.283300  0.851000  1.0  0.1119
  H  H114  1  0.786200  0.327500  0.850000  1.0  0.0758
  H  H115  1  0.412400  0.306600  0.082100  1.0  0.1164
  H  H116  1  0.364900  0.305800  0.126600  1.0  0.1044
  H  H117  1  0.307100  0.297200  0.149300  1.0  0.108
  H  H118  1  0.249700  0.307700  0.133200  1.0  0.0799
  H  H119  1  0.216400  0.283300  0.149000  1.0  0.1096
  H  H120  1  0.213800  0.327500  0.150000  1.0  0.0787
  H  H121  1  0.412400  0.693400  0.917900  1.0  0.1155
  H  H122  1  0.364900  0.694200  0.873400  1.0  0.1051
  H  H123  1  0.307100  0.702800  0.850700  1.0  0.1098
  H  H124  1  0.249700  0.692300  0.866800  1.0  0.0804
  H  H125  1  0.216400  0.716700  0.851000  1.0  0.1134
  H  H126  1  0.213800  0.672500  0.850000  1.0  0.0771
  H  H127  1  0.587600  0.693400  0.082100  1.0  0.1157
  H  H128  1  0.635100  0.694200  0.126600  1.0  0.1049
  H  H129  1  0.692900  0.702800  0.149300  1.0  0.1089
  H  H130  1  0.750300  0.692300  0.133200  1.0  0.0808
  H  H131  1  0.783600  0.716700  0.149000  1.0  0.1131
  H  H132  1  0.786200  0.672500  0.150000  1.0  0.0773
  H  H133  1  0.306600  0.082100  0.412400  1.0  0.1167
  H  H134  1  0.305800  0.126600  0.364900  1.0  0.105
  H  H135  1  0.297200  0.149300  0.307100  1.0  0.108
  H  H136  1  0.307700  0.133200  0.249700  1.0  0.0815
  H  H137  1  0.283300  0.149000  0.216400  1.0  0.1093
  H  H138  1  0.327500  0.150000  0.213800  1.0  0.0749
  H  H139  1  0.306600  0.917900  0.587600  1.0  0.1174
  H  H140  1  0.305800  0.873400  0.635100  1.0  0.1046
  H  H141  1  0.297200  0.850700  0.692900  1.0  0.1072
  H  H142  1  0.307700  0.866800  0.750300  1.0  0.0802
  H  H143  1  0.283300  0.851000  0.783600  1.0  0.1108
  H  H144  1  0.327500  0.850000  0.786200  1.0  0.0729
  H  H145  1  0.693400  0.082100  0.587600  1.0  0.1166
  H  H146  1  0.694200  0.126600  0.635100  1.0  0.1047
  H  H147  1  0.702800  0.149300  0.692900  1.0  0.1083
  H  H148  1  0.692300  0.133200  0.750300  1.0  0.0821
  H  H149  1  0.716700  0.149000  0.783600  1.0  0.1093
  H  H150  1  0.672500  0.150000  0.786200  1.0  0.0758
  H  H151  1  0.693400  0.917900  0.412400  1.0  0.1166
  H  H152  1  0.694200  0.873400  0.364900  1.0  0.105
  H  H153  1  0.702800  0.850700  0.307100  1.0  0.1088
  H  H154  1  0.692300  0.866800  0.249700  1.0  0.0804
  H  H155  1  0.716700  0.851000  0.216400  1.0  0.1116
  H  H156  1  0.672500  0.850000  0.213800  1.0  0.0746
  H  H157  1  0.912400  0.417900  0.193400  1.0  0.1158
  H  H158  1  0.864900  0.373400  0.194200  1.0  0.1055
  H  H159  1  0.807100  0.350700  0.202800  1.0  0.108
  H  H160  1  0.749700  0.366800  0.192300  1.0  0.0805
  H  H161  1  0.716400  0.351000  0.216700  1.0  0.1092
  H  H162  1  0.713800  0.350000  0.172500  1.0  0.0763
  H  H163  1  0.087600  0.582100  0.193400  1.0  0.1153
  H  H164  1  0.135100  0.626600  0.194200  1.0  0.1055
  H  H165  1  0.192900  0.649300  0.202800  1.0  0.1096
  H  H166  1  0.250300  0.633200  0.192300  1.0  0.0822
  H  H167  1  0.283600  0.649000  0.216700  1.0  0.1086
  H  H168  1  0.286200  0.650000  0.172500  1.0  0.0762
  H  H169  1  0.087600  0.417900  0.806600  1.0  0.1152
  H  H170  1  0.135100  0.373400  0.805800  1.0  0.107
  H  H171  1  0.192900  0.350700  0.797200  1.0  0.1097
  H  H172  1  0.250300  0.366800  0.807700  1.0  0.0813
  H  H173  1  0.283600  0.351000  0.783300  1.0  0.11
  H  H174  1  0.286200  0.350000  0.827500  1.0  0.0734
  H  H175  1  0.912400  0.582100  0.806600  1.0  0.115
  H  H176  1  0.864900  0.626600  0.805800  1.0  0.1065
  H  H177  1  0.807100  0.649300  0.797200  1.0  0.1096
  H  H178  1  0.749700  0.633200  0.807700  1.0  0.081
  H  H179  1  0.716400  0.649000  0.783300  1.0  0.1075
  H  H180  1  0.713800  0.650000  0.827500  1.0  0.0755
  H  H181  1  0.193400  0.912400  0.417900  1.0  0.1158
  H  H182  1  0.194200  0.864900  0.373400  1.0  0.1049
  H  H183  1  0.202800  0.807100  0.350700  1.0  0.1107
  H  H184  1  0.192300  0.749700  0.366800  1.0  0.0796
  H  H185  1  0.216700  0.716400  0.351000  1.0  0.1072
  H  H186  1  0.172500  0.713800  0.350000  1.0  0.0757
  H  H187  1  0.193400  0.087600  0.582100  1.0  0.1161
  H  H188  1  0.194200  0.135100  0.626600  1.0  0.1047
  H  H189  1  0.202800  0.192900  0.649300  1.0  0.1084
  H  H190  1  0.192300  0.250300  0.633200  1.0  0.0804
  H  H191  1  0.216700  0.283600  0.649000  1.0  0.1098
  H  H192  1  0.172500  0.286200  0.650000  1.0  0.076
  H  H193  1  0.806600  0.087600  0.417900  1.0  0.1161
  H  H194  1  0.805800  0.135100  0.373400  1.0  0.105
  H  H195  1  0.797200  0.192900  0.350700  1.0  0.1084
  H  H196  1  0.807700  0.250300  0.366800  1.0  0.0801
  H  H197  1  0.783300  0.283600  0.351000  1.0  0.1092
  H  H198  1  0.827500  0.286200  0.350000  1.0  0.0728
  H  H199  1  0.806600  0.912400  0.582100  1.0  0.1168
  H  H200  1  0.805800  0.864900  0.626600  1.0  0.1046
  H  H201  1  0.797200  0.807100  0.649300  1.0  0.1083
  H  H202  1  0.807700  0.749700  0.633200  1.0  0.0793
  H  H203  1  0.783300  0.716400  0.649000  1.0  0.107
  H  H204  1  0.827500  0.713800  0.650000  1.0  0.0726
  H  H205  1  0.417900  0.193400  0.912400  1.0  0.1161
  H  H206  1  0.373400  0.194200  0.864900  1.0  0.1049
  H  H207  1  0.350700  0.202800  0.807100  1.0  0.1088
  H  H208  1  0.366800  0.192300  0.749700  1.0  0.0815
  H  H209  1  0.351000  0.216700  0.716400  1.0  0.1109
  H  H210  1  0.350000  0.172500  0.713800  1.0  0.0763
  H  H211  1  0.582100  0.193400  0.087600  1.0  0.1161
  H  H212  1  0.626600  0.194200  0.135100  1.0  0.1053
  H  H213  1  0.649300  0.202800  0.192900  1.0  0.1078
  H  H214  1  0.633200  0.192300  0.250300  1.0  0.0817
  H  H215  1  0.649000  0.216700  0.283600  1.0  0.1103
  H  H216  1  0.650000  0.172500  0.286200  1.0  0.0762
  H  H217  1  0.417900  0.806600  0.087600  1.0  0.1163
  H  H218  1  0.373400  0.805800  0.135100  1.0  0.1045
  H  H219  1  0.350700  0.797200  0.192900  1.0  0.1078
  H  H220  1  0.366800  0.807700  0.250300  1.0  0.081
  H  H221  1  0.351000  0.783300  0.283600  1.0  0.111
  H  H222  1  0.350000  0.827500  0.286200  1.0  0.0752
  H  H223  1  0.582100  0.806600  0.912400  1.0  0.1162
  H  H224  1  0.626600  0.805800  0.864900  1.0  0.105
  H  H225  1  0.649300  0.797200  0.807100  1.0  0.1082
  H  H226  1  0.633200  0.807700  0.749700  1.0  0.081
  H  H227  1  0.649000  0.783300  0.716400  1.0  0.1067
  H  H228  1  0.650000  0.827500  0.713800  1.0  0.076
  H  H229  1  0.917900  0.412400  0.306600  1.0  0.1151
  H  H230  1  0.873400  0.364900  0.305800  1.0  0.1058
  H  H231  1  0.850700  0.307100  0.297200  1.0  0.1087
  H  H232  1  0.866800  0.249700  0.307700  1.0  0.081
  H  H233  1  0.851000  0.216400  0.283300  1.0  0.1107
  H  H234  1  0.850000  0.213800  0.327500  1.0  0.0758
  H  H235  1  0.082100  0.587600  0.306600  1.0  0.115
  H  H236  1  0.126600  0.635100  0.305800  1.0  0.1067
  H  H237  1  0.149300  0.692900  0.297200  1.0  0.1091
  H  H238  1  0.133200  0.750300  0.307700  1.0  0.0818
  H  H239  1  0.149000  0.783600  0.283300  1.0  0.1111
  H  H240  1  0.150000  0.786200  0.327500  1.0  0.0776
  H  H241  1  0.917900  0.587600  0.693400  1.0  0.1153
  H  H242  1  0.873400  0.635100  0.694200  1.0  0.1052
  H  H243  1  0.850700  0.692900  0.702800  1.0  0.1082
  H  H244  1  0.866800  0.750300  0.692300  1.0  0.0817
  H  H245  1  0.851000  0.783600  0.716700  1.0  0.1101
  H  H246  1  0.850000  0.786200  0.672500  1.0  0.078
  H  H247  1  0.082100  0.412400  0.693400  1.0  0.1155
  H  H248  1  0.126600  0.364900  0.694200  1.0  0.1052
  H  H249  1  0.149300  0.307100  0.702800  1.0  0.1096
  H  H250  1  0.133200  0.249700  0.692300  1.0  0.0804
  H  H251  1  0.149000  0.216400  0.716700  1.0  0.1116
  H  H252  1  0.150000  0.213800  0.672500  1.0  0.0775
  H  H253  1  0.412400  0.693400  0.082100  1.0  0.116
  H  H254  1  0.364900  0.694200  0.126600  1.0  0.1045
  H  H255  1  0.307100  0.702800  0.149300  1.0  0.108
  H  H256  1  0.249700  0.692300  0.133200  1.0  0.08
  H  H257  1  0.216400  0.716700  0.149000  1.0  0.1134
  H  H258  1  0.213800  0.672500  0.150000  1.0  0.0771
  H  H259  1  0.587600  0.693400  0.917900  1.0  0.1153
  H  H260  1  0.635100  0.694200  0.873400  1.0  0.1053
  H  H261  1  0.692900  0.702800  0.850700  1.0  0.1111
  H  H262  1  0.750300  0.692300  0.866800  1.0  0.0806
  H  H263  1  0.783600  0.716700  0.851000  1.0  0.1106
  H  H264  1  0.786200  0.672500  0.850000  1.0  0.0763
  H  H265  1  0.587600  0.306600  0.082100  1.0  0.1164
  H  H266  1  0.635100  0.305800  0.126600  1.0  0.1045
  H  H267  1  0.692900  0.297200  0.149300  1.0  0.1092
  H  H268  1  0.750300  0.307700  0.133200  1.0  0.0808
  H  H269  1  0.783600  0.283300  0.149000  1.0  0.1111
  H  H270  1  0.786200  0.327500  0.150000  1.0  0.0781
  H  H271  1  0.412400  0.306600  0.917900  1.0  0.1158
  H  H272  1  0.364900  0.305800  0.873400  1.0  0.1048
  H  H273  1  0.307100  0.297200  0.850700  1.0  0.1083
  H  H274  1  0.249700  0.307700  0.866800  1.0  0.0801
  H  H275  1  0.216400  0.283300  0.851000  1.0  0.11
  H  H276  1  0.213800  0.327500  0.850000  1.0  0.0772
  H  H277  1  0.693400  0.917900  0.587600  1.0  0.1169
  H  H278  1  0.694200  0.873400  0.635100  1.0  0.1048
  H  H279  1  0.702800  0.850700  0.692900  1.0  0.1087
  H  H280  1  0.692300  0.866800  0.750300  1.0  0.0805
  H  H281  1  0.716700  0.851000  0.783600  1.0  0.1084
  H  H282  1  0.672500  0.850000  0.786200  1.0  0.0734
  H  H283  1  0.693400  0.082100  0.412400  1.0  0.1165
  H  H284  1  0.694200  0.126600  0.364900  1.0  0.105
  H  H285  1  0.702800  0.149300  0.307100  1.0  0.1091
  H  H286  1  0.692300  0.133200  0.249700  1.0  0.0814
  H  H287  1  0.716700  0.149000  0.216400  1.0  0.1107
  H  H288  1  0.672500  0.150000  0.213800  1.0  0.0757
  H  H289  1  0.306600  0.917900  0.412400  1.0  0.1169
  H  H290  1  0.305800  0.873400  0.364900  1.0  0.1047
  H  H291  1  0.297200  0.850700  0.307100  1.0  0.107
  H  H292  1  0.307700  0.866800  0.249700  1.0  0.08
  H  H293  1  0.283300  0.851000  0.216400  1.0  0.1078
  H  H294  1  0.327500  0.850000  0.213800  1.0  0.074
  H  H295  1  0.306600  0.082100  0.587600  1.0  0.1169
  H  H296  1  0.305800  0.126600  0.635100  1.0  0.1048
  H  H297  1  0.297200  0.149300  0.692900  1.0  0.1073
  H  H298  1  0.307700  0.133200  0.750300  1.0  0.082
  H  H299  1  0.283300  0.149000  0.783600  1.0  0.1107
  H  H300  1  0.327500  0.150000  0.786200  1.0  0.0749
  C  C301  1  0.095800  0.592200  0.783800  1.0  -0.0855
  C  C302  1  0.124000  0.619300  0.783100  1.0  -0.1311
  C  C303  1  0.192600  0.667100  0.777900  1.0  -0.2026
  C  C304  1  0.219800  0.696000  0.776800  1.0  0.0557
  C  C305  1  0.269500  0.652200  0.806200  1.0  -0.3192
  C  C306  1  0.904200  0.407800  0.783800  1.0  -0.0851
  C  C307  1  0.876000  0.380700  0.783100  1.0  -0.1329
  C  C308  1  0.807400  0.332900  0.777900  1.0  -0.2038
  C  C309  1  0.780200  0.304000  0.776800  1.0  0.0568
  C  C310  1  0.730500  0.347800  0.806200  1.0  -0.3207
  C  C311  1  0.904200  0.592200  0.216200  1.0  -0.0849
  C  C312  1  0.876000  0.619300  0.216900  1.0  -0.1334
  C  C313  1  0.807400  0.667100  0.222100  1.0  -0.2023
  C  C314  1  0.780200  0.696000  0.223200  1.0  0.0573
  C  C315  1  0.730500  0.652200  0.193800  1.0  -0.32
  C  C316  1  0.095800  0.407800  0.216200  1.0  -0.085
  C  C317  1  0.124000  0.380700  0.216900  1.0  -0.132
  C  C318  1  0.192600  0.332900  0.222100  1.0  -0.2037
  C  C319  1  0.219800  0.304000  0.223200  1.0  0.0553
  C  C320  1  0.269500  0.347800  0.193800  1.0  -0.3223
  C  C321  1  0.783800  0.095800  0.592200  1.0  -0.0802
  C  C322  1  0.783100  0.124000  0.619300  1.0  -0.1288
  C  C323  1  0.777900  0.192600  0.667100  1.0  -0.2021
  C  C324  1  0.776800  0.219800  0.696000  1.0  0.0595
  C  C325  1  0.806200  0.269500  0.652200  1.0  -0.3153
  C  C326  1  0.783800  0.904200  0.407800  1.0  -0.0797
  C  C327  1  0.783100  0.876000  0.380700  1.0  -0.1294
  C  C328  1  0.777900  0.807400  0.332900  1.0  -0.2023
  C  C329  1  0.776800  0.780200  0.304000  1.0  0.0591
  C  C330  1  0.806200  0.730500  0.347800  1.0  -0.3152
  C  C331  1  0.216200  0.904200  0.592200  1.0  -0.0829
  C  C332  1  0.216900  0.876000  0.619300  1.0  -0.1289
  C  C333  1  0.222100  0.807400  0.667100  1.0  -0.2027
  C  C334  1  0.223200  0.780200  0.696000  1.0  0.0569
  C  C335  1  0.193800  0.730500  0.652200  1.0  -0.3159
  C  C336  1  0.216200  0.095800  0.407800  1.0  -0.0828
  C  C337  1  0.216900  0.124000  0.380700  1.0  -0.1288
  C  C338  1  0.222100  0.192600  0.332900  1.0  -0.2022
  C  C339  1  0.223200  0.219800  0.304000  1.0  0.0584
  C  C340  1  0.193800  0.269500  0.347800  1.0  -0.3174
  C  C341  1  0.592200  0.783800  0.095800  1.0  -0.0819
  C  C342  1  0.619300  0.783100  0.124000  1.0  -0.1301
  C  C343  1  0.667100  0.777900  0.192600  1.0  -0.2028
  C  C344  1  0.696000  0.776800  0.219800  1.0  0.0563
  C  C345  1  0.652200  0.806200  0.269500  1.0  -0.3201
  C  C346  1  0.407800  0.783800  0.904200  1.0  -0.0816
  C  C347  1  0.380700  0.783100  0.876000  1.0  -0.1317
  C  C348  1  0.332900  0.777900  0.807400  1.0  -0.2028
  C  C349  1  0.304000  0.776800  0.780200  1.0  0.0564
  C  C350  1  0.347800  0.806200  0.730500  1.0  -0.3191
  C  C351  1  0.592200  0.216200  0.904200  1.0  -0.0808
  C  C352  1  0.619300  0.216900  0.876000  1.0  -0.1301
  C  C353  1  0.667100  0.222100  0.807400  1.0  -0.2025
  C  C354  1  0.696000  0.223200  0.780200  1.0  0.0559
  C  C355  1  0.652200  0.193800  0.730500  1.0  -0.3196
  C  C356  1  0.407800  0.216200  0.095800  1.0  -0.0819
  C  C357  1  0.380700  0.216900  0.124000  1.0  -0.1312
  C  C358  1  0.332900  0.222100  0.192600  1.0  -0.2021
  C  C359  1  0.304000  0.223200  0.219800  1.0  0.0572
  C  C360  1  0.347800  0.193800  0.269500  1.0  -0.3196
  C  C361  1  0.092200  0.595800  0.716200  1.0  -0.0835
  C  C362  1  0.119300  0.624000  0.716900  1.0  -0.1313
  C  C363  1  0.167100  0.692600  0.722100  1.0  -0.2029
  C  C364  1  0.196000  0.719800  0.723200  1.0  0.0566
  C  C365  1  0.152200  0.769500  0.693800  1.0  -0.3213
  C  C366  1  0.907800  0.404200  0.716200  1.0  -0.0857
  C  C367  1  0.880700  0.376000  0.716900  1.0  -0.1323
  C  C368  1  0.832900  0.307400  0.722100  1.0  -0.2039
  C  C369  1  0.804000  0.280200  0.723200  1.0  0.0566
  C  C370  1  0.847800  0.230500  0.693800  1.0  -0.3207
  C  C371  1  0.092200  0.404200  0.283800  1.0  -0.0851
  C  C372  1  0.119300  0.376000  0.283100  1.0  -0.1297
  C  C373  1  0.167100  0.307400  0.277900  1.0  -0.2029
  C  C374  1  0.196000  0.280200  0.276800  1.0  0.0561
  C  C375  1  0.152200  0.230500  0.306200  1.0  -0.3193
  C  C376  1  0.907800  0.595800  0.283800  1.0  -0.0847
  C  C377  1  0.880700  0.624000  0.283100  1.0  -0.1323
  C  C378  1  0.832900  0.692600  0.277900  1.0  -0.2022
  C  C379  1  0.804000  0.719800  0.276800  1.0  0.0571
  C  C380  1  0.847800  0.769500  0.306200  1.0  -0.3201
  C  C381  1  0.595800  0.283800  0.907800  1.0  -0.0826
  C  C382  1  0.624000  0.283100  0.880700  1.0  -0.1311
  C  C383  1  0.692600  0.277900  0.832900  1.0  -0.2014
  C  C384  1  0.719800  0.276800  0.804000  1.0  0.0575
  C  C385  1  0.769500  0.306200  0.847800  1.0  -0.3198
  C  C386  1  0.404200  0.283800  0.092200  1.0  -0.0821
  C  C387  1  0.376000  0.283100  0.119300  1.0  -0.1318
  C  C388  1  0.307400  0.277900  0.167100  1.0  -0.2018
  C  C389  1  0.280200  0.276800  0.196000  1.0  0.0588
  C  C390  1  0.230500  0.306200  0.152200  1.0  -0.3195
  C  C391  1  0.404200  0.716200  0.907800  1.0  -0.0816
  C  C392  1  0.376000  0.716900  0.880700  1.0  -0.1325
  C  C393  1  0.307400  0.722100  0.832900  1.0  -0.2014
  C  C394  1  0.280200  0.723200  0.804000  1.0  0.0595
  C  C395  1  0.230500  0.693800  0.847800  1.0  -0.3207
  C  C396  1  0.595800  0.716200  0.092200  1.0  -0.082
  C  C397  1  0.624000  0.716900  0.119300  1.0  -0.131
  C  C398  1  0.692600  0.722100  0.167100  1.0  -0.201
  C  C399  1  0.719800  0.723200  0.196000  1.0  0.0577
  C  C400  1  0.769500  0.693800  0.152200  1.0  -0.3199
  C  C401  1  0.283800  0.092200  0.404200  1.0  -0.0795
  C  C402  1  0.283100  0.119300  0.376000  1.0  -0.1275
  C  C403  1  0.277900  0.167100  0.307400  1.0  -0.2007
  C  C404  1  0.276800  0.196000  0.280200  1.0  0.0567
  C  C405  1  0.306200  0.152200  0.230500  1.0  -0.313
  C  C406  1  0.283800  0.907800  0.595800  1.0  -0.08
  C  C407  1  0.283100  0.880700  0.624000  1.0  -0.1267
  C  C408  1  0.277900  0.832900  0.692600  1.0  -0.2016
  C  C409  1  0.276800  0.804000  0.719800  1.0  0.0574
  C  C410  1  0.306200  0.847800  0.769500  1.0  -0.3177
  C  C411  1  0.716200  0.092200  0.595800  1.0  -0.0828
  C  C412  1  0.716900  0.119300  0.624000  1.0  -0.1268
  C  C413  1  0.722100  0.167100  0.692600  1.0  -0.2008
  C  C414  1  0.723200  0.196000  0.719800  1.0  0.0562
  C  C415  1  0.693800  0.152200  0.769500  1.0  -0.316
  C  C416  1  0.716200  0.907800  0.404200  1.0  -0.083
  C  C417  1  0.716900  0.880700  0.376000  1.0  -0.1272
  C  C418  1  0.722100  0.832900  0.307400  1.0  -0.2025
  C  C419  1  0.723200  0.804000  0.280200  1.0  0.0548
  C  C420  1  0.693800  0.847800  0.230500  1.0  -0.3161
  C  C421  1  0.904200  0.407800  0.216200  1.0  -0.0854
  C  C422  1  0.876000  0.380700  0.216900  1.0  -0.1331
  C  C423  1  0.807400  0.332900  0.222100  1.0  -0.2041
  C  C424  1  0.780200  0.304000  0.223200  1.0  0.0571
  C  C425  1  0.730500  0.347800  0.193800  1.0  -0.3225
  C  C426  1  0.095800  0.592200  0.216200  1.0  -0.0845
  C  C427  1  0.124000  0.619300  0.216900  1.0  -0.1323
  C  C428  1  0.192600  0.667100  0.222100  1.0  -0.2027
  C  C429  1  0.219800  0.696000  0.223200  1.0  0.0555
  C  C430  1  0.269500  0.652200  0.193800  1.0  -0.3213
  C  C431  1  0.095800  0.407800  0.783800  1.0  -0.086
  C  C432  1  0.124000  0.380700  0.783100  1.0  -0.1311
  C  C433  1  0.192600  0.332900  0.777900  1.0  -0.2034
  C  C434  1  0.219800  0.304000  0.776800  1.0  0.0554
  C  C435  1  0.269500  0.347800  0.806200  1.0  -0.3205
  C  C436  1  0.904200  0.592200  0.783800  1.0  -0.0846
  C  C437  1  0.876000  0.619300  0.783100  1.0  -0.1327
  C  C438  1  0.807400  0.667100  0.777900  1.0  -0.2022
  C  C439  1  0.780200  0.696000  0.776800  1.0  0.0572
  C  C440  1  0.730500  0.652200  0.806200  1.0  -0.3179
  C  C441  1  0.216200  0.904200  0.407800  1.0  -0.083
  C  C442  1  0.216900  0.876000  0.380700  1.0  -0.1286
  C  C443  1  0.222100  0.807400  0.332900  1.0  -0.2031
  C  C444  1  0.223200  0.780200  0.304000  1.0  0.0579
  C  C445  1  0.193800  0.730500  0.347800  1.0  -0.3155
  C  C446  1  0.216200  0.095800  0.592200  1.0  -0.0829
  C  C447  1  0.216900  0.124000  0.619300  1.0  -0.1293
  C  C448  1  0.222100  0.192600  0.667100  1.0  -0.2023
  C  C449  1  0.223200  0.219800  0.696000  1.0  0.0577
  C  C450  1  0.193800  0.269500  0.652200  1.0  -0.3155
  C  C451  1  0.783800  0.095800  0.407800  1.0  -0.0796
  C  C452  1  0.783100  0.124000  0.380700  1.0  -0.1295
  C  C453  1  0.777900  0.192600  0.332900  1.0  -0.2015
  C  C454  1  0.776800  0.219800  0.304000  1.0  0.0598
  C  C455  1  0.806200  0.269500  0.347800  1.0  -0.3169
  C  C456  1  0.783800  0.904200  0.592200  1.0  -0.0799
  C  C457  1  0.783100  0.876000  0.619300  1.0  -0.1286
  C  C458  1  0.777900  0.807400  0.667100  1.0  -0.2023
  C  C459  1  0.776800  0.780200  0.696000  1.0  0.0587
  C  C460  1  0.806200  0.730500  0.652200  1.0  -0.3152
  C  C461  1  0.407800  0.216200  0.904200  1.0  -0.0814
  C  C462  1  0.380700  0.216900  0.876000  1.0  -0.1317
  C  C463  1  0.332900  0.222100  0.807400  1.0  -0.2023
  C  C464  1  0.304000  0.223200  0.780200  1.0  0.0565
  C  C465  1  0.347800  0.193800  0.730500  1.0  -0.3193
  C  C466  1  0.592200  0.216200  0.095800  1.0  -0.0811
  C  C467  1  0.619300  0.216900  0.124000  1.0  -0.1293
  C  C468  1  0.667100  0.222100  0.192600  1.0  -0.2019
  C  C469  1  0.696000  0.223200  0.219800  1.0  0.0567
  C  C470  1  0.652200  0.193800  0.269500  1.0  -0.3206
  C  C471  1  0.407800  0.783800  0.095800  1.0  -0.082
  C  C472  1  0.380700  0.783100  0.124000  1.0  -0.1312
  C  C473  1  0.332900  0.777900  0.192600  1.0  -0.2034
  C  C474  1  0.304000  0.776800  0.219800  1.0  0.057
  C  C475  1  0.347800  0.806200  0.269500  1.0  -0.3192
  C  C476  1  0.592200  0.783800  0.904200  1.0  -0.0817
  C  C477  1  0.619300  0.783100  0.876000  1.0  -0.1306
  C  C478  1  0.667100  0.777900  0.807400  1.0  -0.2026
  C  C479  1  0.696000  0.776800  0.780200  1.0  0.0558
  C  C480  1  0.652200  0.806200  0.730500  1.0  -0.3198
  C  C481  1  0.907800  0.404200  0.283800  1.0  -0.0849
  C  C482  1  0.880700  0.376000  0.283100  1.0  -0.1319
  C  C483  1  0.832900  0.307400  0.277900  1.0  -0.2032
  C  C484  1  0.804000  0.280200  0.276800  1.0  0.0569
  C  C485  1  0.847800  0.230500  0.306200  1.0  -0.3199
  C  C486  1  0.092200  0.595800  0.283800  1.0  -0.0849
  C  C487  1  0.119300  0.624000  0.283100  1.0  -0.1303
  C  C488  1  0.167100  0.692600  0.277900  1.0  -0.2024
  C  C489  1  0.196000  0.719800  0.276800  1.0  0.0565
  C  C490  1  0.152200  0.769500  0.306200  1.0  -0.3189
  C  C491  1  0.907800  0.595800  0.716200  1.0  -0.0851
  C  C492  1  0.880700  0.624000  0.716900  1.0  -0.1324
  C  C493  1  0.832900  0.692600  0.722100  1.0  -0.2028
  C  C494  1  0.804000  0.719800  0.723200  1.0  0.0572
  C  C495  1  0.847800  0.769500  0.693800  1.0  -0.3215
  C  C496  1  0.092200  0.404200  0.716200  1.0  -0.084
  C  C497  1  0.119300  0.376000  0.716900  1.0  -0.1308
  C  C498  1  0.167100  0.307400  0.722100  1.0  -0.2035
  C  C499  1  0.196000  0.280200  0.723200  1.0  0.056
  C  C500  1  0.152200  0.230500  0.693800  1.0  -0.3205
  C  C501  1  0.404200  0.716200  0.092200  1.0  -0.0822
  C  C502  1  0.376000  0.716900  0.119300  1.0  -0.1327
  C  C503  1  0.307400  0.722100  0.167100  1.0  -0.2009
  C  C504  1  0.280200  0.723200  0.196000  1.0  0.0589
  C  C505  1  0.230500  0.693800  0.152200  1.0  -0.3198
  C  C506  1  0.595800  0.716200  0.907800  1.0  -0.0819
  C  C507  1  0.624000  0.716900  0.880700  1.0  -0.1308
  C  C508  1  0.692600  0.722100  0.832900  1.0  -0.2017
  C  C509  1  0.719800  0.723200  0.804000  1.0  0.0578
  C  C510  1  0.769500  0.693800  0.847800  1.0  -0.3216
  C  C511  1  0.595800  0.283800  0.092200  1.0  -0.0828
  C  C512  1  0.624000  0.283100  0.119300  1.0  -0.1308
  C  C513  1  0.692600  0.277900  0.167100  1.0  -0.2015
  C  C514  1  0.719800  0.276800  0.196000  1.0  0.0575
  C  C515  1  0.769500  0.306200  0.152200  1.0  -0.3189
  C  C516  1  0.404200  0.283800  0.907800  1.0  -0.0817
  C  C517  1  0.376000  0.283100  0.880700  1.0  -0.1321
  C  C518  1  0.307400  0.277900  0.832900  1.0  -0.2014
  C  C519  1  0.280200  0.276800  0.804000  1.0  0.0594
  C  C520  1  0.230500  0.306200  0.847800  1.0  -0.3196
  C  C521  1  0.716200  0.907800  0.595800  1.0  -0.083
  C  C522  1  0.716900  0.880700  0.624000  1.0  -0.1266
  C  C523  1  0.722100  0.832900  0.692600  1.0  -0.2022
  C  C524  1  0.723200  0.804000  0.719800  1.0  0.0557
  C  C525  1  0.693800  0.847800  0.769500  1.0  -0.3184
  C  C526  1  0.716200  0.092200  0.404200  1.0  -0.0825
  C  C527  1  0.716900  0.119300  0.376000  1.0  -0.1272
  C  C528  1  0.722100  0.167100  0.307400  1.0  -0.2012
  C  C529  1  0.723200  0.196000  0.280200  1.0  0.0553
  C  C530  1  0.693800  0.152200  0.230500  1.0  -0.3145
  C  C531  1  0.283800  0.907800  0.404200  1.0  -0.0796
  C  C532  1  0.283100  0.880700  0.376000  1.0  -0.1275
  C  C533  1  0.277900  0.832900  0.307400  1.0  -0.2017
  C  C534  1  0.276800  0.804000  0.280200  1.0  0.0564
  C  C535  1  0.306200  0.847800  0.230500  1.0  -0.3155
  C  C536  1  0.283800  0.092200  0.595800  1.0  -0.0801
  C  C537  1  0.283100  0.119300  0.624000  1.0  -0.1268
  C  C538  1  0.277900  0.167100  0.692600  1.0  -0.2006
  C  C539  1  0.276800  0.196000  0.719800  1.0  0.0574
  C  C540  1  0.306200  0.152200  0.769500  1.0  -0.3152
  C  C541  1  0.050500  0.550500  0.750000  1.0  0.6857
  C  C542  1  0.080200  0.580200  0.750000  1.0  -0.1363
  C  C543  1  0.136000  0.636000  0.750000  1.0  0.0286
  C  C544  1  0.165500  0.665500  0.750000  1.0  0.0687
  C  C545  1  0.223500  0.723500  0.750000  1.0  0.2406
  C  C546  1  0.949500  0.449500  0.750000  1.0  0.6857
  C  C547  1  0.919800  0.419800  0.750000  1.0  -0.1358
  C  C548  1  0.864000  0.364000  0.750000  1.0  0.0311
  C  C549  1  0.834500  0.334500  0.750000  1.0  0.0698
  C  C550  1  0.776500  0.276500  0.750000  1.0  0.2401
  C  C551  1  0.949500  0.550500  0.250000  1.0  0.6852
  C  C552  1  0.919800  0.580200  0.250000  1.0  -0.1359
  C  C553  1  0.864000  0.636000  0.250000  1.0  0.0298
  C  C554  1  0.834500  0.665500  0.250000  1.0  0.0699
  C  C555  1  0.776500  0.723500  0.250000  1.0  0.2402
  C  C556  1  0.050500  0.449500  0.250000  1.0  0.6862
  C  C557  1  0.080200  0.419800  0.250000  1.0  -0.1361
  C  C558  1  0.136000  0.364000  0.250000  1.0  0.0301
  C  C559  1  0.165500  0.334500  0.250000  1.0  0.0686
  C  C560  1  0.223500  0.276500  0.250000  1.0  0.2405
  C  C561  1  0.750000  0.050500  0.550500  1.0  0.6852
  C  C562  1  0.750000  0.080200  0.580200  1.0  -0.1365
  C  C563  1  0.750000  0.136000  0.636000  1.0  0.032
  C  C564  1  0.750000  0.165500  0.665500  1.0  0.0695
  C  C565  1  0.750000  0.223500  0.723500  1.0  0.2407
  C  C566  1  0.750000  0.949500  0.449500  1.0  0.6857
  C  C567  1  0.750000  0.919800  0.419800  1.0  -0.1363
  C  C568  1  0.750000  0.864000  0.364000  1.0  0.0335
  C  C569  1  0.750000  0.834500  0.334500  1.0  0.0704
  C  C570  1  0.750000  0.776500  0.276500  1.0  0.2407
  C  C571  1  0.250000  0.949500  0.550500  1.0  0.6857
  C  C572  1  0.250000  0.919800  0.580200  1.0  -0.1362
  C  C573  1  0.250000  0.864000  0.636000  1.0  0.0331
  C  C574  1  0.250000  0.834500  0.665500  1.0  0.07
  C  C575  1  0.250000  0.776500  0.723500  1.0  0.2406
  C  C576  1  0.250000  0.050500  0.449500  1.0  0.6852
  C  C577  1  0.250000  0.080200  0.419800  1.0  -0.1363
  C  C578  1  0.250000  0.136000  0.364000  1.0  0.0323
  C  C579  1  0.250000  0.165500  0.334500  1.0  0.0702
  C  C580  1  0.250000  0.223500  0.276500  1.0  0.2408
  C  C581  1  0.550500  0.750000  0.050500  1.0  0.6864
  C  C582  1  0.580200  0.750000  0.080200  1.0  -0.1373
  C  C583  1  0.636000  0.750000  0.136000  1.0  0.0295
  C  C584  1  0.665500  0.750000  0.165500  1.0  0.0699
  C  C585  1  0.723500  0.750000  0.223500  1.0  0.2406
  C  C586  1  0.449500  0.750000  0.949500  1.0  0.6858
  C  C587  1  0.419800  0.750000  0.919800  1.0  -0.137
  C  C588  1  0.364000  0.750000  0.864000  1.0  0.0305
  C  C589  1  0.334500  0.750000  0.834500  1.0  0.0714
  C  C590  1  0.276500  0.750000  0.776500  1.0  0.2403
  C  C591  1  0.550500  0.250000  0.949500  1.0  0.6864
  C  C592  1  0.580200  0.250000  0.919800  1.0  -0.1374
  C  C593  1  0.636000  0.250000  0.864000  1.0  0.0298
  C  C594  1  0.665500  0.250000  0.834500  1.0  0.0707
  C  C595  1  0.723500  0.250000  0.776500  1.0  0.2407
  C  C596  1  0.449500  0.250000  0.050500  1.0  0.6859
  C  C597  1  0.419800  0.250000  0.080200  1.0  -0.1373
  C  C598  1  0.364000  0.250000  0.136000  1.0  0.0304
  C  C599  1  0.334500  0.250000  0.165500  1.0  0.0712
  C  C600  1  0.276500  0.250000  0.223500  1.0  0.2401
  C  C601  1  0.949500  0.449500  0.250000  1.0  0.6857
  C  C602  1  0.919800  0.419800  0.250000  1.0  -0.1358
  C  C603  1  0.864000  0.364000  0.250000  1.0  0.0311
  C  C604  1  0.834500  0.334500  0.250000  1.0  0.0698
  C  C605  1  0.776500  0.276500  0.250000  1.0  0.2401
  C  C606  1  0.050500  0.550500  0.250000  1.0  0.6857
  C  C607  1  0.080200  0.580200  0.250000  1.0  -0.1363
  C  C608  1  0.136000  0.636000  0.250000  1.0  0.0286
  C  C609  1  0.165500  0.665500  0.250000  1.0  0.0687
  C  C610  1  0.223500  0.723500  0.250000  1.0  0.2406
  C  C611  1  0.050500  0.449500  0.750000  1.0  0.6862
  C  C612  1  0.080200  0.419800  0.750000  1.0  -0.1361
  C  C613  1  0.136000  0.364000  0.750000  1.0  0.0301
  C  C614  1  0.165500  0.334500  0.750000  1.0  0.0686
  C  C615  1  0.223500  0.276500  0.750000  1.0  0.2405
  C  C616  1  0.949500  0.550500  0.750000  1.0  0.6852
  C  C617  1  0.919800  0.580200  0.750000  1.0  -0.1359
  C  C618  1  0.864000  0.636000  0.750000  1.0  0.0298
  C  C619  1  0.834500  0.665500  0.750000  1.0  0.0699
  C  C620  1  0.776500  0.723500  0.750000  1.0  0.2402
  C  C621  1  0.250000  0.949500  0.449500  1.0  0.6857
  C  C622  1  0.250000  0.919800  0.419800  1.0  -0.1363
  C  C623  1  0.250000  0.864000  0.364000  1.0  0.0335
  C  C624  1  0.250000  0.834500  0.334500  1.0  0.0704
  C  C625  1  0.250000  0.776500  0.276500  1.0  0.2407
  C  C626  1  0.250000  0.050500  0.550500  1.0  0.6852
  C  C627  1  0.250000  0.080200  0.580200  1.0  -0.1365
  C  C628  1  0.250000  0.136000  0.636000  1.0  0.032
  C  C629  1  0.250000  0.165500  0.665500  1.0  0.0695
  C  C630  1  0.250000  0.223500  0.723500  1.0  0.2407
  C  C631  1  0.750000  0.050500  0.449500  1.0  0.6852
  C  C632  1  0.750000  0.080200  0.419800  1.0  -0.1363
  C  C633  1  0.750000  0.136000  0.364000  1.0  0.0323
  C  C634  1  0.750000  0.165500  0.334500  1.0  0.0702
  C  C635  1  0.750000  0.223500  0.276500  1.0  0.2408
  C  C636  1  0.750000  0.949500  0.550500  1.0  0.6857
  C  C637  1  0.750000  0.919800  0.580200  1.0  -0.1362
  C  C638  1  0.750000  0.864000  0.636000  1.0  0.0331
  C  C639  1  0.750000  0.834500  0.665500  1.0  0.07
  C  C640  1  0.750000  0.776500  0.723500  1.0  0.2406
  C  C641  1  0.449500  0.250000  0.949500  1.0  0.6858
  C  C642  1  0.419800  0.250000  0.919800  1.0  -0.137
  C  C643  1  0.364000  0.250000  0.864000  1.0  0.0305
  C  C644  1  0.334500  0.250000  0.834500  1.0  0.0714
  C  C645  1  0.276500  0.250000  0.776500  1.0  0.2403
  C  C646  1  0.550500  0.250000  0.050500  1.0  0.6864
  C  C647  1  0.580200  0.250000  0.080200  1.0  -0.1373
  C  C648  1  0.636000  0.250000  0.136000  1.0  0.0295
  C  C649  1  0.665500  0.250000  0.165500  1.0  0.0699
  C  C650  1  0.723500  0.250000  0.223500  1.0  0.2406
  C  C651  1  0.449500  0.750000  0.050500  1.0  0.6859
  C  C652  1  0.419800  0.750000  0.080200  1.0  -0.1373
  C  C653  1  0.364000  0.750000  0.136000  1.0  0.0304
  C  C654  1  0.334500  0.750000  0.165500  1.0  0.0712
  C  C655  1  0.276500  0.750000  0.223500  1.0  0.2401
  C  C656  1  0.550500  0.750000  0.949500  1.0  0.6864
  C  C657  1  0.580200  0.750000  0.919800  1.0  -0.1374
  C  C658  1  0.636000  0.750000  0.864000  1.0  0.0298
  C  C659  1  0.665500  0.750000  0.834500  1.0  0.0707
  C  C660  1  0.723500  0.750000  0.776500  1.0  0.2407
  C  C661  1  0.250000  0.693600  0.806400  1.0  -0.064
  C  C662  1  0.750000  0.306400  0.806400  1.0  -0.0648
  C  C663  1  0.750000  0.693600  0.193600  1.0  -0.0642
  C  C664  1  0.250000  0.306400  0.193600  1.0  -0.0651
  C  C665  1  0.806400  0.250000  0.693600  1.0  -0.0636
  C  C666  1  0.806400  0.750000  0.306400  1.0  -0.0633
  C  C667  1  0.193600  0.750000  0.693600  1.0  -0.0625
  C  C668  1  0.193600  0.250000  0.306400  1.0  -0.0625
  C  C669  1  0.693600  0.806400  0.250000  1.0  -0.0615
  C  C670  1  0.306400  0.806400  0.750000  1.0  -0.0625
  C  C671  1  0.693600  0.193600  0.750000  1.0  -0.0606
  C  C672  1  0.306400  0.193600  0.250000  1.0  -0.062
  C  C673  1  0.750000  0.306400  0.193600  1.0  -0.0651
  C  C674  1  0.250000  0.693600  0.193600  1.0  -0.0642
  C  C675  1  0.250000  0.306400  0.806400  1.0  -0.0648
  C  C676  1  0.750000  0.693600  0.806400  1.0  -0.064
  C  C677  1  0.193600  0.750000  0.306400  1.0  -0.0625
  C  C678  1  0.193600  0.250000  0.693600  1.0  -0.0625
  C  C679  1  0.806400  0.250000  0.306400  1.0  -0.0633
  C  C680  1  0.806400  0.750000  0.693600  1.0  -0.0636
  C  C681  1  0.306400  0.193600  0.750000  1.0  -0.062
  C  C682  1  0.693600  0.193600  0.250000  1.0  -0.0606
  C  C683  1  0.306400  0.806400  0.250000  1.0  -0.0625
  C  C684  1  0.693600  0.806400  0.750000  1.0  -0.0615
  N  N685  1  0.250000  0.750000  0.750000  1.0  0.1115
  N  N686  1  0.750000  0.250000  0.750000  1.0  0.1115
  N  N687  1  0.750000  0.750000  0.250000  1.0  0.1115
  N  N688  1  0.250000  0.250000  0.250000  1.0  0.1115
  N  N689  1  0.750000  0.250000  0.250000  1.0  0.1115
  N  N690  1  0.250000  0.750000  0.250000  1.0  0.1115
  N  N691  1  0.250000  0.250000  0.750000  1.0  0.1115
  N  N692  1  0.750000  0.750000  0.750000  1.0  0.1115
  O  O693  1  0.039400  0.539210  0.781580  1.0  -0.5726
  O  O694  1  0.960600  0.460790  0.781580  1.0  -0.5716
  O  O695  1  0.960600  0.539210  0.218420  1.0  -0.5712
  O  O696  1  0.039400  0.460790  0.218420  1.0  -0.5725
  O  O697  1  0.781580  0.039400  0.539210  1.0  -0.5729
  O  O698  1  0.781580  0.960600  0.460790  1.0  -0.5731
  O  O699  1  0.218420  0.960600  0.539210  1.0  -0.5737
  O  O700  1  0.218420  0.039400  0.460790  1.0  -0.5737
  O  O701  1  0.539210  0.781580  0.039400  1.0  -0.5722
  O  O702  1  0.460790  0.781580  0.960600  1.0  -0.571
  O  O703  1  0.539210  0.218420  0.960600  1.0  -0.5733
  O  O704  1  0.460790  0.218420  0.039400  1.0  -0.5728
  O  O705  1  0.039210  0.539400  0.718420  1.0  -0.5728
  O  O706  1  0.960790  0.460600  0.718420  1.0  -0.5719
  O  O707  1  0.039210  0.460600  0.281580  1.0  -0.5727
  O  O708  1  0.960790  0.539400  0.281580  1.0  -0.5723
  O  O709  1  0.539400  0.281580  0.960790  1.0  -0.5716
  O  O710  1  0.460600  0.281580  0.039210  1.0  -0.5708
  O  O711  1  0.460600  0.718420  0.960790  1.0  -0.5717
  O  O712  1  0.539400  0.718420  0.039210  1.0  -0.5733
  O  O713  1  0.281580  0.039210  0.460600  1.0  -0.5729
  O  O714  1  0.281580  0.960790  0.539400  1.0  -0.573
  O  O715  1  0.718420  0.039210  0.539400  1.0  -0.5736
  O  O716  1  0.718420  0.960790  0.460600  1.0  -0.5737
  O  O717  1  0.960600  0.460790  0.218420  1.0  -0.5711
  O  O718  1  0.039400  0.539210  0.218420  1.0  -0.5727
  O  O719  1  0.039400  0.460790  0.781580  1.0  -0.5727
  O  O720  1  0.960600  0.539210  0.781580  1.0  -0.5715
  O  O721  1  0.218420  0.960600  0.460790  1.0  -0.5737
  O  O722  1  0.218420  0.039400  0.539210  1.0  -0.5738
  O  O723  1  0.781580  0.039400  0.460790  1.0  -0.5731
  O  O724  1  0.781580  0.960600  0.539210  1.0  -0.573
  O  O725  1  0.460790  0.218420  0.960600  1.0  -0.5726
  O  O726  1  0.539210  0.218420  0.039400  1.0  -0.5734
  O  O727  1  0.460790  0.781580  0.039400  1.0  -0.5717
  O  O728  1  0.539210  0.781580  0.960600  1.0  -0.5717
  O  O729  1  0.960790  0.460600  0.281580  1.0  -0.5722
  O  O730  1  0.039210  0.539400  0.281580  1.0  -0.5727
  O  O731  1  0.960790  0.539400  0.718420  1.0  -0.5722
  O  O732  1  0.039210  0.460600  0.718420  1.0  -0.5728
  O  O733  1  0.460600  0.718420  0.039210  1.0  -0.5717
  O  O734  1  0.539400  0.718420  0.960790  1.0  -0.5733
  O  O735  1  0.539400  0.281580  0.039210  1.0  -0.5722
  O  O736  1  0.460600  0.281580  0.960790  1.0  -0.5703
  O  O737  1  0.718420  0.960790  0.539400  1.0  -0.5737
  O  O738  1  0.718420  0.039210  0.460600  1.0  -0.5736
  O  O739  1  0.281580  0.960790  0.460600  1.0  -0.5731
  O  O740  1  0.281580  0.039210  0.539400  1.0  -0.5729
