# generated using pymatgen
data_Hf12H72Ir3C144N12(Cl3O20)2
_symmetry_space_group_name_H-M   'P 1'
_cell_length_a   38.32070000
_cell_length_b   38.32070000
_cell_length_c   38.32070000
_cell_angle_alpha   90.00000000
_cell_angle_beta   90.00000000
_cell_angle_gamma   90.00000000
_symmetry_Int_Tables_number   1
_chemical_formula_structural   Hf12H72Ir3C144N12(Cl3O20)2
_chemical_formula_sum   'Hf48 H288 Ir12 C576 N48 Cl24 O160'
_cell_volume   56273.03011137
_cell_formula_units_Z   4
loop_
 _symmetry_equiv_pos_site_id
 _symmetry_equiv_pos_as_xyz
  1  'x, y, z'
loop_
 _atom_site_type_symbol
 _atom_site_label
 _atom_site_symmetry_multiplicity
 _atom_site_fract_x
 _atom_site_fract_y
 _atom_site_fract_z
 _atom_site_occupancy
 _atom_site_charge
  Hf  Hf1  1  0.271440  0.207210  0.207210  1.0  2.159
  Hf  Hf2  1  0.771440  0.707210  0.707210  1.0  2.159
  Hf  Hf3  1  0.728560  0.792790  0.207210  1.0  2.1562
  Hf  Hf4  1  0.228560  0.292790  0.707210  1.0  2.1562
  Hf  Hf5  1  0.728560  0.207210  0.792790  1.0  2.1598
  Hf  Hf6  1  0.228560  0.707210  0.292790  1.0  2.1598
  Hf  Hf7  1  0.271440  0.792790  0.792790  1.0  2.1585
  Hf  Hf8  1  0.771440  0.292790  0.292790  1.0  2.1585
  Hf  Hf9  1  0.207210  0.271440  0.207210  1.0  2.1597
  Hf  Hf10  1  0.707210  0.771440  0.707210  1.0  2.1597
  Hf  Hf11  1  0.207210  0.728560  0.792790  1.0  2.161
  Hf  Hf12  1  0.707210  0.228560  0.292790  1.0  2.161
  Hf  Hf13  1  0.792790  0.728560  0.207210  1.0  2.1571
  Hf  Hf14  1  0.292790  0.228560  0.707210  1.0  2.1571
  Hf  Hf15  1  0.792790  0.271440  0.792790  1.0  2.1597
  Hf  Hf16  1  0.292790  0.771440  0.292790  1.0  2.1597
  Hf  Hf17  1  0.207210  0.207210  0.271440  1.0  2.1655
  Hf  Hf18  1  0.707210  0.707210  0.771440  1.0  2.1655
  Hf  Hf19  1  0.792790  0.207210  0.728560  1.0  2.1643
  Hf  Hf20  1  0.292790  0.707210  0.228560  1.0  2.1643
  Hf  Hf21  1  0.207210  0.792790  0.728560  1.0  2.1644
  Hf  Hf22  1  0.707210  0.292790  0.228560  1.0  2.1644
  Hf  Hf23  1  0.792790  0.792790  0.271440  1.0  2.1641
  Hf  Hf24  1  0.292790  0.292790  0.771440  1.0  2.1641
  Hf  Hf25  1  0.207210  0.271440  0.792790  1.0  2.1615
  Hf  Hf26  1  0.707210  0.771440  0.292790  1.0  2.1615
  Hf  Hf27  1  0.792790  0.728560  0.792790  1.0  2.1594
  Hf  Hf28  1  0.292790  0.228560  0.292790  1.0  2.1594
  Hf  Hf29  1  0.207210  0.728560  0.207210  1.0  2.1588
  Hf  Hf30  1  0.707210  0.228560  0.707210  1.0  2.1588
  Hf  Hf31  1  0.792790  0.271440  0.207210  1.0  2.1575
  Hf  Hf32  1  0.292790  0.771440  0.707210  1.0  2.1575
  Hf  Hf33  1  0.271440  0.207210  0.792790  1.0  2.1596
  Hf  Hf34  1  0.771440  0.707210  0.292790  1.0  2.1596
  Hf  Hf35  1  0.728560  0.207210  0.207210  1.0  2.1584
  Hf  Hf36  1  0.228560  0.707210  0.707210  1.0  2.1584
  Hf  Hf37  1  0.728560  0.792790  0.792790  1.0  2.1592
  Hf  Hf38  1  0.228560  0.292790  0.292790  1.0  2.1592
  Hf  Hf39  1  0.271440  0.792790  0.207210  1.0  2.1566
  Hf  Hf40  1  0.771440  0.292790  0.707210  1.0  2.1566
  Hf  Hf41  1  0.207210  0.207210  0.728560  1.0  2.1662
  Hf  Hf42  1  0.707210  0.707210  0.228560  1.0  2.1662
  Hf  Hf43  1  0.207210  0.792790  0.271440  1.0  2.1647
  Hf  Hf44  1  0.707210  0.292790  0.771440  1.0  2.1647
  Hf  Hf45  1  0.792790  0.207210  0.271440  1.0  2.1639
  Hf  Hf46  1  0.292790  0.707210  0.771440  1.0  2.1639
  Hf  Hf47  1  0.792790  0.792790  0.728560  1.0  2.1628
  Hf  Hf48  1  0.292790  0.292790  0.228560  1.0  2.1628
  H  H49  1  0.466500  0.242900  0.128400  1.0  0.1118
  H  H50  1  0.416300  0.299400  0.104500  1.0  0.0947
  H  H51  1  0.370900  0.300900  0.145700  1.0  0.094
  H  H52  1  0.966500  0.742900  0.628400  1.0  0.1118
  H  H53  1  0.916300  0.799400  0.604500  1.0  0.0947
  H  H54  1  0.870900  0.800900  0.645700  1.0  0.094
  H  H55  1  0.533500  0.757100  0.128400  1.0  0.112
  H  H56  1  0.583700  0.700600  0.104500  1.0  0.0948
  H  H57  1  0.629100  0.699100  0.145700  1.0  0.0935
  H  H58  1  0.033500  0.257100  0.628400  1.0  0.112
  H  H59  1  0.083700  0.200600  0.604500  1.0  0.0948
  H  H60  1  0.129100  0.199100  0.645700  1.0  0.0935
  H  H61  1  0.533500  0.242900  0.871600  1.0  0.1119
  H  H62  1  0.583700  0.299400  0.895500  1.0  0.0945
  H  H63  1  0.629100  0.300900  0.854300  1.0  0.0939
  H  H64  1  0.033500  0.742900  0.371600  1.0  0.1119
  H  H65  1  0.083700  0.799400  0.395500  1.0  0.0945
  H  H66  1  0.129100  0.800900  0.354300  1.0  0.0939
  H  H67  1  0.466500  0.757100  0.871600  1.0  0.1116
  H  H68  1  0.416300  0.700600  0.895500  1.0  0.0946
  H  H69  1  0.370900  0.699100  0.854300  1.0  0.0933
  H  H70  1  0.966500  0.257100  0.371600  1.0  0.1116
  H  H71  1  0.916300  0.200600  0.395500  1.0  0.0946
  H  H72  1  0.870900  0.199100  0.354300  1.0  0.0933
  H  H73  1  0.128400  0.466500  0.242900  1.0  0.1121
  H  H74  1  0.104500  0.416300  0.299400  1.0  0.0946
  H  H75  1  0.145700  0.370900  0.300900  1.0  0.094
  H  H76  1  0.628400  0.966500  0.742900  1.0  0.1121
  H  H77  1  0.604500  0.916300  0.799400  1.0  0.0946
  H  H78  1  0.645700  0.870900  0.800900  1.0  0.094
  H  H79  1  0.128400  0.533500  0.757100  1.0  0.1117
  H  H80  1  0.104500  0.583700  0.700600  1.0  0.0955
  H  H81  1  0.145700  0.629100  0.699100  1.0  0.0945
  H  H82  1  0.628400  0.033500  0.257100  1.0  0.1117
  H  H83  1  0.604500  0.083700  0.200600  1.0  0.0955
  H  H84  1  0.645700  0.129100  0.199100  1.0  0.0945
  H  H85  1  0.871600  0.533500  0.242900  1.0  0.1126
  H  H86  1  0.895500  0.583700  0.299400  1.0  0.0952
  H  H87  1  0.854300  0.629100  0.300900  1.0  0.0942
  H  H88  1  0.371600  0.033500  0.742900  1.0  0.1126
  H  H89  1  0.395500  0.083700  0.799400  1.0  0.0952
  H  H90  1  0.354300  0.129100  0.800900  1.0  0.0942
  H  H91  1  0.871600  0.466500  0.757100  1.0  0.1125
  H  H92  1  0.895500  0.416300  0.700600  1.0  0.0957
  H  H93  1  0.854300  0.370900  0.699100  1.0  0.0942
  H  H94  1  0.371600  0.966500  0.257100  1.0  0.1125
  H  H95  1  0.395500  0.916300  0.200600  1.0  0.0957
  H  H96  1  0.354300  0.870900  0.199100  1.0  0.0942
  H  H97  1  0.242900  0.128400  0.466500  1.0  0.1137
  H  H98  1  0.299400  0.104500  0.416300  1.0  0.0935
  H  H99  1  0.300900  0.145700  0.370900  1.0  0.094
  H  H100  1  0.742900  0.628400  0.966500  1.0  0.1137
  H  H101  1  0.799400  0.604500  0.916300  1.0  0.0935
  H  H102  1  0.800900  0.645700  0.870900  1.0  0.094
  H  H103  1  0.757100  0.128400  0.533500  1.0  0.1121
  H  H104  1  0.700600  0.104500  0.583700  1.0  0.0953
  H  H105  1  0.699100  0.145700  0.629100  1.0  0.0933
  H  H106  1  0.257100  0.628400  0.033500  1.0  0.1121
  H  H107  1  0.200600  0.604500  0.083700  1.0  0.0953
  H  H108  1  0.199100  0.645700  0.129100  1.0  0.0933
  H  H109  1  0.242900  0.871600  0.533500  1.0  0.1125
  H  H110  1  0.299400  0.895500  0.583700  1.0  0.0945
  H  H111  1  0.300900  0.854300  0.629100  1.0  0.0936
  H  H112  1  0.742900  0.371600  0.033500  1.0  0.1125
  H  H113  1  0.799400  0.395500  0.083700  1.0  0.0945
  H  H114  1  0.800900  0.354300  0.129100  1.0  0.0936
  H  H115  1  0.757100  0.871600  0.466500  1.0  0.1126
  H  H116  1  0.700600  0.895500  0.416300  1.0  0.0951
  H  H117  1  0.699100  0.854300  0.370900  1.0  0.0938
  H  H118  1  0.257100  0.371600  0.966500  1.0  0.1126
  H  H119  1  0.200600  0.395500  0.916300  1.0  0.0951
  H  H120  1  0.199100  0.354300  0.870900  1.0  0.0938
  H  H121  1  0.242900  0.466500  0.871600  1.0  0.1122
  H  H122  1  0.299400  0.416300  0.895500  1.0  0.0947
  H  H123  1  0.300900  0.370900  0.854300  1.0  0.0939
  H  H124  1  0.742900  0.966500  0.371600  1.0  0.1122
  H  H125  1  0.799400  0.916300  0.395500  1.0  0.0947
  H  H126  1  0.800900  0.870900  0.354300  1.0  0.0939
  H  H127  1  0.757100  0.533500  0.871600  1.0  0.1116
  H  H128  1  0.700600  0.583700  0.895500  1.0  0.0953
  H  H129  1  0.699100  0.629100  0.854300  1.0  0.0935
  H  H130  1  0.257100  0.033500  0.371600  1.0  0.1116
  H  H131  1  0.200600  0.083700  0.395500  1.0  0.0953
  H  H132  1  0.199100  0.129100  0.354300  1.0  0.0935
  H  H133  1  0.242900  0.533500  0.128400  1.0  0.1123
  H  H134  1  0.299400  0.583700  0.104500  1.0  0.0949
  H  H135  1  0.300900  0.629100  0.145700  1.0  0.0939
  H  H136  1  0.742900  0.033500  0.628400  1.0  0.1123
  H  H137  1  0.799400  0.083700  0.604500  1.0  0.0949
  H  H138  1  0.800900  0.129100  0.645700  1.0  0.0939
  H  H139  1  0.757100  0.466500  0.128400  1.0  0.1121
  H  H140  1  0.700600  0.416300  0.104500  1.0  0.0958
  H  H141  1  0.699100  0.370900  0.145700  1.0  0.0937
  H  H142  1  0.257100  0.966500  0.628400  1.0  0.1121
  H  H143  1  0.200600  0.916300  0.604500  1.0  0.0958
  H  H144  1  0.199100  0.870900  0.645700  1.0  0.0937
  H  H145  1  0.466500  0.128400  0.757100  1.0  0.1126
  H  H146  1  0.416300  0.104500  0.700600  1.0  0.096
  H  H147  1  0.370900  0.145700  0.699100  1.0  0.0941
  H  H148  1  0.966500  0.628400  0.257100  1.0  0.1126
  H  H149  1  0.916300  0.604500  0.200600  1.0  0.096
  H  H150  1  0.870900  0.645700  0.199100  1.0  0.0941
  H  H151  1  0.533500  0.128400  0.242900  1.0  0.1122
  H  H152  1  0.583700  0.104500  0.299400  1.0  0.0951
  H  H153  1  0.629100  0.145700  0.300900  1.0  0.0936
  H  H154  1  0.033500  0.628400  0.742900  1.0  0.1122
  H  H155  1  0.083700  0.604500  0.799400  1.0  0.0951
  H  H156  1  0.129100  0.645700  0.800900  1.0  0.0936
  H  H157  1  0.533500  0.871600  0.757100  1.0  0.1123
  H  H158  1  0.583700  0.895500  0.700600  1.0  0.0962
  H  H159  1  0.629100  0.854300  0.699100  1.0  0.0939
  H  H160  1  0.033500  0.371600  0.257100  1.0  0.1123
  H  H161  1  0.083700  0.395500  0.200600  1.0  0.0962
  H  H162  1  0.129100  0.354300  0.199100  1.0  0.0939
  H  H163  1  0.466500  0.871600  0.242900  1.0  0.1118
  H  H164  1  0.416300  0.895500  0.299400  1.0  0.0955
  H  H165  1  0.370900  0.854300  0.300900  1.0  0.0937
  H  H166  1  0.966500  0.371600  0.742900  1.0  0.1118
  H  H167  1  0.916300  0.395500  0.799400  1.0  0.0955
  H  H168  1  0.870900  0.354300  0.800900  1.0  0.0937
  H  H169  1  0.128400  0.242900  0.533500  1.0  0.1122
  H  H170  1  0.104500  0.299400  0.583700  1.0  0.0948
  H  H171  1  0.145700  0.300900  0.629100  1.0  0.094
  H  H172  1  0.628400  0.742900  0.033500  1.0  0.1122
  H  H173  1  0.604500  0.799400  0.083700  1.0  0.0948
  H  H174  1  0.645700  0.800900  0.129100  1.0  0.094
  H  H175  1  0.128400  0.757100  0.466500  1.0  0.1126
  H  H176  1  0.104500  0.700600  0.416300  1.0  0.0937
  H  H177  1  0.145700  0.699100  0.370900  1.0  0.0938
  H  H178  1  0.628400  0.257100  0.966500  1.0  0.1126
  H  H179  1  0.604500  0.200600  0.916300  1.0  0.0937
  H  H180  1  0.645700  0.199100  0.870900  1.0  0.0938
  H  H181  1  0.871600  0.242900  0.466500  1.0  0.1131
  H  H182  1  0.895500  0.299400  0.416300  1.0  0.0935
  H  H183  1  0.854300  0.300900  0.370900  1.0  0.0944
  H  H184  1  0.371600  0.742900  0.966500  1.0  0.1131
  H  H185  1  0.395500  0.799400  0.916300  1.0  0.0935
  H  H186  1  0.354300  0.800900  0.870900  1.0  0.0944
  H  H187  1  0.871600  0.757100  0.533500  1.0  0.1125
  H  H188  1  0.895500  0.700600  0.583700  1.0  0.0941
  H  H189  1  0.854300  0.699100  0.629100  1.0  0.0932
  H  H190  1  0.371600  0.257100  0.033500  1.0  0.1125
  H  H191  1  0.395500  0.200600  0.083700  1.0  0.0941
  H  H192  1  0.354300  0.199100  0.129100  1.0  0.0932
  H  H193  1  0.533500  0.757100  0.871600  1.0  0.1113
  H  H194  1  0.583700  0.700600  0.895500  1.0  0.0946
  H  H195  1  0.629100  0.699100  0.854300  1.0  0.0931
  H  H196  1  0.033500  0.257100  0.371600  1.0  0.1113
  H  H197  1  0.083700  0.200600  0.395500  1.0  0.0946
  H  H198  1  0.129100  0.199100  0.354300  1.0  0.0931
  H  H199  1  0.466500  0.242900  0.871600  1.0  0.1112
  H  H200  1  0.416300  0.299400  0.895500  1.0  0.0944
  H  H201  1  0.370900  0.300900  0.854300  1.0  0.0941
  H  H202  1  0.966500  0.742900  0.371600  1.0  0.1112
  H  H203  1  0.916300  0.799400  0.395500  1.0  0.0944
  H  H204  1  0.870900  0.800900  0.354300  1.0  0.0941
  H  H205  1  0.466500  0.757100  0.128400  1.0  0.1115
  H  H206  1  0.416300  0.700600  0.104500  1.0  0.0947
  H  H207  1  0.370900  0.699100  0.145700  1.0  0.0938
  H  H208  1  0.966500  0.257100  0.628400  1.0  0.1115
  H  H209  1  0.916300  0.200600  0.604500  1.0  0.0947
  H  H210  1  0.870900  0.199100  0.645700  1.0  0.0938
  H  H211  1  0.533500  0.242900  0.128400  1.0  0.1119
  H  H212  1  0.583700  0.299400  0.104500  1.0  0.095
  H  H213  1  0.629100  0.300900  0.145700  1.0  0.0939
  H  H214  1  0.033500  0.742900  0.628400  1.0  0.1119
  H  H215  1  0.083700  0.799400  0.604500  1.0  0.095
  H  H216  1  0.129100  0.800900  0.645700  1.0  0.0939
  H  H217  1  0.871600  0.533500  0.757100  1.0  0.1121
  H  H218  1  0.895500  0.583700  0.700600  1.0  0.0956
  H  H219  1  0.854300  0.629100  0.699100  1.0  0.0943
  H  H220  1  0.371600  0.033500  0.257100  1.0  0.1121
  H  H221  1  0.395500  0.083700  0.200600  1.0  0.0956
  H  H222  1  0.354300  0.129100  0.199100  1.0  0.0943
  H  H223  1  0.871600  0.466500  0.242900  1.0  0.1121
  H  H224  1  0.895500  0.416300  0.299400  1.0  0.0951
  H  H225  1  0.854300  0.370900  0.300900  1.0  0.0941
  H  H226  1  0.371600  0.966500  0.742900  1.0  0.1121
  H  H227  1  0.395500  0.916300  0.799400  1.0  0.0951
  H  H228  1  0.354300  0.870900  0.800900  1.0  0.0941
  H  H229  1  0.128400  0.466500  0.757100  1.0  0.1111
  H  H230  1  0.104500  0.416300  0.700600  1.0  0.0955
  H  H231  1  0.145700  0.370900  0.699100  1.0  0.0944
  H  H232  1  0.628400  0.966500  0.257100  1.0  0.1111
  H  H233  1  0.604500  0.916300  0.200600  1.0  0.0955
  H  H234  1  0.645700  0.870900  0.199100  1.0  0.0944
  H  H235  1  0.128400  0.533500  0.242900  1.0  0.1113
  H  H236  1  0.104500  0.583700  0.299400  1.0  0.0948
  H  H237  1  0.145700  0.629100  0.300900  1.0  0.0942
  H  H238  1  0.628400  0.033500  0.742900  1.0  0.1113
  H  H239  1  0.604500  0.083700  0.799400  1.0  0.0948
  H  H240  1  0.645700  0.129100  0.800900  1.0  0.0942
  H  H241  1  0.757100  0.871600  0.533500  1.0  0.112
  H  H242  1  0.700600  0.895500  0.583700  1.0  0.0956
  H  H243  1  0.699100  0.854300  0.629100  1.0  0.0933
  H  H244  1  0.257100  0.371600  0.033500  1.0  0.112
  H  H245  1  0.200600  0.395500  0.083700  1.0  0.0956
  H  H246  1  0.199100  0.354300  0.129100  1.0  0.0933
  H  H247  1  0.242900  0.871600  0.466500  1.0  0.1125
  H  H248  1  0.299400  0.895500  0.416300  1.0  0.0941
  H  H249  1  0.300900  0.854300  0.370900  1.0  0.0939
  H  H250  1  0.742900  0.371600  0.966500  1.0  0.1125
  H  H251  1  0.799400  0.395500  0.916300  1.0  0.0941
  H  H252  1  0.800900  0.354300  0.870900  1.0  0.0939
  H  H253  1  0.757100  0.128400  0.466500  1.0  0.1129
  H  H254  1  0.700600  0.104500  0.416300  1.0  0.0946
  H  H255  1  0.699100  0.145700  0.370900  1.0  0.0935
  H  H256  1  0.257100  0.628400  0.966500  1.0  0.1129
  H  H257  1  0.200600  0.604500  0.916300  1.0  0.0946
  H  H258  1  0.199100  0.645700  0.870900  1.0  0.0935
  H  H259  1  0.242900  0.128400  0.533500  1.0  0.1118
  H  H260  1  0.299400  0.104500  0.583700  1.0  0.0941
  H  H261  1  0.300900  0.145700  0.629100  1.0  0.0939
  H  H262  1  0.742900  0.628400  0.033500  1.0  0.1118
  H  H263  1  0.799400  0.604500  0.083700  1.0  0.0941
  H  H264  1  0.800900  0.645700  0.129100  1.0  0.0939
  H  H265  1  0.757100  0.533500  0.128400  1.0  0.1117
  H  H266  1  0.700600  0.583700  0.104500  1.0  0.0958
  H  H267  1  0.699100  0.629100  0.145700  1.0  0.0939
  H  H268  1  0.257100  0.033500  0.628400  1.0  0.1117
  H  H269  1  0.200600  0.083700  0.604500  1.0  0.0958
  H  H270  1  0.199100  0.129100  0.645700  1.0  0.0939
  H  H271  1  0.242900  0.466500  0.128400  1.0  0.1121
  H  H272  1  0.299400  0.416300  0.104500  1.0  0.0952
  H  H273  1  0.300900  0.370900  0.145700  1.0  0.0937
  H  H274  1  0.742900  0.966500  0.628400  1.0  0.1121
  H  H275  1  0.799400  0.916300  0.604500  1.0  0.0952
  H  H276  1  0.800900  0.870900  0.645700  1.0  0.0937
  H  H277  1  0.757100  0.466500  0.871600  1.0  0.1114
  H  H278  1  0.700600  0.416300  0.895500  1.0  0.0954
  H  H279  1  0.699100  0.370900  0.854300  1.0  0.0935
  H  H280  1  0.257100  0.966500  0.371600  1.0  0.1114
  H  H281  1  0.200600  0.916300  0.395500  1.0  0.0954
  H  H282  1  0.199100  0.870900  0.354300  1.0  0.0935
  H  H283  1  0.242900  0.533500  0.871600  1.0  0.1117
  H  H284  1  0.299400  0.583700  0.895500  1.0  0.0943
  H  H285  1  0.300900  0.629100  0.854300  1.0  0.0939
  H  H286  1  0.742900  0.033500  0.371600  1.0  0.1117
  H  H287  1  0.799400  0.083700  0.395500  1.0  0.0943
  H  H288  1  0.800900  0.129100  0.354300  1.0  0.0939
  H  H289  1  0.533500  0.871600  0.242900  1.0  0.1119
  H  H290  1  0.583700  0.895500  0.299400  1.0  0.0957
  H  H291  1  0.629100  0.854300  0.300900  1.0  0.094
  H  H292  1  0.033500  0.371600  0.742900  1.0  0.1119
  H  H293  1  0.083700  0.395500  0.799400  1.0  0.0957
  H  H294  1  0.129100  0.354300  0.800900  1.0  0.094
  H  H295  1  0.466500  0.871600  0.757100  1.0  0.1114
  H  H296  1  0.416300  0.895500  0.700600  1.0  0.0963
  H  H297  1  0.370900  0.854300  0.699100  1.0  0.094
  H  H298  1  0.966500  0.371600  0.257100  1.0  0.1114
  H  H299  1  0.916300  0.395500  0.200600  1.0  0.0963
  H  H300  1  0.870900  0.354300  0.199100  1.0  0.094
  H  H301  1  0.466500  0.128400  0.242900  1.0  0.1121
  H  H302  1  0.416300  0.104500  0.299400  1.0  0.095
  H  H303  1  0.370900  0.145700  0.300900  1.0  0.0935
  H  H304  1  0.966500  0.628400  0.742900  1.0  0.1121
  H  H305  1  0.916300  0.604500  0.799400  1.0  0.095
  H  H306  1  0.870900  0.645700  0.800900  1.0  0.0935
  H  H307  1  0.533500  0.128400  0.757100  1.0  0.1118
  H  H308  1  0.583700  0.104500  0.700600  1.0  0.096
  H  H309  1  0.629100  0.145700  0.699100  1.0  0.0939
  H  H310  1  0.033500  0.628400  0.257100  1.0  0.1118
  H  H311  1  0.083700  0.604500  0.200600  1.0  0.096
  H  H312  1  0.129100  0.645700  0.199100  1.0  0.0939
  H  H313  1  0.871600  0.757100  0.466500  1.0  0.1127
  H  H314  1  0.895500  0.700600  0.416300  1.0  0.0939
  H  H315  1  0.854300  0.699100  0.370900  1.0  0.0934
  H  H316  1  0.371600  0.257100  0.966500  1.0  0.1127
  H  H317  1  0.395500  0.200600  0.916300  1.0  0.0939
  H  H318  1  0.354300  0.199100  0.870900  1.0  0.0934
  H  H319  1  0.871600  0.242900  0.533500  1.0  0.1122
  H  H320  1  0.895500  0.299400  0.583700  1.0  0.0952
  H  H321  1  0.854300  0.300900  0.629100  1.0  0.0941
  H  H322  1  0.371600  0.742900  0.033500  1.0  0.1122
  H  H323  1  0.395500  0.799400  0.083700  1.0  0.0952
  H  H324  1  0.354300  0.800900  0.129100  1.0  0.0941
  H  H325  1  0.128400  0.757100  0.533500  1.0  0.1112
  H  H326  1  0.104500  0.700600  0.583700  1.0  0.0939
  H  H327  1  0.145700  0.699100  0.629100  1.0  0.0936
  H  H328  1  0.628400  0.257100  0.033500  1.0  0.1112
  H  H329  1  0.604500  0.200600  0.083700  1.0  0.0939
  H  H330  1  0.645700  0.199100  0.129100  1.0  0.0936
  H  H331  1  0.128400  0.242900  0.466500  1.0  0.1119
  H  H332  1  0.104500  0.299400  0.416300  1.0  0.093
  H  H333  1  0.145700  0.300900  0.370900  1.0  0.0943
  H  H334  1  0.628400  0.742900  0.966500  1.0  0.1119
  H  H335  1  0.604500  0.799400  0.916300  1.0  0.093
  H  H336  1  0.645700  0.800900  0.870900  1.0  0.0943
  Ir  Ir337  1  0.500000  0.250000  0.000000  1.0  0.2433
  Ir  Ir338  1  0.500000  0.750000  0.000000  1.0  0.2433
  Ir  Ir339  1  0.000000  0.500000  0.250000  1.0  0.2433
  Ir  Ir340  1  0.000000  0.500000  0.750000  1.0  0.2433
  Ir  Ir341  1  0.250000  0.000000  0.500000  1.0  0.2433
  Ir  Ir342  1  0.750000  0.000000  0.500000  1.0  0.2433
  Ir  Ir343  1  0.250000  0.500000  0.000000  1.0  0.2433
  Ir  Ir344  1  0.750000  0.500000  0.000000  1.0  0.2433
  Ir  Ir345  1  0.500000  0.000000  0.750000  1.0  0.2433
  Ir  Ir346  1  0.500000  0.000000  0.250000  1.0  0.2433
  Ir  Ir347  1  0.000000  0.250000  0.500000  1.0  0.2433
  Ir  Ir348  1  0.000000  0.750000  0.500000  1.0  0.2433
  C  C349  1  0.471200  0.246800  0.072400  1.0  0.2164
  C  C350  1  0.481400  0.244300  0.108700  1.0  -0.1281
  C  C351  1  0.402800  0.279100  0.108800  1.0  -0.1692
  C  C352  1  0.376400  0.279800  0.133900  1.0  -0.102
  C  C353  1  0.971200  0.746800  0.572400  1.0  0.2164
  C  C354  1  0.981400  0.744300  0.608700  1.0  -0.1281
  C  C355  1  0.902800  0.779100  0.608800  1.0  -0.1692
  C  C356  1  0.876400  0.779800  0.633900  1.0  -0.102
  C  C357  1  0.528800  0.753200  0.072400  1.0  0.2159
  C  C358  1  0.518600  0.755700  0.108700  1.0  -0.1268
  C  C359  1  0.597200  0.720900  0.108800  1.0  -0.1715
  C  C360  1  0.623600  0.720200  0.133900  1.0  -0.1009
  C  C361  1  0.028800  0.253200  0.572400  1.0  0.2159
  C  C362  1  0.018600  0.255700  0.608700  1.0  -0.1268
  C  C363  1  0.097200  0.220900  0.608800  1.0  -0.1715
  C  C364  1  0.123600  0.220200  0.633900  1.0  -0.1009
  C  C365  1  0.528800  0.246800  0.927600  1.0  0.2162
  C  C366  1  0.518600  0.244300  0.891300  1.0  -0.1291
  C  C367  1  0.597200  0.279100  0.891200  1.0  -0.1703
  C  C368  1  0.623600  0.279800  0.866100  1.0  -0.0998
  C  C369  1  0.028800  0.746800  0.427600  1.0  0.2162
  C  C370  1  0.018600  0.744300  0.391300  1.0  -0.1291
  C  C371  1  0.097200  0.779100  0.391200  1.0  -0.1703
  C  C372  1  0.123600  0.779800  0.366100  1.0  -0.0998
  C  C373  1  0.471200  0.753200  0.927600  1.0  0.2174
  C  C374  1  0.481400  0.755700  0.891300  1.0  -0.1298
  C  C375  1  0.402800  0.720900  0.891200  1.0  -0.1721
  C  C376  1  0.376400  0.720200  0.866100  1.0  -0.1032
  C  C377  1  0.971200  0.253200  0.427600  1.0  0.2174
  C  C378  1  0.981400  0.255700  0.391300  1.0  -0.1298
  C  C379  1  0.902800  0.220900  0.391200  1.0  -0.1721
  C  C380  1  0.876400  0.220200  0.366100  1.0  -0.1032
  C  C381  1  0.072400  0.471200  0.246800  1.0  0.2152
  C  C382  1  0.108700  0.481400  0.244300  1.0  -0.1291
  C  C383  1  0.108800  0.402800  0.279100  1.0  -0.1705
  C  C384  1  0.133900  0.376400  0.279800  1.0  -0.1013
  C  C385  1  0.572400  0.971200  0.746800  1.0  0.2152
  C  C386  1  0.608700  0.981400  0.744300  1.0  -0.1291
  C  C387  1  0.608800  0.902800  0.779100  1.0  -0.1705
  C  C388  1  0.633900  0.876400  0.779800  1.0  -0.1013
  C  C389  1  0.072400  0.528800  0.753200  1.0  0.2158
  C  C390  1  0.108700  0.518600  0.755700  1.0  -0.1288
  C  C391  1  0.108800  0.597200  0.720900  1.0  -0.1677
  C  C392  1  0.133900  0.623600  0.720200  1.0  -0.1023
  C  C393  1  0.572400  0.028800  0.253200  1.0  0.2158
  C  C394  1  0.608700  0.018600  0.255700  1.0  -0.1288
  C  C395  1  0.608800  0.097200  0.220900  1.0  -0.1677
  C  C396  1  0.633900  0.123600  0.220200  1.0  -0.1023
  C  C397  1  0.927600  0.528800  0.246800  1.0  0.2145
  C  C398  1  0.891300  0.518600  0.244300  1.0  -0.1306
  C  C399  1  0.891200  0.597200  0.279100  1.0  -0.1686
  C  C400  1  0.866100  0.623600  0.279800  1.0  -0.1034
  C  C401  1  0.427600  0.028800  0.746800  1.0  0.2145
  C  C402  1  0.391300  0.018600  0.744300  1.0  -0.1306
  C  C403  1  0.391200  0.097200  0.779100  1.0  -0.1686
  C  C404  1  0.366100  0.123600  0.779800  1.0  -0.1034
  C  C405  1  0.927600  0.471200  0.753200  1.0  0.2134
  C  C406  1  0.891300  0.481400  0.755700  1.0  -0.1304
  C  C407  1  0.891200  0.402800  0.720900  1.0  -0.1659
  C  C408  1  0.866100  0.376400  0.720200  1.0  -0.1027
  C  C409  1  0.427600  0.971200  0.253200  1.0  0.2134
  C  C410  1  0.391300  0.981400  0.255700  1.0  -0.1304
  C  C411  1  0.391200  0.902800  0.220900  1.0  -0.1659
  C  C412  1  0.366100  0.876400  0.220200  1.0  -0.1027
  C  C413  1  0.246800  0.072400  0.471200  1.0  0.2155
  C  C414  1  0.244300  0.108700  0.481400  1.0  -0.1298
  C  C415  1  0.279100  0.108800  0.402800  1.0  -0.17
  C  C416  1  0.279800  0.133900  0.376400  1.0  -0.1001
  C  C417  1  0.746800  0.572400  0.971200  1.0  0.2155
  C  C418  1  0.744300  0.608700  0.981400  1.0  -0.1298
  C  C419  1  0.779100  0.608800  0.902800  1.0  -0.17
  C  C420  1  0.779800  0.633900  0.876400  1.0  -0.1001
  C  C421  1  0.753200  0.072400  0.528800  1.0  0.2164
  C  C422  1  0.755700  0.108700  0.518600  1.0  -0.129
  C  C423  1  0.720900  0.108800  0.597200  1.0  -0.1716
  C  C424  1  0.720200  0.133900  0.623600  1.0  -0.1016
  C  C425  1  0.253200  0.572400  0.028800  1.0  0.2164
  C  C426  1  0.255700  0.608700  0.018600  1.0  -0.129
  C  C427  1  0.220900  0.608800  0.097200  1.0  -0.1716
  C  C428  1  0.220200  0.633900  0.123600  1.0  -0.1016
  C  C429  1  0.246800  0.927600  0.528800  1.0  0.2166
  C  C430  1  0.244300  0.891300  0.518600  1.0  -0.1293
  C  C431  1  0.279100  0.891200  0.597200  1.0  -0.1709
  C  C432  1  0.279800  0.866100  0.623600  1.0  -0.0991
  C  C433  1  0.746800  0.427600  0.028800  1.0  0.2166
  C  C434  1  0.744300  0.391300  0.018600  1.0  -0.1293
  C  C435  1  0.779100  0.391200  0.097200  1.0  -0.1709
  C  C436  1  0.779800  0.366100  0.123600  1.0  -0.0991
  C  C437  1  0.753200  0.927600  0.471200  1.0  0.2166
  C  C438  1  0.755700  0.891300  0.481400  1.0  -0.1284
  C  C439  1  0.720900  0.891200  0.402800  1.0  -0.1717
  C  C440  1  0.720200  0.866100  0.376400  1.0  -0.1017
  C  C441  1  0.253200  0.427600  0.971200  1.0  0.2166
  C  C442  1  0.255700  0.391300  0.981400  1.0  -0.1284
  C  C443  1  0.220900  0.391200  0.902800  1.0  -0.1717
  C  C444  1  0.220200  0.366100  0.876400  1.0  -0.1017
  C  C445  1  0.246800  0.471200  0.927600  1.0  0.2165
  C  C446  1  0.244300  0.481400  0.891300  1.0  -0.1301
  C  C447  1  0.279100  0.402800  0.891200  1.0  -0.1719
  C  C448  1  0.279800  0.376400  0.866100  1.0  -0.0996
  C  C449  1  0.746800  0.971200  0.427600  1.0  0.2165
  C  C450  1  0.744300  0.981400  0.391300  1.0  -0.1301
  C  C451  1  0.779100  0.902800  0.391200  1.0  -0.1719
  C  C452  1  0.779800  0.876400  0.366100  1.0  -0.0996
  C  C453  1  0.753200  0.528800  0.927600  1.0  0.2179
  C  C454  1  0.755700  0.518600  0.891300  1.0  -0.1302
  C  C455  1  0.720900  0.597200  0.891200  1.0  -0.1744
  C  C456  1  0.720200  0.623600  0.866100  1.0  -0.1019
  C  C457  1  0.253200  0.028800  0.427600  1.0  0.2179
  C  C458  1  0.255700  0.018600  0.391300  1.0  -0.1302
  C  C459  1  0.220900  0.097200  0.391200  1.0  -0.1744
  C  C460  1  0.220200  0.123600  0.366100  1.0  -0.1019
  C  C461  1  0.246800  0.528800  0.072400  1.0  0.2169
  C  C462  1  0.244300  0.518600  0.108700  1.0  -0.1289
  C  C463  1  0.279100  0.597200  0.108800  1.0  -0.1729
  C  C464  1  0.279800  0.623600  0.133900  1.0  -0.0996
  C  C465  1  0.746800  0.028800  0.572400  1.0  0.2169
  C  C466  1  0.744300  0.018600  0.608700  1.0  -0.1289
  C  C467  1  0.779100  0.097200  0.608800  1.0  -0.1729
  C  C468  1  0.779800  0.123600  0.633900  1.0  -0.0996
  C  C469  1  0.753200  0.471200  0.072400  1.0  0.2163
  C  C470  1  0.755700  0.481400  0.108700  1.0  -0.1279
  C  C471  1  0.720900  0.402800  0.108800  1.0  -0.1739
  C  C472  1  0.720200  0.376400  0.133900  1.0  -0.1028
  C  C473  1  0.253200  0.971200  0.572400  1.0  0.2163
  C  C474  1  0.255700  0.981400  0.608700  1.0  -0.1279
  C  C475  1  0.220900  0.902800  0.608800  1.0  -0.1739
  C  C476  1  0.220200  0.876400  0.633900  1.0  -0.1028
  C  C477  1  0.471200  0.072400  0.753200  1.0  0.2157
  C  C478  1  0.481400  0.108700  0.755700  1.0  -0.13
  C  C479  1  0.402800  0.108800  0.720900  1.0  -0.1647
  C  C480  1  0.376400  0.133900  0.720200  1.0  -0.1026
  C  C481  1  0.971200  0.572400  0.253200  1.0  0.2157
  C  C482  1  0.981400  0.608700  0.255700  1.0  -0.13
  C  C483  1  0.902800  0.608800  0.220900  1.0  -0.1647
  C  C484  1  0.876400  0.633900  0.220200  1.0  -0.1026
  C  C485  1  0.528800  0.072400  0.246800  1.0  0.2148
  C  C486  1  0.518600  0.108700  0.244300  1.0  -0.1294
  C  C487  1  0.597200  0.108800  0.279100  1.0  -0.1685
  C  C488  1  0.623600  0.133900  0.279800  1.0  -0.1007
  C  C489  1  0.028800  0.572400  0.746800  1.0  0.2148
  C  C490  1  0.018600  0.608700  0.744300  1.0  -0.1294
  C  C491  1  0.097200  0.608800  0.779100  1.0  -0.1685
  C  C492  1  0.123600  0.633900  0.779800  1.0  -0.1007
  C  C493  1  0.528800  0.927600  0.753200  1.0  0.2154
  C  C494  1  0.518600  0.891300  0.755700  1.0  -0.1294
  C  C495  1  0.597200  0.891200  0.720900  1.0  -0.1655
  C  C496  1  0.623600  0.866100  0.720200  1.0  -0.1011
  C  C497  1  0.028800  0.427600  0.253200  1.0  0.2154
  C  C498  1  0.018600  0.391300  0.255700  1.0  -0.1294
  C  C499  1  0.097200  0.391200  0.220900  1.0  -0.1655
  C  C500  1  0.123600  0.366100  0.220200  1.0  -0.1011
  C  C501  1  0.471200  0.927600  0.246800  1.0  0.2164
  C  C502  1  0.481400  0.891300  0.244300  1.0  -0.1303
  C  C503  1  0.402800  0.891200  0.279100  1.0  -0.1683
  C  C504  1  0.376400  0.866100  0.279800  1.0  -0.1016
  C  C505  1  0.971200  0.427600  0.746800  1.0  0.2164
  C  C506  1  0.981400  0.391300  0.744300  1.0  -0.1303
  C  C507  1  0.902800  0.391200  0.779100  1.0  -0.1683
  C  C508  1  0.876400  0.366100  0.779800  1.0  -0.1016
  C  C509  1  0.072400  0.246800  0.528800  1.0  0.2163
  C  C510  1  0.108700  0.244300  0.518600  1.0  -0.1278
  C  C511  1  0.108800  0.279100  0.597200  1.0  -0.1726
  C  C512  1  0.133900  0.279800  0.623600  1.0  -0.1
  C  C513  1  0.572400  0.746800  0.028800  1.0  0.2163
  C  C514  1  0.608700  0.744300  0.018600  1.0  -0.1278
  C  C515  1  0.608800  0.779100  0.097200  1.0  -0.1726
  C  C516  1  0.633900  0.779800  0.123600  1.0  -0.1
  C  C517  1  0.072400  0.753200  0.471200  1.0  0.2159
  C  C518  1  0.108700  0.755700  0.481400  1.0  -0.1281
  C  C519  1  0.108800  0.720900  0.402800  1.0  -0.1746
  C  C520  1  0.133900  0.720200  0.376400  1.0  -0.1026
  C  C521  1  0.572400  0.253200  0.971200  1.0  0.2159
  C  C522  1  0.608700  0.255700  0.981400  1.0  -0.1281
  C  C523  1  0.608800  0.220900  0.902800  1.0  -0.1746
  C  C524  1  0.633900  0.220200  0.876400  1.0  -0.1026
  C  C525  1  0.927600  0.246800  0.471200  1.0  0.214
  C  C526  1  0.891300  0.244300  0.481400  1.0  -0.1293
  C  C527  1  0.891200  0.279100  0.402800  1.0  -0.1712
  C  C528  1  0.866100  0.279800  0.376400  1.0  -0.1023
  C  C529  1  0.427600  0.746800  0.971200  1.0  0.214
  C  C530  1  0.391300  0.744300  0.981400  1.0  -0.1293
  C  C531  1  0.391200  0.779100  0.902800  1.0  -0.1712
  C  C532  1  0.366100  0.779800  0.876400  1.0  -0.1023
  C  C533  1  0.927600  0.753200  0.528800  1.0  0.2148
  C  C534  1  0.891300  0.755700  0.518600  1.0  -0.1296
  C  C535  1  0.891200  0.720900  0.597200  1.0  -0.1736
  C  C536  1  0.866100  0.720200  0.623600  1.0  -0.1017
  C  C537  1  0.427600  0.253200  0.028800  1.0  0.2148
  C  C538  1  0.391300  0.255700  0.018600  1.0  -0.1296
  C  C539  1  0.391200  0.220900  0.097200  1.0  -0.1736
  C  C540  1  0.366100  0.220200  0.123600  1.0  -0.1017
  C  C541  1  0.528800  0.753200  0.927600  1.0  0.2153
  C  C542  1  0.518600  0.755700  0.891300  1.0  -0.13
  C  C543  1  0.597200  0.720900  0.891200  1.0  -0.1716
  C  C544  1  0.623600  0.720200  0.866100  1.0  -0.1015
  C  C545  1  0.028800  0.253200  0.427600  1.0  0.2153
  C  C546  1  0.018600  0.255700  0.391300  1.0  -0.13
  C  C547  1  0.097200  0.220900  0.391200  1.0  -0.1716
  C  C548  1  0.123600  0.220200  0.366100  1.0  -0.1015
  C  C549  1  0.471200  0.246800  0.927600  1.0  0.2161
  C  C550  1  0.481400  0.244300  0.891300  1.0  -0.1303
  C  C551  1  0.402800  0.279100  0.891200  1.0  -0.1692
  C  C552  1  0.376400  0.279800  0.866100  1.0  -0.1014
  C  C553  1  0.971200  0.746800  0.427600  1.0  0.2161
  C  C554  1  0.981400  0.744300  0.391300  1.0  -0.1303
  C  C555  1  0.902800  0.779100  0.391200  1.0  -0.1692
  C  C556  1  0.876400  0.779800  0.366100  1.0  -0.1014
  C  C557  1  0.471200  0.753200  0.072400  1.0  0.2157
  C  C558  1  0.481400  0.755700  0.108700  1.0  -0.1291
  C  C559  1  0.402800  0.720900  0.108800  1.0  -0.1718
  C  C560  1  0.376400  0.720200  0.133900  1.0  -0.1028
  C  C561  1  0.971200  0.253200  0.572400  1.0  0.2157
  C  C562  1  0.981400  0.255700  0.608700  1.0  -0.1291
  C  C563  1  0.902800  0.220900  0.608800  1.0  -0.1718
  C  C564  1  0.876400  0.220200  0.633900  1.0  -0.1028
  C  C565  1  0.528800  0.246800  0.072400  1.0  0.2143
  C  C566  1  0.518600  0.244300  0.108700  1.0  -0.1269
  C  C567  1  0.597200  0.279100  0.108800  1.0  -0.1702
  C  C568  1  0.623600  0.279800  0.133900  1.0  -0.1001
  C  C569  1  0.028800  0.746800  0.572400  1.0  0.2143
  C  C570  1  0.018600  0.744300  0.608700  1.0  -0.1269
  C  C571  1  0.097200  0.779100  0.608800  1.0  -0.1702
  C  C572  1  0.123600  0.779800  0.633900  1.0  -0.1001
  C  C573  1  0.927600  0.528800  0.753200  1.0  0.2133
  C  C574  1  0.891300  0.518600  0.755700  1.0  -0.1309
  C  C575  1  0.891200  0.597200  0.720900  1.0  -0.1666
  C  C576  1  0.866100  0.623600  0.720200  1.0  -0.103
  C  C577  1  0.427600  0.028800  0.253200  1.0  0.2133
  C  C578  1  0.391300  0.018600  0.255700  1.0  -0.1309
  C  C579  1  0.391200  0.097200  0.220900  1.0  -0.1666
  C  C580  1  0.366100  0.123600  0.220200  1.0  -0.103
  C  C581  1  0.927600  0.471200  0.246800  1.0  0.2124
  C  C582  1  0.891300  0.481400  0.244300  1.0  -0.1312
  C  C583  1  0.891200  0.402800  0.279100  1.0  -0.1686
  C  C584  1  0.866100  0.376400  0.279800  1.0  -0.1031
  C  C585  1  0.427600  0.971200  0.746800  1.0  0.2124
  C  C586  1  0.391300  0.981400  0.744300  1.0  -0.1312
  C  C587  1  0.391200  0.902800  0.779100  1.0  -0.1686
  C  C588  1  0.366100  0.876400  0.779800  1.0  -0.1031
  C  C589  1  0.072400  0.471200  0.753200  1.0  0.2138
  C  C590  1  0.108700  0.481400  0.755700  1.0  -0.1295
  C  C591  1  0.108800  0.402800  0.720900  1.0  -0.1672
  C  C592  1  0.133900  0.376400  0.720200  1.0  -0.1019
  C  C593  1  0.572400  0.971200  0.253200  1.0  0.2138
  C  C594  1  0.608700  0.981400  0.255700  1.0  -0.1295
  C  C595  1  0.608800  0.902800  0.220900  1.0  -0.1672
  C  C596  1  0.633900  0.876400  0.220200  1.0  -0.1019
  C  C597  1  0.072400  0.528800  0.246800  1.0  0.2146
  C  C598  1  0.108700  0.518600  0.244300  1.0  -0.1299
  C  C599  1  0.108800  0.597200  0.279100  1.0  -0.1704
  C  C600  1  0.133900  0.623600  0.279800  1.0  -0.1015
  C  C601  1  0.572400  0.028800  0.746800  1.0  0.2146
  C  C602  1  0.608700  0.018600  0.744300  1.0  -0.1299
  C  C603  1  0.608800  0.097200  0.779100  1.0  -0.1704
  C  C604  1  0.633900  0.123600  0.779800  1.0  -0.1015
  C  C605  1  0.753200  0.927600  0.528800  1.0  0.2158
  C  C606  1  0.755700  0.891300  0.518600  1.0  -0.129
  C  C607  1  0.720900  0.891200  0.597200  1.0  -0.1719
  C  C608  1  0.720200  0.866100  0.623600  1.0  -0.1011
  C  C609  1  0.253200  0.427600  0.028800  1.0  0.2158
  C  C610  1  0.255700  0.391300  0.018600  1.0  -0.129
  C  C611  1  0.220900  0.391200  0.097200  1.0  -0.1719
  C  C612  1  0.220200  0.366100  0.123600  1.0  -0.1011
  C  C613  1  0.246800  0.927600  0.471200  1.0  0.215
  C  C614  1  0.244300  0.891300  0.481400  1.0  -0.1294
  C  C615  1  0.279100  0.891200  0.402800  1.0  -0.1701
  C  C616  1  0.279800  0.866100  0.376400  1.0  -0.1002
  C  C617  1  0.746800  0.427600  0.971200  1.0  0.215
  C  C618  1  0.744300  0.391300  0.981400  1.0  -0.1294
  C  C619  1  0.779100  0.391200  0.902800  1.0  -0.1701
  C  C620  1  0.779800  0.366100  0.876400  1.0  -0.1002
  C  C621  1  0.753200  0.072400  0.471200  1.0  0.2146
  C  C622  1  0.755700  0.108700  0.481400  1.0  -0.1296
  C  C623  1  0.720900  0.108800  0.402800  1.0  -0.1713
  C  C624  1  0.720200  0.133900  0.376400  1.0  -0.1021
  C  C625  1  0.253200  0.572400  0.971200  1.0  0.2146
  C  C626  1  0.255700  0.608700  0.981400  1.0  -0.1296
  C  C627  1  0.220900  0.608800  0.902800  1.0  -0.1713
  C  C628  1  0.220200  0.633900  0.876400  1.0  -0.1021
  C  C629  1  0.246800  0.072400  0.528800  1.0  0.2149
  C  C630  1  0.244300  0.108700  0.518600  1.0  -0.1305
  C  C631  1  0.279100  0.108800  0.597200  1.0  -0.1708
  C  C632  1  0.279800  0.133900  0.623600  1.0  -0.0988
  C  C633  1  0.746800  0.572400  0.028800  1.0  0.2149
  C  C634  1  0.744300  0.608700  0.018600  1.0  -0.1305
  C  C635  1  0.779100  0.608800  0.097200  1.0  -0.1708
  C  C636  1  0.779800  0.633900  0.123600  1.0  -0.0988
  C  C637  1  0.753200  0.528800  0.072400  1.0  0.2159
  C  C638  1  0.755700  0.518600  0.108700  1.0  -0.129
  C  C639  1  0.720900  0.597200  0.108800  1.0  -0.1741
  C  C640  1  0.720200  0.623600  0.133900  1.0  -0.1031
  C  C641  1  0.253200  0.028800  0.572400  1.0  0.2159
  C  C642  1  0.255700  0.018600  0.608700  1.0  -0.129
  C  C643  1  0.220900  0.097200  0.608800  1.0  -0.1741
  C  C644  1  0.220200  0.123600  0.633900  1.0  -0.1031
  C  C645  1  0.246800  0.471200  0.072400  1.0  0.2148
  C  C646  1  0.244300  0.481400  0.108700  1.0  -0.1287
  C  C647  1  0.279100  0.402800  0.108800  1.0  -0.1725
  C  C648  1  0.279800  0.376400  0.133900  1.0  -0.0992
  C  C649  1  0.746800  0.971200  0.572400  1.0  0.2148
  C  C650  1  0.744300  0.981400  0.608700  1.0  -0.1287
  C  C651  1  0.779100  0.902800  0.608800  1.0  -0.1725
  C  C652  1  0.779800  0.876400  0.633900  1.0  -0.0992
  C  C653  1  0.753200  0.471200  0.927600  1.0  0.2158
  C  C654  1  0.755700  0.481400  0.891300  1.0  -0.1305
  C  C655  1  0.720900  0.402800  0.891200  1.0  -0.1741
  C  C656  1  0.720200  0.376400  0.866100  1.0  -0.1019
  C  C657  1  0.253200  0.971200  0.427600  1.0  0.2158
  C  C658  1  0.255700  0.981400  0.391300  1.0  -0.1305
  C  C659  1  0.220900  0.902800  0.391200  1.0  -0.1741
  C  C660  1  0.220200  0.876400  0.366100  1.0  -0.1019
  C  C661  1  0.246800  0.528800  0.927600  1.0  0.2165
  C  C662  1  0.244300  0.518600  0.891300  1.0  -0.131
  C  C663  1  0.279100  0.597200  0.891200  1.0  -0.1724
  C  C664  1  0.279800  0.623600  0.866100  1.0  -0.0999
  C  C665  1  0.746800  0.028800  0.427600  1.0  0.2165
  C  C666  1  0.744300  0.018600  0.391300  1.0  -0.131
  C  C667  1  0.779100  0.097200  0.391200  1.0  -0.1724
  C  C668  1  0.779800  0.123600  0.366100  1.0  -0.0999
  C  C669  1  0.528800  0.927600  0.246800  1.0  0.2142
  C  C670  1  0.518600  0.891300  0.244300  1.0  -0.1302
  C  C671  1  0.597200  0.891200  0.279100  1.0  -0.169
  C  C672  1  0.623600  0.866100  0.279800  1.0  -0.1
  C  C673  1  0.028800  0.427600  0.746800  1.0  0.2142
  C  C674  1  0.018600  0.391300  0.744300  1.0  -0.1302
  C  C675  1  0.097200  0.391200  0.779100  1.0  -0.169
  C  C676  1  0.123600  0.366100  0.779800  1.0  -0.1
  C  C677  1  0.471200  0.927600  0.753200  1.0  0.2151
  C  C678  1  0.481400  0.891300  0.755700  1.0  -0.1304
  C  C679  1  0.402800  0.891200  0.720900  1.0  -0.1649
  C  C680  1  0.376400  0.866100  0.720200  1.0  -0.1026
  C  C681  1  0.971200  0.427600  0.253200  1.0  0.2151
  C  C682  1  0.981400  0.391300  0.255700  1.0  -0.1304
  C  C683  1  0.902800  0.391200  0.220900  1.0  -0.1649
  C  C684  1  0.876400  0.366100  0.220200  1.0  -0.1026
  C  C685  1  0.471200  0.072400  0.246800  1.0  0.2144
  C  C686  1  0.481400  0.108700  0.244300  1.0  -0.1311
  C  C687  1  0.402800  0.108800  0.279100  1.0  -0.1675
  C  C688  1  0.376400  0.133900  0.279800  1.0  -0.1021
  C  C689  1  0.971200  0.572400  0.746800  1.0  0.2144
  C  C690  1  0.981400  0.608700  0.744300  1.0  -0.1311
  C  C691  1  0.902800  0.608800  0.779100  1.0  -0.1675
  C  C692  1  0.876400  0.633900  0.779800  1.0  -0.1021
  C  C693  1  0.528800  0.072400  0.753200  1.0  0.2136
  C  C694  1  0.518600  0.108700  0.755700  1.0  -0.1298
  C  C695  1  0.597200  0.108800  0.720900  1.0  -0.1656
  C  C696  1  0.623600  0.133900  0.720200  1.0  -0.1013
  C  C697  1  0.028800  0.572400  0.253200  1.0  0.2136
  C  C698  1  0.018600  0.608700  0.255700  1.0  -0.1298
  C  C699  1  0.097200  0.608800  0.220900  1.0  -0.1656
  C  C700  1  0.123600  0.633900  0.220200  1.0  -0.1013
  C  C701  1  0.927600  0.753200  0.471200  1.0  0.2131
  C  C702  1  0.891300  0.755700  0.481400  1.0  -0.1295
  C  C703  1  0.891200  0.720900  0.402800  1.0  -0.1733
  C  C704  1  0.866100  0.720200  0.376400  1.0  -0.1023
  C  C705  1  0.427600  0.253200  0.971200  1.0  0.2131
  C  C706  1  0.391300  0.255700  0.981400  1.0  -0.1295
  C  C707  1  0.391200  0.220900  0.902800  1.0  -0.1733
  C  C708  1  0.366100  0.220200  0.876400  1.0  -0.1023
  C  C709  1  0.927600  0.246800  0.528800  1.0  0.2134
  C  C710  1  0.891300  0.244300  0.518600  1.0  -0.1303
  C  C711  1  0.891200  0.279100  0.597200  1.0  -0.1713
  C  C712  1  0.866100  0.279800  0.623600  1.0  -0.1017
  C  C713  1  0.427600  0.746800  0.028800  1.0  0.2134
  C  C714  1  0.391300  0.744300  0.018600  1.0  -0.1303
  C  C715  1  0.391200  0.779100  0.097200  1.0  -0.1713
  C  C716  1  0.366100  0.779800  0.123600  1.0  -0.1017
  C  C717  1  0.072400  0.753200  0.528800  1.0  0.2153
  C  C718  1  0.108700  0.755700  0.518600  1.0  -0.1284
  C  C719  1  0.108800  0.720900  0.597200  1.0  -0.1747
  C  C720  1  0.133900  0.720200  0.623600  1.0  -0.102
  C  C721  1  0.572400  0.253200  0.028800  1.0  0.2153
  C  C722  1  0.608700  0.255700  0.018600  1.0  -0.1284
  C  C723  1  0.608800  0.220900  0.097200  1.0  -0.1747
  C  C724  1  0.633900  0.220200  0.123600  1.0  -0.102
  C  C725  1  0.072400  0.246800  0.471200  1.0  0.2145
  C  C726  1  0.108700  0.244300  0.481400  1.0  -0.1292
  C  C727  1  0.108800  0.279100  0.402800  1.0  -0.1727
  C  C728  1  0.133900  0.279800  0.376400  1.0  -0.1005
  C  C729  1  0.572400  0.746800  0.971200  1.0  0.2145
  C  C730  1  0.608700  0.744300  0.981400  1.0  -0.1292
  C  C731  1  0.608800  0.779100  0.902800  1.0  -0.1727
  C  C732  1  0.633900  0.779800  0.876400  1.0  -0.1005
  C  C733  1  0.437300  0.250000  0.062700  1.0  -0.064
  C  C734  1  0.409300  0.250000  0.090700  1.0  0.1086
  C  C735  1  0.358700  0.250000  0.141300  1.0  -0.0955
  C  C736  1  0.330300  0.250000  0.169700  1.0  0.7278
  C  C737  1  0.562700  0.750000  0.062700  1.0  -0.0645
  C  C738  1  0.590700  0.750000  0.090700  1.0  0.109
  C  C739  1  0.641300  0.750000  0.141300  1.0  -0.095
  C  C740  1  0.669700  0.750000  0.169700  1.0  0.7275
  C  C741  1  0.562700  0.250000  0.937300  1.0  -0.0647
  C  C742  1  0.590700  0.250000  0.909300  1.0  0.1087
  C  C743  1  0.641300  0.250000  0.858700  1.0  -0.0963
  C  C744  1  0.669700  0.250000  0.830300  1.0  0.7269
  C  C745  1  0.437300  0.750000  0.937300  1.0  -0.0643
  C  C746  1  0.409300  0.750000  0.909300  1.0  0.108
  C  C747  1  0.358700  0.750000  0.858700  1.0  -0.0966
  C  C748  1  0.330300  0.750000  0.830300  1.0  0.7275
  C  C749  1  0.062700  0.437300  0.250000  1.0  -0.0653
  C  C750  1  0.090700  0.409300  0.250000  1.0  0.1094
  C  C751  1  0.141300  0.358700  0.250000  1.0  -0.0923
  C  C752  1  0.169700  0.330300  0.250000  1.0  0.7261
  C  C753  1  0.062700  0.562700  0.750000  1.0  -0.0655
  C  C754  1  0.090700  0.590700  0.750000  1.0  0.1093
  C  C755  1  0.141300  0.641300  0.750000  1.0  -0.0932
  C  C756  1  0.169700  0.669700  0.750000  1.0  0.7264
  C  C757  1  0.937300  0.562700  0.250000  1.0  -0.0652
  C  C758  1  0.909300  0.590700  0.250000  1.0  0.1086
  C  C759  1  0.858700  0.641300  0.250000  1.0  -0.0937
  C  C760  1  0.830300  0.669700  0.250000  1.0  0.7265
  C  C761  1  0.937300  0.437300  0.750000  1.0  -0.0649
  C  C762  1  0.909300  0.409300  0.750000  1.0  0.1089
  C  C763  1  0.858700  0.358700  0.750000  1.0  -0.0933
  C  C764  1  0.830300  0.330300  0.750000  1.0  0.7264
  C  C765  1  0.250000  0.062700  0.437300  1.0  -0.0648
  C  C766  1  0.250000  0.090700  0.409300  1.0  0.1099
  C  C767  1  0.250000  0.141300  0.358700  1.0  -0.0941
  C  C768  1  0.250000  0.169700  0.330300  1.0  0.7275
  C  C769  1  0.750000  0.062700  0.562700  1.0  -0.0646
  C  C770  1  0.750000  0.090700  0.590700  1.0  0.1102
  C  C771  1  0.750000  0.141300  0.641300  1.0  -0.0933
  C  C772  1  0.750000  0.169700  0.669700  1.0  0.7281
  C  C773  1  0.250000  0.937300  0.562700  1.0  -0.0645
  C  C774  1  0.250000  0.909300  0.590700  1.0  0.1104
  C  C775  1  0.250000  0.858700  0.641300  1.0  -0.0924
  C  C776  1  0.250000  0.830300  0.669700  1.0  0.7279
  C  C777  1  0.750000  0.937300  0.437300  1.0  -0.0647
  C  C778  1  0.750000  0.909300  0.409300  1.0  0.1101
  C  C779  1  0.750000  0.858700  0.358700  1.0  -0.0945
  C  C780  1  0.750000  0.830300  0.330300  1.0  0.7273
  C  C781  1  0.250000  0.437300  0.937300  1.0  -0.0647
  C  C782  1  0.250000  0.409300  0.909300  1.0  0.1101
  C  C783  1  0.250000  0.358700  0.858700  1.0  -0.0945
  C  C784  1  0.250000  0.330300  0.830300  1.0  0.7273
  C  C785  1  0.750000  0.562700  0.937300  1.0  -0.0648
  C  C786  1  0.750000  0.590700  0.909300  1.0  0.1099
  C  C787  1  0.750000  0.641300  0.858700  1.0  -0.0941
  C  C788  1  0.750000  0.669700  0.830300  1.0  0.7275
  C  C789  1  0.250000  0.562700  0.062700  1.0  -0.0646
  C  C790  1  0.250000  0.590700  0.090700  1.0  0.1102
  C  C791  1  0.250000  0.641300  0.141300  1.0  -0.0933
  C  C792  1  0.250000  0.669700  0.169700  1.0  0.7281
  C  C793  1  0.750000  0.437300  0.062700  1.0  -0.0645
  C  C794  1  0.750000  0.409300  0.090700  1.0  0.1104
  C  C795  1  0.750000  0.358700  0.141300  1.0  -0.0924
  C  C796  1  0.750000  0.330300  0.169700  1.0  0.7279
  C  C797  1  0.437300  0.062700  0.750000  1.0  -0.0652
  C  C798  1  0.409300  0.090700  0.750000  1.0  0.1086
  C  C799  1  0.358700  0.141300  0.750000  1.0  -0.0937
  C  C800  1  0.330300  0.169700  0.750000  1.0  0.7265
  C  C801  1  0.562700  0.062700  0.250000  1.0  -0.0655
  C  C802  1  0.590700  0.090700  0.250000  1.0  0.1093
  C  C803  1  0.641300  0.141300  0.250000  1.0  -0.0932
  C  C804  1  0.669700  0.169700  0.250000  1.0  0.7264
  C  C805  1  0.562700  0.937300  0.750000  1.0  -0.0653
  C  C806  1  0.590700  0.909300  0.750000  1.0  0.1094
  C  C807  1  0.641300  0.858700  0.750000  1.0  -0.0923
  C  C808  1  0.669700  0.830300  0.750000  1.0  0.7261
  C  C809  1  0.437300  0.937300  0.250000  1.0  -0.0649
  C  C810  1  0.409300  0.909300  0.250000  1.0  0.1089
  C  C811  1  0.358700  0.858700  0.250000  1.0  -0.0933
  C  C812  1  0.330300  0.830300  0.250000  1.0  0.7264
  C  C813  1  0.062700  0.250000  0.562700  1.0  -0.0645
  C  C814  1  0.090700  0.250000  0.590700  1.0  0.109
  C  C815  1  0.141300  0.250000  0.641300  1.0  -0.095
  C  C816  1  0.169700  0.250000  0.669700  1.0  0.7275
  C  C817  1  0.062700  0.750000  0.437300  1.0  -0.0647
  C  C818  1  0.090700  0.750000  0.409300  1.0  0.1087
  C  C819  1  0.141300  0.750000  0.358700  1.0  -0.0963
  C  C820  1  0.169700  0.750000  0.330300  1.0  0.7269
  C  C821  1  0.937300  0.250000  0.437300  1.0  -0.0643
  C  C822  1  0.909300  0.250000  0.409300  1.0  0.108
  C  C823  1  0.858700  0.250000  0.358700  1.0  -0.0966
  C  C824  1  0.830300  0.250000  0.330300  1.0  0.7275
  C  C825  1  0.937300  0.750000  0.562700  1.0  -0.064
  C  C826  1  0.909300  0.750000  0.590700  1.0  0.1086
  C  C827  1  0.858700  0.750000  0.641300  1.0  -0.0955
  C  C828  1  0.830300  0.750000  0.669700  1.0  0.7278
  C  C829  1  0.562700  0.750000  0.937300  1.0  -0.0647
  C  C830  1  0.590700  0.750000  0.909300  1.0  0.1087
  C  C831  1  0.641300  0.750000  0.858700  1.0  -0.0963
  C  C832  1  0.669700  0.750000  0.830300  1.0  0.7269
  C  C833  1  0.062700  0.250000  0.437300  1.0  -0.0647
  C  C834  1  0.090700  0.250000  0.409300  1.0  0.1087
  C  C835  1  0.141300  0.250000  0.358700  1.0  -0.0963
  C  C836  1  0.169700  0.250000  0.330300  1.0  0.7269
  C  C837  1  0.437300  0.250000  0.937300  1.0  -0.0643
  C  C838  1  0.409300  0.250000  0.909300  1.0  0.108
  C  C839  1  0.358700  0.250000  0.858700  1.0  -0.0966
  C  C840  1  0.330300  0.250000  0.830300  1.0  0.7275
  C  C841  1  0.437300  0.750000  0.062700  1.0  -0.064
  C  C842  1  0.409300  0.750000  0.090700  1.0  0.1086
  C  C843  1  0.358700  0.750000  0.141300  1.0  -0.0955
  C  C844  1  0.330300  0.750000  0.169700  1.0  0.7278
  C  C845  1  0.562700  0.250000  0.062700  1.0  -0.0645
  C  C846  1  0.590700  0.250000  0.090700  1.0  0.109
  C  C847  1  0.641300  0.250000  0.141300  1.0  -0.095
  C  C848  1  0.669700  0.250000  0.169700  1.0  0.7275
  C  C849  1  0.937300  0.562700  0.750000  1.0  -0.0652
  C  C850  1  0.909300  0.590700  0.750000  1.0  0.1086
  C  C851  1  0.858700  0.641300  0.750000  1.0  -0.0937
  C  C852  1  0.830300  0.669700  0.750000  1.0  0.7265
  C  C853  1  0.437300  0.062700  0.250000  1.0  -0.0652
  C  C854  1  0.409300  0.090700  0.250000  1.0  0.1086
  C  C855  1  0.358700  0.141300  0.250000  1.0  -0.0937
  C  C856  1  0.330300  0.169700  0.250000  1.0  0.7265
  C  C857  1  0.937300  0.437300  0.250000  1.0  -0.0649
  C  C858  1  0.909300  0.409300  0.250000  1.0  0.1089
  C  C859  1  0.858700  0.358700  0.250000  1.0  -0.0933
  C  C860  1  0.830300  0.330300  0.250000  1.0  0.7264
  C  C861  1  0.062700  0.437300  0.750000  1.0  -0.0653
  C  C862  1  0.090700  0.409300  0.750000  1.0  0.1094
  C  C863  1  0.141300  0.358700  0.750000  1.0  -0.0923
  C  C864  1  0.169700  0.330300  0.750000  1.0  0.7261
  C  C865  1  0.062700  0.562700  0.250000  1.0  -0.0655
  C  C866  1  0.090700  0.590700  0.250000  1.0  0.1093
  C  C867  1  0.141300  0.641300  0.250000  1.0  -0.0932
  C  C868  1  0.169700  0.669700  0.250000  1.0  0.7264
  C  C869  1  0.750000  0.937300  0.562700  1.0  -0.0645
  C  C870  1  0.750000  0.909300  0.590700  1.0  0.1104
  C  C871  1  0.750000  0.858700  0.641300  1.0  -0.0924
  C  C872  1  0.750000  0.830300  0.669700  1.0  0.7279
  C  C873  1  0.250000  0.437300  0.062700  1.0  -0.0645
  C  C874  1  0.250000  0.409300  0.090700  1.0  0.1104
  C  C875  1  0.250000  0.358700  0.141300  1.0  -0.0924
  C  C876  1  0.250000  0.330300  0.169700  1.0  0.7279
  C  C877  1  0.250000  0.937300  0.437300  1.0  -0.0647
  C  C878  1  0.250000  0.909300  0.409300  1.0  0.1101
  C  C879  1  0.250000  0.858700  0.358700  1.0  -0.0945
  C  C880  1  0.250000  0.830300  0.330300  1.0  0.7273
  C  C881  1  0.750000  0.062700  0.437300  1.0  -0.0648
  C  C882  1  0.750000  0.090700  0.409300  1.0  0.1099
  C  C883  1  0.750000  0.141300  0.358700  1.0  -0.0941
  C  C884  1  0.750000  0.169700  0.330300  1.0  0.7275
  C  C885  1  0.250000  0.062700  0.562700  1.0  -0.0646
  C  C886  1  0.250000  0.090700  0.590700  1.0  0.1102
  C  C887  1  0.250000  0.141300  0.641300  1.0  -0.0933
  C  C888  1  0.250000  0.169700  0.669700  1.0  0.7281
  C  C889  1  0.750000  0.562700  0.062700  1.0  -0.0646
  C  C890  1  0.750000  0.590700  0.090700  1.0  0.1102
  C  C891  1  0.750000  0.641300  0.141300  1.0  -0.0933
  C  C892  1  0.750000  0.669700  0.169700  1.0  0.7281
  C  C893  1  0.750000  0.437300  0.937300  1.0  -0.0647
  C  C894  1  0.750000  0.409300  0.909300  1.0  0.1101
  C  C895  1  0.750000  0.358700  0.858700  1.0  -0.0945
  C  C896  1  0.750000  0.330300  0.830300  1.0  0.7273
  C  C897  1  0.250000  0.562700  0.937300  1.0  -0.0648
  C  C898  1  0.250000  0.590700  0.909300  1.0  0.1099
  C  C899  1  0.250000  0.641300  0.858700  1.0  -0.0941
  C  C900  1  0.250000  0.669700  0.830300  1.0  0.7275
  C  C901  1  0.562700  0.937300  0.250000  1.0  -0.0653
  C  C902  1  0.590700  0.909300  0.250000  1.0  0.1094
  C  C903  1  0.641300  0.858700  0.250000  1.0  -0.0923
  C  C904  1  0.669700  0.830300  0.250000  1.0  0.7261
  C  C905  1  0.437300  0.937300  0.750000  1.0  -0.0649
  C  C906  1  0.409300  0.909300  0.750000  1.0  0.1089
  C  C907  1  0.358700  0.858700  0.750000  1.0  -0.0933
  C  C908  1  0.330300  0.830300  0.750000  1.0  0.7264
  C  C909  1  0.562700  0.062700  0.750000  1.0  -0.0655
  C  C910  1  0.590700  0.090700  0.750000  1.0  0.1093
  C  C911  1  0.641300  0.141300  0.750000  1.0  -0.0932
  C  C912  1  0.669700  0.169700  0.750000  1.0  0.7264
  C  C913  1  0.937300  0.750000  0.437300  1.0  -0.0643
  C  C914  1  0.909300  0.750000  0.409300  1.0  0.108
  C  C915  1  0.858700  0.750000  0.358700  1.0  -0.0966
  C  C916  1  0.830300  0.750000  0.330300  1.0  0.7275
  C  C917  1  0.937300  0.250000  0.562700  1.0  -0.064
  C  C918  1  0.909300  0.250000  0.590700  1.0  0.1086
  C  C919  1  0.858700  0.250000  0.641300  1.0  -0.0955
  C  C920  1  0.830300  0.250000  0.669700  1.0  0.7278
  C  C921  1  0.062700  0.750000  0.562700  1.0  -0.0645
  C  C922  1  0.090700  0.750000  0.590700  1.0  0.109
  C  C923  1  0.141300  0.750000  0.641300  1.0  -0.095
  C  C924  1  0.169700  0.750000  0.669700  1.0  0.7275
  N  N925  1  0.500000  0.247900  0.052200  1.0  -0.3757
  N  N926  1  0.000000  0.747900  0.552200  1.0  -0.3757
  N  N927  1  0.500000  0.752100  0.052200  1.0  -0.3759
  N  N928  1  0.000000  0.252100  0.552200  1.0  -0.3759
  N  N929  1  0.500000  0.247900  0.947800  1.0  -0.3759
  N  N930  1  0.000000  0.747900  0.447800  1.0  -0.3759
  N  N931  1  0.500000  0.752100  0.947800  1.0  -0.376
  N  N932  1  0.000000  0.252100  0.447800  1.0  -0.376
  N  N933  1  0.052200  0.500000  0.247900  1.0  -0.378
  N  N934  1  0.552200  0.000000  0.747900  1.0  -0.378
  N  N935  1  0.052200  0.500000  0.752100  1.0  -0.3783
  N  N936  1  0.552200  0.000000  0.252100  1.0  -0.3783
  N  N937  1  0.947800  0.500000  0.247900  1.0  -0.377
  N  N938  1  0.447800  0.000000  0.747900  1.0  -0.377
  N  N939  1  0.947800  0.500000  0.752100  1.0  -0.3772
  N  N940  1  0.447800  0.000000  0.252100  1.0  -0.3772
  N  N941  1  0.247900  0.052200  0.500000  1.0  -0.3802
  N  N942  1  0.747900  0.552200  0.000000  1.0  -0.3802
  N  N943  1  0.752100  0.052200  0.500000  1.0  -0.3802
  N  N944  1  0.252100  0.552200  0.000000  1.0  -0.3802
  N  N945  1  0.247900  0.947800  0.500000  1.0  -0.3791
  N  N946  1  0.747900  0.447800  0.000000  1.0  -0.3791
  N  N947  1  0.752100  0.947800  0.500000  1.0  -0.3788
  N  N948  1  0.252100  0.447800  0.000000  1.0  -0.3788
  N  N949  1  0.247900  0.500000  0.947800  1.0  -0.376
  N  N950  1  0.747900  0.000000  0.447800  1.0  -0.376
  N  N951  1  0.752100  0.500000  0.947800  1.0  -0.3761
  N  N952  1  0.252100  0.000000  0.447800  1.0  -0.3761
  N  N953  1  0.247900  0.500000  0.052200  1.0  -0.3758
  N  N954  1  0.747900  0.000000  0.552200  1.0  -0.3758
  N  N955  1  0.752100  0.500000  0.052200  1.0  -0.3757
  N  N956  1  0.252100  0.000000  0.552200  1.0  -0.3757
  N  N957  1  0.500000  0.052200  0.752100  1.0  -0.3803
  N  N958  1  0.000000  0.552200  0.252100  1.0  -0.3803
  N  N959  1  0.500000  0.052200  0.247900  1.0  -0.38
  N  N960  1  0.000000  0.552200  0.747900  1.0  -0.38
  N  N961  1  0.500000  0.947800  0.752100  1.0  -0.3792
  N  N962  1  0.000000  0.447800  0.252100  1.0  -0.3792
  N  N963  1  0.500000  0.947800  0.247900  1.0  -0.3787
  N  N964  1  0.000000  0.447800  0.747900  1.0  -0.3787
  N  N965  1  0.052200  0.247900  0.500000  1.0  -0.3782
  N  N966  1  0.552200  0.747900  0.000000  1.0  -0.3782
  N  N967  1  0.052200  0.752100  0.500000  1.0  -0.3783
  N  N968  1  0.552200  0.252100  0.000000  1.0  -0.3783
  N  N969  1  0.947800  0.247900  0.500000  1.0  -0.3771
  N  N970  1  0.447800  0.747900  0.000000  1.0  -0.3771
  N  N971  1  0.947800  0.752100  0.500000  1.0  -0.3772
  N  N972  1  0.447800  0.252100  0.000000  1.0  -0.3772
  Cl  Cl973  1  0.500000  0.314300  0.000000  1.0  -0.4902
  Cl  Cl974  1  0.000000  0.814300  0.500000  1.0  -0.4686
  Cl  Cl975  1  0.500000  0.685700  0.000000  1.0  -0.4882
  Cl  Cl976  1  0.000000  0.185700  0.500000  1.0  -0.4667
  Cl  Cl977  1  0.000000  0.500000  0.314300  1.0  -0.492
  Cl  Cl978  1  0.500000  0.000000  0.814300  1.0  -0.472
  Cl  Cl979  1  0.000000  0.500000  0.685700  1.0  -0.4927
  Cl  Cl980  1  0.500000  0.000000  0.185700  1.0  -0.4721
  Cl  Cl981  1  0.314300  0.000000  0.500000  1.0  -0.4917
  Cl  Cl982  1  0.814300  0.500000  0.000000  1.0  -0.4702
  Cl  Cl983  1  0.685700  0.000000  0.500000  1.0  -0.4925
  Cl  Cl984  1  0.185700  0.500000  0.000000  1.0  -0.4709
  Cl  Cl985  1  0.314300  0.500000  0.000000  1.0  -0.4917
  Cl  Cl986  1  0.814300  0.000000  0.500000  1.0  -0.4702
  Cl  Cl987  1  0.685700  0.500000  0.000000  1.0  -0.4925
  Cl  Cl988  1  0.185700  0.000000  0.500000  1.0  -0.4709
  Cl  Cl989  1  0.500000  0.000000  0.685700  1.0  -0.4927
  Cl  Cl990  1  0.000000  0.500000  0.185700  1.0  -0.4721
  Cl  Cl991  1  0.500000  0.000000  0.314300  1.0  -0.492
  Cl  Cl992  1  0.000000  0.500000  0.814300  1.0  -0.472
  Cl  Cl993  1  0.000000  0.314300  0.500000  1.0  -0.4902
  Cl  Cl994  1  0.500000  0.814300  0.000000  1.0  -0.4686
  Cl  Cl995  1  0.000000  0.685700  0.500000  1.0  -0.4882
  Cl  Cl996  1  0.500000  0.185700  0.000000  1.0  -0.4667
  O  O997  1  0.315500  0.222400  0.172100  1.0  -0.6657
  O  O998  1  0.815500  0.722400  0.672100  1.0  -0.6657
  O  O999  1  0.684500  0.777600  0.172100  1.0  -0.6638
  O  O1000  1  0.184500  0.277600  0.672100  1.0  -0.6638
  O  O1001  1  0.684500  0.222400  0.827900  1.0  -0.6647
  O  O1002  1  0.184500  0.722400  0.327900  1.0  -0.6647
  O  O1003  1  0.315500  0.777600  0.827900  1.0  -0.6655
  O  O1004  1  0.815500  0.277600  0.327900  1.0  -0.6655
  O  O1005  1  0.172100  0.315500  0.222400  1.0  -0.6683
  O  O1006  1  0.672100  0.815500  0.722400  1.0  -0.6683
  O  O1007  1  0.172100  0.684500  0.777600  1.0  -0.6668
  O  O1008  1  0.672100  0.184500  0.277600  1.0  -0.6668
  O  O1009  1  0.827900  0.684500  0.222400  1.0  -0.6668
  O  O1010  1  0.327900  0.184500  0.722400  1.0  -0.6668
  O  O1011  1  0.827900  0.315500  0.777600  1.0  -0.6662
  O  O1012  1  0.327900  0.815500  0.277600  1.0  -0.6662
  O  O1013  1  0.222400  0.172100  0.315500  1.0  -0.6678
  O  O1014  1  0.722400  0.672100  0.815500  1.0  -0.6678
  O  O1015  1  0.777600  0.172100  0.684500  1.0  -0.6673
  O  O1016  1  0.277600  0.672100  0.184500  1.0  -0.6673
  O  O1017  1  0.222400  0.827900  0.684500  1.0  -0.668
  O  O1018  1  0.722400  0.327900  0.184500  1.0  -0.668
  O  O1019  1  0.777600  0.827900  0.315500  1.0  -0.6663
  O  O1020  1  0.277600  0.327900  0.815500  1.0  -0.6663
  O  O1021  1  0.222400  0.315500  0.827900  1.0  -0.6679
  O  O1022  1  0.722400  0.815500  0.327900  1.0  -0.6679
  O  O1023  1  0.777600  0.684500  0.827900  1.0  -0.6665
  O  O1024  1  0.277600  0.184500  0.327900  1.0  -0.6665
  O  O1025  1  0.222400  0.684500  0.172100  1.0  -0.6676
  O  O1026  1  0.722400  0.184500  0.672100  1.0  -0.6676
  O  O1027  1  0.777600  0.315500  0.172100  1.0  -0.667
  O  O1028  1  0.277600  0.815500  0.672100  1.0  -0.667
  O  O1029  1  0.315500  0.172100  0.777600  1.0  -0.6661
  O  O1030  1  0.815500  0.672100  0.277600  1.0  -0.6661
  O  O1031  1  0.684500  0.172100  0.222400  1.0  -0.6654
  O  O1032  1  0.184500  0.672100  0.722400  1.0  -0.6654
  O  O1033  1  0.684500  0.827900  0.777600  1.0  -0.6643
  O  O1034  1  0.184500  0.327900  0.277600  1.0  -0.6643
  O  O1035  1  0.315500  0.827900  0.222400  1.0  -0.6664
  O  O1036  1  0.815500  0.327900  0.722400  1.0  -0.6664
  O  O1037  1  0.172100  0.222400  0.684500  1.0  -0.6675
  O  O1038  1  0.672100  0.722400  0.184500  1.0  -0.6675
  O  O1039  1  0.172100  0.777600  0.315500  1.0  -0.6665
  O  O1040  1  0.672100  0.277600  0.815500  1.0  -0.6665
  O  O1041  1  0.827900  0.222400  0.315500  1.0  -0.6674
  O  O1042  1  0.327900  0.722400  0.815500  1.0  -0.6674
  O  O1043  1  0.827900  0.777600  0.684500  1.0  -0.666
  O  O1044  1  0.327900  0.277600  0.184500  1.0  -0.666
  O  O1045  1  0.684500  0.777600  0.827900  1.0  -0.664
  O  O1046  1  0.184500  0.277600  0.327900  1.0  -0.664
  O  O1047  1  0.315500  0.222400  0.827900  1.0  -0.6654
  O  O1048  1  0.815500  0.722400  0.327900  1.0  -0.6654
  O  O1049  1  0.315500  0.777600  0.172100  1.0  -0.6653
  O  O1050  1  0.815500  0.277600  0.672100  1.0  -0.6653
  O  O1051  1  0.684500  0.222400  0.172100  1.0  -0.6648
  O  O1052  1  0.184500  0.722400  0.672100  1.0  -0.6648
  O  O1053  1  0.827900  0.684500  0.777600  1.0  -0.6659
  O  O1054  1  0.327900  0.184500  0.277600  1.0  -0.6659
  O  O1055  1  0.827900  0.315500  0.222400  1.0  -0.6677
  O  O1056  1  0.327900  0.815500  0.722400  1.0  -0.6677
  O  O1057  1  0.172100  0.315500  0.777600  1.0  -0.6671
  O  O1058  1  0.672100  0.815500  0.277600  1.0  -0.6671
  O  O1059  1  0.172100  0.684500  0.222400  1.0  -0.6677
  O  O1060  1  0.672100  0.184500  0.722400  1.0  -0.6677
  O  O1061  1  0.777600  0.827900  0.684500  1.0  -0.6671
  O  O1062  1  0.277600  0.327900  0.184500  1.0  -0.6671
  O  O1063  1  0.222400  0.827900  0.315500  1.0  -0.6674
  O  O1064  1  0.722400  0.327900  0.815500  1.0  -0.6674
  O  O1065  1  0.777600  0.172100  0.315500  1.0  -0.6671
  O  O1066  1  0.277600  0.672100  0.815500  1.0  -0.6671
  O  O1067  1  0.222400  0.172100  0.684500  1.0  -0.6679
  O  O1068  1  0.722400  0.672100  0.184500  1.0  -0.6679
  O  O1069  1  0.777600  0.684500  0.172100  1.0  -0.6666
  O  O1070  1  0.277600  0.184500  0.672100  1.0  -0.6666
  O  O1071  1  0.222400  0.315500  0.172100  1.0  -0.6678
  O  O1072  1  0.722400  0.815500  0.672100  1.0  -0.6678
  O  O1073  1  0.777600  0.315500  0.827900  1.0  -0.6669
  O  O1074  1  0.277600  0.815500  0.327900  1.0  -0.6669
  O  O1075  1  0.222400  0.684500  0.827900  1.0  -0.6677
  O  O1076  1  0.722400  0.184500  0.327900  1.0  -0.6677
  O  O1077  1  0.684500  0.827900  0.222400  1.0  -0.6652
  O  O1078  1  0.184500  0.327900  0.722400  1.0  -0.6652
  O  O1079  1  0.315500  0.827900  0.777600  1.0  -0.666
  O  O1080  1  0.815500  0.327900  0.277600  1.0  -0.666
  O  O1081  1  0.315500  0.172100  0.222400  1.0  -0.6667
  O  O1082  1  0.815500  0.672100  0.722400  1.0  -0.6667
  O  O1083  1  0.684500  0.172100  0.777600  1.0  -0.6645
  O  O1084  1  0.184500  0.672100  0.277600  1.0  -0.6645
  O  O1085  1  0.827900  0.777600  0.315500  1.0  -0.6653
  O  O1086  1  0.327900  0.277600  0.815500  1.0  -0.6653
  O  O1087  1  0.827900  0.222400  0.684500  1.0  -0.6675
  O  O1088  1  0.327900  0.722400  0.184500  1.0  -0.6675
  O  O1089  1  0.172100  0.777600  0.684500  1.0  -0.6671
  O  O1090  1  0.672100  0.277600  0.184500  1.0  -0.6671
  O  O1091  1  0.172100  0.222400  0.315500  1.0  -0.6676
  O  O1092  1  0.672100  0.722400  0.815500  1.0  -0.6676
  O  O1093  1  0.305600  0.242200  0.242200  1.0  -0.9055
  O  O1094  1  0.805600  0.742200  0.742200  1.0  -0.9055
  O  O1095  1  0.694400  0.757800  0.242200  1.0  -0.9034
  O  O1096  1  0.194400  0.257800  0.742200  1.0  -0.9034
  O  O1097  1  0.694400  0.242200  0.757800  1.0  -0.9047
  O  O1098  1  0.194400  0.742200  0.257800  1.0  -0.9047
  O  O1099  1  0.305600  0.757800  0.757800  1.0  -0.9054
  O  O1100  1  0.805600  0.257800  0.257800  1.0  -0.9054
  O  O1101  1  0.242200  0.305600  0.242200  1.0  -0.9033
  O  O1102  1  0.742200  0.805600  0.742200  1.0  -0.9033
  O  O1103  1  0.242200  0.694400  0.757800  1.0  -0.9042
  O  O1104  1  0.742200  0.194400  0.257800  1.0  -0.9042
  O  O1105  1  0.757800  0.694400  0.242200  1.0  -0.9032
  O  O1106  1  0.257800  0.194400  0.742200  1.0  -0.9032
  O  O1107  1  0.757800  0.305600  0.757800  1.0  -0.9054
  O  O1108  1  0.257800  0.805600  0.257800  1.0  -0.9054
  O  O1109  1  0.242200  0.242200  0.305600  1.0  -0.9028
  O  O1110  1  0.742200  0.742200  0.805600  1.0  -0.9028
  O  O1111  1  0.757800  0.242200  0.694400  1.0  -0.905
  O  O1112  1  0.257800  0.742200  0.194400  1.0  -0.905
  O  O1113  1  0.242200  0.757800  0.694400  1.0  -0.9047
  O  O1114  1  0.742200  0.257800  0.194400  1.0  -0.9047
  O  O1115  1  0.757800  0.757800  0.305600  1.0  -0.9031
  O  O1116  1  0.257800  0.257800  0.805600  1.0  -0.9031
  O  O1117  1  0.242200  0.305600  0.757800  1.0  -0.9046
  O  O1118  1  0.742200  0.805600  0.257800  1.0  -0.9046
  O  O1119  1  0.757800  0.694400  0.757800  1.0  -0.9036
  O  O1120  1  0.257800  0.194400  0.257800  1.0  -0.9036
  O  O1121  1  0.242200  0.694400  0.242200  1.0  -0.9043
  O  O1122  1  0.742200  0.194400  0.742200  1.0  -0.9043
  O  O1123  1  0.757800  0.305600  0.242200  1.0  -0.9039
  O  O1124  1  0.257800  0.805600  0.742200  1.0  -0.9039
  O  O1125  1  0.305600  0.242200  0.757800  1.0  -0.9059
  O  O1126  1  0.805600  0.742200  0.257800  1.0  -0.9059
  O  O1127  1  0.694400  0.242200  0.242200  1.0  -0.9038
  O  O1128  1  0.194400  0.742200  0.742200  1.0  -0.9038
  O  O1129  1  0.694400  0.757800  0.757800  1.0  -0.9041
  O  O1130  1  0.194400  0.257800  0.257800  1.0  -0.9041
  O  O1131  1  0.305600  0.757800  0.242200  1.0  -0.9051
  O  O1132  1  0.805600  0.257800  0.742200  1.0  -0.9051
  O  O1133  1  0.242200  0.242200  0.694400  1.0  -0.9055
  O  O1134  1  0.742200  0.742200  0.194400  1.0  -0.9055
  O  O1135  1  0.242200  0.757800  0.305600  1.0  -0.903
  O  O1136  1  0.742200  0.257800  0.805600  1.0  -0.903
  O  O1137  1  0.757800  0.242200  0.305600  1.0  -0.9032
  O  O1138  1  0.257800  0.742200  0.805600  1.0  -0.9032
  O  O1139  1  0.757800  0.757800  0.694400  1.0  -0.9041
  O  O1140  1  0.257800  0.257800  0.194400  1.0  -0.9041
  O  O1141  1  0.214400  0.214400  0.214400  1.0  -0.8116
  O  O1142  1  0.714400  0.714400  0.714400  1.0  -0.8291
  O  O1143  1  0.785600  0.785600  0.214400  1.0  -0.8072
  O  O1144  1  0.285600  0.285600  0.714400  1.0  -0.8251
  O  O1145  1  0.785600  0.214400  0.785600  1.0  -0.8101
  O  O1146  1  0.285600  0.714400  0.285600  1.0  -0.8272
  O  O1147  1  0.214400  0.785600  0.785600  1.0  -0.8131
  O  O1148  1  0.714400  0.285600  0.285600  1.0  -0.8305
  O  O1149  1  0.214400  0.214400  0.785600  1.0  -0.8147
  O  O1150  1  0.714400  0.714400  0.285600  1.0  -0.8316
  O  O1151  1  0.785600  0.785600  0.785600  1.0  -0.8079
  O  O1152  1  0.285600  0.285600  0.285600  1.0  -0.8253
  O  O1153  1  0.214400  0.785600  0.214400  1.0  -0.8125
  O  O1154  1  0.714400  0.285600  0.714400  1.0  -0.8306
  O  O1155  1  0.785600  0.214400  0.214400  1.0  -0.8072
  O  O1156  1  0.285600  0.714400  0.714400  1.0  -0.8245
