# generated using pymatgen
data_CuH16C24SN4
_symmetry_space_group_name_H-M   'P 1'
_cell_length_a   22.52200000
_cell_length_b   22.52200000
_cell_length_c   33.60000000
_cell_angle_alpha   90.00000000
_cell_angle_beta   90.00000000
_cell_angle_gamma   90.00000000
_symmetry_Int_Tables_number   1
_chemical_formula_structural   CuH16C24SN4
_chemical_formula_sum   'Cu16 H256 C384 S16 N64'
_cell_volume   17043.28026240
_cell_formula_units_Z   16
loop_
 _symmetry_equiv_pos_site_id
 _symmetry_equiv_pos_as_xyz
  1  'x, y, z'
loop_
 _atom_site_type_symbol
 _atom_site_label
 _atom_site_symmetry_multiplicity
 _atom_site_fract_x
 _atom_site_fract_y
 _atom_site_fract_z
 _atom_site_occupancy
 _atom_site_charge
  Cu  Cu1  1  0.323920  0.073920  0.625000  1.0  0.4649
  Cu  Cu2  1  0.823920  0.573920  0.125000  1.0  0.4649
  Cu  Cu3  1  0.176080  0.926080  0.125000  1.0  0.4667
  Cu  Cu4  1  0.676080  0.426080  0.625000  1.0  0.4667
  Cu  Cu5  1  0.176080  0.073920  0.875000  1.0  0.467
  Cu  Cu6  1  0.676080  0.573920  0.375000  1.0  0.467
  Cu  Cu7  1  0.323920  0.926080  0.375000  1.0  0.4646
  Cu  Cu8  1  0.823920  0.426080  0.875000  1.0  0.4646
  Cu  Cu9  1  0.676080  0.926080  0.375000  1.0  0.4667
  Cu  Cu10  1  0.176080  0.426080  0.875000  1.0  0.4667
  Cu  Cu11  1  0.823920  0.073920  0.875000  1.0  0.4649
  Cu  Cu12  1  0.323920  0.573920  0.375000  1.0  0.4649
  Cu  Cu13  1  0.823920  0.926080  0.125000  1.0  0.4646
  Cu  Cu14  1  0.323920  0.426080  0.625000  1.0  0.4646
  Cu  Cu15  1  0.676080  0.073920  0.625000  1.0  0.467
  Cu  Cu16  1  0.176080  0.573920  0.125000  1.0  0.467
  H  H17  1  0.250500  0.133500  0.688100  1.0  0.062
  H  H18  1  0.154800  0.146100  0.708300  1.0  0.104
  H  H19  1  0.104800  0.037500  0.618700  1.0  0.1008
  H  H20  1  0.202900  0.027500  0.601300  1.0  0.0794
  H  H21  1  0.087600  0.009900  0.748600  1.0  0.1082
  H  H22  1  0.135500  0.002900  0.809500  1.0  0.0639
  H  H23  1  0.107300  0.170100  0.831200  1.0  0.0619
  H  H24  1  0.059500  0.182000  0.770300  1.0  0.0956
  H  H25  1  0.750500  0.633500  0.188100  1.0  0.062
  H  H26  1  0.654800  0.646100  0.208300  1.0  0.104
  H  H27  1  0.604800  0.537500  0.118700  1.0  0.1005
  H  H28  1  0.702900  0.527500  0.101300  1.0  0.0794
  H  H29  1  0.587600  0.509900  0.248600  1.0  0.1082
  H  H30  1  0.635500  0.502900  0.309500  1.0  0.0639
  H  H31  1  0.607300  0.670100  0.331200  1.0  0.0619
  H  H32  1  0.559500  0.682000  0.270300  1.0  0.0956
  H  H33  1  0.249500  0.866500  0.188100  1.0  0.0628
  H  H34  1  0.345200  0.853900  0.208300  1.0  0.1037
  H  H35  1  0.395200  0.962500  0.118700  1.0  0.1017
  H  H36  1  0.297100  0.972500  0.101300  1.0  0.08
  H  H37  1  0.412400  0.990100  0.248600  1.0  0.1101
  H  H38  1  0.364500  0.997100  0.309500  1.0  0.0633
  H  H39  1  0.392700  0.829900  0.331200  1.0  0.0623
  H  H40  1  0.440500  0.818000  0.270300  1.0  0.0949
  H  H41  1  0.749500  0.366500  0.688100  1.0  0.0628
  H  H42  1  0.845200  0.353900  0.708300  1.0  0.1037
  H  H43  1  0.895200  0.462500  0.618700  1.0  0.1008
  H  H44  1  0.797100  0.472500  0.601300  1.0  0.08
  H  H45  1  0.912400  0.490100  0.748600  1.0  0.1099
  H  H46  1  0.864500  0.497100  0.809500  1.0  0.0633
  H  H47  1  0.892700  0.329900  0.831200  1.0  0.0623
  H  H48  1  0.940500  0.318000  0.770300  1.0  0.0949
  H  H49  1  0.116500  0.000500  0.938100  1.0  0.0618
  H  H50  1  0.103900  0.904800  0.958300  1.0  0.1039
  H  H51  1  0.212500  0.854800  0.868700  1.0  0.1005
  H  H52  1  0.222500  0.952900  0.851300  1.0  0.08
  H  H53  1  0.240100  0.837600  0.998600  1.0  0.1099
  H  H54  1  0.247100  0.885500  0.059500  1.0  0.0638
  H  H55  1  0.079900  0.857300  0.081200  1.0  0.0613
  H  H56  1  0.068000  0.809500  0.020300  1.0  0.0961
  H  H57  1  0.616500  0.500500  0.438100  1.0  0.0618
  H  H58  1  0.603900  0.404800  0.458300  1.0  0.1039
  H  H59  1  0.712500  0.354800  0.368700  1.0  0.1005
  H  H60  1  0.722500  0.452900  0.351300  1.0  0.08
  H  H61  1  0.740100  0.337600  0.498600  1.0  0.1099
  H  H62  1  0.747100  0.385500  0.559500  1.0  0.0638
  H  H63  1  0.579900  0.357300  0.581200  1.0  0.0613
  H  H64  1  0.568000  0.309500  0.520300  1.0  0.0961
  H  H65  1  0.383500  0.999500  0.438100  1.0  0.061
  H  H66  1  0.396100  0.095200  0.458300  1.0  0.1043
  H  H67  1  0.287500  0.145200  0.368700  1.0  0.1013
  H  H68  1  0.277500  0.047100  0.351300  1.0  0.0795
  H  H69  1  0.259900  0.162400  0.498600  1.0  0.1099
  H  H70  1  0.252900  0.114500  0.559500  1.0  0.0634
  H  H71  1  0.420100  0.142700  0.581200  1.0  0.061
  H  H72  1  0.432000  0.190500  0.520300  1.0  0.0969
  H  H73  1  0.883500  0.499500  0.938100  1.0  0.061
  H  H74  1  0.896100  0.595200  0.958300  1.0  0.1043
  H  H75  1  0.787500  0.645200  0.868700  1.0  0.1013
  H  H76  1  0.777500  0.547100  0.851300  1.0  0.0795
  H  H77  1  0.759900  0.662400  0.998600  1.0  0.1099
  H  H78  1  0.752900  0.614500  0.059500  1.0  0.0634
  H  H79  1  0.920100  0.642700  0.081200  1.0  0.061
  H  H80  1  0.932000  0.690500  0.020300  1.0  0.0969
  H  H81  1  0.249500  0.133500  0.811900  1.0  0.0626
  H  H82  1  0.345200  0.146100  0.791700  1.0  0.1031
  H  H83  1  0.395200  0.037500  0.881300  1.0  0.1003
  H  H84  1  0.297100  0.027500  0.898700  1.0  0.0796
  H  H85  1  0.412400  0.009900  0.751400  1.0  0.1083
  H  H86  1  0.364500  0.002900  0.690500  1.0  0.0632
  H  H87  1  0.392700  0.170100  0.668800  1.0  0.0615
  H  H88  1  0.440500  0.182000  0.729700  1.0  0.0947
  H  H89  1  0.749500  0.633500  0.311900  1.0  0.0626
  H  H90  1  0.845200  0.646100  0.291700  1.0  0.1031
  H  H91  1  0.895200  0.537500  0.381300  1.0  0.1003
  H  H92  1  0.797100  0.527500  0.398700  1.0  0.0796
  H  H93  1  0.912400  0.509900  0.251400  1.0  0.1085
  H  H94  1  0.864500  0.502900  0.190500  1.0  0.0632
  H  H95  1  0.892700  0.670100  0.168800  1.0  0.0615
  H  H96  1  0.940500  0.682000  0.229700  1.0  0.0947
  H  H97  1  0.250500  0.866500  0.311900  1.0  0.0618
  H  H98  1  0.154800  0.853900  0.291700  1.0  0.1036
  H  H99  1  0.104800  0.962500  0.381300  1.0  0.1015
  H  H100  1  0.202900  0.972500  0.398700  1.0  0.0801
  H  H101  1  0.087600  0.990100  0.251400  1.0  0.1087
  H  H102  1  0.135500  0.997100  0.190500  1.0  0.0637
  H  H103  1  0.107300  0.829900  0.168800  1.0  0.0613
  H  H104  1  0.059500  0.818000  0.229700  1.0  0.0949
  H  H105  1  0.750500  0.366500  0.811900  1.0  0.0618
  H  H106  1  0.654800  0.353900  0.791700  1.0  0.1036
  H  H107  1  0.604800  0.462500  0.881300  1.0  0.101
  H  H108  1  0.702900  0.472500  0.898700  1.0  0.0801
  H  H109  1  0.587600  0.490100  0.751400  1.0  0.1085
  H  H110  1  0.635500  0.497100  0.690500  1.0  0.0637
  H  H111  1  0.607300  0.329900  0.668800  1.0  0.0613
  H  H112  1  0.559500  0.318000  0.729700  1.0  0.0949
  H  H113  1  0.383500  0.000500  0.561900  1.0  0.0609
  H  H114  1  0.396100  0.904800  0.541700  1.0  0.1037
  H  H115  1  0.287500  0.854800  0.631300  1.0  0.1009
  H  H116  1  0.277500  0.952900  0.648700  1.0  0.0803
  H  H117  1  0.259900  0.837600  0.501400  1.0  0.1098
  H  H118  1  0.252900  0.885500  0.440500  1.0  0.0643
  H  H119  1  0.420100  0.857300  0.418800  1.0  0.0603
  H  H120  1  0.432000  0.809500  0.479700  1.0  0.0962
  H  H121  1  0.883500  0.500500  0.061900  1.0  0.0609
  H  H122  1  0.896100  0.404800  0.041700  1.0  0.1037
  H  H123  1  0.787500  0.354800  0.131300  1.0  0.1012
  H  H124  1  0.777500  0.452900  0.148700  1.0  0.0803
  H  H125  1  0.759900  0.337600  0.001400  1.0  0.1098
  H  H126  1  0.752900  0.385500  0.940500  1.0  0.0643
  H  H127  1  0.920100  0.357300  0.918800  1.0  0.0603
  H  H128  1  0.932000  0.309500  0.979700  1.0  0.0962
  H  H129  1  0.116500  0.999500  0.061900  1.0  0.0613
  H  H130  1  0.103900  0.095200  0.041700  1.0  0.1036
  H  H131  1  0.212500  0.145200  0.131300  1.0  0.1005
  H  H132  1  0.222500  0.047100  0.148700  1.0  0.0802
  H  H133  1  0.240100  0.162400  0.001400  1.0  0.1095
  H  H134  1  0.247100  0.114500  0.940500  1.0  0.0645
  H  H135  1  0.079900  0.142700  0.918800  1.0  0.0609
  H  H136  1  0.068000  0.190500  0.979700  1.0  0.096
  H  H137  1  0.616500  0.499500  0.561900  1.0  0.0613
  H  H138  1  0.603900  0.595200  0.541700  1.0  0.1036
  H  H139  1  0.712500  0.645200  0.631300  1.0  0.1005
  H  H140  1  0.722500  0.547100  0.648700  1.0  0.0802
  H  H141  1  0.740100  0.662400  0.501400  1.0  0.1095
  H  H142  1  0.747100  0.614500  0.440500  1.0  0.0645
  H  H143  1  0.579900  0.642700  0.418800  1.0  0.0609
  H  H144  1  0.568000  0.690500  0.479700  1.0  0.096
  H  H145  1  0.749500  0.866500  0.311900  1.0  0.0624
  H  H146  1  0.845200  0.853900  0.291700  1.0  0.1032
  H  H147  1  0.895200  0.962500  0.381300  1.0  0.101
  H  H148  1  0.797100  0.972500  0.398700  1.0  0.08
  H  H149  1  0.912400  0.990100  0.251400  1.0  0.109
  H  H150  1  0.864500  0.997100  0.190500  1.0  0.0636
  H  H151  1  0.892700  0.829900  0.168800  1.0  0.0615
  H  H152  1  0.940500  0.818000  0.229700  1.0  0.0946
  H  H153  1  0.249500  0.366500  0.811900  1.0  0.0624
  H  H154  1  0.345200  0.353900  0.791700  1.0  0.1032
  H  H155  1  0.395200  0.462500  0.881300  1.0  0.1003
  H  H156  1  0.297100  0.472500  0.898700  1.0  0.08
  H  H157  1  0.412400  0.490100  0.751400  1.0  0.1088
  H  H158  1  0.364500  0.497100  0.690500  1.0  0.0636
  H  H159  1  0.392700  0.329900  0.668800  1.0  0.0615
  H  H160  1  0.440500  0.318000  0.729700  1.0  0.0946
  H  H161  1  0.750500  0.133500  0.811900  1.0  0.0619
  H  H162  1  0.654800  0.146100  0.791700  1.0  0.1037
  H  H163  1  0.604800  0.037500  0.881300  1.0  0.1011
  H  H164  1  0.702900  0.027500  0.898700  1.0  0.0802
  H  H165  1  0.587600  0.009900  0.751400  1.0  0.1084
  H  H166  1  0.635500  0.002900  0.690500  1.0  0.0641
  H  H167  1  0.607300  0.170100  0.668800  1.0  0.0615
  H  H168  1  0.559500  0.182000  0.729700  1.0  0.0951
  H  H169  1  0.250500  0.633500  0.311900  1.0  0.0619
  H  H170  1  0.154800  0.646100  0.291700  1.0  0.1037
  H  H171  1  0.104800  0.537500  0.381300  1.0  0.1011
  H  H172  1  0.202900  0.527500  0.398700  1.0  0.0802
  H  H173  1  0.087600  0.509900  0.251400  1.0  0.1085
  H  H174  1  0.135500  0.502900  0.190500  1.0  0.0641
  H  H175  1  0.107300  0.670100  0.168800  1.0  0.0615
  H  H176  1  0.059500  0.682000  0.229700  1.0  0.0951
  H  H177  1  0.883500  0.999500  0.061900  1.0  0.0609
  H  H178  1  0.896100  0.095200  0.041700  1.0  0.1036
  H  H179  1  0.787500  0.145200  0.131300  1.0  0.1012
  H  H180  1  0.777500  0.047100  0.148700  1.0  0.0804
  H  H181  1  0.759900  0.162400  0.001400  1.0  0.1096
  H  H182  1  0.752900  0.114500  0.940500  1.0  0.0639
  H  H183  1  0.920100  0.142700  0.918800  1.0  0.0605
  H  H184  1  0.932000  0.190500  0.979700  1.0  0.0964
  H  H185  1  0.383500  0.499500  0.561900  1.0  0.0609
  H  H186  1  0.396100  0.595200  0.541700  1.0  0.1036
  H  H187  1  0.287500  0.645200  0.631300  1.0  0.1012
  H  H188  1  0.277500  0.547100  0.648700  1.0  0.0804
  H  H189  1  0.259900  0.662400  0.501400  1.0  0.1096
  H  H190  1  0.252900  0.614500  0.440500  1.0  0.0639
  H  H191  1  0.420100  0.642700  0.418800  1.0  0.0605
  H  H192  1  0.432000  0.690500  0.479700  1.0  0.0964
  H  H193  1  0.616500  0.000500  0.561900  1.0  0.0617
  H  H194  1  0.603900  0.904800  0.541700  1.0  0.1037
  H  H195  1  0.712500  0.854800  0.631300  1.0  0.1003
  H  H196  1  0.722500  0.952900  0.648700  1.0  0.0802
  H  H197  1  0.740100  0.837600  0.501400  1.0  0.1095
  H  H198  1  0.747100  0.885500  0.440500  1.0  0.0647
  H  H199  1  0.579900  0.857300  0.418800  1.0  0.0609
  H  H200  1  0.568000  0.809500  0.479700  1.0  0.0956
  H  H201  1  0.116500  0.500500  0.061900  1.0  0.0617
  H  H202  1  0.103900  0.404800  0.041700  1.0  0.1037
  H  H203  1  0.212500  0.354800  0.131300  1.0  0.1006
  H  H204  1  0.222500  0.452900  0.148700  1.0  0.0802
  H  H205  1  0.240100  0.337600  0.001400  1.0  0.1095
  H  H206  1  0.247100  0.385500  0.940500  1.0  0.0647
  H  H207  1  0.079900  0.357300  0.918800  1.0  0.0609
  H  H208  1  0.068000  0.309500  0.979700  1.0  0.0956
  H  H209  1  0.750500  0.866500  0.188100  1.0  0.0624
  H  H210  1  0.654800  0.853900  0.208300  1.0  0.104
  H  H211  1  0.604800  0.962500  0.118700  1.0  0.1018
  H  H212  1  0.702900  0.972500  0.101300  1.0  0.0793
  H  H213  1  0.587600  0.990100  0.248600  1.0  0.11
  H  H214  1  0.635500  0.997100  0.309500  1.0  0.0635
  H  H215  1  0.607300  0.829900  0.331200  1.0  0.062
  H  H216  1  0.559500  0.818000  0.270300  1.0  0.0952
  H  H217  1  0.250500  0.366500  0.688100  1.0  0.0624
  H  H218  1  0.154800  0.353900  0.708300  1.0  0.104
  H  H219  1  0.104800  0.462500  0.618700  1.0  0.101
  H  H220  1  0.202900  0.472500  0.601300  1.0  0.0793
  H  H221  1  0.087600  0.490100  0.748600  1.0  0.1098
  H  H222  1  0.135500  0.497100  0.809500  1.0  0.0635
  H  H223  1  0.107300  0.329900  0.831200  1.0  0.062
  H  H224  1  0.059500  0.318000  0.770300  1.0  0.0952
  H  H225  1  0.749500  0.133500  0.688100  1.0  0.0625
  H  H226  1  0.845200  0.146100  0.708300  1.0  0.1035
  H  H227  1  0.895200  0.037500  0.618700  1.0  0.1008
  H  H228  1  0.797100  0.027500  0.601300  1.0  0.0797
  H  H229  1  0.912400  0.009900  0.748600  1.0  0.1082
  H  H230  1  0.864500  0.002900  0.809500  1.0  0.0631
  H  H231  1  0.892700  0.170100  0.831200  1.0  0.0619
  H  H232  1  0.940500  0.182000  0.770300  1.0  0.0953
  H  H233  1  0.249500  0.633500  0.188100  1.0  0.0625
  H  H234  1  0.345200  0.646100  0.208300  1.0  0.1035
  H  H235  1  0.395200  0.537500  0.118700  1.0  0.1005
  H  H236  1  0.297100  0.527500  0.101300  1.0  0.0797
  H  H237  1  0.412400  0.509900  0.248600  1.0  0.1082
  H  H238  1  0.364500  0.502900  0.309500  1.0  0.0631
  H  H239  1  0.392700  0.670100  0.331200  1.0  0.0619
  H  H240  1  0.440500  0.682000  0.270300  1.0  0.0953
  H  H241  1  0.616500  0.999500  0.438100  1.0  0.0619
  H  H242  1  0.603900  0.095200  0.458300  1.0  0.1046
  H  H243  1  0.712500  0.145200  0.368700  1.0  0.1011
  H  H244  1  0.722500  0.047100  0.351300  1.0  0.0796
  H  H245  1  0.740100  0.162400  0.498600  1.0  0.11
  H  H246  1  0.747100  0.114500  0.559500  1.0  0.0637
  H  H247  1  0.579900  0.142700  0.581200  1.0  0.0615
  H  H248  1  0.568000  0.190500  0.520300  1.0  0.0963
  H  H249  1  0.116500  0.499500  0.938100  1.0  0.0619
  H  H250  1  0.103900  0.595200  0.958300  1.0  0.1046
  H  H251  1  0.212500  0.645200  0.868700  1.0  0.101
  H  H252  1  0.222500  0.547100  0.851300  1.0  0.0796
  H  H253  1  0.240100  0.662400  0.998600  1.0  0.11
  H  H254  1  0.247100  0.614500  0.059500  1.0  0.0637
  H  H255  1  0.079900  0.642700  0.081200  1.0  0.0615
  H  H256  1  0.068000  0.690500  0.020300  1.0  0.0963
  H  H257  1  0.883500  0.000500  0.938100  1.0  0.0605
  H  H258  1  0.896100  0.904800  0.958300  1.0  0.1039
  H  H259  1  0.787500  0.854800  0.868700  1.0  0.1002
  H  H260  1  0.777500  0.952900  0.851300  1.0  0.08
  H  H261  1  0.759900  0.837600  0.998600  1.0  0.1099
  H  H262  1  0.752900  0.885500  0.059500  1.0  0.0638
  H  H263  1  0.920100  0.857300  0.081200  1.0  0.0609
  H  H264  1  0.932000  0.809500  0.020300  1.0  0.0967
  H  H265  1  0.383500  0.500500  0.438100  1.0  0.0605
  H  H266  1  0.396100  0.404800  0.458300  1.0  0.1039
  H  H267  1  0.287500  0.354800  0.368700  1.0  0.1002
  H  H268  1  0.277500  0.452900  0.351300  1.0  0.08
  H  H269  1  0.259900  0.337600  0.498600  1.0  0.1099
  H  H270  1  0.252900  0.385500  0.559500  1.0  0.0638
  H  H271  1  0.420100  0.357300  0.581200  1.0  0.0609
  H  H272  1  0.432000  0.309500  0.520300  1.0  0.0967
  C  C273  1  0.220200  0.113900  0.673550  1.0  0.1523
  C  C274  1  0.163300  0.121300  0.686130  1.0  -0.2251
  C  C275  1  0.117700  0.092000  0.666100  1.0  0.0236
  C  C276  1  0.134300  0.057600  0.633690  1.0  -0.1678
  C  C277  1  0.192820  0.052400  0.623120  1.0  0.13
  C  C278  1  0.055200  0.096000  0.678300  1.0  -0.1734
  C  C279  1  0.032070  0.100500  0.715670  1.0  -0.0084
  C  C280  1  0.067000  0.096500  0.753130  1.0  0.0675
  C  C281  1  0.090900  0.044000  0.765070  1.0  -0.2012
  C  C282  1  0.120300  0.040400  0.801510  1.0  0.1386
  C  C283  1  0.104100  0.136900  0.813970  1.0  0.136
  C  C284  1  0.074400  0.144100  0.777750  1.0  -0.1853
  C  C285  1  0.720200  0.613900  0.173550  1.0  0.1523
  C  C286  1  0.663300  0.621300  0.186130  1.0  -0.2251
  C  C287  1  0.617700  0.592000  0.166100  1.0  0.0236
  C  C288  1  0.634300  0.557600  0.133690  1.0  -0.1678
  C  C289  1  0.692820  0.552400  0.123120  1.0  0.13
  C  C290  1  0.555200  0.596000  0.178300  1.0  -0.1734
  C  C291  1  0.532070  0.600500  0.215670  1.0  -0.0084
  C  C292  1  0.567000  0.596500  0.253130  1.0  0.0675
  C  C293  1  0.590900  0.544000  0.265070  1.0  -0.2012
  C  C294  1  0.620300  0.540400  0.301510  1.0  0.1386
  C  C295  1  0.604100  0.636900  0.313970  1.0  0.136
  C  C296  1  0.574400  0.644100  0.277750  1.0  -0.1853
  C  C297  1  0.279800  0.886100  0.173550  1.0  0.1532
  C  C298  1  0.336700  0.878700  0.186130  1.0  -0.2236
  C  C299  1  0.382300  0.908000  0.166100  1.0  0.0251
  C  C300  1  0.365700  0.942400  0.133690  1.0  -0.1691
  C  C301  1  0.307180  0.947600  0.123120  1.0  0.132
  C  C302  1  0.444800  0.904000  0.178300  1.0  -0.1734
  C  C303  1  0.467930  0.899500  0.215670  1.0  -0.0088
  C  C304  1  0.433000  0.903500  0.253130  1.0  0.0665
  C  C305  1  0.409100  0.956000  0.265070  1.0  -0.2022
  C  C306  1  0.379700  0.959600  0.301510  1.0  0.1384
  C  C307  1  0.395900  0.863100  0.313970  1.0  0.1354
  C  C308  1  0.425600  0.855900  0.277750  1.0  -0.185
  C  C309  1  0.779800  0.386100  0.673550  1.0  0.1532
  C  C310  1  0.836700  0.378700  0.686130  1.0  -0.2236
  C  C311  1  0.882300  0.408000  0.666100  1.0  0.0251
  C  C312  1  0.865700  0.442400  0.633690  1.0  -0.1691
  C  C313  1  0.807180  0.447600  0.623120  1.0  0.132
  C  C314  1  0.944800  0.404000  0.678300  1.0  -0.1734
  C  C315  1  0.967930  0.399500  0.715670  1.0  -0.0088
  C  C316  1  0.933000  0.403500  0.753130  1.0  0.0665
  C  C317  1  0.909100  0.456000  0.765070  1.0  -0.2022
  C  C318  1  0.879700  0.459600  0.801510  1.0  0.1384
  C  C319  1  0.895900  0.363100  0.813970  1.0  0.1354
  C  C320  1  0.925600  0.355900  0.777750  1.0  -0.185
  C  C321  1  0.136100  0.970200  0.923550  1.0  0.1542
  C  C322  1  0.128700  0.913300  0.936130  1.0  -0.2233
  C  C323  1  0.158000  0.867700  0.916100  1.0  0.0241
  C  C324  1  0.192400  0.884300  0.883690  1.0  -0.1719
  C  C325  1  0.197600  0.942820  0.873120  1.0  0.1286
  C  C326  1  0.154000  0.805200  0.928300  1.0  -0.1735
  C  C327  1  0.149500  0.782070  0.965670  1.0  -0.0084
  C  C328  1  0.153500  0.817000  0.003130  1.0  0.0671
  C  C329  1  0.206000  0.840900  0.015070  1.0  -0.1993
  C  C330  1  0.209600  0.870300  0.051510  1.0  0.1415
  C  C331  1  0.113100  0.854100  0.063970  1.0  0.1371
  C  C332  1  0.105900  0.824400  0.027750  1.0  -0.1848
  C  C333  1  0.636100  0.470200  0.423550  1.0  0.1542
  C  C334  1  0.628700  0.413300  0.436130  1.0  -0.2233
  C  C335  1  0.658000  0.367700  0.416100  1.0  0.0241
  C  C336  1  0.692400  0.384300  0.383690  1.0  -0.1719
  C  C337  1  0.697600  0.442820  0.373120  1.0  0.1286
  C  C338  1  0.654000  0.305200  0.428300  1.0  -0.1735
  C  C339  1  0.649500  0.282070  0.465670  1.0  -0.0084
  C  C340  1  0.653500  0.317000  0.503130  1.0  0.0671
  C  C341  1  0.706000  0.340900  0.515070  1.0  -0.1993
  C  C342  1  0.709600  0.370300  0.551510  1.0  0.1415
  C  C343  1  0.613100  0.354100  0.563970  1.0  0.1371
  C  C344  1  0.605900  0.324400  0.527750  1.0  -0.1848
  C  C345  1  0.363900  0.029800  0.423550  1.0  0.1526
  C  C346  1  0.371300  0.086700  0.436130  1.0  -0.2232
  C  C347  1  0.342000  0.132300  0.416100  1.0  0.0246
  C  C348  1  0.307600  0.115700  0.383690  1.0  -0.1708
  C  C349  1  0.302400  0.057180  0.373120  1.0  0.1303
  C  C350  1  0.346000  0.194800  0.428300  1.0  -0.1736
  C  C351  1  0.350500  0.217930  0.465670  1.0  -0.0083
  C  C352  1  0.346500  0.183000  0.503130  1.0  0.0671
  C  C353  1  0.294000  0.159100  0.515070  1.0  -0.2015
  C  C354  1  0.290400  0.129700  0.551510  1.0  0.1411
  C  C355  1  0.386900  0.145900  0.563970  1.0  0.1371
  C  C356  1  0.394100  0.175600  0.527750  1.0  -0.1824
  C  C357  1  0.863900  0.529800  0.923550  1.0  0.1526
  C  C358  1  0.871300  0.586700  0.936130  1.0  -0.2232
  C  C359  1  0.842000  0.632300  0.916100  1.0  0.0246
  C  C360  1  0.807600  0.615700  0.883690  1.0  -0.1708
  C  C361  1  0.802400  0.557180  0.873120  1.0  0.1303
  C  C362  1  0.846000  0.694800  0.928300  1.0  -0.1736
  C  C363  1  0.850500  0.717930  0.965670  1.0  -0.0083
  C  C364  1  0.846500  0.683000  0.003130  1.0  0.0671
  C  C365  1  0.794000  0.659100  0.015070  1.0  -0.2015
  C  C366  1  0.790400  0.629700  0.051510  1.0  0.1411
  C  C367  1  0.886900  0.645900  0.063970  1.0  0.1371
  C  C368  1  0.894100  0.675600  0.027750  1.0  -0.1824
  C  C369  1  0.279800  0.113900  0.826450  1.0  0.1527
  C  C370  1  0.336700  0.121300  0.813870  1.0  -0.2248
  C  C371  1  0.382300  0.092000  0.833900  1.0  0.0256
  C  C372  1  0.365700  0.057600  0.866310  1.0  -0.1681
  C  C373  1  0.307180  0.052400  0.876880  1.0  0.1324
  C  C374  1  0.444800  0.096000  0.821700  1.0  -0.1738
  C  C375  1  0.467930  0.100500  0.784330  1.0  -0.0086
  C  C376  1  0.433000  0.096500  0.746870  1.0  0.0671
  C  C377  1  0.409100  0.044000  0.734930  1.0  -0.2019
  C  C378  1  0.379700  0.040400  0.698490  1.0  0.138
  C  C379  1  0.395900  0.136900  0.686030  1.0  0.1364
  C  C380  1  0.425600  0.144100  0.722250  1.0  -0.1857
  C  C381  1  0.779800  0.613900  0.326450  1.0  0.1527
  C  C382  1  0.836700  0.621300  0.313870  1.0  -0.2248
  C  C383  1  0.882300  0.592000  0.333900  1.0  0.0256
  C  C384  1  0.865700  0.557600  0.366310  1.0  -0.1681
  C  C385  1  0.807180  0.552400  0.376880  1.0  0.1324
  C  C386  1  0.944800  0.596000  0.321700  1.0  -0.1738
  C  C387  1  0.967930  0.600500  0.284330  1.0  -0.0086
  C  C388  1  0.933000  0.596500  0.246870  1.0  0.0671
  C  C389  1  0.909100  0.544000  0.234930  1.0  -0.2019
  C  C390  1  0.879700  0.540400  0.198490  1.0  0.138
  C  C391  1  0.895900  0.636900  0.186030  1.0  0.1364
  C  C392  1  0.925600  0.644100  0.222250  1.0  -0.1857
  C  C393  1  0.220200  0.886100  0.326450  1.0  0.1527
  C  C394  1  0.163300  0.878700  0.313870  1.0  -0.2238
  C  C395  1  0.117700  0.908000  0.333900  1.0  0.0245
  C  C396  1  0.134300  0.942400  0.366310  1.0  -0.1696
  C  C397  1  0.192820  0.947600  0.376880  1.0  0.1302
  C  C398  1  0.055200  0.904000  0.321700  1.0  -0.1742
  C  C399  1  0.032070  0.899500  0.284330  1.0  -0.0079
  C  C400  1  0.067000  0.903500  0.246870  1.0  0.067
  C  C401  1  0.090900  0.956000  0.234930  1.0  -0.2017
  C  C402  1  0.120300  0.959600  0.198490  1.0  0.1386
  C  C403  1  0.104100  0.863100  0.186030  1.0  0.1351
  C  C404  1  0.074400  0.855900  0.222250  1.0  -0.1858
  C  C405  1  0.720200  0.386100  0.826450  1.0  0.1527
  C  C406  1  0.663300  0.378700  0.813870  1.0  -0.2238
  C  C407  1  0.617700  0.408000  0.833900  1.0  0.0245
  C  C408  1  0.634300  0.442400  0.866310  1.0  -0.1696
  C  C409  1  0.692820  0.447600  0.876880  1.0  0.1302
  C  C410  1  0.555200  0.404000  0.821700  1.0  -0.1742
  C  C411  1  0.532070  0.399500  0.784330  1.0  -0.0079
  C  C412  1  0.567000  0.403500  0.746870  1.0  0.067
  C  C413  1  0.590900  0.456000  0.734930  1.0  -0.2017
  C  C414  1  0.620300  0.459600  0.698490  1.0  0.1386
  C  C415  1  0.604100  0.363100  0.686030  1.0  0.1351
  C  C416  1  0.574400  0.355900  0.722250  1.0  -0.1858
  C  C417  1  0.363900  0.970200  0.576450  1.0  0.1531
  C  C418  1  0.371300  0.913300  0.563870  1.0  -0.2232
  C  C419  1  0.342000  0.867700  0.583900  1.0  0.0245
  C  C420  1  0.307600  0.884300  0.616310  1.0  -0.1706
  C  C421  1  0.302400  0.942820  0.626880  1.0  0.1301
  C  C422  1  0.346000  0.805200  0.571700  1.0  -0.1738
  C  C423  1  0.350500  0.782070  0.534330  1.0  -0.008
  C  C424  1  0.346500  0.817000  0.496870  1.0  0.0673
  C  C425  1  0.294000  0.840900  0.484930  1.0  -0.2017
  C  C426  1  0.290400  0.870300  0.448490  1.0  0.1409
  C  C427  1  0.386900  0.854100  0.436030  1.0  0.1373
  C  C428  1  0.394100  0.824400  0.472250  1.0  -0.1834
  C  C429  1  0.863900  0.470200  0.076450  1.0  0.1531
  C  C430  1  0.871300  0.413300  0.063870  1.0  -0.2232
  C  C431  1  0.842000  0.367700  0.083900  1.0  0.0245
  C  C432  1  0.807600  0.384300  0.116310  1.0  -0.1706
  C  C433  1  0.802400  0.442820  0.126880  1.0  0.1301
  C  C434  1  0.846000  0.305200  0.071700  1.0  -0.1738
  C  C435  1  0.850500  0.282070  0.034330  1.0  -0.008
  C  C436  1  0.846500  0.317000  0.996870  1.0  0.0673
  C  C437  1  0.794000  0.340900  0.984930  1.0  -0.2017
  C  C438  1  0.790400  0.370300  0.948490  1.0  0.1409
  C  C439  1  0.886900  0.354100  0.936030  1.0  0.1373
  C  C440  1  0.894100  0.324400  0.972250  1.0  -0.1834
  C  C441  1  0.136100  0.029800  0.076450  1.0  0.153
  C  C442  1  0.128700  0.086700  0.063870  1.0  -0.2234
  C  C443  1  0.158000  0.132300  0.083900  1.0  0.0254
  C  C444  1  0.192400  0.115700  0.116310  1.0  -0.1716
  C  C445  1  0.197600  0.057180  0.126880  1.0  0.1295
  C  C446  1  0.154000  0.194800  0.071700  1.0  -0.1746
  C  C447  1  0.149500  0.217930  0.034330  1.0  -0.0083
  C  C448  1  0.153500  0.183000  0.996870  1.0  0.0672
  C  C449  1  0.206000  0.159100  0.984930  1.0  -0.1984
  C  C450  1  0.209600  0.129700  0.948490  1.0  0.1404
  C  C451  1  0.113100  0.145900  0.936030  1.0  0.1375
  C  C452  1  0.105900  0.175600  0.972250  1.0  -0.1848
  C  C453  1  0.636100  0.529800  0.576450  1.0  0.153
  C  C454  1  0.628700  0.586700  0.563870  1.0  -0.2234
  C  C455  1  0.658000  0.632300  0.583900  1.0  0.0254
  C  C456  1  0.692400  0.615700  0.616310  1.0  -0.1716
  C  C457  1  0.697600  0.557180  0.626880  1.0  0.1295
  C  C458  1  0.654000  0.694800  0.571700  1.0  -0.1746
  C  C459  1  0.649500  0.717930  0.534330  1.0  -0.0083
  C  C460  1  0.653500  0.683000  0.496870  1.0  0.0672
  C  C461  1  0.706000  0.659100  0.484930  1.0  -0.1984
  C  C462  1  0.709600  0.629700  0.448490  1.0  0.1404
  C  C463  1  0.613100  0.645900  0.436030  1.0  0.1375
  C  C464  1  0.605900  0.675600  0.472250  1.0  -0.1848
  C  C465  1  0.779800  0.886100  0.326450  1.0  0.1531
  C  C466  1  0.836700  0.878700  0.313870  1.0  -0.2241
  C  C467  1  0.882300  0.908000  0.333900  1.0  0.0255
  C  C468  1  0.865700  0.942400  0.366310  1.0  -0.1685
  C  C469  1  0.807180  0.947600  0.376880  1.0  0.132
  C  C470  1  0.944800  0.904000  0.321700  1.0  -0.1759
  C  C471  1  0.967930  0.899500  0.284330  1.0  -0.0083
  C  C472  1  0.933000  0.903500  0.246870  1.0  0.0665
  C  C473  1  0.909100  0.956000  0.234930  1.0  -0.2026
  C  C474  1  0.879700  0.959600  0.198490  1.0  0.1382
  C  C475  1  0.895900  0.863100  0.186030  1.0  0.135
  C  C476  1  0.925600  0.855900  0.222250  1.0  -0.1856
  C  C477  1  0.279800  0.386100  0.826450  1.0  0.1531
  C  C478  1  0.336700  0.378700  0.813870  1.0  -0.2241
  C  C479  1  0.382300  0.408000  0.833900  1.0  0.0255
  C  C480  1  0.365700  0.442400  0.866310  1.0  -0.1685
  C  C481  1  0.307180  0.447600  0.876880  1.0  0.132
  C  C482  1  0.444800  0.404000  0.821700  1.0  -0.1759
  C  C483  1  0.467930  0.399500  0.784330  1.0  -0.0083
  C  C484  1  0.433000  0.403500  0.746870  1.0  0.0665
  C  C485  1  0.409100  0.456000  0.734930  1.0  -0.2026
  C  C486  1  0.379700  0.459600  0.698490  1.0  0.1382
  C  C487  1  0.395900  0.363100  0.686030  1.0  0.135
  C  C488  1  0.425600  0.355900  0.722250  1.0  -0.1856
  C  C489  1  0.720200  0.113900  0.826450  1.0  0.1523
  C  C490  1  0.663300  0.121300  0.813870  1.0  -0.2247
  C  C491  1  0.617700  0.092000  0.833900  1.0  0.0247
  C  C492  1  0.634300  0.057600  0.866310  1.0  -0.1682
  C  C493  1  0.692820  0.052400  0.876880  1.0  0.1304
  C  C494  1  0.555200  0.096000  0.821700  1.0  -0.176
  C  C495  1  0.532070  0.100500  0.784330  1.0  -0.0081
  C  C496  1  0.567000  0.096500  0.746870  1.0  0.0675
  C  C497  1  0.590900  0.044000  0.734930  1.0  -0.2016
  C  C498  1  0.620300  0.040400  0.698490  1.0  0.1385
  C  C499  1  0.604100  0.136900  0.686030  1.0  0.1367
  C  C500  1  0.574400  0.144100  0.722250  1.0  -0.1858
  C  C501  1  0.220200  0.613900  0.326450  1.0  0.1523
  C  C502  1  0.163300  0.621300  0.313870  1.0  -0.2247
  C  C503  1  0.117700  0.592000  0.333900  1.0  0.0247
  C  C504  1  0.134300  0.557600  0.366310  1.0  -0.1682
  C  C505  1  0.192820  0.552400  0.376880  1.0  0.1304
  C  C506  1  0.055200  0.596000  0.321700  1.0  -0.176
  C  C507  1  0.032070  0.600500  0.284330  1.0  -0.0081
  C  C508  1  0.067000  0.596500  0.246870  1.0  0.0675
  C  C509  1  0.090900  0.544000  0.234930  1.0  -0.2016
  C  C510  1  0.120300  0.540400  0.198490  1.0  0.1385
  C  C511  1  0.104100  0.636900  0.186030  1.0  0.1367
  C  C512  1  0.074400  0.644100  0.222250  1.0  -0.1858
  C  C513  1  0.863900  0.029800  0.076450  1.0  0.152
  C  C514  1  0.871300  0.086700  0.063870  1.0  -0.2231
  C  C515  1  0.842000  0.132300  0.083900  1.0  0.0255
  C  C516  1  0.807600  0.115700  0.116310  1.0  -0.1722
  C  C517  1  0.802400  0.057180  0.126880  1.0  0.1307
  C  C518  1  0.846000  0.194800  0.071700  1.0  -0.1762
  C  C519  1  0.850500  0.217930  0.034330  1.0  -0.0082
  C  C520  1  0.846500  0.183000  0.996870  1.0  0.0668
  C  C521  1  0.794000  0.159100  0.984930  1.0  -0.2017
  C  C522  1  0.790400  0.129700  0.948490  1.0  0.1407
  C  C523  1  0.886900  0.145900  0.936030  1.0  0.1372
  C  C524  1  0.894100  0.175600  0.972250  1.0  -0.1828
  C  C525  1  0.363900  0.529800  0.576450  1.0  0.152
  C  C526  1  0.371300  0.586700  0.563870  1.0  -0.2231
  C  C527  1  0.342000  0.632300  0.583900  1.0  0.0255
  C  C528  1  0.307600  0.615700  0.616310  1.0  -0.1722
  C  C529  1  0.302400  0.557180  0.626880  1.0  0.1307
  C  C530  1  0.346000  0.694800  0.571700  1.0  -0.1762
  C  C531  1  0.350500  0.717930  0.534330  1.0  -0.0082
  C  C532  1  0.346500  0.683000  0.496870  1.0  0.0668
  C  C533  1  0.294000  0.659100  0.484930  1.0  -0.2017
  C  C534  1  0.290400  0.629700  0.448490  1.0  0.1407
  C  C535  1  0.386900  0.645900  0.436030  1.0  0.1372
  C  C536  1  0.394100  0.675600  0.472250  1.0  -0.1828
  C  C537  1  0.636100  0.970200  0.576450  1.0  0.154
  C  C538  1  0.628700  0.913300  0.563870  1.0  -0.2233
  C  C539  1  0.658000  0.867700  0.583900  1.0  0.0244
  C  C540  1  0.692400  0.884300  0.616310  1.0  -0.1706
  C  C541  1  0.697600  0.942820  0.626880  1.0  0.1285
  C  C542  1  0.654000  0.805200  0.571700  1.0  -0.1763
  C  C543  1  0.649500  0.782070  0.534330  1.0  -0.0082
  C  C544  1  0.653500  0.817000  0.496870  1.0  0.0678
  C  C545  1  0.706000  0.840900  0.484930  1.0  -0.1986
  C  C546  1  0.709600  0.870300  0.448490  1.0  0.1409
  C  C547  1  0.613100  0.854100  0.436030  1.0  0.1376
  C  C548  1  0.605900  0.824400  0.472250  1.0  -0.1853
  C  C549  1  0.136100  0.470200  0.076450  1.0  0.154
  C  C550  1  0.128700  0.413300  0.063870  1.0  -0.2233
  C  C551  1  0.158000  0.367700  0.083900  1.0  0.0244
  C  C552  1  0.192400  0.384300  0.116310  1.0  -0.1706
  C  C553  1  0.197600  0.442820  0.126880  1.0  0.1285
  C  C554  1  0.154000  0.305200  0.071700  1.0  -0.1763
  C  C555  1  0.149500  0.282070  0.034330  1.0  -0.0082
  C  C556  1  0.153500  0.317000  0.996870  1.0  0.0678
  C  C557  1  0.206000  0.340900  0.984930  1.0  -0.1986
  C  C558  1  0.209600  0.370300  0.948490  1.0  0.1409
  C  C559  1  0.113100  0.354100  0.936030  1.0  0.1376
  C  C560  1  0.105900  0.324400  0.972250  1.0  -0.1853
  C  C561  1  0.720200  0.886100  0.173550  1.0  0.1533
  C  C562  1  0.663300  0.878700  0.186130  1.0  -0.2239
  C  C563  1  0.617700  0.908000  0.166100  1.0  0.0235
  C  C564  1  0.634300  0.942400  0.133690  1.0  -0.1685
  C  C565  1  0.692820  0.947600  0.123120  1.0  0.13
  C  C566  1  0.555200  0.904000  0.178300  1.0  -0.1755
  C  C567  1  0.532070  0.899500  0.215670  1.0  -0.0084
  C  C568  1  0.567000  0.903500  0.253130  1.0  0.0669
  C  C569  1  0.590900  0.956000  0.265070  1.0  -0.2014
  C  C570  1  0.620300  0.959600  0.301510  1.0  0.1385
  C  C571  1  0.604100  0.863100  0.313970  1.0  0.1357
  C  C572  1  0.574400  0.855900  0.277750  1.0  -0.1851
  C  C573  1  0.220200  0.386100  0.673550  1.0  0.1533
  C  C574  1  0.163300  0.378700  0.686130  1.0  -0.2239
  C  C575  1  0.117700  0.408000  0.666100  1.0  0.0235
  C  C576  1  0.134300  0.442400  0.633690  1.0  -0.1685
  C  C577  1  0.192820  0.447600  0.623120  1.0  0.13
  C  C578  1  0.055200  0.404000  0.678300  1.0  -0.1755
  C  C579  1  0.032070  0.399500  0.715670  1.0  -0.0084
  C  C580  1  0.067000  0.403500  0.753130  1.0  0.0669
  C  C581  1  0.090900  0.456000  0.765070  1.0  -0.2014
  C  C582  1  0.120300  0.459600  0.801510  1.0  0.1385
  C  C583  1  0.104100  0.363100  0.813970  1.0  0.1357
  C  C584  1  0.074400  0.355900  0.777750  1.0  -0.1851
  C  C585  1  0.779800  0.113900  0.673550  1.0  0.1522
  C  C586  1  0.836700  0.121300  0.686130  1.0  -0.2249
  C  C587  1  0.882300  0.092000  0.666100  1.0  0.0251
  C  C588  1  0.865700  0.057600  0.633690  1.0  -0.1691
  C  C589  1  0.807180  0.052400  0.623120  1.0  0.1319
  C  C590  1  0.944800  0.096000  0.678300  1.0  -0.1758
  C  C591  1  0.967930  0.100500  0.715670  1.0  -0.0088
  C  C592  1  0.933000  0.096500  0.753130  1.0  0.0671
  C  C593  1  0.909100  0.044000  0.765070  1.0  -0.2013
  C  C594  1  0.879700  0.040400  0.801510  1.0  0.1383
  C  C595  1  0.895900  0.136900  0.813970  1.0  0.1354
  C  C596  1  0.925600  0.144100  0.777750  1.0  -0.1851
  C  C597  1  0.279800  0.613900  0.173550  1.0  0.1522
  C  C598  1  0.336700  0.621300  0.186130  1.0  -0.2249
  C  C599  1  0.382300  0.592000  0.166100  1.0  0.0251
  C  C600  1  0.365700  0.557600  0.133690  1.0  -0.1691
  C  C601  1  0.307180  0.552400  0.123120  1.0  0.1319
  C  C602  1  0.444800  0.596000  0.178300  1.0  -0.1758
  C  C603  1  0.467930  0.600500  0.215670  1.0  -0.0088
  C  C604  1  0.433000  0.596500  0.253130  1.0  0.0671
  C  C605  1  0.409100  0.544000  0.265070  1.0  -0.2013
  C  C606  1  0.379700  0.540400  0.301510  1.0  0.1383
  C  C607  1  0.395900  0.636900  0.313970  1.0  0.1354
  C  C608  1  0.425600  0.644100  0.277750  1.0  -0.1851
  C  C609  1  0.636100  0.029800  0.423550  1.0  0.1536
  C  C610  1  0.628700  0.086700  0.436130  1.0  -0.223
  C  C611  1  0.658000  0.132300  0.416100  1.0  0.0245
  C  C612  1  0.692400  0.115700  0.383690  1.0  -0.1724
  C  C613  1  0.697600  0.057180  0.373120  1.0  0.129
  C  C614  1  0.654000  0.194800  0.428300  1.0  -0.1761
  C  C615  1  0.649500  0.217930  0.465670  1.0  -0.0084
  C  C616  1  0.653500  0.183000  0.503130  1.0  0.0674
  C  C617  1  0.706000  0.159100  0.515070  1.0  -0.1992
  C  C618  1  0.709600  0.129700  0.551510  1.0  0.1411
  C  C619  1  0.613100  0.145900  0.563970  1.0  0.1373
  C  C620  1  0.605900  0.175600  0.527750  1.0  -0.184
  C  C621  1  0.136100  0.529800  0.923550  1.0  0.1536
  C  C622  1  0.128700  0.586700  0.936130  1.0  -0.223
  C  C623  1  0.158000  0.632300  0.916100  1.0  0.0245
  C  C624  1  0.192400  0.615700  0.883690  1.0  -0.1724
  C  C625  1  0.197600  0.557180  0.873120  1.0  0.129
  C  C626  1  0.154000  0.694800  0.928300  1.0  -0.1761
  C  C627  1  0.149500  0.717930  0.965670  1.0  -0.0084
  C  C628  1  0.153500  0.683000  0.003130  1.0  0.0674
  C  C629  1  0.206000  0.659100  0.015070  1.0  -0.1992
  C  C630  1  0.209600  0.629700  0.051510  1.0  0.1411
  C  C631  1  0.113100  0.645900  0.063970  1.0  0.1373
  C  C632  1  0.105900  0.675600  0.027750  1.0  -0.184
  C  C633  1  0.863900  0.970200  0.923550  1.0  0.1535
  C  C634  1  0.871300  0.913300  0.936130  1.0  -0.2236
  C  C635  1  0.842000  0.867700  0.916100  1.0  0.0243
  C  C636  1  0.807600  0.884300  0.883690  1.0  -0.1705
  C  C637  1  0.802400  0.942820  0.873120  1.0  0.1303
  C  C638  1  0.846000  0.805200  0.928300  1.0  -0.1753
  C  C639  1  0.850500  0.782070  0.965670  1.0  -0.0083
  C  C640  1  0.846500  0.817000  0.003130  1.0  0.0667
  C  C641  1  0.794000  0.840900  0.015070  1.0  -0.2015
  C  C642  1  0.790400  0.870300  0.051510  1.0  0.1411
  C  C643  1  0.886900  0.854100  0.063970  1.0  0.137
  C  C644  1  0.894100  0.824400  0.027750  1.0  -0.1831
  C  C645  1  0.363900  0.470200  0.423550  1.0  0.1535
  C  C646  1  0.371300  0.413300  0.436130  1.0  -0.2236
  C  C647  1  0.342000  0.367700  0.416100  1.0  0.0243
  C  C648  1  0.307600  0.384300  0.383690  1.0  -0.1705
  C  C649  1  0.302400  0.442820  0.373120  1.0  0.1303
  C  C650  1  0.346000  0.305200  0.428300  1.0  -0.1753
  C  C651  1  0.350500  0.282070  0.465670  1.0  -0.0083
  C  C652  1  0.346500  0.317000  0.503130  1.0  0.0667
  C  C653  1  0.294000  0.340900  0.515070  1.0  -0.2015
  C  C654  1  0.290400  0.370300  0.551510  1.0  0.1411
  C  C655  1  0.386900  0.354100  0.563970  1.0  0.137
  C  C656  1  0.394100  0.324400  0.527750  1.0  -0.1831
  S  S657  1  0.000000  0.093210  0.642750  1.0  0.1032
  S  S658  1  0.500000  0.593210  0.142750  1.0  0.1032
  S  S659  1  0.500000  0.906790  0.142750  1.0  0.1032
  S  S660  1  0.000000  0.406790  0.642750  1.0  0.1032
  S  S661  1  0.156790  0.750000  0.892750  1.0  0.1027
  S  S662  1  0.343210  0.250000  0.392750  1.0  0.1027
  S  S663  1  0.500000  0.093210  0.857250  1.0  0.1071
  S  S664  1  0.000000  0.593210  0.357250  1.0  0.1071
  S  S665  1  0.000000  0.906790  0.357250  1.0  0.1061
  S  S666  1  0.500000  0.406790  0.857250  1.0  0.1061
  S  S667  1  0.343210  0.750000  0.607250  1.0  0.1061
  S  S668  1  0.156790  0.250000  0.107250  1.0  0.106
  S  S669  1  0.843210  0.250000  0.107250  1.0  0.1061
  S  S670  1  0.656790  0.750000  0.607250  1.0  0.106
  S  S671  1  0.656790  0.250000  0.392750  1.0  0.1027
  S  S672  1  0.843210  0.750000  0.892750  1.0  0.1027
  N  N673  1  0.236880  0.081350  0.642430  1.0  -0.3228
  N  N674  1  0.128030  0.085570  0.825410  1.0  -0.3256
  N  N675  1  0.736880  0.581350  0.142430  1.0  -0.3228
  N  N676  1  0.628030  0.585570  0.325410  1.0  -0.3256
  N  N677  1  0.263120  0.918650  0.142430  1.0  -0.3223
  N  N678  1  0.371970  0.914430  0.325410  1.0  -0.3256
  N  N679  1  0.763120  0.418650  0.642430  1.0  -0.3223
  N  N680  1  0.871970  0.414430  0.825410  1.0  -0.3256
  N  N681  1  0.168650  0.986880  0.892430  1.0  -0.3221
  N  N682  1  0.164430  0.878030  0.075410  1.0  -0.3263
  N  N683  1  0.668650  0.486880  0.392430  1.0  -0.3221
  N  N684  1  0.664430  0.378030  0.575410  1.0  -0.3263
  N  N685  1  0.331350  0.013120  0.392430  1.0  -0.323
  N  N686  1  0.335570  0.121970  0.575410  1.0  -0.3266
  N  N687  1  0.831350  0.513120  0.892430  1.0  -0.323
  N  N688  1  0.835570  0.621970  0.075410  1.0  -0.3266
  N  N689  1  0.263120  0.081350  0.857570  1.0  -0.3226
  N  N690  1  0.371970  0.085570  0.674590  1.0  -0.3286
  N  N691  1  0.763120  0.581350  0.357570  1.0  -0.3226
  N  N692  1  0.871970  0.585570  0.174590  1.0  -0.3286
  N  N693  1  0.236880  0.918650  0.357570  1.0  -0.3225
  N  N694  1  0.128030  0.914430  0.174590  1.0  -0.3288
  N  N695  1  0.736880  0.418650  0.857570  1.0  -0.3225
  N  N696  1  0.628030  0.414430  0.674590  1.0  -0.3288
  N  N697  1  0.331350  0.986880  0.607570  1.0  -0.3224
  N  N698  1  0.335570  0.878030  0.424590  1.0  -0.3295
  N  N699  1  0.831350  0.486880  0.107570  1.0  -0.3224
  N  N700  1  0.835570  0.378030  0.924590  1.0  -0.3295
  N  N701  1  0.168650  0.013120  0.107570  1.0  -0.3231
  N  N702  1  0.164430  0.121970  0.924590  1.0  -0.3306
  N  N703  1  0.668650  0.513120  0.607570  1.0  -0.3231
  N  N704  1  0.664430  0.621970  0.424590  1.0  -0.3306
  N  N705  1  0.763120  0.918650  0.357570  1.0  -0.3225
  N  N706  1  0.871970  0.914430  0.174590  1.0  -0.3285
  N  N707  1  0.263120  0.418650  0.857570  1.0  -0.3225
  N  N708  1  0.371970  0.414430  0.674590  1.0  -0.3285
  N  N709  1  0.736880  0.081350  0.857570  1.0  -0.3229
  N  N710  1  0.628030  0.085570  0.674590  1.0  -0.3289
  N  N711  1  0.236880  0.581350  0.357570  1.0  -0.3229
  N  N712  1  0.128030  0.585570  0.174590  1.0  -0.3289
  N  N713  1  0.831350  0.013120  0.107570  1.0  -0.3231
  N  N714  1  0.835570  0.121970  0.924590  1.0  -0.3305
  N  N715  1  0.331350  0.513120  0.607570  1.0  -0.3231
  N  N716  1  0.335570  0.621970  0.424590  1.0  -0.3305
  N  N717  1  0.668650  0.986880  0.607570  1.0  -0.3222
  N  N718  1  0.664430  0.878030  0.424590  1.0  -0.3295
  N  N719  1  0.168650  0.486880  0.107570  1.0  -0.3222
  N  N720  1  0.164430  0.378030  0.924590  1.0  -0.3295
  N  N721  1  0.736880  0.918650  0.142430  1.0  -0.3222
  N  N722  1  0.628030  0.914430  0.325410  1.0  -0.3255
  N  N723  1  0.236880  0.418650  0.642430  1.0  -0.3222
  N  N724  1  0.128030  0.414430  0.825410  1.0  -0.3255
  N  N725  1  0.763120  0.081350  0.642430  1.0  -0.3225
  N  N726  1  0.871970  0.085570  0.825410  1.0  -0.3257
  N  N727  1  0.263120  0.581350  0.142430  1.0  -0.3225
  N  N728  1  0.371970  0.585570  0.325410  1.0  -0.3257
  N  N729  1  0.668650  0.013120  0.392430  1.0  -0.323
  N  N730  1  0.664430  0.121970  0.575410  1.0  -0.3266
  N  N731  1  0.168650  0.513120  0.892430  1.0  -0.323
  N  N732  1  0.164430  0.621970  0.075410  1.0  -0.3266
  N  N733  1  0.831350  0.986880  0.892430  1.0  -0.3221
  N  N734  1  0.835570  0.878030  0.075410  1.0  -0.3264
  N  N735  1  0.331350  0.486880  0.392430  1.0  -0.3221
  N  N736  1  0.335570  0.378030  0.575410  1.0  -0.3264
