# generated using pymatgen
data_AgH16C24SN4
_symmetry_space_group_name_H-M   'P 1'
_cell_length_a   22.96300000
_cell_length_b   22.96300000
_cell_length_c   34.54600000
_cell_angle_alpha   90.00000000
_cell_angle_beta   90.00000000
_cell_angle_gamma   90.00000000
_symmetry_Int_Tables_number   1
_chemical_formula_structural   AgH16C24SN4
_chemical_formula_sum   'Ag16 H256 C384 S16 N64'
_cell_volume   18216.08400147
_cell_formula_units_Z   16
loop_
 _symmetry_equiv_pos_site_id
 _symmetry_equiv_pos_as_xyz
  1  'x, y, z'
loop_
 _atom_site_type_symbol
 _atom_site_label
 _atom_site_symmetry_multiplicity
 _atom_site_fract_x
 _atom_site_fract_y
 _atom_site_fract_z
 _atom_site_occupancy
 _atom_site_charge
  Ag  Ag1  1  0.333980  0.083980  0.625000  1.0  0.3243
  Ag  Ag2  1  0.833980  0.583980  0.125000  1.0  0.3243
  Ag  Ag3  1  0.166020  0.916020  0.125000  1.0  0.3254
  Ag  Ag4  1  0.666020  0.416020  0.625000  1.0  0.3254
  Ag  Ag5  1  0.166020  0.083980  0.875000  1.0  0.3257
  Ag  Ag6  1  0.666020  0.583980  0.375000  1.0  0.3257
  Ag  Ag7  1  0.333980  0.916020  0.375000  1.0  0.3242
  Ag  Ag8  1  0.833980  0.416020  0.875000  1.0  0.3242
  Ag  Ag9  1  0.666020  0.916020  0.375000  1.0  0.3254
  Ag  Ag10  1  0.166020  0.416020  0.875000  1.0  0.3254
  Ag  Ag11  1  0.833980  0.083980  0.875000  1.0  0.3243
  Ag  Ag12  1  0.333980  0.583980  0.375000  1.0  0.3243
  Ag  Ag13  1  0.833980  0.916020  0.125000  1.0  0.3242
  Ag  Ag14  1  0.333980  0.416020  0.625000  1.0  0.3242
  Ag  Ag15  1  0.666020  0.083980  0.625000  1.0  0.3257
  Ag  Ag16  1  0.166020  0.583980  0.125000  1.0  0.3257
  H  H17  1  0.243300  0.144800  0.680000  1.0  0.0674
  H  H18  1  0.149100  0.151000  0.699500  1.0  0.1054
  H  H19  1  0.107800  0.038500  0.615200  1.0  0.1102
  H  H20  1  0.204200  0.035600  0.599700  1.0  0.0672
  H  H21  1  0.084600  0.016000  0.745200  1.0  0.1051
  H  H22  1  0.130000  0.013100  0.802700  1.0  0.0708
  H  H23  1  0.429100  0.142900  0.567700  1.0  0.0659
  H  H24  1  0.059000  0.185300  0.760100  1.0  0.0988
  H  H25  1  0.743300  0.644800  0.180000  1.0  0.0674
  H  H26  1  0.649100  0.651000  0.199500  1.0  0.1054
  H  H27  1  0.607800  0.538500  0.115200  1.0  0.1097
  H  H28  1  0.704200  0.535600  0.099700  1.0  0.0672
  H  H29  1  0.584600  0.516000  0.245200  1.0  0.1057
  H  H30  1  0.630000  0.513100  0.302700  1.0  0.0708
  H  H31  1  0.929100  0.642900  0.067700  1.0  0.0659
  H  H32  1  0.559000  0.685300  0.260100  1.0  0.0988
  H  H33  1  0.256700  0.855200  0.180000  1.0  0.0676
  H  H34  1  0.350900  0.849000  0.199500  1.0  0.1053
  H  H35  1  0.392200  0.961500  0.115200  1.0  0.1107
  H  H36  1  0.295800  0.964400  0.099700  1.0  0.0675
  H  H37  1  0.415400  0.984000  0.245200  1.0  0.1061
  H  H38  1  0.370000  0.986900  0.302700  1.0  0.0712
  H  H39  1  0.070900  0.857100  0.067700  1.0  0.0657
  H  H40  1  0.441000  0.814700  0.260100  1.0  0.0987
  H  H41  1  0.756700  0.355200  0.680000  1.0  0.0676
  H  H42  1  0.850900  0.349000  0.699500  1.0  0.1053
  H  H43  1  0.892200  0.461500  0.615200  1.0  0.1105
  H  H44  1  0.795800  0.464400  0.599700  1.0  0.0675
  H  H45  1  0.915400  0.484000  0.745200  1.0  0.1064
  H  H46  1  0.870000  0.486900  0.802700  1.0  0.0712
  H  H47  1  0.570900  0.357100  0.567700  1.0  0.0657
  H  H48  1  0.941000  0.314700  0.760100  1.0  0.0987
  H  H49  1  0.105200  0.993300  0.930000  1.0  0.0662
  H  H50  1  0.099000  0.899100  0.949500  1.0  0.1051
  H  H51  1  0.211500  0.857800  0.865200  1.0  0.1097
  H  H52  1  0.214400  0.954200  0.849700  1.0  0.0669
  H  H53  1  0.234000  0.834600  0.995200  1.0  0.1077
  H  H54  1  0.236900  0.880000  0.052700  1.0  0.0709
  H  H55  1  0.107100  0.179100  0.817700  1.0  0.0667
  H  H56  1  0.064700  0.809000  0.010100  1.0  0.0977
  H  H57  1  0.605200  0.493300  0.430000  1.0  0.0662
  H  H58  1  0.599000  0.399100  0.449500  1.0  0.1051
  H  H59  1  0.711500  0.357800  0.365200  1.0  0.1097
  H  H60  1  0.714400  0.454200  0.349700  1.0  0.0669
  H  H61  1  0.734000  0.334600  0.495200  1.0  0.1077
  H  H62  1  0.736900  0.380000  0.552700  1.0  0.0709
  H  H63  1  0.607100  0.679100  0.317700  1.0  0.0667
  H  H64  1  0.564700  0.309000  0.510100  1.0  0.0977
  H  H65  1  0.394800  0.006700  0.430000  1.0  0.0664
  H  H66  1  0.401000  0.100900  0.449500  1.0  0.1054
  H  H67  1  0.288500  0.142200  0.365200  1.0  0.1116
  H  H68  1  0.285600  0.045800  0.349700  1.0  0.0668
  H  H69  1  0.266000  0.165400  0.495200  1.0  0.1075
  H  H70  1  0.263100  0.120000  0.552700  1.0  0.0704
  H  H71  1  0.392900  0.820900  0.317700  1.0  0.0666
  H  H72  1  0.435300  0.191000  0.510100  1.0  0.098
  H  H73  1  0.894800  0.506700  0.930000  1.0  0.0664
  H  H74  1  0.901000  0.600900  0.949500  1.0  0.1054
  H  H75  1  0.788500  0.642200  0.865200  1.0  0.11
  H  H76  1  0.785600  0.545800  0.849700  1.0  0.0668
  H  H77  1  0.766000  0.665400  0.995200  1.0  0.1075
  H  H78  1  0.763100  0.620000  0.052700  1.0  0.0704
  H  H79  1  0.892900  0.320900  0.817700  1.0  0.0666
  H  H80  1  0.935300  0.691000  0.010100  1.0  0.098
  H  H81  1  0.256700  0.144800  0.820000  1.0  0.0676
  H  H82  1  0.350900  0.151000  0.800500  1.0  0.1055
  H  H83  1  0.392200  0.038500  0.884800  1.0  0.1105
  H  H84  1  0.295800  0.035600  0.900300  1.0  0.067
  H  H85  1  0.415400  0.016000  0.754800  1.0  0.1054
  H  H86  1  0.370000  0.013100  0.697300  1.0  0.0709
  H  H87  1  0.070900  0.142900  0.932300  1.0  0.0652
  H  H88  1  0.441000  0.185300  0.739900  1.0  0.0989
  H  H89  1  0.756700  0.644800  0.320000  1.0  0.0676
  H  H90  1  0.850900  0.651000  0.300500  1.0  0.1055
  H  H91  1  0.892200  0.538500  0.384800  1.0  0.1102
  H  H92  1  0.795800  0.535600  0.400300  1.0  0.067
  H  H93  1  0.915400  0.516000  0.254800  1.0  0.106
  H  H94  1  0.870000  0.513100  0.197300  1.0  0.0709
  H  H95  1  0.570900  0.642900  0.432300  1.0  0.0652
  H  H96  1  0.941000  0.685300  0.239900  1.0  0.0989
  H  H97  1  0.243300  0.855200  0.320000  1.0  0.0674
  H  H98  1  0.149100  0.849000  0.300500  1.0  0.1055
  H  H99  1  0.107800  0.961500  0.384800  1.0  0.111
  H  H100  1  0.204200  0.964400  0.400300  1.0  0.0674
  H  H101  1  0.084600  0.984000  0.254800  1.0  0.1051
  H  H102  1  0.130000  0.986900  0.197300  1.0  0.0712
  H  H103  1  0.429100  0.857100  0.432300  1.0  0.0657
  H  H104  1  0.059000  0.814700  0.239900  1.0  0.0983
  H  H105  1  0.743300  0.355200  0.820000  1.0  0.0674
  H  H106  1  0.649100  0.349000  0.800500  1.0  0.1055
  H  H107  1  0.607800  0.461500  0.884800  1.0  0.1106
  H  H108  1  0.704200  0.464400  0.900300  1.0  0.0674
  H  H109  1  0.584600  0.484000  0.754800  1.0  0.1054
  H  H110  1  0.630000  0.486900  0.697300  1.0  0.0712
  H  H111  1  0.929100  0.357100  0.932300  1.0  0.0657
  H  H112  1  0.559000  0.314700  0.739900  1.0  0.0983
  H  H113  1  0.394800  0.993300  0.570000  1.0  0.0667
  H  H114  1  0.401000  0.899100  0.550500  1.0  0.1052
  H  H115  1  0.288500  0.857800  0.634800  1.0  0.112
  H  H116  1  0.285600  0.954200  0.650300  1.0  0.067
  H  H117  1  0.266000  0.834600  0.504800  1.0  0.1076
  H  H118  1  0.263100  0.880000  0.447300  1.0  0.0708
  H  H119  1  0.392900  0.179100  0.682300  1.0  0.0664
  H  H120  1  0.435300  0.809000  0.489900  1.0  0.098
  H  H121  1  0.894800  0.493300  0.070000  1.0  0.0667
  H  H122  1  0.901000  0.399100  0.050500  1.0  0.1052
  H  H123  1  0.788500  0.357800  0.134800  1.0  0.1103
  H  H124  1  0.785600  0.454200  0.150300  1.0  0.067
  H  H125  1  0.766000  0.334600  0.004800  1.0  0.1076
  H  H126  1  0.763100  0.380000  0.947300  1.0  0.0708
  H  H127  1  0.892900  0.679100  0.182300  1.0  0.0664
  H  H128  1  0.935300  0.309000  0.989900  1.0  0.098
  H  H129  1  0.105200  0.006700  0.070000  1.0  0.0666
  H  H130  1  0.099000  0.100900  0.050500  1.0  0.105
  H  H131  1  0.211500  0.142200  0.134800  1.0  0.1096
  H  H132  1  0.214400  0.045800  0.150300  1.0  0.067
  H  H133  1  0.234000  0.165400  0.004800  1.0  0.1073
  H  H134  1  0.236900  0.120000  0.947300  1.0  0.0709
  H  H135  1  0.107100  0.820900  0.182300  1.0  0.0664
  H  H136  1  0.064700  0.191000  0.989900  1.0  0.0964
  H  H137  1  0.605200  0.506700  0.570000  1.0  0.0666
  H  H138  1  0.599000  0.600900  0.550500  1.0  0.105
  H  H139  1  0.711500  0.642200  0.634800  1.0  0.1096
  H  H140  1  0.714400  0.545800  0.650300  1.0  0.067
  H  H141  1  0.734000  0.665400  0.504800  1.0  0.1073
  H  H142  1  0.736900  0.620000  0.447300  1.0  0.0709
  H  H143  1  0.607100  0.320900  0.682300  1.0  0.0664
  H  H144  1  0.564700  0.691000  0.489900  1.0  0.0964
  H  H145  1  0.756700  0.855200  0.320000  1.0  0.0677
  H  H146  1  0.850900  0.849000  0.300500  1.0  0.1053
  H  H147  1  0.892200  0.961500  0.384800  1.0  0.1106
  H  H148  1  0.795800  0.964400  0.400300  1.0  0.0673
  H  H149  1  0.915400  0.984000  0.254800  1.0  0.1052
  H  H150  1  0.870000  0.986900  0.197300  1.0  0.0714
  H  H151  1  0.570900  0.857100  0.432300  1.0  0.0656
  H  H152  1  0.941000  0.814700  0.239900  1.0  0.0984
  H  H153  1  0.256700  0.355200  0.820000  1.0  0.0677
  H  H154  1  0.350900  0.349000  0.800500  1.0  0.1053
  H  H155  1  0.392200  0.461500  0.884800  1.0  0.1103
  H  H156  1  0.295800  0.464400  0.900300  1.0  0.0673
  H  H157  1  0.415400  0.484000  0.754800  1.0  0.1055
  H  H158  1  0.370000  0.486900  0.697300  1.0  0.0714
  H  H159  1  0.070900  0.357100  0.932300  1.0  0.0656
  H  H160  1  0.441000  0.314700  0.739900  1.0  0.0984
  H  H161  1  0.743300  0.144800  0.820000  1.0  0.0678
  H  H162  1  0.649100  0.151000  0.800500  1.0  0.1056
  H  H163  1  0.607800  0.038500  0.884800  1.0  0.1109
  H  H164  1  0.704200  0.035600  0.900300  1.0  0.0674
  H  H165  1  0.584600  0.016000  0.754800  1.0  0.1052
  H  H166  1  0.630000  0.013100  0.697300  1.0  0.0709
  H  H167  1  0.929100  0.142900  0.932300  1.0  0.0658
  H  H168  1  0.559000  0.185300  0.739900  1.0  0.0987
  H  H169  1  0.243300  0.644800  0.320000  1.0  0.0678
  H  H170  1  0.149100  0.651000  0.300500  1.0  0.1056
  H  H171  1  0.107800  0.538500  0.384800  1.0  0.1105
  H  H172  1  0.204200  0.535600  0.400300  1.0  0.0674
  H  H173  1  0.084600  0.516000  0.254800  1.0  0.1058
  H  H174  1  0.130000  0.513100  0.197300  1.0  0.0709
  H  H175  1  0.429100  0.642900  0.432300  1.0  0.0658
  H  H176  1  0.059000  0.685300  0.239900  1.0  0.0987
  H  H177  1  0.894800  0.006700  0.070000  1.0  0.0665
  H  H178  1  0.901000  0.100900  0.050500  1.0  0.105
  H  H179  1  0.788500  0.142200  0.134800  1.0  0.11
  H  H180  1  0.785600  0.045800  0.150300  1.0  0.067
  H  H181  1  0.766000  0.165400  0.004800  1.0  0.1075
  H  H182  1  0.763100  0.120000  0.947300  1.0  0.0705
  H  H183  1  0.892900  0.820900  0.182300  1.0  0.0663
  H  H184  1  0.935300  0.191000  0.989900  1.0  0.098
  H  H185  1  0.394800  0.506700  0.570000  1.0  0.0665
  H  H186  1  0.401000  0.600900  0.550500  1.0  0.105
  H  H187  1  0.288500  0.642200  0.634800  1.0  0.11
  H  H188  1  0.285600  0.545800  0.650300  1.0  0.067
  H  H189  1  0.266000  0.665400  0.504800  1.0  0.1075
  H  H190  1  0.263100  0.620000  0.447300  1.0  0.0705
  H  H191  1  0.392900  0.320900  0.682300  1.0  0.0663
  H  H192  1  0.435300  0.691000  0.489900  1.0  0.098
  H  H193  1  0.605200  0.993300  0.570000  1.0  0.0666
  H  H194  1  0.599000  0.899100  0.550500  1.0  0.1052
  H  H195  1  0.711500  0.857800  0.634800  1.0  0.1117
  H  H196  1  0.714400  0.954200  0.650300  1.0  0.067
  H  H197  1  0.734000  0.834600  0.504800  1.0  0.1075
  H  H198  1  0.736900  0.880000  0.447300  1.0  0.071
  H  H199  1  0.607100  0.179100  0.682300  1.0  0.0666
  H  H200  1  0.564700  0.809000  0.489900  1.0  0.0975
  H  H201  1  0.105200  0.493300  0.070000  1.0  0.0666
  H  H202  1  0.099000  0.399100  0.050500  1.0  0.1052
  H  H203  1  0.211500  0.357800  0.134800  1.0  0.1099
  H  H204  1  0.214400  0.454200  0.150300  1.0  0.067
  H  H205  1  0.234000  0.334600  0.004800  1.0  0.1075
  H  H206  1  0.236900  0.380000  0.947300  1.0  0.071
  H  H207  1  0.107100  0.679100  0.182300  1.0  0.0666
  H  H208  1  0.064700  0.309000  0.989900  1.0  0.0975
  H  H209  1  0.743300  0.855200  0.180000  1.0  0.0676
  H  H210  1  0.649100  0.849000  0.199500  1.0  0.1055
  H  H211  1  0.607800  0.961500  0.115200  1.0  0.1109
  H  H212  1  0.704200  0.964400  0.099700  1.0  0.0671
  H  H213  1  0.584600  0.984000  0.245200  1.0  0.1062
  H  H214  1  0.630000  0.986900  0.302700  1.0  0.0711
  H  H215  1  0.929100  0.857100  0.067700  1.0  0.066
  H  H216  1  0.559000  0.814700  0.260100  1.0  0.0983
  H  H217  1  0.243300  0.355200  0.680000  1.0  0.0676
  H  H218  1  0.149100  0.349000  0.699500  1.0  0.1055
  H  H219  1  0.107800  0.461500  0.615200  1.0  0.1106
  H  H220  1  0.204200  0.464400  0.599700  1.0  0.0671
  H  H221  1  0.084600  0.484000  0.745200  1.0  0.1065
  H  H222  1  0.130000  0.486900  0.802700  1.0  0.0711
  H  H223  1  0.429100  0.357100  0.567700  1.0  0.066
  H  H224  1  0.059000  0.314700  0.760100  1.0  0.0983
  H  H225  1  0.756700  0.144800  0.680000  1.0  0.0671
  H  H226  1  0.850900  0.151000  0.699500  1.0  0.1052
  H  H227  1  0.892200  0.038500  0.615200  1.0  0.1102
  H  H228  1  0.795800  0.035600  0.599700  1.0  0.0671
  H  H229  1  0.915400  0.016000  0.745200  1.0  0.1053
  H  H230  1  0.870000  0.013100  0.802700  1.0  0.0707
  H  H231  1  0.570900  0.142900  0.567700  1.0  0.0658
  H  H232  1  0.941000  0.185300  0.760100  1.0  0.099
  H  H233  1  0.256700  0.644800  0.180000  1.0  0.0671
  H  H234  1  0.350900  0.651000  0.199500  1.0  0.1052
  H  H235  1  0.392200  0.538500  0.115200  1.0  0.11
  H  H236  1  0.295800  0.535600  0.099700  1.0  0.0671
  H  H237  1  0.415400  0.516000  0.245200  1.0  0.1059
  H  H238  1  0.370000  0.513100  0.302700  1.0  0.0707
  H  H239  1  0.070900  0.642900  0.067700  1.0  0.0658
  H  H240  1  0.441000  0.685300  0.260100  1.0  0.099
  H  H241  1  0.605200  0.006700  0.430000  1.0  0.0668
  H  H242  1  0.599000  0.100900  0.449500  1.0  0.1055
  H  H243  1  0.711500  0.142200  0.365200  1.0  0.1113
  H  H244  1  0.714400  0.045800  0.349700  1.0  0.067
  H  H245  1  0.734000  0.165400  0.495200  1.0  0.1076
  H  H246  1  0.736900  0.120000  0.552700  1.0  0.0707
  H  H247  1  0.607100  0.820900  0.317700  1.0  0.0667
  H  H248  1  0.564700  0.191000  0.510100  1.0  0.0974
  H  H249  1  0.105200  0.506700  0.930000  1.0  0.0668
  H  H250  1  0.099000  0.600900  0.949500  1.0  0.1055
  H  H251  1  0.211500  0.642200  0.865200  1.0  0.1099
  H  H252  1  0.214400  0.545800  0.849700  1.0  0.067
  H  H253  1  0.234000  0.665400  0.995200  1.0  0.1076
  H  H254  1  0.236900  0.620000  0.052700  1.0  0.0707
  H  H255  1  0.107100  0.320900  0.817700  1.0  0.0667
  H  H256  1  0.064700  0.691000  0.010100  1.0  0.0974
  H  H257  1  0.894800  0.993300  0.930000  1.0  0.0658
  H  H258  1  0.901000  0.899100  0.949500  1.0  0.1049
  H  H259  1  0.788500  0.857800  0.865200  1.0  0.1092
  H  H260  1  0.785600  0.954200  0.849700  1.0  0.0667
  H  H261  1  0.766000  0.834600  0.995200  1.0  0.1074
  H  H262  1  0.763100  0.880000  0.052700  1.0  0.0707
  H  H263  1  0.892900  0.179100  0.817700  1.0  0.0665
  H  H264  1  0.935300  0.809000  0.010100  1.0  0.0982
  H  H265  1  0.394800  0.493300  0.430000  1.0  0.0658
  H  H266  1  0.401000  0.399100  0.449500  1.0  0.1049
  H  H267  1  0.288500  0.357800  0.365200  1.0  0.1092
  H  H268  1  0.285600  0.454200  0.349700  1.0  0.0667
  H  H269  1  0.266000  0.334600  0.495200  1.0  0.1074
  H  H270  1  0.263100  0.380000  0.552700  1.0  0.0707
  H  H271  1  0.392900  0.679100  0.317700  1.0  0.0665
  H  H272  1  0.435300  0.309000  0.510100  1.0  0.0982
  C  C273  1  0.215500  0.122700  0.667030  1.0  0.1551
  C  C274  1  0.158800  0.126700  0.678940  1.0  -0.1988
  C  C275  1  0.115650  0.094300  0.660270  1.0  0.0081
  C  C276  1  0.134300  0.060300  0.629410  1.0  -0.1671
  C  C277  1  0.192600  0.059300  0.620180  1.0  0.1626
  C  C278  1  0.054170  0.096450  0.672190  1.0  -0.1471
  C  C279  1  0.031190  0.101550  0.708620  1.0  -0.0336
  C  C280  1  0.065150  0.100400  0.745310  1.0  0.0971
  C  C281  1  0.088000  0.050100  0.759540  1.0  -0.2163
  C  C282  1  0.115600  0.048700  0.794150  1.0  0.1528
  C  C283  1  0.395400  0.147900  0.553120  1.0  0.1409
  C  C284  1  0.073300  0.149500  0.768320  1.0  -0.2141
  C  C285  1  0.715500  0.622700  0.167030  1.0  0.1551
  C  C286  1  0.658800  0.626700  0.178940  1.0  -0.1988
  C  C287  1  0.615650  0.594300  0.160270  1.0  0.0081
  C  C288  1  0.634300  0.560300  0.129410  1.0  -0.1671
  C  C289  1  0.692600  0.559300  0.120180  1.0  0.1626
  C  C290  1  0.554170  0.596450  0.172190  1.0  -0.1471
  C  C291  1  0.531190  0.601550  0.208620  1.0  -0.0336
  C  C292  1  0.565150  0.600400  0.245310  1.0  0.0971
  C  C293  1  0.588000  0.550100  0.259540  1.0  -0.2163
  C  C294  1  0.615600  0.548700  0.294150  1.0  0.1528
  C  C295  1  0.895400  0.647900  0.053120  1.0  0.1409
  C  C296  1  0.573300  0.649500  0.268320  1.0  -0.2141
  C  C297  1  0.284500  0.877300  0.167030  1.0  0.1577
  C  C298  1  0.341200  0.873300  0.178940  1.0  -0.1976
  C  C299  1  0.384350  0.905700  0.160270  1.0  0.0094
  C  C300  1  0.365700  0.939700  0.129410  1.0  -0.1692
  C  C301  1  0.307400  0.940700  0.120180  1.0  0.1617
  C  C302  1  0.445830  0.903550  0.172190  1.0  -0.1473
  C  C303  1  0.468810  0.898450  0.208620  1.0  -0.0338
  C  C304  1  0.434850  0.899600  0.245310  1.0  0.0958
  C  C305  1  0.412000  0.949900  0.259540  1.0  -0.2165
  C  C306  1  0.384400  0.951300  0.294150  1.0  0.1525
  C  C307  1  0.104600  0.852100  0.053120  1.0  0.1402
  C  C308  1  0.426700  0.850500  0.268320  1.0  -0.2112
  C  C309  1  0.784500  0.377300  0.667030  1.0  0.1577
  C  C310  1  0.841200  0.373300  0.678940  1.0  -0.1976
  C  C311  1  0.884350  0.405700  0.660270  1.0  0.0094
  C  C312  1  0.865700  0.439700  0.629410  1.0  -0.1692
  C  C313  1  0.807400  0.440700  0.620180  1.0  0.1617
  C  C314  1  0.945830  0.403550  0.672190  1.0  -0.1473
  C  C315  1  0.968810  0.398450  0.708620  1.0  -0.0338
  C  C316  1  0.934850  0.399600  0.745310  1.0  0.0958
  C  C317  1  0.912000  0.449900  0.759540  1.0  -0.2165
  C  C318  1  0.884400  0.451300  0.794150  1.0  0.1525
  C  C319  1  0.604600  0.352100  0.553120  1.0  0.1402
  C  C320  1  0.926700  0.350500  0.768320  1.0  -0.2112
  C  C321  1  0.127300  0.965500  0.917030  1.0  0.1549
  C  C322  1  0.123300  0.908800  0.928940  1.0  -0.1964
  C  C323  1  0.155700  0.865650  0.910270  1.0  0.0078
  C  C324  1  0.189700  0.884300  0.879410  1.0  -0.1686
  C  C325  1  0.190700  0.942600  0.870180  1.0  0.1612
  C  C326  1  0.153550  0.804170  0.922190  1.0  -0.1477
  C  C327  1  0.148450  0.781190  0.958620  1.0  -0.0338
  C  C328  1  0.149600  0.815150  0.995310  1.0  0.0967
  C  C329  1  0.199900  0.838000  0.009540  1.0  -0.2116
  C  C330  1  0.201300  0.865600  0.044150  1.0  0.1559
  C  C331  1  0.102100  0.145400  0.803120  1.0  0.1394
  C  C332  1  0.100500  0.823300  0.018320  1.0  -0.2116
  C  C333  1  0.627300  0.465500  0.417030  1.0  0.1549
  C  C334  1  0.623300  0.408800  0.428940  1.0  -0.1964
  C  C335  1  0.655700  0.365650  0.410270  1.0  0.0078
  C  C336  1  0.689700  0.384300  0.379410  1.0  -0.1686
  C  C337  1  0.690700  0.442600  0.370180  1.0  0.1612
  C  C338  1  0.653550  0.304170  0.422190  1.0  -0.1477
  C  C339  1  0.648450  0.281190  0.458620  1.0  -0.0338
  C  C340  1  0.649600  0.315150  0.495310  1.0  0.0967
  C  C341  1  0.699900  0.338000  0.509540  1.0  -0.2116
  C  C342  1  0.701300  0.365600  0.544150  1.0  0.1559
  C  C343  1  0.602100  0.645400  0.303120  1.0  0.1394
  C  C344  1  0.600500  0.323300  0.518320  1.0  -0.2116
  C  C345  1  0.372700  0.034500  0.417030  1.0  0.1555
  C  C346  1  0.376700  0.091200  0.428940  1.0  -0.1975
  C  C347  1  0.344300  0.134350  0.410270  1.0  0.0086
  C  C348  1  0.310300  0.115700  0.379410  1.0  -0.1696
  C  C349  1  0.309300  0.057400  0.370180  1.0  0.1629
  C  C350  1  0.346450  0.195830  0.422190  1.0  -0.1477
  C  C351  1  0.351550  0.218810  0.458620  1.0  -0.0342
  C  C352  1  0.350400  0.184850  0.495310  1.0  0.0972
  C  C353  1  0.300100  0.162000  0.509540  1.0  -0.2132
  C  C354  1  0.298700  0.134400  0.544150  1.0  0.1561
  C  C355  1  0.397900  0.854600  0.303120  1.0  0.1403
  C  C356  1  0.399500  0.176700  0.518320  1.0  -0.2125
  C  C357  1  0.872700  0.534500  0.917030  1.0  0.1555
  C  C358  1  0.876700  0.591200  0.928940  1.0  -0.1975
  C  C359  1  0.844300  0.634350  0.910270  1.0  0.0086
  C  C360  1  0.810300  0.615700  0.879410  1.0  -0.1696
  C  C361  1  0.809300  0.557400  0.870180  1.0  0.1629
  C  C362  1  0.846450  0.695830  0.922190  1.0  -0.1477
  C  C363  1  0.851550  0.718810  0.958620  1.0  -0.0342
  C  C364  1  0.850400  0.684850  0.995310  1.0  0.0972
  C  C365  1  0.800100  0.662000  0.009540  1.0  -0.2132
  C  C366  1  0.798700  0.634400  0.044150  1.0  0.1561
  C  C367  1  0.897900  0.354600  0.803120  1.0  0.1403
  C  C368  1  0.899500  0.676700  0.018320  1.0  -0.2125
  C  C369  1  0.284500  0.122700  0.832970  1.0  0.1564
  C  C370  1  0.341200  0.126700  0.821060  1.0  -0.1974
  C  C371  1  0.384350  0.094300  0.839730  1.0  0.0094
  C  C372  1  0.365700  0.060300  0.870590  1.0  -0.1678
  C  C373  1  0.307400  0.059300  0.879820  1.0  0.1615
  C  C374  1  0.445830  0.096450  0.827810  1.0  -0.1477
  C  C375  1  0.468810  0.101550  0.791380  1.0  -0.0351
  C  C376  1  0.434850  0.100400  0.754690  1.0  0.096
  C  C377  1  0.412000  0.050100  0.740460  1.0  -0.2155
  C  C378  1  0.384400  0.048700  0.705850  1.0  0.1532
  C  C379  1  0.104600  0.147900  0.946880  1.0  0.1397
  C  C380  1  0.426700  0.149500  0.731680  1.0  -0.2134
  C  C381  1  0.784500  0.622700  0.332970  1.0  0.1564
  C  C382  1  0.841200  0.626700  0.321060  1.0  -0.1974
  C  C383  1  0.884350  0.594300  0.339730  1.0  0.0094
  C  C384  1  0.865700  0.560300  0.370590  1.0  -0.1678
  C  C385  1  0.807400  0.559300  0.379820  1.0  0.1615
  C  C386  1  0.945830  0.596450  0.327810  1.0  -0.1477
  C  C387  1  0.968810  0.601550  0.291380  1.0  -0.0351
  C  C388  1  0.934850  0.600400  0.254690  1.0  0.096
  C  C389  1  0.912000  0.550100  0.240460  1.0  -0.2155
  C  C390  1  0.884400  0.548700  0.205850  1.0  0.1532
  C  C391  1  0.604600  0.647900  0.446880  1.0  0.1397
  C  C392  1  0.926700  0.649500  0.231680  1.0  -0.2134
  C  C393  1  0.215500  0.877300  0.332970  1.0  0.1557
  C  C394  1  0.158800  0.873300  0.321060  1.0  -0.1989
  C  C395  1  0.115650  0.905700  0.339730  1.0  0.0085
  C  C396  1  0.134300  0.939700  0.370590  1.0  -0.1723
  C  C397  1  0.192600  0.940700  0.379820  1.0  0.1622
  C  C398  1  0.054170  0.903550  0.327810  1.0  -0.1475
  C  C399  1  0.031190  0.898450  0.291380  1.0  -0.0349
  C  C400  1  0.065150  0.899600  0.254690  1.0  0.0955
  C  C401  1  0.088000  0.949900  0.240460  1.0  -0.2168
  C  C402  1  0.115600  0.951300  0.205850  1.0  0.1533
  C  C403  1  0.395400  0.852100  0.446880  1.0  0.1406
  C  C404  1  0.073300  0.850500  0.231680  1.0  -0.2128
  C  C405  1  0.715500  0.377300  0.832970  1.0  0.1557
  C  C406  1  0.658800  0.373300  0.821060  1.0  -0.1989
  C  C407  1  0.615650  0.405700  0.839730  1.0  0.0085
  C  C408  1  0.634300  0.439700  0.870590  1.0  -0.1723
  C  C409  1  0.692600  0.440700  0.879820  1.0  0.1622
  C  C410  1  0.554170  0.403550  0.827810  1.0  -0.1475
  C  C411  1  0.531190  0.398450  0.791380  1.0  -0.0349
  C  C412  1  0.565150  0.399600  0.754690  1.0  0.0955
  C  C413  1  0.588000  0.449900  0.740460  1.0  -0.2168
  C  C414  1  0.615600  0.451300  0.705850  1.0  0.1533
  C  C415  1  0.895400  0.352100  0.946880  1.0  0.1406
  C  C416  1  0.573300  0.350500  0.731680  1.0  -0.2128
  C  C417  1  0.372700  0.965500  0.582970  1.0  0.155
  C  C418  1  0.376700  0.908800  0.571060  1.0  -0.1966
  C  C419  1  0.344300  0.865650  0.589730  1.0  0.008
  C  C420  1  0.310300  0.884300  0.620590  1.0  -0.1688
  C  C421  1  0.309300  0.942600  0.629820  1.0  0.1625
  C  C422  1  0.346450  0.804170  0.577810  1.0  -0.1482
  C  C423  1  0.351550  0.781190  0.541380  1.0  -0.0354
  C  C424  1  0.350400  0.815150  0.504690  1.0  0.0962
  C  C425  1  0.300100  0.838000  0.490460  1.0  -0.214
  C  C426  1  0.298700  0.865600  0.455850  1.0  0.1562
  C  C427  1  0.397900  0.145400  0.696880  1.0  0.1393
  C  C428  1  0.399500  0.823300  0.481680  1.0  -0.2127
  C  C429  1  0.872700  0.465500  0.082970  1.0  0.155
  C  C430  1  0.876700  0.408800  0.071060  1.0  -0.1966
  C  C431  1  0.844300  0.365650  0.089730  1.0  0.008
  C  C432  1  0.810300  0.384300  0.120590  1.0  -0.1688
  C  C433  1  0.809300  0.442600  0.129820  1.0  0.1625
  C  C434  1  0.846450  0.304170  0.077810  1.0  -0.1482
  C  C435  1  0.851550  0.281190  0.041380  1.0  -0.0354
  C  C436  1  0.850400  0.315150  0.004690  1.0  0.0962
  C  C437  1  0.800100  0.338000  0.990460  1.0  -0.214
  C  C438  1  0.798700  0.365600  0.955850  1.0  0.1562
  C  C439  1  0.897900  0.645400  0.196880  1.0  0.1393
  C  C440  1  0.899500  0.323300  0.981680  1.0  -0.2127
  C  C441  1  0.127300  0.034500  0.082970  1.0  0.1552
  C  C442  1  0.123300  0.091200  0.071060  1.0  -0.1971
  C  C443  1  0.155700  0.134350  0.089730  1.0  0.0089
  C  C444  1  0.189700  0.115700  0.120590  1.0  -0.1711
  C  C445  1  0.190700  0.057400  0.129820  1.0  0.1614
  C  C446  1  0.153550  0.195830  0.077810  1.0  -0.1481
  C  C447  1  0.148450  0.218810  0.041380  1.0  -0.0352
  C  C448  1  0.149600  0.184850  0.004690  1.0  0.0964
  C  C449  1  0.199900  0.162000  0.990460  1.0  -0.2106
  C  C450  1  0.201300  0.134400  0.955850  1.0  0.156
  C  C451  1  0.102100  0.854600  0.196880  1.0  0.1391
  C  C452  1  0.100500  0.176700  0.981680  1.0  -0.2127
  C  C453  1  0.627300  0.534500  0.582970  1.0  0.1552
  C  C454  1  0.623300  0.591200  0.571060  1.0  -0.1971
  C  C455  1  0.655700  0.634350  0.589730  1.0  0.0089
  C  C456  1  0.689700  0.615700  0.620590  1.0  -0.1711
  C  C457  1  0.690700  0.557400  0.629820  1.0  0.1614
  C  C458  1  0.653550  0.695830  0.577810  1.0  -0.1481
  C  C459  1  0.648450  0.718810  0.541380  1.0  -0.0352
  C  C460  1  0.649600  0.684850  0.504690  1.0  0.0964
  C  C461  1  0.699900  0.662000  0.490460  1.0  -0.2106
  C  C462  1  0.701300  0.634400  0.455850  1.0  0.156
  C  C463  1  0.602100  0.354600  0.696880  1.0  0.1391
  C  C464  1  0.600500  0.676700  0.481680  1.0  -0.2127
  C  C465  1  0.784500  0.877300  0.332970  1.0  0.1569
  C  C466  1  0.841200  0.873300  0.321060  1.0  -0.1981
  C  C467  1  0.884350  0.905700  0.339730  1.0  0.0095
  C  C468  1  0.865700  0.939700  0.370590  1.0  -0.1706
  C  C469  1  0.807400  0.940700  0.379820  1.0  0.1608
  C  C470  1  0.945830  0.903550  0.327810  1.0  -0.1508
  C  C471  1  0.968810  0.898450  0.291380  1.0  -0.0353
  C  C472  1  0.934850  0.899600  0.254690  1.0  0.0955
  C  C473  1  0.912000  0.949900  0.240460  1.0  -0.2168
  C  C474  1  0.884400  0.951300  0.205850  1.0  0.1533
  C  C475  1  0.604600  0.852100  0.446880  1.0  0.1399
  C  C476  1  0.926700  0.850500  0.231680  1.0  -0.2118
  C  C477  1  0.284500  0.377300  0.832970  1.0  0.1569
  C  C478  1  0.341200  0.373300  0.821060  1.0  -0.1981
  C  C479  1  0.384350  0.405700  0.839730  1.0  0.0095
  C  C480  1  0.365700  0.439700  0.870590  1.0  -0.1706
  C  C481  1  0.307400  0.440700  0.879820  1.0  0.1608
  C  C482  1  0.445830  0.403550  0.827810  1.0  -0.1508
  C  C483  1  0.468810  0.398450  0.791380  1.0  -0.0353
  C  C484  1  0.434850  0.399600  0.754690  1.0  0.0955
  C  C485  1  0.412000  0.449900  0.740460  1.0  -0.2168
  C  C486  1  0.384400  0.451300  0.705850  1.0  0.1533
  C  C487  1  0.104600  0.352100  0.946880  1.0  0.1399
  C  C488  1  0.426700  0.350500  0.731680  1.0  -0.2118
  C  C489  1  0.715500  0.122700  0.832970  1.0  0.1555
  C  C490  1  0.658800  0.126700  0.821060  1.0  -0.1981
  C  C491  1  0.615650  0.094300  0.839730  1.0  0.0084
  C  C492  1  0.634300  0.060300  0.870590  1.0  -0.1688
  C  C493  1  0.692600  0.059300  0.879820  1.0  0.1629
  C  C494  1  0.554170  0.096450  0.827810  1.0  -0.151
  C  C495  1  0.531190  0.101550  0.791380  1.0  -0.0347
  C  C496  1  0.565150  0.100400  0.754690  1.0  0.096
  C  C497  1  0.588000  0.050100  0.740460  1.0  -0.2161
  C  C498  1  0.615600  0.048700  0.705850  1.0  0.1529
  C  C499  1  0.895400  0.147900  0.946880  1.0  0.1399
  C  C500  1  0.573300  0.149500  0.731680  1.0  -0.2142
  C  C501  1  0.215500  0.622700  0.332970  1.0  0.1555
  C  C502  1  0.158800  0.626700  0.321060  1.0  -0.1981
  C  C503  1  0.115650  0.594300  0.339730  1.0  0.0084
  C  C504  1  0.134300  0.560300  0.370590  1.0  -0.1688
  C  C505  1  0.192600  0.559300  0.379820  1.0  0.1629
  C  C506  1  0.054170  0.596450  0.327810  1.0  -0.151
  C  C507  1  0.031190  0.601550  0.291380  1.0  -0.0347
  C  C508  1  0.065150  0.600400  0.254690  1.0  0.096
  C  C509  1  0.088000  0.550100  0.240460  1.0  -0.2161
  C  C510  1  0.115600  0.548700  0.205850  1.0  0.1529
  C  C511  1  0.395400  0.647900  0.446880  1.0  0.1399
  C  C512  1  0.073300  0.649500  0.231680  1.0  -0.2142
  C  C513  1  0.872700  0.034500  0.082970  1.0  0.1549
  C  C514  1  0.876700  0.091200  0.071060  1.0  -0.1976
  C  C515  1  0.844300  0.134350  0.089730  1.0  0.009
  C  C516  1  0.810300  0.115700  0.120590  1.0  -0.1727
  C  C517  1  0.809300  0.057400  0.129820  1.0  0.1626
  C  C518  1  0.846450  0.195830  0.077810  1.0  -0.1515
  C  C519  1  0.851550  0.218810  0.041380  1.0  -0.0356
  C  C520  1  0.850400  0.184850  0.004690  1.0  0.0964
  C  C521  1  0.800100  0.162000  0.990460  1.0  -0.2137
  C  C522  1  0.798700  0.134400  0.955850  1.0  0.1558
  C  C523  1  0.897900  0.854600  0.196880  1.0  0.14
  C  C524  1  0.899500  0.176700  0.981680  1.0  -0.2127
  C  C525  1  0.372700  0.534500  0.582970  1.0  0.1549
  C  C526  1  0.376700  0.591200  0.571060  1.0  -0.1976
  C  C527  1  0.344300  0.634350  0.589730  1.0  0.009
  C  C528  1  0.310300  0.615700  0.620590  1.0  -0.1727
  C  C529  1  0.309300  0.557400  0.629820  1.0  0.1626
  C  C530  1  0.346450  0.695830  0.577810  1.0  -0.1515
  C  C531  1  0.351550  0.718810  0.541380  1.0  -0.0356
  C  C532  1  0.350400  0.684850  0.504690  1.0  0.0964
  C  C533  1  0.300100  0.662000  0.490460  1.0  -0.2137
  C  C534  1  0.298700  0.634400  0.455850  1.0  0.1558
  C  C535  1  0.397900  0.354600  0.696880  1.0  0.14
  C  C536  1  0.399500  0.676700  0.481680  1.0  -0.2127
  C  C537  1  0.627300  0.965500  0.582970  1.0  0.155
  C  C538  1  0.623300  0.908800  0.571060  1.0  -0.1966
  C  C539  1  0.655700  0.865650  0.589730  1.0  0.0079
  C  C540  1  0.689700  0.884300  0.620590  1.0  -0.1682
  C  C541  1  0.690700  0.942600  0.629820  1.0  0.1611
  C  C542  1  0.653550  0.804170  0.577810  1.0  -0.1517
  C  C543  1  0.648450  0.781190  0.541380  1.0  -0.0349
  C  C544  1  0.649600  0.815150  0.504690  1.0  0.0962
  C  C545  1  0.699900  0.838000  0.490460  1.0  -0.2106
  C  C546  1  0.701300  0.865600  0.455850  1.0  0.1565
  C  C547  1  0.602100  0.145400  0.696880  1.0  0.1388
  C  C548  1  0.600500  0.823300  0.481680  1.0  -0.2124
  C  C549  1  0.127300  0.465500  0.082970  1.0  0.155
  C  C550  1  0.123300  0.408800  0.071060  1.0  -0.1966
  C  C551  1  0.155700  0.365650  0.089730  1.0  0.0079
  C  C552  1  0.189700  0.384300  0.120590  1.0  -0.1682
  C  C553  1  0.190700  0.442600  0.129820  1.0  0.1611
  C  C554  1  0.153550  0.304170  0.077810  1.0  -0.1517
  C  C555  1  0.148450  0.281190  0.041380  1.0  -0.0349
  C  C556  1  0.149600  0.315150  0.004690  1.0  0.0962
  C  C557  1  0.199900  0.338000  0.990460  1.0  -0.2106
  C  C558  1  0.201300  0.365600  0.955850  1.0  0.1565
  C  C559  1  0.102100  0.645400  0.196880  1.0  0.1388
  C  C560  1  0.100500  0.323300  0.981680  1.0  -0.2124
  C  C561  1  0.715500  0.877300  0.167030  1.0  0.1565
  C  C562  1  0.658800  0.873300  0.178940  1.0  -0.198
  C  C563  1  0.615650  0.905700  0.160270  1.0  0.0083
  C  C564  1  0.634300  0.939700  0.129410  1.0  -0.1688
  C  C565  1  0.692600  0.940700  0.120180  1.0  0.1628
  C  C566  1  0.554170  0.903550  0.172190  1.0  -0.1505
  C  C567  1  0.531190  0.898450  0.208620  1.0  -0.0334
  C  C568  1  0.565150  0.899600  0.245310  1.0  0.0963
  C  C569  1  0.588000  0.949900  0.259540  1.0  -0.2169
  C  C570  1  0.615600  0.951300  0.294150  1.0  0.1527
  C  C571  1  0.895400  0.852100  0.053120  1.0  0.1411
  C  C572  1  0.573300  0.850500  0.268320  1.0  -0.2122
  C  C573  1  0.215500  0.377300  0.667030  1.0  0.1565
  C  C574  1  0.158800  0.373300  0.678940  1.0  -0.198
  C  C575  1  0.115650  0.405700  0.660270  1.0  0.0083
  C  C576  1  0.134300  0.439700  0.629410  1.0  -0.1688
  C  C577  1  0.192600  0.440700  0.620180  1.0  0.1628
  C  C578  1  0.054170  0.403550  0.672190  1.0  -0.1505
  C  C579  1  0.031190  0.398450  0.708620  1.0  -0.0334
  C  C580  1  0.065150  0.399600  0.745310  1.0  0.0963
  C  C581  1  0.088000  0.449900  0.759540  1.0  -0.2169
  C  C582  1  0.115600  0.451300  0.794150  1.0  0.1527
  C  C583  1  0.395400  0.352100  0.553120  1.0  0.1411
  C  C584  1  0.073300  0.350500  0.768320  1.0  -0.2122
  C  C585  1  0.784500  0.122700  0.667030  1.0  0.1564
  C  C586  1  0.841200  0.126700  0.678940  1.0  -0.1985
  C  C587  1  0.884350  0.094300  0.660270  1.0  0.0093
  C  C588  1  0.865700  0.060300  0.629410  1.0  -0.1683
  C  C589  1  0.807400  0.059300  0.620180  1.0  0.1616
  C  C590  1  0.945830  0.096450  0.672190  1.0  -0.1507
  C  C591  1  0.968810  0.101550  0.708620  1.0  -0.034
  C  C592  1  0.934850  0.100400  0.745310  1.0  0.0967
  C  C593  1  0.912000  0.050100  0.759540  1.0  -0.2152
  C  C594  1  0.884400  0.048700  0.794150  1.0  0.153
  C  C595  1  0.604600  0.147900  0.553120  1.0  0.1403
  C  C596  1  0.926700  0.149500  0.768320  1.0  -0.2132
  C  C597  1  0.284500  0.622700  0.167030  1.0  0.1564
  C  C598  1  0.341200  0.626700  0.178940  1.0  -0.1985
  C  C599  1  0.384350  0.594300  0.160270  1.0  0.0093
  C  C600  1  0.365700  0.560300  0.129410  1.0  -0.1683
  C  C601  1  0.307400  0.559300  0.120180  1.0  0.1616
  C  C602  1  0.445830  0.596450  0.172190  1.0  -0.1507
  C  C603  1  0.468810  0.601550  0.208620  1.0  -0.034
  C  C604  1  0.434850  0.600400  0.245310  1.0  0.0967
  C  C605  1  0.412000  0.550100  0.259540  1.0  -0.2152
  C  C606  1  0.384400  0.548700  0.294150  1.0  0.153
  C  C607  1  0.104600  0.647900  0.053120  1.0  0.1403
  C  C608  1  0.426700  0.649500  0.268320  1.0  -0.2132
  C  C609  1  0.627300  0.034500  0.417030  1.0  0.1561
  C  C610  1  0.623300  0.091200  0.428940  1.0  -0.1966
  C  C611  1  0.655700  0.134350  0.410270  1.0  0.0086
  C  C612  1  0.689700  0.115700  0.379410  1.0  -0.1699
  C  C613  1  0.690700  0.057400  0.370180  1.0  0.1615
  C  C614  1  0.653550  0.195830  0.422190  1.0  -0.151
  C  C615  1  0.648450  0.218810  0.458620  1.0  -0.0338
  C  C616  1  0.649600  0.184850  0.495310  1.0  0.0973
  C  C617  1  0.699900  0.162000  0.509540  1.0  -0.2115
  C  C618  1  0.701300  0.134400  0.544150  1.0  0.156
  C  C619  1  0.602100  0.854600  0.303120  1.0  0.1402
  C  C620  1  0.600500  0.176700  0.518320  1.0  -0.2119
  C  C621  1  0.127300  0.534500  0.917030  1.0  0.1561
  C  C622  1  0.123300  0.591200  0.928940  1.0  -0.1966
  C  C623  1  0.155700  0.634350  0.910270  1.0  0.0086
  C  C624  1  0.189700  0.615700  0.879410  1.0  -0.1699
  C  C625  1  0.190700  0.557400  0.870180  1.0  0.1615
  C  C626  1  0.153550  0.695830  0.922190  1.0  -0.151
  C  C627  1  0.148450  0.718810  0.958620  1.0  -0.0338
  C  C628  1  0.149600  0.684850  0.995310  1.0  0.0973
  C  C629  1  0.199900  0.662000  0.009540  1.0  -0.2115
  C  C630  1  0.201300  0.634400  0.044150  1.0  0.156
  C  C631  1  0.102100  0.354600  0.803120  1.0  0.1402
  C  C632  1  0.100500  0.676700  0.018320  1.0  -0.2119
  C  C633  1  0.872700  0.965500  0.917030  1.0  0.1546
  C  C634  1  0.876700  0.908800  0.928940  1.0  -0.1969
  C  C635  1  0.844300  0.865650  0.910270  1.0  0.0079
  C  C636  1  0.810300  0.884300  0.879410  1.0  -0.1679
  C  C637  1  0.809300  0.942600  0.870180  1.0  0.1631
  C  C638  1  0.846450  0.804170  0.922190  1.0  -0.1512
  C  C639  1  0.851550  0.781190  0.958620  1.0  -0.0342
  C  C640  1  0.850400  0.815150  0.995310  1.0  0.0965
  C  C641  1  0.800100  0.838000  0.009540  1.0  -0.2135
  C  C642  1  0.798700  0.865600  0.044150  1.0  0.1558
  C  C643  1  0.897900  0.145400  0.803120  1.0  0.1392
  C  C644  1  0.899500  0.823300  0.018320  1.0  -0.2126
  C  C645  1  0.372700  0.465500  0.417030  1.0  0.1546
  C  C646  1  0.376700  0.408800  0.428940  1.0  -0.1969
  C  C647  1  0.344300  0.365650  0.410270  1.0  0.0079
  C  C648  1  0.310300  0.384300  0.379410  1.0  -0.1679
  C  C649  1  0.309300  0.442600  0.370180  1.0  0.1631
  C  C650  1  0.346450  0.304170  0.422190  1.0  -0.1512
  C  C651  1  0.351550  0.281190  0.458620  1.0  -0.0342
  C  C652  1  0.350400  0.315150  0.495310  1.0  0.0965
  C  C653  1  0.300100  0.338000  0.509540  1.0  -0.2135
  C  C654  1  0.298700  0.365600  0.544150  1.0  0.1558
  C  C655  1  0.397900  0.645400  0.303120  1.0  0.1392
  C  C656  1  0.399500  0.323300  0.518320  1.0  -0.2126
  S  S657  1  0.000000  0.092550  0.638010  1.0  0.13
  S  S658  1  0.500000  0.592550  0.138010  1.0  0.13
  S  S659  1  0.500000  0.907450  0.138010  1.0  0.1302
  S  S660  1  0.000000  0.407450  0.638010  1.0  0.1302
  S  S661  1  0.157450  0.750000  0.888010  1.0  0.1305
  S  S662  1  0.342550  0.250000  0.388010  1.0  0.1301
  S  S663  1  0.500000  0.092550  0.861990  1.0  0.133
  S  S664  1  0.000000  0.592550  0.361990  1.0  0.133
  S  S665  1  0.000000  0.907450  0.361990  1.0  0.1329
  S  S666  1  0.500000  0.407450  0.861990  1.0  0.1329
  S  S667  1  0.342550  0.750000  0.611990  1.0  0.1326
  S  S668  1  0.157450  0.250000  0.111990  1.0  0.1329
  S  S669  1  0.842550  0.250000  0.111990  1.0  0.1326
  S  S670  1  0.657450  0.750000  0.611990  1.0  0.1329
  S  S671  1  0.657450  0.250000  0.388010  1.0  0.1305
  S  S672  1  0.842550  0.750000  0.888010  1.0  0.1301
  N  N673  1  0.233070  0.089300  0.638100  1.0  -0.3215
  N  N674  1  0.345350  0.126590  0.567010  1.0  -0.3354
  N  N675  1  0.733070  0.589300  0.138100  1.0  -0.3215
  N  N676  1  0.845350  0.626590  0.067010  1.0  -0.3354
  N  N677  1  0.266930  0.910700  0.138100  1.0  -0.3163
  N  N678  1  0.154650  0.873410  0.067010  1.0  -0.3357
  N  N679  1  0.766930  0.410700  0.638100  1.0  -0.3163
  N  N680  1  0.654650  0.373410  0.567010  1.0  -0.3357
  N  N681  1  0.160700  0.983070  0.888100  1.0  -0.3298
  N  N682  1  0.123410  0.095350  0.817010  1.0  -0.3336
  N  N683  1  0.660700  0.483070  0.388100  1.0  -0.3298
  N  N684  1  0.623410  0.595350  0.317010  1.0  -0.3336
  N  N685  1  0.339300  0.016930  0.388100  1.0  -0.328
  N  N686  1  0.376590  0.904650  0.317010  1.0  -0.3345
  N  N687  1  0.839300  0.516930  0.888100  1.0  -0.328
  N  N688  1  0.876590  0.404650  0.817010  1.0  -0.3345
  N  N689  1  0.266930  0.089300  0.861900  1.0  -0.3162
  N  N690  1  0.154650  0.126590  0.932990  1.0  -0.3381
  N  N691  1  0.766930  0.589300  0.361900  1.0  -0.3162
  N  N692  1  0.654650  0.626590  0.432990  1.0  -0.3381
  N  N693  1  0.233070  0.910700  0.361900  1.0  -0.321
  N  N694  1  0.345350  0.873410  0.432990  1.0  -0.3362
  N  N695  1  0.733070  0.410700  0.861900  1.0  -0.321
  N  N696  1  0.845350  0.373410  0.932990  1.0  -0.3362
  N  N697  1  0.339300  0.983070  0.611900  1.0  -0.3289
  N  N698  1  0.376590  0.095350  0.682990  1.0  -0.335
  N  N699  1  0.839300  0.483070  0.111900  1.0  -0.3289
  N  N700  1  0.876590  0.595350  0.182990  1.0  -0.335
  N  N701  1  0.160700  0.016930  0.111900  1.0  -0.3285
  N  N702  1  0.123410  0.904650  0.182990  1.0  -0.3345
  N  N703  1  0.660700  0.516930  0.611900  1.0  -0.3285
  N  N704  1  0.623410  0.404650  0.682990  1.0  -0.3345
  N  N705  1  0.766930  0.910700  0.361900  1.0  -0.316
  N  N706  1  0.654650  0.873410  0.432990  1.0  -0.336
  N  N707  1  0.266930  0.410700  0.861900  1.0  -0.316
  N  N708  1  0.154650  0.373410  0.932990  1.0  -0.336
  N  N709  1  0.733070  0.089300  0.861900  1.0  -0.3216
  N  N710  1  0.845350  0.126590  0.932990  1.0  -0.3383
  N  N711  1  0.233070  0.589300  0.361900  1.0  -0.3216
  N  N712  1  0.345350  0.626590  0.432990  1.0  -0.3383
  N  N713  1  0.839300  0.016930  0.111900  1.0  -0.3275
  N  N714  1  0.876590  0.904650  0.182990  1.0  -0.3347
  N  N715  1  0.339300  0.516930  0.611900  1.0  -0.3275
  N  N716  1  0.376590  0.404650  0.682990  1.0  -0.3347
  N  N717  1  0.660700  0.983070  0.611900  1.0  -0.3301
  N  N718  1  0.623410  0.095350  0.682990  1.0  -0.3349
  N  N719  1  0.160700  0.483070  0.111900  1.0  -0.3301
  N  N720  1  0.123410  0.595350  0.182990  1.0  -0.3349
  N  N721  1  0.733070  0.910700  0.138100  1.0  -0.321
  N  N722  1  0.845350  0.873410  0.067010  1.0  -0.3358
  N  N723  1  0.233070  0.410700  0.638100  1.0  -0.321
  N  N724  1  0.345350  0.373410  0.567010  1.0  -0.3358
  N  N725  1  0.766930  0.089300  0.638100  1.0  -0.3163
  N  N726  1  0.654650  0.126590  0.567010  1.0  -0.3354
  N  N727  1  0.266930  0.589300  0.138100  1.0  -0.3163
  N  N728  1  0.154650  0.626590  0.067010  1.0  -0.3354
  N  N729  1  0.660700  0.016930  0.388100  1.0  -0.329
  N  N730  1  0.623410  0.904650  0.317010  1.0  -0.3333
  N  N731  1  0.160700  0.516930  0.888100  1.0  -0.329
  N  N732  1  0.123410  0.404650  0.817010  1.0  -0.3333
  N  N733  1  0.839300  0.983070  0.888100  1.0  -0.3286
  N  N734  1  0.876590  0.095350  0.817010  1.0  -0.3347
  N  N735  1  0.339300  0.483070  0.388100  1.0  -0.3286
  N  N736  1  0.376590  0.595350  0.317010  1.0  -0.3347
