# generated using pymatgen
data_AgH16C24SN4
_symmetry_space_group_name_H-M   'P 1'
_cell_length_a   22.63600000
_cell_length_b   22.63600000
_cell_length_c   35.39300000
_cell_angle_alpha   90.00000000
_cell_angle_beta   90.00000000
_cell_angle_gamma   90.00000000
_symmetry_Int_Tables_number   1
_chemical_formula_structural   AgH16C24SN4
_chemical_formula_sum   'Ag16 H256 C384 S16 N64'
_cell_volume   18134.96603893
_cell_formula_units_Z   16
loop_
 _symmetry_equiv_pos_site_id
 _symmetry_equiv_pos_as_xyz
  1  'x, y, z'
loop_
 _atom_site_type_symbol
 _atom_site_label
 _atom_site_symmetry_multiplicity
 _atom_site_fract_x
 _atom_site_fract_y
 _atom_site_fract_z
 _atom_site_occupancy
 _atom_site_charge
  Ag  Ag1  1  0.336710  0.086710  0.625000  1.0  0.3052
  Ag  Ag2  1  0.836710  0.586710  0.125000  1.0  0.3052
  Ag  Ag3  1  0.163290  0.913290  0.125000  1.0  0.3071
  Ag  Ag4  1  0.663290  0.413290  0.625000  1.0  0.3071
  Ag  Ag5  1  0.163290  0.086710  0.875000  1.0  0.3066
  Ag  Ag6  1  0.663290  0.586710  0.375000  1.0  0.3066
  Ag  Ag7  1  0.336710  0.913290  0.375000  1.0  0.3057
  Ag  Ag8  1  0.836710  0.413290  0.875000  1.0  0.3057
  Ag  Ag9  1  0.663290  0.913290  0.375000  1.0  0.3071
  Ag  Ag10  1  0.163290  0.413290  0.875000  1.0  0.3071
  Ag  Ag11  1  0.836710  0.086710  0.875000  1.0  0.3052
  Ag  Ag12  1  0.336710  0.586710  0.375000  1.0  0.3052
  Ag  Ag13  1  0.836710  0.913290  0.125000  1.0  0.3057
  Ag  Ag14  1  0.336710  0.413290  0.625000  1.0  0.3057
  Ag  Ag15  1  0.663290  0.086710  0.625000  1.0  0.3066
  Ag  Ag16  1  0.163290  0.586710  0.125000  1.0  0.3066
  H  H17  1  0.245500  0.147300  0.682200  1.0  0.0692
  H  H18  1  0.150500  0.151700  0.702300  1.0  0.1108
  H  H19  1  0.107400  0.037400  0.620800  1.0  0.1134
  H  H20  1  0.205500  0.036100  0.603000  1.0  0.0719
  H  H21  1  0.076600  0.012100  0.750600  1.0  0.1181
  H  H22  1  0.122800  0.012300  0.808200  1.0  0.0668
  H  H23  1  0.116500  0.181200  0.813700  1.0  0.0658
  H  H24  1  0.066300  0.185700  0.757800  1.0  0.0931
  H  H25  1  0.745500  0.647300  0.182200  1.0  0.0692
  H  H26  1  0.650500  0.651700  0.202300  1.0  0.1108
  H  H27  1  0.607400  0.537400  0.120800  1.0  0.1124
  H  H28  1  0.705500  0.536100  0.103000  1.0  0.0719
  H  H29  1  0.576600  0.512100  0.250600  1.0  0.1183
  H  H30  1  0.622800  0.512300  0.308200  1.0  0.0668
  H  H31  1  0.616500  0.681200  0.313700  1.0  0.0658
  H  H32  1  0.566300  0.685700  0.257800  1.0  0.0931
  H  H33  1  0.254500  0.852700  0.182200  1.0  0.0693
  H  H34  1  0.349500  0.848300  0.202300  1.0  0.1099
  H  H35  1  0.392600  0.962600  0.120800  1.0  0.1141
  H  H36  1  0.294500  0.963900  0.103000  1.0  0.0722
  H  H37  1  0.423400  0.987900  0.250600  1.0  0.1188
  H  H38  1  0.377200  0.987700  0.308200  1.0  0.0691
  H  H39  1  0.383500  0.818800  0.313700  1.0  0.0666
  H  H40  1  0.433700  0.814300  0.257800  1.0  0.0915
  H  H41  1  0.754500  0.352700  0.682200  1.0  0.0693
  H  H42  1  0.849500  0.348300  0.702300  1.0  0.1099
  H  H43  1  0.892600  0.462600  0.620800  1.0  0.1131
  H  H44  1  0.794500  0.463900  0.603000  1.0  0.0722
  H  H45  1  0.923400  0.487900  0.750600  1.0  0.1188
  H  H46  1  0.877200  0.487700  0.808200  1.0  0.0691
  H  H47  1  0.883500  0.318800  0.813700  1.0  0.0666
  H  H48  1  0.933700  0.314300  0.757800  1.0  0.0917
  H  H49  1  0.102700  0.995500  0.932200  1.0  0.0682
  H  H50  1  0.098300  0.900500  0.952300  1.0  0.1103
  H  H51  1  0.212600  0.857400  0.870800  1.0  0.1126
  H  H52  1  0.213900  0.955500  0.853000  1.0  0.072
  H  H53  1  0.237900  0.826600  0.000600  1.0  0.1194
  H  H54  1  0.237700  0.872800  0.058200  1.0  0.0661
  H  H55  1  0.068800  0.866500  0.063700  1.0  0.0659
  H  H56  1  0.064300  0.816300  0.007800  1.0  0.0918
  H  H57  1  0.602700  0.495500  0.432200  1.0  0.0682
  H  H58  1  0.598300  0.400500  0.452300  1.0  0.1103
  H  H59  1  0.712600  0.357400  0.370800  1.0  0.1126
  H  H60  1  0.713900  0.455500  0.353000  1.0  0.072
  H  H61  1  0.737900  0.326600  0.500600  1.0  0.1194
  H  H62  1  0.737700  0.372800  0.558200  1.0  0.0661
  H  H63  1  0.568800  0.366500  0.563700  1.0  0.0658
  H  H64  1  0.564300  0.316300  0.507800  1.0  0.0918
  H  H65  1  0.397300  0.004500  0.432200  1.0  0.0683
  H  H66  1  0.401700  0.099500  0.452300  1.0  0.1111
  H  H67  1  0.287400  0.142600  0.370800  1.0  0.1123
  H  H68  1  0.286100  0.044500  0.353000  1.0  0.0718
  H  H69  1  0.262100  0.173400  0.500600  1.0  0.1192
  H  H70  1  0.262300  0.127200  0.558200  1.0  0.0694
  H  H71  1  0.431200  0.133500  0.563700  1.0  0.0657
  H  H72  1  0.435700  0.183700  0.507800  1.0  0.0922
  H  H73  1  0.897300  0.504500  0.932200  1.0  0.0683
  H  H74  1  0.901700  0.599500  0.952300  1.0  0.1111
  H  H75  1  0.787400  0.642600  0.870800  1.0  0.1128
  H  H76  1  0.786100  0.544500  0.853000  1.0  0.0718
  H  H77  1  0.762100  0.673400  0.000600  1.0  0.1192
  H  H78  1  0.762300  0.627200  0.058200  1.0  0.0694
  H  H79  1  0.931200  0.633500  0.063700  1.0  0.0657
  H  H80  1  0.935700  0.683700  0.007800  1.0  0.0917
  H  H81  1  0.254500  0.147300  0.817800  1.0  0.07
  H  H82  1  0.349500  0.151700  0.797700  1.0  0.1105
  H  H83  1  0.392600  0.037400  0.879200  1.0  0.1141
  H  H84  1  0.294500  0.036100  0.897000  1.0  0.0724
  H  H85  1  0.423400  0.012100  0.749400  1.0  0.1176
  H  H86  1  0.377200  0.012300  0.691800  1.0  0.0687
  H  H87  1  0.383500  0.181200  0.686300  1.0  0.0667
  H  H88  1  0.433700  0.185700  0.742200  1.0  0.0928
  H  H89  1  0.754500  0.647300  0.317800  1.0  0.07
  H  H90  1  0.849500  0.651700  0.297700  1.0  0.1105
  H  H91  1  0.892600  0.537400  0.379200  1.0  0.1131
  H  H92  1  0.794500  0.536100  0.397000  1.0  0.0724
  H  H93  1  0.923400  0.512100  0.249400  1.0  0.1178
  H  H94  1  0.877200  0.512300  0.191800  1.0  0.0687
  H  H95  1  0.883500  0.681200  0.186300  1.0  0.0667
  H  H96  1  0.933700  0.685700  0.242200  1.0  0.0928
  H  H97  1  0.245500  0.852700  0.317800  1.0  0.0694
  H  H98  1  0.150500  0.848300  0.297700  1.0  0.1104
  H  H99  1  0.107400  0.962600  0.379200  1.0  0.1141
  H  H100  1  0.205500  0.963900  0.397000  1.0  0.0724
  H  H101  1  0.076600  0.987900  0.249400  1.0  0.1184
  H  H102  1  0.122800  0.987700  0.191800  1.0  0.0658
  H  H103  1  0.116500  0.818800  0.186300  1.0  0.0658
  H  H104  1  0.066300  0.814300  0.242200  1.0  0.0922
  H  H105  1  0.745500  0.352700  0.817800  1.0  0.0694
  H  H106  1  0.650500  0.348300  0.797700  1.0  0.1104
  H  H107  1  0.607400  0.462600  0.879200  1.0  0.1132
  H  H108  1  0.705500  0.463900  0.897000  1.0  0.0724
  H  H109  1  0.576600  0.487900  0.749400  1.0  0.1184
  H  H110  1  0.622800  0.487700  0.691800  1.0  0.0658
  H  H111  1  0.616500  0.318800  0.686300  1.0  0.0658
  H  H112  1  0.566300  0.314300  0.742200  1.0  0.0922
  H  H113  1  0.397300  0.995500  0.567800  1.0  0.0686
  H  H114  1  0.401700  0.900500  0.547700  1.0  0.1111
  H  H115  1  0.287400  0.857400  0.629200  1.0  0.1126
  H  H116  1  0.286100  0.955500  0.647000  1.0  0.0724
  H  H117  1  0.262100  0.826600  0.499400  1.0  0.1192
  H  H118  1  0.262300  0.872800  0.441800  1.0  0.0681
  H  H119  1  0.431200  0.866500  0.436300  1.0  0.0645
  H  H120  1  0.435700  0.816300  0.492200  1.0  0.092
  H  H121  1  0.897300  0.495500  0.067800  1.0  0.0686
  H  H122  1  0.901700  0.400500  0.047700  1.0  0.1116
  H  H123  1  0.787400  0.357400  0.129200  1.0  0.1132
  H  H124  1  0.786100  0.455500  0.147000  1.0  0.0724
  H  H125  1  0.762100  0.326600  0.999400  1.0  0.1192
  H  H126  1  0.762300  0.372800  0.941800  1.0  0.0681
  H  H127  1  0.931200  0.366500  0.936300  1.0  0.0651
  H  H128  1  0.935700  0.316300  0.992200  1.0  0.0927
  H  H129  1  0.102700  0.004500  0.067800  1.0  0.0688
  H  H130  1  0.098300  0.099500  0.047700  1.0  0.1107
  H  H131  1  0.212600  0.142600  0.129200  1.0  0.1125
  H  H132  1  0.213900  0.044500  0.147000  1.0  0.0721
  H  H133  1  0.237900  0.173400  0.999400  1.0  0.1186
  H  H134  1  0.237700  0.127200  0.941800  1.0  0.0683
  H  H135  1  0.068800  0.133500  0.936300  1.0  0.0654
  H  H136  1  0.064300  0.183700  0.992200  1.0  0.091
  H  H137  1  0.602700  0.504500  0.567800  1.0  0.0688
  H  H138  1  0.598300  0.599500  0.547700  1.0  0.1101
  H  H139  1  0.712600  0.642600  0.629200  1.0  0.1125
  H  H140  1  0.713900  0.544500  0.647000  1.0  0.0721
  H  H141  1  0.737900  0.673400  0.499400  1.0  0.1186
  H  H142  1  0.737700  0.627200  0.441800  1.0  0.0683
  H  H143  1  0.568800  0.633500  0.436300  1.0  0.0651
  H  H144  1  0.564300  0.683700  0.492200  1.0  0.091
  H  H145  1  0.754500  0.852700  0.317800  1.0  0.0695
  H  H146  1  0.849500  0.848300  0.297700  1.0  0.1098
  H  H147  1  0.892600  0.962600  0.379200  1.0  0.114
  H  H148  1  0.794500  0.963900  0.397000  1.0  0.0724
  H  H149  1  0.923400  0.987900  0.249400  1.0  0.118
  H  H150  1  0.877200  0.987700  0.191800  1.0  0.0692
  H  H151  1  0.883500  0.818800  0.186300  1.0  0.0661
  H  H152  1  0.933700  0.814300  0.242200  1.0  0.0911
  H  H153  1  0.254500  0.352700  0.817800  1.0  0.0695
  H  H154  1  0.349500  0.348300  0.797700  1.0  0.1098
  H  H155  1  0.392600  0.462600  0.879200  1.0  0.1129
  H  H156  1  0.294500  0.463900  0.897000  1.0  0.0724
  H  H157  1  0.423400  0.487900  0.749400  1.0  0.118
  H  H158  1  0.377200  0.487700  0.691800  1.0  0.0692
  H  H159  1  0.383500  0.318800  0.686300  1.0  0.0661
  H  H160  1  0.433700  0.314300  0.742200  1.0  0.091
  H  H161  1  0.745500  0.147300  0.817800  1.0  0.0698
  H  H162  1  0.650500  0.151700  0.797700  1.0  0.1109
  H  H163  1  0.607400  0.037400  0.879200  1.0  0.1141
  H  H164  1  0.705500  0.036100  0.897000  1.0  0.0728
  H  H165  1  0.576600  0.012100  0.749400  1.0  0.118
  H  H166  1  0.622800  0.012300  0.691800  1.0  0.0667
  H  H167  1  0.616500  0.181200  0.686300  1.0  0.0654
  H  H168  1  0.566300  0.185700  0.742200  1.0  0.0923
  H  H169  1  0.245500  0.647300  0.317800  1.0  0.0698
  H  H170  1  0.150500  0.651700  0.297700  1.0  0.1109
  H  H171  1  0.107400  0.537400  0.379200  1.0  0.1131
  H  H172  1  0.205500  0.536100  0.397000  1.0  0.0728
  H  H173  1  0.076600  0.512100  0.249400  1.0  0.1182
  H  H174  1  0.122800  0.512300  0.191800  1.0  0.0667
  H  H175  1  0.116500  0.681200  0.186300  1.0  0.0654
  H  H176  1  0.066300  0.685700  0.242200  1.0  0.0923
  H  H177  1  0.897300  0.004500  0.067800  1.0  0.0686
  H  H178  1  0.901700  0.099500  0.047700  1.0  0.1112
  H  H179  1  0.787400  0.142600  0.129200  1.0  0.1129
  H  H180  1  0.786100  0.044500  0.147000  1.0  0.0724
  H  H181  1  0.762100  0.173400  0.999400  1.0  0.1187
  H  H182  1  0.762300  0.127200  0.941800  1.0  0.0694
  H  H183  1  0.931200  0.133500  0.936300  1.0  0.0649
  H  H184  1  0.935700  0.183700  0.992200  1.0  0.0917
  H  H185  1  0.397300  0.504500  0.567800  1.0  0.0686
  H  H186  1  0.401700  0.599500  0.547700  1.0  0.1108
  H  H187  1  0.287400  0.642600  0.629200  1.0  0.1129
  H  H188  1  0.286100  0.544500  0.647000  1.0  0.0724
  H  H189  1  0.262100  0.673400  0.499400  1.0  0.1187
  H  H190  1  0.262300  0.627200  0.441800  1.0  0.0694
  H  H191  1  0.431200  0.633500  0.436300  1.0  0.0654
  H  H192  1  0.435700  0.683700  0.492200  1.0  0.0917
  H  H193  1  0.602700  0.995500  0.567800  1.0  0.0688
  H  H194  1  0.598300  0.900500  0.547700  1.0  0.1105
  H  H195  1  0.712600  0.857400  0.629200  1.0  0.1123
  H  H196  1  0.713900  0.955500  0.647000  1.0  0.0724
  H  H197  1  0.737900  0.826600  0.499400  1.0  0.1192
  H  H198  1  0.737700  0.872800  0.441800  1.0  0.066
  H  H199  1  0.568800  0.866500  0.436300  1.0  0.0655
  H  H200  1  0.564300  0.816300  0.492200  1.0  0.0911
  H  H201  1  0.102700  0.495500  0.067800  1.0  0.0688
  H  H202  1  0.098300  0.400500  0.047700  1.0  0.1105
  H  H203  1  0.212600  0.357400  0.129200  1.0  0.1127
  H  H204  1  0.213900  0.455500  0.147000  1.0  0.0724
  H  H205  1  0.237900  0.326600  0.999400  1.0  0.1192
  H  H206  1  0.237700  0.372800  0.941800  1.0  0.066
  H  H207  1  0.068800  0.366500  0.936300  1.0  0.0646
  H  H208  1  0.064300  0.316300  0.992200  1.0  0.0911
  H  H209  1  0.745500  0.852700  0.182200  1.0  0.069
  H  H210  1  0.650500  0.848300  0.202300  1.0  0.1105
  H  H211  1  0.607400  0.962600  0.120800  1.0  0.114
  H  H212  1  0.705500  0.963900  0.103000  1.0  0.0718
  H  H213  1  0.576600  0.987900  0.250600  1.0  0.1192
  H  H214  1  0.622800  0.987700  0.308200  1.0  0.0657
  H  H215  1  0.616500  0.818800  0.313700  1.0  0.0661
  H  H216  1  0.566300  0.814300  0.257800  1.0  0.0927
  H  H217  1  0.245500  0.352700  0.682200  1.0  0.069
  H  H218  1  0.150500  0.348300  0.702300  1.0  0.1105
  H  H219  1  0.107400  0.462600  0.620800  1.0  0.1132
  H  H220  1  0.205500  0.463900  0.603000  1.0  0.0718
  H  H221  1  0.076600  0.487900  0.750600  1.0  0.1192
  H  H222  1  0.122800  0.487700  0.808200  1.0  0.0657
  H  H223  1  0.116500  0.318800  0.813700  1.0  0.0661
  H  H224  1  0.066300  0.314300  0.757800  1.0  0.0927
  H  H225  1  0.754500  0.147300  0.682200  1.0  0.0694
  H  H226  1  0.849500  0.151700  0.702300  1.0  0.1106
  H  H227  1  0.892600  0.037400  0.620800  1.0  0.1139
  H  H228  1  0.794500  0.036100  0.603000  1.0  0.072
  H  H229  1  0.923400  0.012100  0.750600  1.0  0.1179
  H  H230  1  0.877200  0.012300  0.808200  1.0  0.0687
  H  H231  1  0.883500  0.181200  0.813700  1.0  0.0672
  H  H232  1  0.933700  0.185700  0.757800  1.0  0.0935
  H  H233  1  0.254500  0.647300  0.182200  1.0  0.0694
  H  H234  1  0.349500  0.651700  0.202300  1.0  0.1106
  H  H235  1  0.392600  0.537400  0.120800  1.0  0.1129
  H  H236  1  0.294500  0.536100  0.103000  1.0  0.072
  H  H237  1  0.423400  0.512100  0.250600  1.0  0.1181
  H  H238  1  0.377200  0.512300  0.308200  1.0  0.0687
  H  H239  1  0.383500  0.681200  0.313700  1.0  0.0672
  H  H240  1  0.433700  0.685700  0.257800  1.0  0.093
  H  H241  1  0.602700  0.004500  0.432200  1.0  0.0687
  H  H242  1  0.598300  0.099500  0.452300  1.0  0.1102
  H  H243  1  0.712600  0.142600  0.370800  1.0  0.1125
  H  H244  1  0.713900  0.044500  0.353000  1.0  0.0718
  H  H245  1  0.737900  0.173400  0.500600  1.0  0.1187
  H  H246  1  0.737700  0.127200  0.558200  1.0  0.0684
  H  H247  1  0.568800  0.133500  0.563700  1.0  0.0657
  H  H248  1  0.564300  0.183700  0.507800  1.0  0.0915
  H  H249  1  0.102700  0.504500  0.932200  1.0  0.0687
  H  H250  1  0.098300  0.599500  0.952300  1.0  0.1102
  H  H251  1  0.212600  0.642600  0.870800  1.0  0.1129
  H  H252  1  0.213900  0.544500  0.853000  1.0  0.0718
  H  H253  1  0.237900  0.673400  0.000600  1.0  0.1187
  H  H254  1  0.237700  0.627200  0.058200  1.0  0.0684
  H  H255  1  0.068800  0.633500  0.063700  1.0  0.0657
  H  H256  1  0.064300  0.683700  0.007800  1.0  0.0915
  H  H257  1  0.897300  0.995500  0.932200  1.0  0.0679
  H  H258  1  0.901700  0.900500  0.952300  1.0  0.1108
  H  H259  1  0.787400  0.857400  0.870800  1.0  0.1123
  H  H260  1  0.786100  0.955500  0.853000  1.0  0.0716
  H  H261  1  0.762100  0.826600  0.000600  1.0  0.1197
  H  H262  1  0.762300  0.872800  0.058200  1.0  0.0679
  H  H263  1  0.931200  0.866500  0.063700  1.0  0.0648
  H  H264  1  0.935700  0.816300  0.007800  1.0  0.0931
  H  H265  1  0.397300  0.495500  0.432200  1.0  0.0679
  H  H266  1  0.401700  0.400500  0.452300  1.0  0.1108
  H  H267  1  0.287400  0.357400  0.370800  1.0  0.1123
  H  H268  1  0.286100  0.455500  0.353000  1.0  0.0716
  H  H269  1  0.262100  0.326600  0.500600  1.0  0.1197
  H  H270  1  0.262300  0.372800  0.558200  1.0  0.0679
  H  H271  1  0.431200  0.366500  0.563700  1.0  0.065
  H  H272  1  0.435700  0.316300  0.507800  1.0  0.0924
  C  C273  1  0.217330  0.124850  0.669540  1.0  0.1551
  C  C274  1  0.160350  0.127730  0.681930  1.0  -0.1755
  C  C275  1  0.117300  0.094690  0.663910  1.0  0.0151
  C  C276  1  0.134780  0.060160  0.633800  1.0  -0.1656
  C  C277  1  0.194110  0.059890  0.623170  1.0  0.1273
  C  C278  1  0.054780  0.095830  0.675990  1.0  -0.1716
  C  C279  1  0.031440  0.100070  0.711440  1.0  -0.0185
  C  C280  1  0.065190  0.099510  0.747340  1.0  0.0824
  C  C281  1  0.083240  0.047640  0.763050  1.0  -0.2294
  C  C282  1  0.111620  0.048340  0.797820  1.0  0.1743
  C  C283  1  0.107590  0.146060  0.801300  1.0  0.1458
  C  C284  1  0.077820  0.149060  0.767190  1.0  -0.2132
  C  C285  1  0.717330  0.624850  0.169540  1.0  0.1551
  C  C286  1  0.660350  0.627730  0.181930  1.0  -0.1755
  C  C287  1  0.617300  0.594690  0.163910  1.0  0.0151
  C  C288  1  0.634780  0.560160  0.133800  1.0  -0.1656
  C  C289  1  0.694110  0.559890  0.123170  1.0  0.1273
  C  C290  1  0.554780  0.595830  0.175990  1.0  -0.1712
  C  C291  1  0.531440  0.600070  0.211440  1.0  -0.0185
  C  C292  1  0.565190  0.599510  0.247340  1.0  0.0824
  C  C293  1  0.583240  0.547640  0.263050  1.0  -0.2294
  C  C294  1  0.611620  0.548340  0.297820  1.0  0.1743
  C  C295  1  0.607590  0.646060  0.301300  1.0  0.1458
  C  C296  1  0.577820  0.649060  0.267190  1.0  -0.2132
  C  C297  1  0.282670  0.875150  0.169540  1.0  0.1552
  C  C298  1  0.339650  0.872270  0.181930  1.0  -0.1727
  C  C299  1  0.382700  0.905310  0.163910  1.0  0.0162
  C  C300  1  0.365220  0.939840  0.133800  1.0  -0.1673
  C  C301  1  0.305890  0.940110  0.123170  1.0  0.1271
  C  C302  1  0.445220  0.904170  0.175990  1.0  -0.1709
  C  C303  1  0.468560  0.899930  0.211440  1.0  -0.0183
  C  C304  1  0.434810  0.900490  0.247340  1.0  0.0812
  C  C305  1  0.416760  0.952360  0.263050  1.0  -0.2253
  C  C306  1  0.388380  0.951660  0.297820  1.0  0.1741
  C  C307  1  0.392410  0.853940  0.301300  1.0  0.1458
  C  C308  1  0.422180  0.850940  0.267190  1.0  -0.2101
  C  C309  1  0.782670  0.375150  0.669540  1.0  0.1552
  C  C310  1  0.839650  0.372270  0.681930  1.0  -0.1727
  C  C311  1  0.882700  0.405310  0.663910  1.0  0.0162
  C  C312  1  0.865220  0.439840  0.633800  1.0  -0.1673
  C  C313  1  0.805890  0.440110  0.623170  1.0  0.1271
  C  C314  1  0.945220  0.404170  0.675990  1.0  -0.1709
  C  C315  1  0.968560  0.399930  0.711440  1.0  -0.0183
  C  C316  1  0.934810  0.400490  0.747340  1.0  0.0812
  C  C317  1  0.916760  0.452360  0.763050  1.0  -0.2253
  C  C318  1  0.888380  0.451660  0.797820  1.0  0.1741
  C  C319  1  0.892410  0.353940  0.801300  1.0  0.1458
  C  C320  1  0.922180  0.350940  0.767190  1.0  -0.2101
  C  C321  1  0.125150  0.967330  0.919540  1.0  0.1539
  C  C322  1  0.122270  0.910350  0.931930  1.0  -0.1772
  C  C323  1  0.155310  0.867300  0.913910  1.0  0.0156
  C  C324  1  0.189840  0.884780  0.883800  1.0  -0.1667
  C  C325  1  0.190110  0.944110  0.873170  1.0  0.1258
  C  C326  1  0.154170  0.804780  0.925990  1.0  -0.1711
  C  C327  1  0.149930  0.781440  0.961440  1.0  -0.0182
  C  C328  1  0.150490  0.815190  0.997340  1.0  0.0821
  C  C329  1  0.202360  0.833240  0.013050  1.0  -0.2247
  C  C330  1  0.201660  0.861620  0.047820  1.0  0.1765
  C  C331  1  0.103940  0.857590  0.051300  1.0  0.147
  C  C332  1  0.100940  0.827820  0.017190  1.0  -0.2098
  C  C333  1  0.625150  0.467330  0.419540  1.0  0.1539
  C  C334  1  0.622270  0.410350  0.431930  1.0  -0.1772
  C  C335  1  0.655310  0.367300  0.413910  1.0  0.0156
  C  C336  1  0.689840  0.384780  0.383800  1.0  -0.1667
  C  C337  1  0.690110  0.444110  0.373170  1.0  0.1258
  C  C338  1  0.654170  0.304780  0.425990  1.0  -0.1711
  C  C339  1  0.649930  0.281440  0.461440  1.0  -0.0182
  C  C340  1  0.650490  0.315190  0.497340  1.0  0.0821
  C  C341  1  0.702360  0.333240  0.513050  1.0  -0.2247
  C  C342  1  0.701660  0.361620  0.547820  1.0  0.1765
  C  C343  1  0.603940  0.357590  0.551300  1.0  0.147
  C  C344  1  0.600940  0.327820  0.517190  1.0  -0.2098
  C  C345  1  0.374850  0.032670  0.419540  1.0  0.1548
  C  C346  1  0.377730  0.089650  0.431930  1.0  -0.1757
  C  C347  1  0.344690  0.132700  0.413910  1.0  0.0162
  C  C348  1  0.310160  0.115220  0.383800  1.0  -0.1673
  C  C349  1  0.309890  0.055890  0.373170  1.0  0.1269
  C  C350  1  0.345830  0.195220  0.425990  1.0  -0.1721
  C  C351  1  0.350070  0.218560  0.461440  1.0  -0.0184
  C  C352  1  0.349510  0.184810  0.497340  1.0  0.0823
  C  C353  1  0.297640  0.166760  0.513050  1.0  -0.2246
  C  C354  1  0.298340  0.138380  0.547820  1.0  0.1761
  C  C355  1  0.396060  0.142410  0.551300  1.0  0.1475
  C  C356  1  0.399060  0.172180  0.517190  1.0  -0.2048
  C  C357  1  0.874850  0.532670  0.919540  1.0  0.1548
  C  C358  1  0.877730  0.589650  0.931930  1.0  -0.1757
  C  C359  1  0.844690  0.632700  0.913910  1.0  0.0162
  C  C360  1  0.810160  0.615220  0.883800  1.0  -0.1673
  C  C361  1  0.809890  0.555890  0.873170  1.0  0.1269
  C  C362  1  0.845830  0.695220  0.925990  1.0  -0.1721
  C  C363  1  0.850070  0.718560  0.961440  1.0  -0.0184
  C  C364  1  0.849510  0.684810  0.997340  1.0  0.0823
  C  C365  1  0.797640  0.666760  0.013050  1.0  -0.2246
  C  C366  1  0.798340  0.638380  0.047820  1.0  0.1761
  C  C367  1  0.896060  0.642410  0.051300  1.0  0.1475
  C  C368  1  0.899060  0.672180  0.017190  1.0  -0.2048
  C  C369  1  0.282670  0.124850  0.830460  1.0  0.1554
  C  C370  1  0.339650  0.127730  0.818070  1.0  -0.174
  C  C371  1  0.382700  0.094690  0.836090  1.0  0.0164
  C  C372  1  0.365220  0.060160  0.866200  1.0  -0.1653
  C  C373  1  0.305890  0.059890  0.876830  1.0  0.1271
  C  C374  1  0.445220  0.095830  0.824010  1.0  -0.17
  C  C375  1  0.468560  0.100070  0.788560  1.0  -0.0194
  C  C376  1  0.434810  0.099510  0.752660  1.0  0.0812
  C  C377  1  0.416760  0.047640  0.736950  1.0  -0.2264
  C  C378  1  0.388380  0.048340  0.702180  1.0  0.174
  C  C379  1  0.392410  0.146060  0.698700  1.0  0.1456
  C  C380  1  0.422180  0.149060  0.732810  1.0  -0.2058
  C  C381  1  0.782670  0.624850  0.330460  1.0  0.1554
  C  C382  1  0.839650  0.627730  0.318070  1.0  -0.174
  C  C383  1  0.882700  0.594690  0.336090  1.0  0.0164
  C  C384  1  0.865220  0.560160  0.366200  1.0  -0.1653
  C  C385  1  0.805890  0.559890  0.376830  1.0  0.1271
  C  C386  1  0.945220  0.595830  0.324010  1.0  -0.17
  C  C387  1  0.968560  0.600070  0.288560  1.0  -0.0194
  C  C388  1  0.934810  0.599510  0.252660  1.0  0.0812
  C  C389  1  0.916760  0.547640  0.236950  1.0  -0.2264
  C  C390  1  0.888380  0.548340  0.202180  1.0  0.174
  C  C391  1  0.892410  0.646060  0.198700  1.0  0.1456
  C  C392  1  0.922180  0.649060  0.232810  1.0  -0.2058
  C  C393  1  0.217330  0.875150  0.330460  1.0  0.1556
  C  C394  1  0.160350  0.872270  0.318070  1.0  -0.1747
  C  C395  1  0.117300  0.905310  0.336090  1.0  0.016
  C  C396  1  0.134780  0.939840  0.366200  1.0  -0.1687
  C  C397  1  0.194110  0.940110  0.376830  1.0  0.1275
  C  C398  1  0.054780  0.904170  0.324010  1.0  -0.1698
  C  C399  1  0.031440  0.899930  0.288560  1.0  -0.0194
  C  C400  1  0.065190  0.900490  0.252660  1.0  0.0817
  C  C401  1  0.083240  0.952360  0.236950  1.0  -0.2253
  C  C402  1  0.111620  0.951660  0.202180  1.0  0.1733
  C  C403  1  0.107590  0.853940  0.198700  1.0  0.1455
  C  C404  1  0.077820  0.850940  0.232810  1.0  -0.2109
  C  C405  1  0.717330  0.375150  0.830460  1.0  0.1556
  C  C406  1  0.660350  0.372270  0.818070  1.0  -0.1747
  C  C407  1  0.617300  0.405310  0.836090  1.0  0.016
  C  C408  1  0.634780  0.439840  0.866200  1.0  -0.1687
  C  C409  1  0.694110  0.440110  0.876830  1.0  0.1275
  C  C410  1  0.554780  0.404170  0.824010  1.0  -0.1711
  C  C411  1  0.531440  0.399930  0.788560  1.0  -0.0194
  C  C412  1  0.565190  0.400490  0.752660  1.0  0.0817
  C  C413  1  0.583240  0.452360  0.736950  1.0  -0.2253
  C  C414  1  0.611620  0.451660  0.702180  1.0  0.1733
  C  C415  1  0.607590  0.353940  0.698700  1.0  0.1455
  C  C416  1  0.577820  0.350940  0.732810  1.0  -0.2109
  C  C417  1  0.374850  0.967330  0.580460  1.0  0.1548
  C  C418  1  0.377730  0.910350  0.568070  1.0  -0.1742
  C  C419  1  0.344690  0.867300  0.586090  1.0  0.0158
  C  C420  1  0.310160  0.884780  0.616200  1.0  -0.1653
  C  C421  1  0.309890  0.944110  0.626830  1.0  0.1265
  C  C422  1  0.345830  0.804780  0.574010  1.0  -0.1718
  C  C423  1  0.350070  0.781440  0.538560  1.0  -0.0194
  C  C424  1  0.349510  0.815190  0.502660  1.0  0.0814
  C  C425  1  0.297640  0.833240  0.486950  1.0  -0.2259
  C  C426  1  0.298340  0.861620  0.452180  1.0  0.1753
  C  C427  1  0.396060  0.857590  0.448700  1.0  0.1468
  C  C428  1  0.399060  0.827820  0.482810  1.0  -0.2039
  C  C429  1  0.874850  0.467330  0.080460  1.0  0.1548
  C  C430  1  0.877730  0.410350  0.068070  1.0  -0.1742
  C  C431  1  0.844690  0.367300  0.086090  1.0  0.0158
  C  C432  1  0.810160  0.384780  0.116200  1.0  -0.1653
  C  C433  1  0.809890  0.444110  0.126830  1.0  0.1265
  C  C434  1  0.845830  0.304780  0.074010  1.0  -0.1718
  C  C435  1  0.850070  0.281440  0.038560  1.0  -0.0194
  C  C436  1  0.849510  0.315190  0.002660  1.0  0.0814
  C  C437  1  0.797640  0.333240  0.986950  1.0  -0.2259
  C  C438  1  0.798340  0.361620  0.952180  1.0  0.1753
  C  C439  1  0.896060  0.357590  0.948700  1.0  0.1468
  C  C440  1  0.899060  0.327820  0.982810  1.0  -0.2039
  C  C441  1  0.125150  0.032670  0.080460  1.0  0.1542
  C  C442  1  0.122270  0.089650  0.068070  1.0  -0.174
  C  C443  1  0.155310  0.132700  0.086090  1.0  0.0169
  C  C444  1  0.189840  0.115220  0.116200  1.0  -0.1675
  C  C445  1  0.190110  0.055890  0.126830  1.0  0.1266
  C  C446  1  0.154170  0.195220  0.074010  1.0  -0.1719
  C  C447  1  0.149930  0.218560  0.038560  1.0  -0.0197
  C  C448  1  0.150490  0.184810  0.002660  1.0  0.0823
  C  C449  1  0.202360  0.166760  0.986950  1.0  -0.2229
  C  C450  1  0.201660  0.138380  0.952180  1.0  0.1754
  C  C451  1  0.103940  0.142410  0.948700  1.0  0.1471
  C  C452  1  0.100940  0.172180  0.982810  1.0  -0.205
  C  C453  1  0.625150  0.532670  0.580460  1.0  0.1542
  C  C454  1  0.622270  0.589650  0.568070  1.0  -0.174
  C  C455  1  0.655310  0.632700  0.586090  1.0  0.0169
  C  C456  1  0.689840  0.615220  0.616200  1.0  -0.1675
  C  C457  1  0.690110  0.555890  0.626830  1.0  0.1266
  C  C458  1  0.654170  0.695220  0.574010  1.0  -0.1719
  C  C459  1  0.649930  0.718560  0.538560  1.0  -0.0197
  C  C460  1  0.650490  0.684810  0.502660  1.0  0.0823
  C  C461  1  0.702360  0.666760  0.486950  1.0  -0.2229
  C  C462  1  0.701660  0.638380  0.452180  1.0  0.1754
  C  C463  1  0.603940  0.642410  0.448700  1.0  0.1471
  C  C464  1  0.600940  0.672180  0.482810  1.0  -0.205
  C  C465  1  0.782670  0.875150  0.330460  1.0  0.1552
  C  C466  1  0.839650  0.872270  0.318070  1.0  -0.1732
  C  C467  1  0.882700  0.905310  0.336090  1.0  0.0166
  C  C468  1  0.865220  0.939840  0.366200  1.0  -0.1673
  C  C469  1  0.805890  0.940110  0.376830  1.0  0.1267
  C  C470  1  0.945220  0.904170  0.324010  1.0  -0.1703
  C  C471  1  0.968560  0.899930  0.288560  1.0  -0.0193
  C  C472  1  0.934810  0.900490  0.252660  1.0  0.0809
  C  C473  1  0.916760  0.952360  0.236950  1.0  -0.2246
  C  C474  1  0.888380  0.951660  0.202180  1.0  0.1736
  C  C475  1  0.892410  0.853940  0.198700  1.0  0.1459
  C  C476  1  0.922180  0.850940  0.232810  1.0  -0.2055
  C  C477  1  0.282670  0.375150  0.830460  1.0  0.1552
  C  C478  1  0.339650  0.372270  0.818070  1.0  -0.1732
  C  C479  1  0.382700  0.405310  0.836090  1.0  0.0166
  C  C480  1  0.365220  0.439840  0.866200  1.0  -0.1673
  C  C481  1  0.305890  0.440110  0.876830  1.0  0.1267
  C  C482  1  0.445220  0.404170  0.824010  1.0  -0.1726
  C  C483  1  0.468560  0.399930  0.788560  1.0  -0.0193
  C  C484  1  0.434810  0.400490  0.752660  1.0  0.0809
  C  C485  1  0.416760  0.452360  0.736950  1.0  -0.2246
  C  C486  1  0.388380  0.451660  0.702180  1.0  0.1736
  C  C487  1  0.392410  0.353940  0.698700  1.0  0.1459
  C  C488  1  0.422180  0.350940  0.732810  1.0  -0.2055
  C  C489  1  0.717330  0.124850  0.830460  1.0  0.1557
  C  C490  1  0.660350  0.127730  0.818070  1.0  -0.175
  C  C491  1  0.617300  0.094690  0.836090  1.0  0.0159
  C  C492  1  0.634780  0.060160  0.866200  1.0  -0.1655
  C  C493  1  0.694110  0.059890  0.876830  1.0  0.1279
  C  C494  1  0.554780  0.095830  0.824010  1.0  -0.1714
  C  C495  1  0.531440  0.100070  0.788560  1.0  -0.0194
  C  C496  1  0.565190  0.099510  0.752660  1.0  0.082
  C  C497  1  0.583240  0.047640  0.736950  1.0  -0.2279
  C  C498  1  0.611620  0.048340  0.702180  1.0  0.1729
  C  C499  1  0.607590  0.146060  0.698700  1.0  0.1455
  C  C500  1  0.577820  0.149060  0.732810  1.0  -0.2081
  C  C501  1  0.217330  0.624850  0.330460  1.0  0.1557
  C  C502  1  0.160350  0.627730  0.318070  1.0  -0.175
  C  C503  1  0.117300  0.594690  0.336090  1.0  0.0159
  C  C504  1  0.134780  0.560160  0.366200  1.0  -0.1655
  C  C505  1  0.194110  0.559890  0.376830  1.0  0.1279
  C  C506  1  0.054780  0.595830  0.324010  1.0  -0.1714
  C  C507  1  0.031440  0.600070  0.288560  1.0  -0.0194
  C  C508  1  0.065190  0.599510  0.252660  1.0  0.082
  C  C509  1  0.083240  0.547640  0.236950  1.0  -0.2279
  C  C510  1  0.111620  0.548340  0.202180  1.0  0.1729
  C  C511  1  0.107590  0.646060  0.198700  1.0  0.1455
  C  C512  1  0.077820  0.649060  0.232810  1.0  -0.2081
  C  C513  1  0.874850  0.032670  0.080460  1.0  0.1547
  C  C514  1  0.877730  0.089650  0.068070  1.0  -0.1758
  C  C515  1  0.844690  0.132700  0.086090  1.0  0.0169
  C  C516  1  0.810160  0.115220  0.116200  1.0  -0.1689
  C  C517  1  0.809890  0.055890  0.126830  1.0  0.1266
  C  C518  1  0.845830  0.195220  0.074010  1.0  -0.1716
  C  C519  1  0.850070  0.218560  0.038560  1.0  -0.0197
  C  C520  1  0.849510  0.184810  0.002660  1.0  0.0814
  C  C521  1  0.797640  0.166760  0.986950  1.0  -0.2246
  C  C522  1  0.798340  0.138380  0.952180  1.0  0.1748
  C  C523  1  0.896060  0.142410  0.948700  1.0  0.1467
  C  C524  1  0.899060  0.172180  0.982810  1.0  -0.2038
  C  C525  1  0.374850  0.532670  0.580460  1.0  0.1547
  C  C526  1  0.377730  0.589650  0.568070  1.0  -0.1758
  C  C527  1  0.344690  0.632700  0.586090  1.0  0.0169
  C  C528  1  0.310160  0.615220  0.616200  1.0  -0.1689
  C  C529  1  0.309890  0.555890  0.626830  1.0  0.1266
  C  C530  1  0.345830  0.695220  0.574010  1.0  -0.1716
  C  C531  1  0.350070  0.718560  0.538560  1.0  -0.0197
  C  C532  1  0.349510  0.684810  0.502660  1.0  0.0814
  C  C533  1  0.297640  0.666760  0.486950  1.0  -0.2246
  C  C534  1  0.298340  0.638380  0.452180  1.0  0.1748
  C  C535  1  0.396060  0.642410  0.448700  1.0  0.1467
  C  C536  1  0.399060  0.672180  0.482810  1.0  -0.2038
  C  C537  1  0.625150  0.967330  0.580460  1.0  0.1544
  C  C538  1  0.622270  0.910350  0.568070  1.0  -0.1773
  C  C539  1  0.655310  0.867300  0.586090  1.0  0.0159
  C  C540  1  0.689840  0.884780  0.616200  1.0  -0.1653
  C  C541  1  0.690110  0.944110  0.626830  1.0  0.1263
  C  C542  1  0.654170  0.804780  0.574010  1.0  -0.1712
  C  C543  1  0.649930  0.781440  0.538560  1.0  -0.0194
  C  C544  1  0.650490  0.815190  0.502660  1.0  0.0822
  C  C545  1  0.702360  0.833240  0.486950  1.0  -0.2224
  C  C546  1  0.701660  0.861620  0.452180  1.0  0.176
  C  C547  1  0.603940  0.857590  0.448700  1.0  0.1469
  C  C548  1  0.600940  0.827820  0.482810  1.0  -0.209
  C  C549  1  0.125150  0.467330  0.080460  1.0  0.1544
  C  C550  1  0.122270  0.410350  0.068070  1.0  -0.1773
  C  C551  1  0.155310  0.367300  0.086090  1.0  0.0159
  C  C552  1  0.189840  0.384780  0.116200  1.0  -0.1653
  C  C553  1  0.190110  0.444110  0.126830  1.0  0.1263
  C  C554  1  0.154170  0.304780  0.074010  1.0  -0.1712
  C  C555  1  0.149930  0.281440  0.038560  1.0  -0.0194
  C  C556  1  0.150490  0.315190  0.002660  1.0  0.0822
  C  C557  1  0.202360  0.333240  0.986950  1.0  -0.2224
  C  C558  1  0.201660  0.361620  0.952180  1.0  0.176
  C  C559  1  0.103940  0.357590  0.948700  1.0  0.1469
  C  C560  1  0.100940  0.327820  0.982810  1.0  -0.209
  C  C561  1  0.717330  0.875150  0.169540  1.0  0.1556
  C  C562  1  0.660350  0.872270  0.181930  1.0  -0.1742
  C  C563  1  0.617300  0.905310  0.163910  1.0  0.0152
  C  C564  1  0.634780  0.939840  0.133800  1.0  -0.1671
  C  C565  1  0.694110  0.940110  0.123170  1.0  0.1277
  C  C566  1  0.554780  0.904170  0.175990  1.0  -0.1702
  C  C567  1  0.531440  0.899930  0.211440  1.0  -0.0184
  C  C568  1  0.565190  0.900490  0.247340  1.0  0.082
  C  C569  1  0.583240  0.952360  0.263050  1.0  -0.2287
  C  C570  1  0.611620  0.951660  0.297820  1.0  0.1742
  C  C571  1  0.607590  0.853940  0.301300  1.0  0.1464
  C  C572  1  0.577820  0.850940  0.267190  1.0  -0.2114
  C  C573  1  0.217330  0.375150  0.669540  1.0  0.1556
  C  C574  1  0.160350  0.372270  0.681930  1.0  -0.1742
  C  C575  1  0.117300  0.405310  0.663910  1.0  0.0152
  C  C576  1  0.134780  0.439840  0.633800  1.0  -0.1671
  C  C577  1  0.194110  0.440110  0.623170  1.0  0.1277
  C  C578  1  0.054780  0.404170  0.675990  1.0  -0.1702
  C  C579  1  0.031440  0.399930  0.711440  1.0  -0.0184
  C  C580  1  0.065190  0.400490  0.747340  1.0  0.082
  C  C581  1  0.083240  0.452360  0.763050  1.0  -0.2287
  C  C582  1  0.111620  0.451660  0.797820  1.0  0.1742
  C  C583  1  0.107590  0.353940  0.801300  1.0  0.1464
  C  C584  1  0.077820  0.350940  0.767190  1.0  -0.2114
  C  C585  1  0.782670  0.124850  0.669540  1.0  0.1548
  C  C586  1  0.839650  0.127730  0.681930  1.0  -0.1745
  C  C587  1  0.882700  0.094690  0.663910  1.0  0.0161
  C  C588  1  0.865220  0.060160  0.633800  1.0  -0.1667
  C  C589  1  0.805890  0.059890  0.623170  1.0  0.1266
  C  C590  1  0.945220  0.095830  0.675990  1.0  -0.172
  C  C591  1  0.968560  0.100070  0.711440  1.0  -0.0184
  C  C592  1  0.934810  0.099510  0.747340  1.0  0.0814
  C  C593  1  0.916760  0.047640  0.763050  1.0  -0.2272
  C  C594  1  0.888380  0.048340  0.797820  1.0  0.175
  C  C595  1  0.892410  0.146060  0.801300  1.0  0.1447
  C  C596  1  0.922180  0.149060  0.767190  1.0  -0.2067
  C  C597  1  0.282670  0.624850  0.169540  1.0  0.1548
  C  C598  1  0.339650  0.627730  0.181930  1.0  -0.1745
  C  C599  1  0.382700  0.594690  0.163910  1.0  0.0161
  C  C600  1  0.365220  0.560160  0.133800  1.0  -0.1667
  C  C601  1  0.305890  0.559890  0.123170  1.0  0.1266
  C  C602  1  0.445220  0.595830  0.175990  1.0  -0.1708
  C  C603  1  0.468560  0.600070  0.211440  1.0  -0.0184
  C  C604  1  0.434810  0.599510  0.247340  1.0  0.0814
  C  C605  1  0.416760  0.547640  0.263050  1.0  -0.2272
  C  C606  1  0.388380  0.548340  0.297820  1.0  0.175
  C  C607  1  0.392410  0.646060  0.301300  1.0  0.1447
  C  C608  1  0.422180  0.649060  0.267190  1.0  -0.2067
  C  C609  1  0.625150  0.032670  0.419540  1.0  0.1545
  C  C610  1  0.622270  0.089650  0.431930  1.0  -0.1739
  C  C611  1  0.655310  0.132700  0.413910  1.0  0.0163
  C  C612  1  0.689840  0.115220  0.383800  1.0  -0.1677
  C  C613  1  0.690110  0.055890  0.373170  1.0  0.126
  C  C614  1  0.654170  0.195220  0.425990  1.0  -0.1742
  C  C615  1  0.649930  0.218560  0.461440  1.0  -0.0182
  C  C616  1  0.650490  0.184810  0.497340  1.0  0.083
  C  C617  1  0.702360  0.166760  0.513050  1.0  -0.2238
  C  C618  1  0.701660  0.138380  0.547820  1.0  0.1764
  C  C619  1  0.603940  0.142410  0.551300  1.0  0.1476
  C  C620  1  0.600940  0.172180  0.517190  1.0  -0.2097
  C  C621  1  0.125150  0.532670  0.919540  1.0  0.1545
  C  C622  1  0.122270  0.589650  0.931930  1.0  -0.1739
  C  C623  1  0.155310  0.632700  0.913910  1.0  0.0163
  C  C624  1  0.189840  0.615220  0.883800  1.0  -0.1677
  C  C625  1  0.190110  0.555890  0.873170  1.0  0.126
  C  C626  1  0.154170  0.695220  0.925990  1.0  -0.1742
  C  C627  1  0.149930  0.718560  0.961440  1.0  -0.0182
  C  C628  1  0.150490  0.684810  0.997340  1.0  0.083
  C  C629  1  0.202360  0.666760  0.013050  1.0  -0.2238
  C  C630  1  0.201660  0.638380  0.047820  1.0  0.1764
  C  C631  1  0.103940  0.642410  0.051300  1.0  0.1476
  C  C632  1  0.100940  0.672180  0.017190  1.0  -0.2097
  C  C633  1  0.874850  0.967330  0.919540  1.0  0.1541
  C  C634  1  0.877730  0.910350  0.931930  1.0  -0.1739
  C  C635  1  0.844690  0.867300  0.913910  1.0  0.0156
  C  C636  1  0.810160  0.884780  0.883800  1.0  -0.1655
  C  C637  1  0.809890  0.944110  0.873170  1.0  0.1269
  C  C638  1  0.845830  0.804780  0.925990  1.0  -0.1724
  C  C639  1  0.850070  0.781440  0.961440  1.0  -0.0182
  C  C640  1  0.849510  0.815190  0.997340  1.0  0.0814
  C  C641  1  0.797640  0.833240  0.013050  1.0  -0.2279
  C  C642  1  0.798340  0.861620  0.047820  1.0  0.1762
  C  C643  1  0.896060  0.857590  0.051300  1.0  0.1472
  C  C644  1  0.899060  0.827820  0.017190  1.0  -0.2098
  C  C645  1  0.374850  0.467330  0.419540  1.0  0.1541
  C  C646  1  0.377730  0.410350  0.431930  1.0  -0.1739
  C  C647  1  0.344690  0.367300  0.413910  1.0  0.0156
  C  C648  1  0.310160  0.384780  0.383800  1.0  -0.1655
  C  C649  1  0.309890  0.444110  0.373170  1.0  0.1269
  C  C650  1  0.345830  0.304780  0.425990  1.0  -0.1724
  C  C651  1  0.350070  0.281440  0.461440  1.0  -0.0182
  C  C652  1  0.349510  0.315190  0.497340  1.0  0.0814
  C  C653  1  0.297640  0.333240  0.513050  1.0  -0.2279
  C  C654  1  0.298340  0.361620  0.547820  1.0  0.1762
  C  C655  1  0.396060  0.357590  0.551300  1.0  0.1472
  C  C656  1  0.399060  0.327820  0.517190  1.0  -0.2098
  S  S657  1  0.000000  0.092230  0.642060  1.0  0.1089
  S  S658  1  0.500000  0.592230  0.142060  1.0  0.1089
  S  S659  1  0.500000  0.907770  0.142060  1.0  0.1088
  S  S660  1  0.000000  0.407770  0.642060  1.0  0.1088
  S  S661  1  0.157770  0.750000  0.892060  1.0  0.1093
  S  S662  1  0.342230  0.250000  0.392060  1.0  0.1049
  S  S663  1  0.500000  0.092230  0.857940  1.0  0.1128
  S  S664  1  0.000000  0.592230  0.357940  1.0  0.1128
  S  S665  1  0.000000  0.907770  0.357940  1.0  0.1126
  S  S666  1  0.500000  0.407770  0.857940  1.0  0.1126
  S  S667  1  0.342230  0.750000  0.607940  1.0  0.1088
  S  S668  1  0.157770  0.250000  0.107940  1.0  0.1132
  S  S669  1  0.842230  0.250000  0.107940  1.0  0.1088
  S  S670  1  0.657770  0.750000  0.607940  1.0  0.1132
  S  S671  1  0.657770  0.250000  0.392060  1.0  0.1093
  S  S672  1  0.842230  0.750000  0.892060  1.0  0.1049
  N  N673  1  0.235120  0.091940  0.640490  1.0  -0.3293
  N  N674  1  0.123800  0.096210  0.817050  1.0  -0.3222
  N  N675  1  0.735120  0.591940  0.140490  1.0  -0.3293
  N  N676  1  0.623800  0.596210  0.317050  1.0  -0.3222
  N  N677  1  0.264880  0.908060  0.140490  1.0  -0.3222
  N  N678  1  0.376200  0.903790  0.317050  1.0  -0.3233
  N  N679  1  0.764880  0.408060  0.640490  1.0  -0.3222
  N  N680  1  0.876200  0.403790  0.817050  1.0  -0.3233
  N  N681  1  0.158060  0.985120  0.890490  1.0  -0.3333
  N  N682  1  0.153790  0.873800  0.067050  1.0  -0.3249
  N  N683  1  0.658060  0.485120  0.390490  1.0  -0.3333
  N  N684  1  0.653790  0.373800  0.567050  1.0  -0.3245
  N  N685  1  0.341940  0.014880  0.390490  1.0  -0.3329
  N  N686  1  0.346210  0.126200  0.567050  1.0  -0.3235
  N  N687  1  0.841940  0.514880  0.890490  1.0  -0.3329
  N  N688  1  0.846210  0.626200  0.067050  1.0  -0.3237
  N  N689  1  0.264880  0.091940  0.859510  1.0  -0.322
  N  N690  1  0.376200  0.096210  0.682950  1.0  -0.3211
  N  N691  1  0.764880  0.591940  0.359510  1.0  -0.322
  N  N692  1  0.876200  0.596210  0.182950  1.0  -0.3211
  N  N693  1  0.235120  0.908060  0.359510  1.0  -0.329
  N  N694  1  0.123800  0.903790  0.182950  1.0  -0.3207
  N  N695  1  0.735120  0.408060  0.859510  1.0  -0.329
  N  N696  1  0.623800  0.403790  0.682950  1.0  -0.3207
  N  N697  1  0.341940  0.985120  0.609510  1.0  -0.3336
  N  N698  1  0.346210  0.873800  0.432950  1.0  -0.3233
  N  N699  1  0.841940  0.485120  0.109510  1.0  -0.3336
  N  N700  1  0.846210  0.373800  0.932950  1.0  -0.3233
  N  N701  1  0.158060  0.014880  0.109510  1.0  -0.3322
  N  N702  1  0.153790  0.126200  0.932950  1.0  -0.3252
  N  N703  1  0.658060  0.514880  0.609510  1.0  -0.3322
  N  N704  1  0.653790  0.626200  0.432950  1.0  -0.3252
  N  N705  1  0.764880  0.908060  0.359510  1.0  -0.322
  N  N706  1  0.876200  0.903790  0.182950  1.0  -0.3229
  N  N707  1  0.264880  0.408060  0.859510  1.0  -0.322
  N  N708  1  0.376200  0.403790  0.682950  1.0  -0.3229
  N  N709  1  0.735120  0.091940  0.859510  1.0  -0.3297
  N  N710  1  0.623800  0.096210  0.682950  1.0  -0.3219
  N  N711  1  0.235120  0.591940  0.359510  1.0  -0.3297
  N  N712  1  0.123800  0.596210  0.182950  1.0  -0.3219
  N  N713  1  0.841940  0.014880  0.109510  1.0  -0.3319
  N  N714  1  0.846210  0.126200  0.932950  1.0  -0.3257
  N  N715  1  0.341940  0.514880  0.609510  1.0  -0.3319
  N  N716  1  0.346210  0.626200  0.432950  1.0  -0.3253
  N  N717  1  0.658060  0.985120  0.609510  1.0  -0.334
  N  N718  1  0.653790  0.873800  0.432950  1.0  -0.3234
  N  N719  1  0.158060  0.485120  0.109510  1.0  -0.334
  N  N720  1  0.153790  0.373800  0.932950  1.0  -0.3234
  N  N721  1  0.735120  0.908060  0.140490  1.0  -0.3287
  N  N722  1  0.623800  0.903790  0.317050  1.0  -0.3209
  N  N723  1  0.235120  0.408060  0.640490  1.0  -0.3287
  N  N724  1  0.123800  0.403790  0.817050  1.0  -0.3209
  N  N725  1  0.764880  0.091940  0.640490  1.0  -0.3222
  N  N726  1  0.876200  0.096210  0.817050  1.0  -0.3214
  N  N727  1  0.264880  0.591940  0.140490  1.0  -0.3222
  N  N728  1  0.376200  0.596210  0.317050  1.0  -0.3214
  N  N729  1  0.658060  0.014880  0.390490  1.0  -0.3328
  N  N730  1  0.653790  0.126200  0.567050  1.0  -0.3235
  N  N731  1  0.158060  0.514880  0.890490  1.0  -0.3328
  N  N732  1  0.153790  0.626200  0.067050  1.0  -0.324
  N  N733  1  0.841940  0.985120  0.890490  1.0  -0.3331
  N  N734  1  0.846210  0.873800  0.067050  1.0  -0.3236
  N  N735  1  0.341940  0.485120  0.390490  1.0  -0.3331
  N  N736  1  0.346210  0.373800  0.567050  1.0  -0.3244
