# generated using pymatgen
data_AgH16C24SN4
_symmetry_space_group_name_H-M   'P 1'
_cell_length_a   23.16600000
_cell_length_b   23.16600000
_cell_length_c   34.93100000
_cell_angle_alpha   90.00000000
_cell_angle_beta   90.00000000
_cell_angle_gamma   90.00000000
_symmetry_Int_Tables_number   1
_chemical_formula_structural   AgH16C24SN4
_chemical_formula_sum   'Ag16 H256 C384 S16 N64'
_cell_volume   18746.19467464
_cell_formula_units_Z   16
loop_
 _symmetry_equiv_pos_site_id
 _symmetry_equiv_pos_as_xyz
  1  'x, y, z'
loop_
 _atom_site_type_symbol
 _atom_site_label
 _atom_site_symmetry_multiplicity
 _atom_site_fract_x
 _atom_site_fract_y
 _atom_site_fract_z
 _atom_site_occupancy
 _atom_site_charge
  Ag  Ag1  1  0.330500  0.080500  0.625000  1.0  0.3289
  Ag  Ag2  1  0.830500  0.580500  0.125000  1.0  0.3289
  Ag  Ag3  1  0.169500  0.919500  0.125000  1.0  0.3298
  Ag  Ag4  1  0.669500  0.419500  0.625000  1.0  0.3298
  Ag  Ag5  1  0.169500  0.080500  0.875000  1.0  0.33
  Ag  Ag6  1  0.669500  0.580500  0.375000  1.0  0.33
  Ag  Ag7  1  0.330500  0.919500  0.375000  1.0  0.3289
  Ag  Ag8  1  0.830500  0.419500  0.875000  1.0  0.3289
  Ag  Ag9  1  0.669500  0.919500  0.375000  1.0  0.3298
  Ag  Ag10  1  0.169500  0.419500  0.875000  1.0  0.3298
  Ag  Ag11  1  0.830500  0.080500  0.875000  1.0  0.3289
  Ag  Ag12  1  0.330500  0.580500  0.375000  1.0  0.3289
  Ag  Ag13  1  0.830500  0.919500  0.125000  1.0  0.3289
  Ag  Ag14  1  0.330500  0.419500  0.625000  1.0  0.3289
  Ag  Ag15  1  0.669500  0.080500  0.625000  1.0  0.33
  Ag  Ag16  1  0.169500  0.580500  0.125000  1.0  0.33
  H  H17  1  0.241100  0.141100  0.681300  1.0  0.0673
  H  H18  1  0.146800  0.148000  0.700600  1.0  0.1056
  H  H19  1  0.106600  0.032600  0.619900  1.0  0.1066
  H  H20  1  0.201200  0.032800  0.601600  1.0  0.0677
  H  H21  1  0.078800  0.010200  0.748600  1.0  0.1088
  H  H22  1  0.131400  0.009800  0.804600  1.0  0.061
  H  H23  1  0.108900  0.171400  0.818500  1.0  0.0525
  H  H24  1  0.060600  0.178600  0.761400  1.0  0.1135
  H  H25  1  0.741100  0.641100  0.181300  1.0  0.0673
  H  H26  1  0.646800  0.648000  0.200600  1.0  0.1056
  H  H27  1  0.606600  0.532600  0.119900  1.0  0.1061
  H  H28  1  0.701200  0.532800  0.101600  1.0  0.0677
  H  H29  1  0.578800  0.510200  0.248600  1.0  0.1087
  H  H30  1  0.631400  0.509800  0.304600  1.0  0.061
  H  H31  1  0.608900  0.671400  0.318500  1.0  0.0525
  H  H32  1  0.560600  0.678600  0.261400  1.0  0.1135
  H  H33  1  0.258900  0.858900  0.181300  1.0  0.0672
  H  H34  1  0.353200  0.852000  0.200600  1.0  0.1053
  H  H35  1  0.393400  0.967400  0.119900  1.0  0.1076
  H  H36  1  0.298800  0.967200  0.101600  1.0  0.0681
  H  H37  1  0.421200  0.989800  0.248600  1.0  0.1089
  H  H38  1  0.368600  0.990200  0.304600  1.0  0.0598
  H  H39  1  0.391100  0.828600  0.318500  1.0  0.0558
  H  H40  1  0.439400  0.821400  0.261400  1.0  0.1138
  H  H41  1  0.758900  0.358900  0.681300  1.0  0.0672
  H  H42  1  0.853200  0.352000  0.700600  1.0  0.1053
  H  H43  1  0.893400  0.467400  0.619900  1.0  0.1069
  H  H44  1  0.798800  0.467200  0.601600  1.0  0.0681
  H  H45  1  0.921200  0.489800  0.748600  1.0  0.1089
  H  H46  1  0.868600  0.490200  0.804600  1.0  0.0598
  H  H47  1  0.891100  0.328600  0.818500  1.0  0.0558
  H  H48  1  0.939400  0.321400  0.761400  1.0  0.1138
  H  H49  1  0.108900  0.991100  0.931300  1.0  0.0662
  H  H50  1  0.102000  0.896800  0.950600  1.0  0.1051
  H  H51  1  0.217400  0.856600  0.869900  1.0  0.1066
  H  H52  1  0.217200  0.951200  0.851600  1.0  0.068
  H  H53  1  0.239800  0.828800  0.998600  1.0  0.1094
  H  H54  1  0.240200  0.881400  0.054600  1.0  0.0609
  H  H55  1  0.078600  0.858900  0.068500  1.0  0.0533
  H  H56  1  0.071400  0.810600  0.011400  1.0  0.1129
  H  H57  1  0.608900  0.491100  0.431300  1.0  0.0662
  H  H58  1  0.602000  0.396800  0.450600  1.0  0.1051
  H  H59  1  0.717400  0.356600  0.369900  1.0  0.1066
  H  H60  1  0.717200  0.451200  0.351600  1.0  0.068
  H  H61  1  0.739800  0.328800  0.498600  1.0  0.1094
  H  H62  1  0.740200  0.381400  0.554600  1.0  0.0609
  H  H63  1  0.578600  0.358900  0.568500  1.0  0.0533
  H  H64  1  0.571400  0.310600  0.511400  1.0  0.1129
  H  H65  1  0.391100  0.008900  0.431300  1.0  0.0664
  H  H66  1  0.398000  0.103200  0.450600  1.0  0.1056
  H  H67  1  0.282600  0.143400  0.369900  1.0  0.107
  H  H68  1  0.282800  0.048800  0.351600  1.0  0.067
  H  H69  1  0.260200  0.171200  0.498600  1.0  0.1097
  H  H70  1  0.259800  0.118600  0.554600  1.0  0.0614
  H  H71  1  0.421400  0.141100  0.568500  1.0  0.055
  H  H72  1  0.428600  0.189400  0.511400  1.0  0.1136
  H  H73  1  0.891100  0.508900  0.931300  1.0  0.0664
  H  H74  1  0.898000  0.603200  0.950600  1.0  0.1056
  H  H75  1  0.782600  0.643400  0.869900  1.0  0.1071
  H  H76  1  0.782800  0.548800  0.851600  1.0  0.067
  H  H77  1  0.760200  0.671200  0.998600  1.0  0.1097
  H  H78  1  0.759800  0.618600  0.054600  1.0  0.0614
  H  H79  1  0.921400  0.641100  0.068500  1.0  0.055
  H  H80  1  0.928600  0.689400  0.011400  1.0  0.1136
  H  H81  1  0.258900  0.141100  0.818700  1.0  0.0665
  H  H82  1  0.353200  0.148000  0.799400  1.0  0.1054
  H  H83  1  0.393400  0.032600  0.880100  1.0  0.1073
  H  H84  1  0.298800  0.032800  0.898400  1.0  0.0676
  H  H85  1  0.421200  0.010200  0.751400  1.0  0.1087
  H  H86  1  0.368600  0.009800  0.695400  1.0  0.0609
  H  H87  1  0.391100  0.171400  0.681500  1.0  0.0545
  H  H88  1  0.439400  0.178600  0.738600  1.0  0.1133
  H  H89  1  0.758900  0.641100  0.318700  1.0  0.0665
  H  H90  1  0.853200  0.648000  0.299400  1.0  0.1054
  H  H91  1  0.893400  0.532600  0.380100  1.0  0.1066
  H  H92  1  0.798800  0.532800  0.398400  1.0  0.0676
  H  H93  1  0.921200  0.510200  0.251400  1.0  0.1087
  H  H94  1  0.868600  0.509800  0.195400  1.0  0.0609
  H  H95  1  0.891100  0.671400  0.181500  1.0  0.0545
  H  H96  1  0.939400  0.678600  0.238600  1.0  0.1133
  H  H97  1  0.241100  0.858900  0.318700  1.0  0.0668
  H  H98  1  0.146800  0.852000  0.299400  1.0  0.1051
  H  H99  1  0.106600  0.967400  0.380100  1.0  0.1074
  H  H100  1  0.201200  0.967200  0.398400  1.0  0.068
  H  H101  1  0.078800  0.989800  0.251400  1.0  0.1086
  H  H102  1  0.131400  0.990200  0.195400  1.0  0.0604
  H  H103  1  0.108900  0.828600  0.181500  1.0  0.0552
  H  H104  1  0.060600  0.821400  0.238600  1.0  0.1136
  H  H105  1  0.741100  0.358900  0.818700  1.0  0.0668
  H  H106  1  0.646800  0.352000  0.799400  1.0  0.1051
  H  H107  1  0.606600  0.467400  0.880100  1.0  0.1072
  H  H108  1  0.701200  0.467200  0.898400  1.0  0.068
  H  H109  1  0.578800  0.489800  0.751400  1.0  0.1085
  H  H110  1  0.631400  0.490200  0.695400  1.0  0.0604
  H  H111  1  0.608900  0.328600  0.681500  1.0  0.0552
  H  H112  1  0.560600  0.321400  0.738600  1.0  0.1136
  H  H113  1  0.391100  0.991100  0.568700  1.0  0.066
  H  H114  1  0.398000  0.896800  0.549400  1.0  0.1051
  H  H115  1  0.282600  0.856600  0.630100  1.0  0.1067
  H  H116  1  0.282800  0.951200  0.648400  1.0  0.0677
  H  H117  1  0.260200  0.828800  0.501400  1.0  0.1094
  H  H118  1  0.259800  0.881400  0.445400  1.0  0.0616
  H  H119  1  0.421400  0.858900  0.431500  1.0  0.0532
  H  H120  1  0.428600  0.810600  0.488600  1.0  0.1138
  H  H121  1  0.891100  0.491100  0.068700  1.0  0.066
  H  H122  1  0.898000  0.396800  0.049400  1.0  0.1051
  H  H123  1  0.782600  0.356600  0.130100  1.0  0.107
  H  H124  1  0.782800  0.451200  0.148400  1.0  0.0677
  H  H125  1  0.760200  0.328800  0.001400  1.0  0.1094
  H  H126  1  0.759800  0.381400  0.945400  1.0  0.0616
  H  H127  1  0.921400  0.358900  0.931500  1.0  0.0533
  H  H128  1  0.928600  0.310600  0.988600  1.0  0.1138
  H  H129  1  0.108900  0.008900  0.068700  1.0  0.0657
  H  H130  1  0.102000  0.103200  0.049400  1.0  0.1051
  H  H131  1  0.217400  0.143400  0.130100  1.0  0.1065
  H  H132  1  0.217200  0.048800  0.148400  1.0  0.0677
  H  H133  1  0.239800  0.171200  0.001400  1.0  0.1079
  H  H134  1  0.240200  0.118600  0.945400  1.0  0.0612
  H  H135  1  0.078600  0.141100  0.931500  1.0  0.0535
  H  H136  1  0.071400  0.189400  0.988600  1.0  0.1132
  H  H137  1  0.608900  0.508900  0.568700  1.0  0.0657
  H  H138  1  0.602000  0.603200  0.549400  1.0  0.1051
  H  H139  1  0.717400  0.643400  0.630100  1.0  0.1065
  H  H140  1  0.717200  0.548800  0.648400  1.0  0.0677
  H  H141  1  0.739800  0.671200  0.501400  1.0  0.1079
  H  H142  1  0.740200  0.618600  0.445400  1.0  0.0612
  H  H143  1  0.578600  0.641100  0.431500  1.0  0.0535
  H  H144  1  0.571400  0.689400  0.488600  1.0  0.1132
  H  H145  1  0.758900  0.858900  0.318700  1.0  0.0666
  H  H146  1  0.853200  0.852000  0.299400  1.0  0.105
  H  H147  1  0.893400  0.967400  0.380100  1.0  0.1074
  H  H148  1  0.798800  0.967200  0.398400  1.0  0.068
  H  H149  1  0.921200  0.989800  0.251400  1.0  0.1073
  H  H150  1  0.868600  0.990200  0.195400  1.0  0.0602
  H  H151  1  0.891100  0.828600  0.181500  1.0  0.0547
  H  H152  1  0.939400  0.821400  0.238600  1.0  0.1137
  H  H153  1  0.258900  0.358900  0.818700  1.0  0.0666
  H  H154  1  0.353200  0.352000  0.799400  1.0  0.105
  H  H155  1  0.393400  0.467400  0.880100  1.0  0.1068
  H  H156  1  0.298800  0.467200  0.898400  1.0  0.068
  H  H157  1  0.421200  0.489800  0.751400  1.0  0.1073
  H  H158  1  0.368600  0.490200  0.695400  1.0  0.0602
  H  H159  1  0.391100  0.328600  0.681500  1.0  0.0547
  H  H160  1  0.439400  0.321400  0.738600  1.0  0.1137
  H  H161  1  0.741100  0.141100  0.818700  1.0  0.067
  H  H162  1  0.646800  0.148000  0.799400  1.0  0.1054
  H  H163  1  0.606600  0.032600  0.880100  1.0  0.1071
  H  H164  1  0.701200  0.032800  0.898400  1.0  0.0678
  H  H165  1  0.578800  0.010200  0.751400  1.0  0.1086
  H  H166  1  0.631400  0.009800  0.695400  1.0  0.0612
  H  H167  1  0.608900  0.171400  0.681500  1.0  0.0534
  H  H168  1  0.560600  0.178600  0.738600  1.0  0.1134
  H  H169  1  0.241100  0.641100  0.318700  1.0  0.067
  H  H170  1  0.146800  0.648000  0.299400  1.0  0.1054
  H  H171  1  0.106600  0.532600  0.380100  1.0  0.1066
  H  H172  1  0.201200  0.532800  0.398400  1.0  0.0678
  H  H173  1  0.078800  0.510200  0.251400  1.0  0.1086
  H  H174  1  0.131400  0.509800  0.195400  1.0  0.0612
  H  H175  1  0.108900  0.671400  0.181500  1.0  0.0534
  H  H176  1  0.060600  0.678600  0.238600  1.0  0.1134
  H  H177  1  0.891100  0.008900  0.068700  1.0  0.0659
  H  H178  1  0.898000  0.103200  0.049400  1.0  0.1051
  H  H179  1  0.782600  0.143400  0.130100  1.0  0.107
  H  H180  1  0.782800  0.048800  0.148400  1.0  0.0672
  H  H181  1  0.760200  0.171200  0.001400  1.0  0.1095
  H  H182  1  0.759800  0.118600  0.945400  1.0  0.0617
  H  H183  1  0.921400  0.141100  0.931500  1.0  0.0542
  H  H184  1  0.928600  0.189400  0.988600  1.0  0.1142
  H  H185  1  0.391100  0.508900  0.568700  1.0  0.0659
  H  H186  1  0.398000  0.603200  0.549400  1.0  0.1051
  H  H187  1  0.282600  0.643400  0.630100  1.0  0.107
  H  H188  1  0.282800  0.548800  0.648400  1.0  0.0672
  H  H189  1  0.260200  0.671200  0.501400  1.0  0.1095
  H  H190  1  0.259800  0.618600  0.445400  1.0  0.0617
  H  H191  1  0.421400  0.641100  0.431500  1.0  0.0542
  H  H192  1  0.428600  0.689400  0.488600  1.0  0.1142
  H  H193  1  0.608900  0.991100  0.568700  1.0  0.0658
  H  H194  1  0.602000  0.896800  0.549400  1.0  0.105
  H  H195  1  0.717400  0.856600  0.630100  1.0  0.1066
  H  H196  1  0.717200  0.951200  0.648400  1.0  0.0683
  H  H197  1  0.739800  0.828800  0.501400  1.0  0.109
  H  H198  1  0.740200  0.881400  0.445400  1.0  0.0611
  H  H199  1  0.578600  0.858900  0.431500  1.0  0.0537
  H  H200  1  0.571400  0.810600  0.488600  1.0  0.1128
  H  H201  1  0.108900  0.491100  0.068700  1.0  0.0658
  H  H202  1  0.102000  0.396800  0.049400  1.0  0.105
  H  H203  1  0.217400  0.356600  0.130100  1.0  0.1067
  H  H204  1  0.217200  0.451200  0.148400  1.0  0.0683
  H  H205  1  0.239800  0.328800  0.001400  1.0  0.109
  H  H206  1  0.240200  0.381400  0.945400  1.0  0.0611
  H  H207  1  0.078600  0.358900  0.931500  1.0  0.053
  H  H208  1  0.071400  0.310600  0.988600  1.0  0.1128
  H  H209  1  0.741100  0.858900  0.181300  1.0  0.0674
  H  H210  1  0.646800  0.852000  0.200600  1.0  0.1054
  H  H211  1  0.606600  0.967400  0.119900  1.0  0.1077
  H  H212  1  0.701200  0.967200  0.101600  1.0  0.0672
  H  H213  1  0.578800  0.989800  0.248600  1.0  0.1095
  H  H214  1  0.631400  0.990200  0.304600  1.0  0.0601
  H  H215  1  0.608900  0.828600  0.318500  1.0  0.0551
  H  H216  1  0.560600  0.821400  0.261400  1.0  0.1137
  H  H217  1  0.241100  0.358900  0.681300  1.0  0.0674
  H  H218  1  0.146800  0.352000  0.700600  1.0  0.1054
  H  H219  1  0.106600  0.467400  0.619900  1.0  0.1072
  H  H220  1  0.201200  0.467200  0.601600  1.0  0.0672
  H  H221  1  0.078800  0.489800  0.748600  1.0  0.1094
  H  H222  1  0.131400  0.490200  0.804600  1.0  0.0601
  H  H223  1  0.108900  0.328600  0.818500  1.0  0.0551
  H  H224  1  0.060600  0.321400  0.761400  1.0  0.1137
  H  H225  1  0.758900  0.141100  0.681300  1.0  0.0668
  H  H226  1  0.853200  0.148000  0.700600  1.0  0.1055
  H  H227  1  0.893400  0.032600  0.619900  1.0  0.1069
  H  H228  1  0.798800  0.032800  0.601600  1.0  0.0679
  H  H229  1  0.921200  0.010200  0.748600  1.0  0.1087
  H  H230  1  0.868600  0.009800  0.804600  1.0  0.0607
  H  H231  1  0.891100  0.171400  0.818500  1.0  0.0549
  H  H232  1  0.939400  0.178600  0.761400  1.0  0.1134
  H  H233  1  0.258900  0.641100  0.181300  1.0  0.0668
  H  H234  1  0.353200  0.648000  0.200600  1.0  0.1055
  H  H235  1  0.393400  0.532600  0.119900  1.0  0.1063
  H  H236  1  0.298800  0.532800  0.101600  1.0  0.0679
  H  H237  1  0.421200  0.510200  0.248600  1.0  0.1087
  H  H238  1  0.368600  0.509800  0.304600  1.0  0.0607
  H  H239  1  0.391100  0.671400  0.318500  1.0  0.0549
  H  H240  1  0.439400  0.678600  0.261400  1.0  0.1134
  H  H241  1  0.608900  0.008900  0.431300  1.0  0.0666
  H  H242  1  0.602000  0.103200  0.450600  1.0  0.1057
  H  H243  1  0.717400  0.143400  0.369900  1.0  0.1068
  H  H244  1  0.717200  0.048800  0.351600  1.0  0.0677
  H  H245  1  0.739800  0.171200  0.498600  1.0  0.1094
  H  H246  1  0.740200  0.118600  0.554600  1.0  0.0609
  H  H247  1  0.578600  0.141100  0.568500  1.0  0.0545
  H  H248  1  0.571400  0.189400  0.511400  1.0  0.1131
  H  H249  1  0.108900  0.508900  0.931300  1.0  0.0666
  H  H250  1  0.102000  0.603200  0.950600  1.0  0.1057
  H  H251  1  0.217400  0.643400  0.869900  1.0  0.1069
  H  H252  1  0.217200  0.548800  0.851600  1.0  0.0677
  H  H253  1  0.239800  0.671200  0.998600  1.0  0.1094
  H  H254  1  0.240200  0.618600  0.054600  1.0  0.0609
  H  H255  1  0.078600  0.641100  0.068500  1.0  0.0545
  H  H256  1  0.071400  0.689400  0.011400  1.0  0.1131
  H  H257  1  0.891100  0.991100  0.931300  1.0  0.066
  H  H258  1  0.898000  0.896800  0.950600  1.0  0.105
  H  H259  1  0.782600  0.856600  0.869900  1.0  0.1064
  H  H260  1  0.782800  0.951200  0.851600  1.0  0.0671
  H  H261  1  0.760200  0.828800  0.998600  1.0  0.1098
  H  H262  1  0.759800  0.881400  0.054600  1.0  0.0613
  H  H263  1  0.921400  0.858900  0.068500  1.0  0.0524
  H  H264  1  0.928600  0.810600  0.011400  1.0  0.1133
  H  H265  1  0.391100  0.491100  0.431300  1.0  0.066
  H  H266  1  0.398000  0.396800  0.450600  1.0  0.105
  H  H267  1  0.282600  0.356600  0.369900  1.0  0.1064
  H  H268  1  0.282800  0.451200  0.351600  1.0  0.0671
  H  H269  1  0.260200  0.328800  0.498600  1.0  0.1098
  H  H270  1  0.259800  0.381400  0.554600  1.0  0.0613
  H  H271  1  0.421400  0.358900  0.568500  1.0  0.0524
  H  H272  1  0.428600  0.310600  0.511400  1.0  0.1133
  C  C273  1  0.213400  0.119200  0.668560  1.0  0.1423
  C  C274  1  0.156700  0.123200  0.680690  1.0  -0.1718
  C  C275  1  0.114870  0.090060  0.663130  1.0  0.0131
  C  C276  1  0.133020  0.055600  0.632950  1.0  -0.1744
  C  C277  1  0.190300  0.055600  0.622310  1.0  0.1507
  C  C278  1  0.053760  0.091570  0.675410  1.0  -0.1413
  C  C279  1  0.030830  0.096480  0.711430  1.0  -0.0282
  C  C280  1  0.064400  0.094570  0.747820  1.0  0.0896
  C  C281  1  0.085000  0.044500  0.761740  1.0  -0.2129
  C  C282  1  0.115900  0.044600  0.796280  1.0  0.1638
  C  C283  1  0.103600  0.138000  0.804230  1.0  0.1694
  C  C284  1  0.073900  0.142800  0.769590  1.0  -0.2352
  C  C285  1  0.713400  0.619200  0.168560  1.0  0.1423
  C  C286  1  0.656700  0.623200  0.180690  1.0  -0.1718
  C  C287  1  0.614870  0.590060  0.163130  1.0  0.0131
  C  C288  1  0.633020  0.555600  0.132950  1.0  -0.1744
  C  C289  1  0.690300  0.555600  0.122310  1.0  0.1507
  C  C290  1  0.553760  0.591570  0.175410  1.0  -0.141
  C  C291  1  0.530830  0.596480  0.211430  1.0  -0.0282
  C  C292  1  0.564400  0.594570  0.247820  1.0  0.0896
  C  C293  1  0.585000  0.544500  0.261740  1.0  -0.2129
  C  C294  1  0.615900  0.544600  0.296280  1.0  0.1638
  C  C295  1  0.603600  0.638000  0.304230  1.0  0.1694
  C  C296  1  0.573900  0.642800  0.269590  1.0  -0.2352
  C  C297  1  0.286600  0.880800  0.168560  1.0  0.1438
  C  C298  1  0.343300  0.876800  0.180690  1.0  -0.1686
  C  C299  1  0.385130  0.909940  0.163130  1.0  0.0139
  C  C300  1  0.366980  0.944400  0.132950  1.0  -0.1774
  C  C301  1  0.309700  0.944400  0.122310  1.0  0.1497
  C  C302  1  0.446240  0.908430  0.175410  1.0  -0.1419
  C  C303  1  0.469170  0.903520  0.211430  1.0  -0.0285
  C  C304  1  0.435600  0.905430  0.247820  1.0  0.089
  C  C305  1  0.415000  0.955500  0.261740  1.0  -0.2099
  C  C306  1  0.384100  0.955400  0.296280  1.0  0.1629
  C  C307  1  0.396400  0.862000  0.304230  1.0  0.1698
  C  C308  1  0.426100  0.857200  0.269590  1.0  -0.2334
  C  C309  1  0.786600  0.380800  0.668560  1.0  0.1438
  C  C310  1  0.843300  0.376800  0.680690  1.0  -0.1686
  C  C311  1  0.885130  0.409940  0.663130  1.0  0.0139
  C  C312  1  0.866980  0.444400  0.632950  1.0  -0.1774
  C  C313  1  0.809700  0.444400  0.622310  1.0  0.1497
  C  C314  1  0.946240  0.408430  0.675410  1.0  -0.1419
  C  C315  1  0.969170  0.403520  0.711430  1.0  -0.0285
  C  C316  1  0.935600  0.405430  0.747820  1.0  0.089
  C  C317  1  0.915000  0.455500  0.761740  1.0  -0.2099
  C  C318  1  0.884100  0.455400  0.796280  1.0  0.1629
  C  C319  1  0.896400  0.362000  0.804230  1.0  0.1698
  C  C320  1  0.926100  0.357200  0.769590  1.0  -0.2334
  C  C321  1  0.130800  0.963400  0.918560  1.0  0.142
  C  C322  1  0.126800  0.906700  0.930690  1.0  -0.1711
  C  C323  1  0.159940  0.864870  0.913130  1.0  0.012
  C  C324  1  0.194400  0.883020  0.882950  1.0  -0.1773
  C  C325  1  0.194400  0.940300  0.872310  1.0  0.1491
  C  C326  1  0.158430  0.803760  0.925410  1.0  -0.1415
  C  C327  1  0.153520  0.780830  0.961430  1.0  -0.0279
  C  C328  1  0.155430  0.814400  0.997820  1.0  0.0893
  C  C329  1  0.205500  0.835000  0.011740  1.0  -0.2085
  C  C330  1  0.205400  0.865900  0.046280  1.0  0.1655
  C  C331  1  0.112000  0.853600  0.054230  1.0  0.1691
  C  C332  1  0.107200  0.823900  0.019590  1.0  -0.2381
  C  C333  1  0.630800  0.463400  0.418560  1.0  0.142
  C  C334  1  0.626800  0.406700  0.430690  1.0  -0.1711
  C  C335  1  0.659940  0.364870  0.413130  1.0  0.012
  C  C336  1  0.694400  0.383020  0.382950  1.0  -0.1773
  C  C337  1  0.694400  0.440300  0.372310  1.0  0.1491
  C  C338  1  0.658430  0.303760  0.425410  1.0  -0.1415
  C  C339  1  0.653520  0.280830  0.461430  1.0  -0.0279
  C  C340  1  0.655430  0.314400  0.497820  1.0  0.0893
  C  C341  1  0.705500  0.335000  0.511740  1.0  -0.2085
  C  C342  1  0.705400  0.365900  0.546280  1.0  0.1655
  C  C343  1  0.612000  0.353600  0.554230  1.0  0.1691
  C  C344  1  0.607200  0.323900  0.519590  1.0  -0.2381
  C  C345  1  0.369200  0.036600  0.418560  1.0  0.1433
  C  C346  1  0.373200  0.093300  0.430690  1.0  -0.1705
  C  C347  1  0.340060  0.135130  0.413130  1.0  0.0137
  C  C348  1  0.305600  0.116980  0.382950  1.0  -0.1761
  C  C349  1  0.305600  0.059700  0.372310  1.0  0.1504
  C  C350  1  0.341570  0.196240  0.425410  1.0  -0.1416
  C  C351  1  0.346480  0.219170  0.461430  1.0  -0.0281
  C  C352  1  0.344570  0.185600  0.497820  1.0  0.0902
  C  C353  1  0.294500  0.165000  0.511740  1.0  -0.2111
  C  C354  1  0.294600  0.134100  0.546280  1.0  0.1654
  C  C355  1  0.388000  0.146400  0.554230  1.0  0.1702
  C  C356  1  0.392800  0.176100  0.519590  1.0  -0.232
  C  C357  1  0.869200  0.536600  0.918560  1.0  0.1433
  C  C358  1  0.873200  0.593300  0.930690  1.0  -0.1705
  C  C359  1  0.840060  0.635130  0.913130  1.0  0.0137
  C  C360  1  0.805600  0.616980  0.882950  1.0  -0.1761
  C  C361  1  0.805600  0.559700  0.872310  1.0  0.1504
  C  C362  1  0.841570  0.696240  0.925410  1.0  -0.1416
  C  C363  1  0.846480  0.719170  0.961430  1.0  -0.0281
  C  C364  1  0.844570  0.685600  0.997820  1.0  0.0902
  C  C365  1  0.794500  0.665000  0.011740  1.0  -0.2111
  C  C366  1  0.794600  0.634100  0.046280  1.0  0.1654
  C  C367  1  0.888000  0.646400  0.054230  1.0  0.1702
  C  C368  1  0.892800  0.676100  0.019590  1.0  -0.232
  C  C369  1  0.286600  0.119200  0.831440  1.0  0.1428
  C  C370  1  0.343300  0.123200  0.819310  1.0  -0.1703
  C  C371  1  0.385130  0.090060  0.836870  1.0  0.0141
  C  C372  1  0.366980  0.055600  0.867050  1.0  -0.1738
  C  C373  1  0.309700  0.055600  0.877690  1.0  0.1488
  C  C374  1  0.446240  0.091570  0.824590  1.0  -0.1438
  C  C375  1  0.469170  0.096480  0.788570  1.0  -0.0288
  C  C376  1  0.435600  0.094570  0.752180  1.0  0.0885
  C  C377  1  0.415000  0.044500  0.738260  1.0  -0.2125
  C  C378  1  0.384100  0.044600  0.703720  1.0  0.1635
  C  C379  1  0.396400  0.138000  0.695770  1.0  0.1703
  C  C380  1  0.426100  0.142800  0.730410  1.0  -0.2357
  C  C381  1  0.786600  0.619200  0.331440  1.0  0.1428
  C  C382  1  0.843300  0.623200  0.319310  1.0  -0.1703
  C  C383  1  0.885130  0.590060  0.336870  1.0  0.0141
  C  C384  1  0.866980  0.555600  0.367050  1.0  -0.1738
  C  C385  1  0.809700  0.555600  0.377690  1.0  0.1488
  C  C386  1  0.946240  0.591570  0.324590  1.0  -0.1438
  C  C387  1  0.969170  0.596480  0.288570  1.0  -0.0288
  C  C388  1  0.935600  0.594570  0.252180  1.0  0.0885
  C  C389  1  0.915000  0.544500  0.238260  1.0  -0.2125
  C  C390  1  0.884100  0.544600  0.203720  1.0  0.1635
  C  C391  1  0.896400  0.638000  0.195770  1.0  0.1703
  C  C392  1  0.926100  0.642800  0.230410  1.0  -0.2357
  C  C393  1  0.213400  0.880800  0.331440  1.0  0.1435
  C  C394  1  0.156700  0.876800  0.319310  1.0  -0.1702
  C  C395  1  0.114870  0.909940  0.336870  1.0  0.0139
  C  C396  1  0.133020  0.944400  0.367050  1.0  -0.178
  C  C397  1  0.190300  0.944400  0.377690  1.0  0.1505
  C  C398  1  0.053760  0.908430  0.324590  1.0  -0.1428
  C  C399  1  0.030830  0.903520  0.288570  1.0  -0.0296
  C  C400  1  0.064400  0.905430  0.252180  1.0  0.0887
  C  C401  1  0.085000  0.955500  0.238260  1.0  -0.2104
  C  C402  1  0.115900  0.955400  0.203720  1.0  0.1629
  C  C403  1  0.103600  0.862000  0.195770  1.0  0.1689
  C  C404  1  0.073900  0.857200  0.230410  1.0  -0.2351
  C  C405  1  0.713400  0.380800  0.831440  1.0  0.1435
  C  C406  1  0.656700  0.376800  0.819310  1.0  -0.1702
  C  C407  1  0.614870  0.409940  0.836870  1.0  0.0139
  C  C408  1  0.633020  0.444400  0.867050  1.0  -0.178
  C  C409  1  0.690300  0.444400  0.877690  1.0  0.1505
  C  C410  1  0.553760  0.408430  0.824590  1.0  -0.1437
  C  C411  1  0.530830  0.403520  0.788570  1.0  -0.0296
  C  C412  1  0.564400  0.405430  0.752180  1.0  0.0887
  C  C413  1  0.585000  0.455500  0.738260  1.0  -0.2104
  C  C414  1  0.615900  0.455400  0.703720  1.0  0.1629
  C  C415  1  0.603600  0.362000  0.695770  1.0  0.1689
  C  C416  1  0.573900  0.357200  0.730410  1.0  -0.2351
  C  C417  1  0.369200  0.963400  0.581440  1.0  0.1433
  C  C418  1  0.373200  0.906700  0.569310  1.0  -0.1687
  C  C419  1  0.340060  0.864870  0.586870  1.0  0.0122
  C  C420  1  0.305600  0.883020  0.617050  1.0  -0.1774
  C  C421  1  0.305600  0.940300  0.627690  1.0  0.1497
  C  C422  1  0.341570  0.803760  0.574590  1.0  -0.1433
  C  C423  1  0.346480  0.780830  0.538570  1.0  -0.0291
  C  C424  1  0.344570  0.814400  0.502180  1.0  0.0893
  C  C425  1  0.294500  0.835000  0.488260  1.0  -0.2116
  C  C426  1  0.294600  0.865900  0.453720  1.0  0.164
  C  C427  1  0.388000  0.853600  0.445770  1.0  0.1701
  C  C428  1  0.392800  0.823900  0.480410  1.0  -0.2325
  C  C429  1  0.869200  0.463400  0.081440  1.0  0.1433
  C  C430  1  0.873200  0.406700  0.069310  1.0  -0.1687
  C  C431  1  0.840060  0.364870  0.086870  1.0  0.0122
  C  C432  1  0.805600  0.383020  0.117050  1.0  -0.1774
  C  C433  1  0.805600  0.440300  0.127690  1.0  0.1497
  C  C434  1  0.841570  0.303760  0.074590  1.0  -0.1433
  C  C435  1  0.846480  0.280830  0.038570  1.0  -0.0291
  C  C436  1  0.844570  0.314400  0.002180  1.0  0.0893
  C  C437  1  0.794500  0.335000  0.988260  1.0  -0.2116
  C  C438  1  0.794600  0.365900  0.953720  1.0  0.164
  C  C439  1  0.888000  0.353600  0.945770  1.0  0.1701
  C  C440  1  0.892800  0.323900  0.980410  1.0  -0.2325
  C  C441  1  0.130800  0.036600  0.081440  1.0  0.143
  C  C442  1  0.126800  0.093300  0.069310  1.0  -0.1683
  C  C443  1  0.159940  0.135130  0.086870  1.0  0.0141
  C  C444  1  0.194400  0.116980  0.117050  1.0  -0.1756
  C  C445  1  0.194400  0.059700  0.127690  1.0  0.1491
  C  C446  1  0.158430  0.196240  0.074590  1.0  -0.1428
  C  C447  1  0.153520  0.219170  0.038570  1.0  -0.0291
  C  C448  1  0.155430  0.185600  0.002180  1.0  0.0888
  C  C449  1  0.205500  0.165000  0.988260  1.0  -0.2087
  C  C450  1  0.205400  0.134100  0.953720  1.0  0.1646
  C  C451  1  0.112000  0.146400  0.945770  1.0  0.1689
  C  C452  1  0.107200  0.176100  0.980410  1.0  -0.2351
  C  C453  1  0.630800  0.536600  0.581440  1.0  0.143
  C  C454  1  0.626800  0.593300  0.569310  1.0  -0.1683
  C  C455  1  0.659940  0.635130  0.586870  1.0  0.0141
  C  C456  1  0.694400  0.616980  0.617050  1.0  -0.1756
  C  C457  1  0.694400  0.559700  0.627690  1.0  0.1491
  C  C458  1  0.658430  0.696240  0.574590  1.0  -0.1428
  C  C459  1  0.653520  0.719170  0.538570  1.0  -0.0291
  C  C460  1  0.655430  0.685600  0.502180  1.0  0.0888
  C  C461  1  0.705500  0.665000  0.488260  1.0  -0.2087
  C  C462  1  0.705400  0.634100  0.453720  1.0  0.1646
  C  C463  1  0.612000  0.646400  0.445770  1.0  0.1689
  C  C464  1  0.607200  0.676100  0.480410  1.0  -0.2351
  C  C465  1  0.786600  0.880800  0.331440  1.0  0.1436
  C  C466  1  0.843300  0.876800  0.319310  1.0  -0.1689
  C  C467  1  0.885130  0.909940  0.336870  1.0  0.0142
  C  C468  1  0.866980  0.944400  0.367050  1.0  -0.1762
  C  C469  1  0.809700  0.944400  0.377690  1.0  0.1489
  C  C470  1  0.946240  0.908430  0.324590  1.0  -0.1431
  C  C471  1  0.969170  0.903520  0.288570  1.0  -0.0294
  C  C472  1  0.935600  0.905430  0.252180  1.0  0.0885
  C  C473  1  0.915000  0.955500  0.238260  1.0  -0.21
  C  C474  1  0.884100  0.955400  0.203720  1.0  0.1629
  C  C475  1  0.896400  0.862000  0.195770  1.0  0.1698
  C  C476  1  0.926100  0.857200  0.230410  1.0  -0.2349
  C  C477  1  0.286600  0.380800  0.831440  1.0  0.1436
  C  C478  1  0.343300  0.376800  0.819310  1.0  -0.1689
  C  C479  1  0.385130  0.409940  0.836870  1.0  0.0142
  C  C480  1  0.366980  0.444400  0.867050  1.0  -0.1762
  C  C481  1  0.309700  0.444400  0.877690  1.0  0.1489
  C  C482  1  0.446240  0.408430  0.824590  1.0  -0.1437
  C  C483  1  0.469170  0.403520  0.788570  1.0  -0.0294
  C  C484  1  0.435600  0.405430  0.752180  1.0  0.0885
  C  C485  1  0.415000  0.455500  0.738260  1.0  -0.21
  C  C486  1  0.384100  0.455400  0.703720  1.0  0.1629
  C  C487  1  0.396400  0.362000  0.695770  1.0  0.1698
  C  C488  1  0.426100  0.357200  0.730410  1.0  -0.2349
  C  C489  1  0.713400  0.119200  0.831440  1.0  0.1433
  C  C490  1  0.656700  0.123200  0.819310  1.0  -0.171
  C  C491  1  0.614870  0.090060  0.836870  1.0  0.0138
  C  C492  1  0.633020  0.055600  0.867050  1.0  -0.1771
  C  C493  1  0.690300  0.055600  0.877690  1.0  0.1504
  C  C494  1  0.553760  0.091570  0.824590  1.0  -0.1428
  C  C495  1  0.530830  0.096480  0.788570  1.0  -0.029
  C  C496  1  0.564400  0.094570  0.752180  1.0  0.0886
  C  C497  1  0.585000  0.044500  0.738260  1.0  -0.214
  C  C498  1  0.615900  0.044600  0.703720  1.0  0.1624
  C  C499  1  0.603600  0.138000  0.695770  1.0  0.1697
  C  C500  1  0.573900  0.142800  0.730410  1.0  -0.2353
  C  C501  1  0.213400  0.619200  0.331440  1.0  0.1433
  C  C502  1  0.156700  0.623200  0.319310  1.0  -0.171
  C  C503  1  0.114870  0.590060  0.336870  1.0  0.0138
  C  C504  1  0.133020  0.555600  0.367050  1.0  -0.1771
  C  C505  1  0.190300  0.555600  0.377690  1.0  0.1504
  C  C506  1  0.053760  0.591570  0.324590  1.0  -0.1428
  C  C507  1  0.030830  0.596480  0.288570  1.0  -0.029
  C  C508  1  0.064400  0.594570  0.252180  1.0  0.0886
  C  C509  1  0.085000  0.544500  0.238260  1.0  -0.214
  C  C510  1  0.115900  0.544600  0.203720  1.0  0.1624
  C  C511  1  0.103600  0.638000  0.195770  1.0  0.1697
  C  C512  1  0.073900  0.642800  0.230410  1.0  -0.2353
  C  C513  1  0.869200  0.036600  0.081440  1.0  0.1431
  C  C514  1  0.873200  0.093300  0.069310  1.0  -0.1702
  C  C515  1  0.840060  0.135130  0.086870  1.0  0.0141
  C  C516  1  0.805600  0.116980  0.117050  1.0  -0.1764
  C  C517  1  0.805600  0.059700  0.127690  1.0  0.1496
  C  C518  1  0.841570  0.196240  0.074590  1.0  -0.1441
  C  C519  1  0.846480  0.219170  0.038570  1.0  -0.0294
  C  C520  1  0.844570  0.185600  0.002180  1.0  0.0892
  C  C521  1  0.794500  0.165000  0.988260  1.0  -0.2119
  C  C522  1  0.794600  0.134100  0.953720  1.0  0.1638
  C  C523  1  0.888000  0.146400  0.945770  1.0  0.1697
  C  C524  1  0.892800  0.176100  0.980410  1.0  -0.2331
  C  C525  1  0.369200  0.536600  0.581440  1.0  0.1431
  C  C526  1  0.373200  0.593300  0.569310  1.0  -0.1702
  C  C527  1  0.340060  0.635130  0.586870  1.0  0.0141
  C  C528  1  0.305600  0.616980  0.617050  1.0  -0.1764
  C  C529  1  0.305600  0.559700  0.627690  1.0  0.1496
  C  C530  1  0.341570  0.696240  0.574590  1.0  -0.1441
  C  C531  1  0.346480  0.719170  0.538570  1.0  -0.0294
  C  C532  1  0.344570  0.685600  0.502180  1.0  0.0892
  C  C533  1  0.294500  0.665000  0.488260  1.0  -0.2119
  C  C534  1  0.294600  0.634100  0.453720  1.0  0.1638
  C  C535  1  0.388000  0.646400  0.445770  1.0  0.1697
  C  C536  1  0.392800  0.676100  0.480410  1.0  -0.2331
  C  C537  1  0.630800  0.963400  0.581440  1.0  0.1428
  C  C538  1  0.626800  0.906700  0.569310  1.0  -0.1713
  C  C539  1  0.659940  0.864870  0.586870  1.0  0.0121
  C  C540  1  0.694400  0.883020  0.617050  1.0  -0.1747
  C  C541  1  0.694400  0.940300  0.627690  1.0  0.1492
  C  C542  1  0.658430  0.803760  0.574590  1.0  -0.1435
  C  C543  1  0.653520  0.780830  0.538570  1.0  -0.0288
  C  C544  1  0.655430  0.814400  0.502180  1.0  0.0889
  C  C545  1  0.705500  0.835000  0.488260  1.0  -0.2083
  C  C546  1  0.705400  0.865900  0.453720  1.0  0.165
  C  C547  1  0.612000  0.853600  0.445770  1.0  0.1691
  C  C548  1  0.607200  0.823900  0.480410  1.0  -0.2349
  C  C549  1  0.130800  0.463400  0.081440  1.0  0.1428
  C  C550  1  0.126800  0.406700  0.069310  1.0  -0.1713
  C  C551  1  0.159940  0.364870  0.086870  1.0  0.0121
  C  C552  1  0.194400  0.383020  0.117050  1.0  -0.1747
  C  C553  1  0.194400  0.440300  0.127690  1.0  0.1492
  C  C554  1  0.158430  0.303760  0.074590  1.0  -0.1435
  C  C555  1  0.153520  0.280830  0.038570  1.0  -0.0288
  C  C556  1  0.155430  0.314400  0.002180  1.0  0.0889
  C  C557  1  0.205500  0.335000  0.988260  1.0  -0.2083
  C  C558  1  0.205400  0.365900  0.953720  1.0  0.165
  C  C559  1  0.112000  0.353600  0.945770  1.0  0.1691
  C  C560  1  0.107200  0.323900  0.980410  1.0  -0.2349
  C  C561  1  0.713400  0.880800  0.168560  1.0  0.1434
  C  C562  1  0.656700  0.876800  0.180690  1.0  -0.1698
  C  C563  1  0.614870  0.909940  0.163130  1.0  0.0132
  C  C564  1  0.633020  0.944400  0.132950  1.0  -0.1775
  C  C565  1  0.690300  0.944400  0.122310  1.0  0.1509
  C  C566  1  0.553760  0.908430  0.175410  1.0  -0.1416
  C  C567  1  0.530830  0.903520  0.211430  1.0  -0.0287
  C  C568  1  0.564400  0.905430  0.247820  1.0  0.0893
  C  C569  1  0.585000  0.955500  0.261740  1.0  -0.2131
  C  C570  1  0.615900  0.955400  0.296280  1.0  0.1631
  C  C571  1  0.603600  0.862000  0.304230  1.0  0.1693
  C  C572  1  0.573900  0.857200  0.269590  1.0  -0.2383
  C  C573  1  0.213400  0.380800  0.668560  1.0  0.1434
  C  C574  1  0.156700  0.376800  0.680690  1.0  -0.1698
  C  C575  1  0.114870  0.409940  0.663130  1.0  0.0132
  C  C576  1  0.133020  0.444400  0.632950  1.0  -0.1775
  C  C577  1  0.190300  0.444400  0.622310  1.0  0.1509
  C  C578  1  0.053760  0.408430  0.675410  1.0  -0.1416
  C  C579  1  0.030830  0.403520  0.711430  1.0  -0.0287
  C  C580  1  0.064400  0.405430  0.747820  1.0  0.0893
  C  C581  1  0.085000  0.455500  0.761740  1.0  -0.2131
  C  C582  1  0.115900  0.455400  0.796280  1.0  0.1631
  C  C583  1  0.103600  0.362000  0.804230  1.0  0.1693
  C  C584  1  0.073900  0.357200  0.769590  1.0  -0.2383
  C  C585  1  0.786600  0.119200  0.668560  1.0  0.1421
  C  C586  1  0.843300  0.123200  0.680690  1.0  -0.1713
  C  C587  1  0.885130  0.090060  0.663130  1.0  0.0138
  C  C588  1  0.866980  0.055600  0.632950  1.0  -0.1759
  C  C589  1  0.809700  0.055600  0.622310  1.0  0.1494
  C  C590  1  0.946240  0.091570  0.675410  1.0  -0.1427
  C  C591  1  0.969170  0.096480  0.711430  1.0  -0.0281
  C  C592  1  0.935600  0.094570  0.747820  1.0  0.0892
  C  C593  1  0.915000  0.044500  0.761740  1.0  -0.2125
  C  C594  1  0.884100  0.044600  0.796280  1.0  0.1647
  C  C595  1  0.896400  0.138000  0.804230  1.0  0.1697
  C  C596  1  0.926100  0.142800  0.769590  1.0  -0.2348
  C  C597  1  0.286600  0.619200  0.168560  1.0  0.1421
  C  C598  1  0.343300  0.623200  0.180690  1.0  -0.1713
  C  C599  1  0.385130  0.590060  0.163130  1.0  0.0138
  C  C600  1  0.366980  0.555600  0.132950  1.0  -0.1759
  C  C601  1  0.309700  0.555600  0.122310  1.0  0.1494
  C  C602  1  0.446240  0.591570  0.175410  1.0  -0.1416
  C  C603  1  0.469170  0.596480  0.211430  1.0  -0.0281
  C  C604  1  0.435600  0.594570  0.247820  1.0  0.0892
  C  C605  1  0.415000  0.544500  0.261740  1.0  -0.2125
  C  C606  1  0.384100  0.544600  0.296280  1.0  0.1647
  C  C607  1  0.396400  0.638000  0.304230  1.0  0.1697
  C  C608  1  0.426100  0.642800  0.269590  1.0  -0.2348
  C  C609  1  0.630800  0.036600  0.418560  1.0  0.1432
  C  C610  1  0.626800  0.093300  0.430690  1.0  -0.1684
  C  C611  1  0.659940  0.135130  0.413130  1.0  0.0136
  C  C612  1  0.694400  0.116980  0.382950  1.0  -0.1768
  C  C613  1  0.694400  0.059700  0.372310  1.0  0.1491
  C  C614  1  0.658430  0.196240  0.425410  1.0  -0.1444
  C  C615  1  0.653520  0.219170  0.461430  1.0  -0.0279
  C  C616  1  0.655430  0.185600  0.497820  1.0  0.0895
  C  C617  1  0.705500  0.165000  0.511740  1.0  -0.2087
  C  C618  1  0.705400  0.134100  0.546280  1.0  0.166
  C  C619  1  0.612000  0.146400  0.554230  1.0  0.1696
  C  C620  1  0.607200  0.176100  0.519590  1.0  -0.234
  C  C621  1  0.130800  0.536600  0.918560  1.0  0.1432
  C  C622  1  0.126800  0.593300  0.930690  1.0  -0.1684
  C  C623  1  0.159940  0.635130  0.913130  1.0  0.0136
  C  C624  1  0.194400  0.616980  0.882950  1.0  -0.1768
  C  C625  1  0.194400  0.559700  0.872310  1.0  0.1491
  C  C626  1  0.158430  0.696240  0.925410  1.0  -0.1444
  C  C627  1  0.153520  0.719170  0.961430  1.0  -0.0279
  C  C628  1  0.155430  0.685600  0.997820  1.0  0.0895
  C  C629  1  0.205500  0.665000  0.011740  1.0  -0.2087
  C  C630  1  0.205400  0.634100  0.046280  1.0  0.166
  C  C631  1  0.112000  0.646400  0.054230  1.0  0.1696
  C  C632  1  0.107200  0.676100  0.019590  1.0  -0.234
  C  C633  1  0.869200  0.963400  0.918560  1.0  0.1425
  C  C634  1  0.873200  0.906700  0.930690  1.0  -0.1689
  C  C635  1  0.840060  0.864870  0.913130  1.0  0.0121
  C  C636  1  0.805600  0.883020  0.882950  1.0  -0.1751
  C  C637  1  0.805600  0.940300  0.872310  1.0  0.1506
  C  C638  1  0.841570  0.803760  0.925410  1.0  -0.1419
  C  C639  1  0.846480  0.780830  0.961430  1.0  -0.0281
  C  C640  1  0.844570  0.814400  0.997820  1.0  0.0897
  C  C641  1  0.794500  0.835000  0.011740  1.0  -0.214
  C  C642  1  0.794600  0.865900  0.046280  1.0  0.1649
  C  C643  1  0.888000  0.853600  0.054230  1.0  0.17
  C  C644  1  0.892800  0.823900  0.019590  1.0  -0.2324
  C  C645  1  0.369200  0.463400  0.418560  1.0  0.1425
  C  C646  1  0.373200  0.406700  0.430690  1.0  -0.1689
  C  C647  1  0.340060  0.364870  0.413130  1.0  0.0121
  C  C648  1  0.305600  0.383020  0.382950  1.0  -0.1751
  C  C649  1  0.305600  0.440300  0.372310  1.0  0.1506
  C  C650  1  0.341570  0.303760  0.425410  1.0  -0.1419
  C  C651  1  0.346480  0.280830  0.461430  1.0  -0.0281
  C  C652  1  0.344570  0.314400  0.497820  1.0  0.0897
  C  C653  1  0.294500  0.335000  0.511740  1.0  -0.214
  C  C654  1  0.294600  0.365900  0.546280  1.0  0.1649
  C  C655  1  0.388000  0.353600  0.554230  1.0  0.17
  C  C656  1  0.392800  0.323900  0.519590  1.0  -0.2324
  S  S657  1  0.000000  0.087960  0.640760  1.0  0.104
  S  S658  1  0.500000  0.587960  0.140760  1.0  0.104
  S  S659  1  0.500000  0.912040  0.140760  1.0  0.1075
  S  S660  1  0.000000  0.412040  0.640760  1.0  0.1075
  S  S661  1  0.162040  0.750000  0.890760  1.0  0.1121
  S  S662  1  0.337960  0.250000  0.390760  1.0  0.1037
  S  S663  1  0.500000  0.087960  0.859240  1.0  0.108
  S  S664  1  0.000000  0.587960  0.359240  1.0  0.108
  S  S665  1  0.000000  0.912040  0.359240  1.0  0.1115
  S  S666  1  0.500000  0.412040  0.859240  1.0  0.1115
  S  S667  1  0.337960  0.750000  0.609240  1.0  0.1078
  S  S668  1  0.162040  0.250000  0.109240  1.0  0.1167
  S  S669  1  0.837960  0.250000  0.109240  1.0  0.1078
  S  S670  1  0.662040  0.750000  0.609240  1.0  0.1167
  S  S671  1  0.662040  0.250000  0.390760  1.0  0.1121
  S  S672  1  0.837960  0.750000  0.890760  1.0  0.1037
  N  N673  1  0.230460  0.085970  0.639740  1.0  -0.3202
  N  N674  1  0.124400  0.090430  0.817810  1.0  -0.3446
  N  N675  1  0.730460  0.585970  0.139740  1.0  -0.3202
  N  N676  1  0.624400  0.590430  0.317810  1.0  -0.3446
  N  N677  1  0.269540  0.914030  0.139740  1.0  -0.3169
  N  N678  1  0.375600  0.909570  0.317810  1.0  -0.3437
  N  N679  1  0.769540  0.414030  0.639740  1.0  -0.3169
  N  N680  1  0.875600  0.409570  0.817810  1.0  -0.3437
  N  N681  1  0.164030  0.980460  0.889740  1.0  -0.3279
  N  N682  1  0.159570  0.874400  0.067810  1.0  -0.346
  N  N683  1  0.664030  0.480460  0.389740  1.0  -0.3279
  N  N684  1  0.659570  0.374400  0.567810  1.0  -0.346
  N  N685  1  0.335970  0.019540  0.389740  1.0  -0.328
  N  N686  1  0.340430  0.125600  0.567810  1.0  -0.3444
  N  N687  1  0.835970  0.519540  0.889740  1.0  -0.328
  N  N688  1  0.840430  0.625600  0.067810  1.0  -0.3444
  N  N689  1  0.269540  0.085970  0.860260  1.0  -0.3165
  N  N690  1  0.375600  0.090430  0.682190  1.0  -0.345
  N  N691  1  0.769540  0.585970  0.360260  1.0  -0.3165
  N  N692  1  0.875600  0.590430  0.182190  1.0  -0.345
  N  N693  1  0.230460  0.914030  0.360260  1.0  -0.3196
  N  N694  1  0.124400  0.909570  0.182190  1.0  -0.3461
  N  N695  1  0.730460  0.414030  0.860260  1.0  -0.3196
  N  N696  1  0.624400  0.409570  0.682190  1.0  -0.3461
  N  N697  1  0.335970  0.980460  0.610260  1.0  -0.328
  N  N698  1  0.340430  0.874400  0.432190  1.0  -0.3458
  N  N699  1  0.835970  0.480460  0.110260  1.0  -0.328
  N  N700  1  0.840430  0.374400  0.932190  1.0  -0.3458
  N  N701  1  0.164030  0.019540  0.110260  1.0  -0.3275
  N  N702  1  0.159570  0.125600  0.932190  1.0  -0.3475
  N  N703  1  0.664030  0.519540  0.610260  1.0  -0.3275
  N  N704  1  0.659570  0.625600  0.432190  1.0  -0.3475
  N  N705  1  0.769540  0.914030  0.360260  1.0  -0.3166
  N  N706  1  0.875600  0.909570  0.182190  1.0  -0.3448
  N  N707  1  0.269540  0.414030  0.860260  1.0  -0.3166
  N  N708  1  0.375600  0.409570  0.682190  1.0  -0.3448
  N  N709  1  0.730460  0.085970  0.860260  1.0  -0.3204
  N  N710  1  0.624400  0.090430  0.682190  1.0  -0.3465
  N  N711  1  0.230460  0.585970  0.360260  1.0  -0.3204
  N  N712  1  0.124400  0.590430  0.182190  1.0  -0.3465
  N  N713  1  0.835970  0.019540  0.110260  1.0  -0.3274
  N  N714  1  0.840430  0.125600  0.932190  1.0  -0.347
  N  N715  1  0.335970  0.519540  0.610260  1.0  -0.3274
  N  N716  1  0.340430  0.625600  0.432190  1.0  -0.347
  N  N717  1  0.664030  0.980460  0.610260  1.0  -0.3283
  N  N718  1  0.659570  0.874400  0.432190  1.0  -0.3462
  N  N719  1  0.164030  0.480460  0.110260  1.0  -0.3283
  N  N720  1  0.159570  0.374400  0.932190  1.0  -0.3462
  N  N721  1  0.730460  0.914030  0.139740  1.0  -0.3197
  N  N722  1  0.624400  0.909570  0.317810  1.0  -0.3448
  N  N723  1  0.230460  0.414030  0.639740  1.0  -0.3197
  N  N724  1  0.124400  0.409570  0.817810  1.0  -0.3448
  N  N725  1  0.769540  0.085970  0.639740  1.0  -0.3166
  N  N726  1  0.875600  0.090430  0.817810  1.0  -0.344
  N  N727  1  0.269540  0.585970  0.139740  1.0  -0.3166
  N  N728  1  0.375600  0.590430  0.317810  1.0  -0.344
  N  N729  1  0.664030  0.019540  0.389740  1.0  -0.328
  N  N730  1  0.659570  0.125600  0.567810  1.0  -0.3449
  N  N731  1  0.164030  0.519540  0.889740  1.0  -0.328
  N  N732  1  0.159570  0.625600  0.067810  1.0  -0.3449
  N  N733  1  0.835970  0.980460  0.889740  1.0  -0.3277
  N  N734  1  0.840430  0.874400  0.067810  1.0  -0.3456
  N  N735  1  0.335970  0.480460  0.389740  1.0  -0.3277
  N  N736  1  0.340430  0.374400  0.567810  1.0  -0.3456
