# generated using pymatgen
data_AgH16C24SN4
_symmetry_space_group_name_H-M   'P 1'
_cell_length_a   22.54300000
_cell_length_b   22.54300000
_cell_length_c   35.51670000
_cell_angle_alpha   90.00000000
_cell_angle_beta   90.00000000
_cell_angle_gamma   90.00000000
_symmetry_Int_Tables_number   1
_chemical_formula_structural   AgH16C24SN4
_chemical_formula_sum   'Ag16 H256 C384 S16 N64'
_cell_volume   18049.11985988
_cell_formula_units_Z   16
loop_
 _symmetry_equiv_pos_site_id
 _symmetry_equiv_pos_as_xyz
  1  'x, y, z'
loop_
 _atom_site_type_symbol
 _atom_site_label
 _atom_site_symmetry_multiplicity
 _atom_site_fract_x
 _atom_site_fract_y
 _atom_site_fract_z
 _atom_site_occupancy
 _atom_site_charge
  Ag  Ag1  1  0.338570  0.088570  0.625000  1.0  0.303
  Ag  Ag2  1  0.838570  0.588570  0.125000  1.0  0.303
  Ag  Ag3  1  0.161430  0.911430  0.125000  1.0  0.3044
  Ag  Ag4  1  0.661430  0.411430  0.625000  1.0  0.3044
  Ag  Ag5  1  0.161430  0.088570  0.875000  1.0  0.3046
  Ag  Ag6  1  0.661430  0.588570  0.375000  1.0  0.3046
  Ag  Ag7  1  0.338570  0.911430  0.375000  1.0  0.3032
  Ag  Ag8  1  0.838570  0.411430  0.875000  1.0  0.3032
  Ag  Ag9  1  0.661430  0.911430  0.375000  1.0  0.3044
  Ag  Ag10  1  0.161430  0.411430  0.875000  1.0  0.3044
  Ag  Ag11  1  0.838570  0.088570  0.875000  1.0  0.303
  Ag  Ag12  1  0.338570  0.588570  0.375000  1.0  0.303
  Ag  Ag13  1  0.838570  0.911430  0.125000  1.0  0.3032
  Ag  Ag14  1  0.338570  0.411430  0.625000  1.0  0.3032
  Ag  Ag15  1  0.661430  0.088570  0.625000  1.0  0.3046
  Ag  Ag16  1  0.161430  0.588570  0.125000  1.0  0.3046
  H  H17  1  0.248300  0.144100  0.684800  1.0  0.0685
  H  H18  1  0.150600  0.151400  0.703600  1.0  0.1198
  H  H19  1  0.107700  0.039100  0.619200  1.0  0.1211
  H  H20  1  0.206200  0.037900  0.602000  1.0  0.0788
  H  H21  1  0.077300  0.011600  0.750300  1.0  0.123
  H  H22  1  0.122900  0.011500  0.808300  1.0  0.0791
  H  H23  1  0.115900  0.183200  0.813800  1.0  0.0739
  H  H24  1  0.065500  0.188600  0.757700  1.0  0.1189
  H  H25  1  0.748300  0.644100  0.184800  1.0  0.0685
  H  H26  1  0.650600  0.651400  0.203600  1.0  0.1198
  H  H27  1  0.607700  0.539100  0.119200  1.0  0.1203
  H  H28  1  0.706200  0.537900  0.102000  1.0  0.0788
  H  H29  1  0.577300  0.511600  0.250300  1.0  0.1231
  H  H30  1  0.622900  0.511500  0.308300  1.0  0.0791
  H  H31  1  0.615900  0.683200  0.313800  1.0  0.0739
  H  H32  1  0.565500  0.688600  0.257700  1.0  0.1189
  H  H33  1  0.251700  0.855900  0.184800  1.0  0.0686
  H  H34  1  0.349400  0.848600  0.203600  1.0  0.1196
  H  H35  1  0.392300  0.960900  0.119200  1.0  0.1221
  H  H36  1  0.293800  0.962100  0.102000  1.0  0.0797
  H  H37  1  0.422700  0.988400  0.250300  1.0  0.1248
  H  H38  1  0.377100  0.988500  0.308300  1.0  0.0791
  H  H39  1  0.384100  0.816800  0.313800  1.0  0.0739
  H  H40  1  0.434500  0.811400  0.257700  1.0  0.119
  H  H41  1  0.751700  0.355900  0.684800  1.0  0.0686
  H  H42  1  0.849400  0.348600  0.703600  1.0  0.1196
  H  H43  1  0.892300  0.460900  0.619200  1.0  0.1212
  H  H44  1  0.793800  0.462100  0.602000  1.0  0.0797
  H  H45  1  0.922700  0.488400  0.750300  1.0  0.1247
  H  H46  1  0.877100  0.488500  0.808300  1.0  0.0791
  H  H47  1  0.884100  0.316800  0.813800  1.0  0.0739
  H  H48  1  0.934500  0.311400  0.757700  1.0  0.119
  H  H49  1  0.105900  0.998300  0.934800  1.0  0.0676
  H  H50  1  0.098600  0.900600  0.953600  1.0  0.1195
  H  H51  1  0.210900  0.857700  0.869200  1.0  0.1203
  H  H52  1  0.212100  0.956200  0.852000  1.0  0.0793
  H  H53  1  0.238400  0.827300  0.000300  1.0  0.1232
  H  H54  1  0.238500  0.872900  0.058300  1.0  0.0793
  H  H55  1  0.066800  0.865900  0.063800  1.0  0.0716
  H  H56  1  0.061400  0.815500  0.007700  1.0  0.1188
  H  H57  1  0.605900  0.498300  0.434800  1.0  0.0676
  H  H58  1  0.598600  0.400600  0.453600  1.0  0.1195
  H  H59  1  0.710900  0.357700  0.369200  1.0  0.1203
  H  H60  1  0.712100  0.456200  0.352000  1.0  0.0793
  H  H61  1  0.738400  0.327300  0.500300  1.0  0.1232
  H  H62  1  0.738500  0.372900  0.558300  1.0  0.0793
  H  H63  1  0.566800  0.365900  0.563800  1.0  0.0716
  H  H64  1  0.561400  0.315500  0.507700  1.0  0.1188
  H  H65  1  0.394100  0.001700  0.434800  1.0  0.068
  H  H66  1  0.401400  0.099400  0.453600  1.0  0.1198
  H  H67  1  0.289100  0.142300  0.369200  1.0  0.1203
  H  H68  1  0.287900  0.043800  0.352000  1.0  0.0789
  H  H69  1  0.261600  0.172700  0.500300  1.0  0.1245
  H  H70  1  0.261500  0.127100  0.558300  1.0  0.0794
  H  H71  1  0.433200  0.134100  0.563800  1.0  0.0715
  H  H72  1  0.438600  0.184500  0.507700  1.0  0.1191
  H  H73  1  0.894100  0.501700  0.934800  1.0  0.068
  H  H74  1  0.901400  0.599400  0.953600  1.0  0.1198
  H  H75  1  0.789100  0.642300  0.869200  1.0  0.1207
  H  H76  1  0.787900  0.543800  0.852000  1.0  0.0789
  H  H77  1  0.761600  0.672700  0.000300  1.0  0.1245
  H  H78  1  0.761500  0.627100  0.058300  1.0  0.0794
  H  H79  1  0.933200  0.634100  0.063800  1.0  0.0715
  H  H80  1  0.938600  0.684500  0.007700  1.0  0.1191
  H  H81  1  0.251700  0.144100  0.815200  1.0  0.0693
  H  H82  1  0.349400  0.151400  0.796400  1.0  0.1195
  H  H83  1  0.392300  0.039100  0.880800  1.0  0.1212
  H  H84  1  0.293800  0.037900  0.898000  1.0  0.0803
  H  H85  1  0.422700  0.011600  0.749700  1.0  0.1228
  H  H86  1  0.377100  0.011500  0.691700  1.0  0.0789
  H  H87  1  0.384100  0.183200  0.686200  1.0  0.0735
  H  H88  1  0.434500  0.188600  0.742300  1.0  0.119
  H  H89  1  0.751700  0.644100  0.315200  1.0  0.0693
  H  H90  1  0.849400  0.651400  0.296400  1.0  0.1195
  H  H91  1  0.892300  0.539100  0.380800  1.0  0.1202
  H  H92  1  0.793800  0.537900  0.398000  1.0  0.0803
  H  H93  1  0.922700  0.511600  0.249700  1.0  0.1229
  H  H94  1  0.877100  0.511500  0.191700  1.0  0.0789
  H  H95  1  0.884100  0.683200  0.186200  1.0  0.0735
  H  H96  1  0.934500  0.688600  0.242300  1.0  0.119
  H  H97  1  0.248300  0.855900  0.315200  1.0  0.0688
  H  H98  1  0.150600  0.848600  0.296400  1.0  0.1195
  H  H99  1  0.107700  0.960900  0.380800  1.0  0.1213
  H  H100  1  0.206200  0.962100  0.398000  1.0  0.0802
  H  H101  1  0.077300  0.988400  0.249700  1.0  0.1235
  H  H102  1  0.122900  0.988500  0.191700  1.0  0.079
  H  H103  1  0.115900  0.816800  0.186200  1.0  0.0741
  H  H104  1  0.065500  0.811400  0.242300  1.0  0.1184
  H  H105  1  0.748300  0.355900  0.815200  1.0  0.0688
  H  H106  1  0.650600  0.348600  0.796400  1.0  0.1195
  H  H107  1  0.607700  0.460900  0.880800  1.0  0.1207
  H  H108  1  0.706200  0.462100  0.898000  1.0  0.0802
  H  H109  1  0.577300  0.488400  0.749700  1.0  0.1234
  H  H110  1  0.622900  0.488500  0.691700  1.0  0.079
  H  H111  1  0.615900  0.316800  0.686200  1.0  0.0741
  H  H112  1  0.565500  0.311400  0.742300  1.0  0.1184
  H  H113  1  0.394100  0.998300  0.565200  1.0  0.0682
  H  H114  1  0.401400  0.900600  0.546400  1.0  0.1196
  H  H115  1  0.289100  0.857700  0.630800  1.0  0.1206
  H  H116  1  0.287900  0.956200  0.648000  1.0  0.0802
  H  H117  1  0.261600  0.827300  0.499700  1.0  0.1238
  H  H118  1  0.261500  0.872900  0.441700  1.0  0.0791
  H  H119  1  0.433200  0.865900  0.436200  1.0  0.0719
  H  H120  1  0.438600  0.815500  0.492300  1.0  0.1188
  H  H121  1  0.894100  0.498300  0.065200  1.0  0.0682
  H  H122  1  0.901400  0.400600  0.046400  1.0  0.1196
  H  H123  1  0.789100  0.357700  0.130800  1.0  0.1208
  H  H124  1  0.787900  0.456200  0.148000  1.0  0.0802
  H  H125  1  0.761600  0.327300  0.999700  1.0  0.1238
  H  H126  1  0.761500  0.372900  0.941700  1.0  0.0791
  H  H127  1  0.933200  0.365900  0.936200  1.0  0.0719
  H  H128  1  0.938600  0.315500  0.992300  1.0  0.1189
  H  H129  1  0.105900  0.001700  0.065200  1.0  0.068
  H  H130  1  0.098600  0.099400  0.046400  1.0  0.1194
  H  H131  1  0.210900  0.142300  0.130800  1.0  0.1199
  H  H132  1  0.212100  0.043800  0.148000  1.0  0.0801
  H  H133  1  0.238400  0.172700  0.999700  1.0  0.1229
  H  H134  1  0.238500  0.127100  0.941700  1.0  0.0791
  H  H135  1  0.066800  0.134100  0.936200  1.0  0.0719
  H  H136  1  0.061400  0.184500  0.992300  1.0  0.1179
  H  H137  1  0.605900  0.501700  0.565200  1.0  0.068
  H  H138  1  0.598600  0.599400  0.546400  1.0  0.1194
  H  H139  1  0.710900  0.642300  0.630800  1.0  0.1199
  H  H140  1  0.712100  0.543800  0.648000  1.0  0.0801
  H  H141  1  0.738400  0.672700  0.499700  1.0  0.1229
  H  H142  1  0.738500  0.627100  0.441700  1.0  0.0791
  H  H143  1  0.566800  0.634100  0.436200  1.0  0.0719
  H  H144  1  0.561400  0.684500  0.492300  1.0  0.1179
  H  H145  1  0.751700  0.855900  0.315200  1.0  0.0689
  H  H146  1  0.849400  0.848600  0.296400  1.0  0.1194
  H  H147  1  0.892300  0.960900  0.380800  1.0  0.1215
  H  H148  1  0.793800  0.962100  0.398000  1.0  0.0805
  H  H149  1  0.922700  0.988400  0.249700  1.0  0.1236
  H  H150  1  0.877100  0.988500  0.191700  1.0  0.079
  H  H151  1  0.884100  0.816800  0.186200  1.0  0.0739
  H  H152  1  0.934500  0.811400  0.242300  1.0  0.1193
  H  H153  1  0.251700  0.355900  0.815200  1.0  0.0689
  H  H154  1  0.349400  0.348600  0.796400  1.0  0.1194
  H  H155  1  0.392300  0.460900  0.880800  1.0  0.1205
  H  H156  1  0.293800  0.462100  0.898000  1.0  0.0805
  H  H157  1  0.422700  0.488400  0.749700  1.0  0.1236
  H  H158  1  0.377100  0.488500  0.691700  1.0  0.079
  H  H159  1  0.384100  0.316800  0.686200  1.0  0.0739
  H  H160  1  0.434500  0.311400  0.742300  1.0  0.1186
  H  H161  1  0.748300  0.144100  0.815200  1.0  0.0692
  H  H162  1  0.650600  0.151400  0.796400  1.0  0.1197
  H  H163  1  0.607700  0.039100  0.880800  1.0  0.1215
  H  H164  1  0.706200  0.037900  0.898000  1.0  0.0802
  H  H165  1  0.577300  0.011600  0.749700  1.0  0.1227
  H  H166  1  0.622900  0.011500  0.691700  1.0  0.079
  H  H167  1  0.615900  0.183200  0.686200  1.0  0.0738
  H  H168  1  0.565500  0.188600  0.742300  1.0  0.1189
  H  H169  1  0.248300  0.644100  0.315200  1.0  0.0692
  H  H170  1  0.150600  0.651400  0.296400  1.0  0.1197
  H  H171  1  0.107700  0.539100  0.380800  1.0  0.1207
  H  H172  1  0.206200  0.537900  0.398000  1.0  0.0802
  H  H173  1  0.077300  0.511600  0.249700  1.0  0.1229
  H  H174  1  0.122900  0.511500  0.191700  1.0  0.079
  H  H175  1  0.115900  0.683200  0.186200  1.0  0.0738
  H  H176  1  0.065500  0.688600  0.242300  1.0  0.1189
  H  H177  1  0.894100  0.001700  0.065200  1.0  0.0684
  H  H178  1  0.901400  0.099400  0.046400  1.0  0.1195
  H  H179  1  0.789100  0.142300  0.130800  1.0  0.1206
  H  H180  1  0.787900  0.043800  0.148000  1.0  0.0801
  H  H181  1  0.761600  0.172700  0.999700  1.0  0.1239
  H  H182  1  0.761500  0.127100  0.941700  1.0  0.0792
  H  H183  1  0.933200  0.134100  0.936200  1.0  0.0714
  H  H184  1  0.938600  0.184500  0.992300  1.0  0.119
  H  H185  1  0.394100  0.501700  0.565200  1.0  0.0684
  H  H186  1  0.401400  0.599400  0.546400  1.0  0.1195
  H  H187  1  0.289100  0.642300  0.630800  1.0  0.1206
  H  H188  1  0.287900  0.543800  0.648000  1.0  0.0801
  H  H189  1  0.261600  0.672700  0.499700  1.0  0.1239
  H  H190  1  0.261500  0.627100  0.441700  1.0  0.0792
  H  H191  1  0.433200  0.634100  0.436200  1.0  0.0714
  H  H192  1  0.438600  0.684500  0.492300  1.0  0.119
  H  H193  1  0.605900  0.998300  0.565200  1.0  0.0682
  H  H194  1  0.598600  0.900600  0.546400  1.0  0.1195
  H  H195  1  0.710900  0.857700  0.630800  1.0  0.1202
  H  H196  1  0.712100  0.956200  0.648000  1.0  0.0803
  H  H197  1  0.738400  0.827300  0.499700  1.0  0.1228
  H  H198  1  0.738500  0.872900  0.441700  1.0  0.0791
  H  H199  1  0.566800  0.865900  0.436200  1.0  0.0719
  H  H200  1  0.561400  0.815500  0.492300  1.0  0.1191
  H  H201  1  0.105900  0.498300  0.065200  1.0  0.0682
  H  H202  1  0.098600  0.400600  0.046400  1.0  0.1195
  H  H203  1  0.210900  0.357700  0.130800  1.0  0.1199
  H  H204  1  0.212100  0.456200  0.148000  1.0  0.0803
  H  H205  1  0.238400  0.327300  0.999700  1.0  0.1228
  H  H206  1  0.238500  0.372900  0.941700  1.0  0.0791
  H  H207  1  0.066800  0.365900  0.936200  1.0  0.0719
  H  H208  1  0.061400  0.315500  0.992300  1.0  0.1191
  H  H209  1  0.748300  0.855900  0.184800  1.0  0.0685
  H  H210  1  0.650600  0.848600  0.203600  1.0  0.1196
  H  H211  1  0.607700  0.960900  0.119200  1.0  0.1217
  H  H212  1  0.706200  0.962100  0.102000  1.0  0.0787
  H  H213  1  0.577300  0.988400  0.250300  1.0  0.1247
  H  H214  1  0.622900  0.988500  0.308300  1.0  0.0793
  H  H215  1  0.615900  0.816800  0.313800  1.0  0.0739
  H  H216  1  0.565500  0.811400  0.257700  1.0  0.1197
  H  H217  1  0.248300  0.355900  0.684800  1.0  0.0685
  H  H218  1  0.150600  0.348600  0.703600  1.0  0.1196
  H  H219  1  0.107700  0.460900  0.619200  1.0  0.1211
  H  H220  1  0.206200  0.462100  0.602000  1.0  0.0787
  H  H221  1  0.077300  0.488400  0.750300  1.0  0.1245
  H  H222  1  0.122900  0.488500  0.808300  1.0  0.0793
  H  H223  1  0.115900  0.316800  0.813800  1.0  0.0739
  H  H224  1  0.065500  0.311400  0.757700  1.0  0.1197
  H  H225  1  0.751700  0.144100  0.684800  1.0  0.0687
  H  H226  1  0.849400  0.151400  0.703600  1.0  0.1198
  H  H227  1  0.892300  0.039100  0.619200  1.0  0.1214
  H  H228  1  0.793800  0.037900  0.602000  1.0  0.0795
  H  H229  1  0.922700  0.011600  0.750300  1.0  0.1232
  H  H230  1  0.877100  0.011500  0.808300  1.0  0.0789
  H  H231  1  0.884100  0.183200  0.813800  1.0  0.0738
  H  H232  1  0.934500  0.188600  0.757700  1.0  0.1195
  H  H233  1  0.251700  0.644100  0.184800  1.0  0.0687
  H  H234  1  0.349400  0.651400  0.203600  1.0  0.1198
  H  H235  1  0.392300  0.539100  0.119200  1.0  0.1205
  H  H236  1  0.293800  0.537900  0.102000  1.0  0.0795
  H  H237  1  0.422700  0.511600  0.250300  1.0  0.1234
  H  H238  1  0.377100  0.511500  0.308300  1.0  0.0789
  H  H239  1  0.384100  0.683200  0.313800  1.0  0.0738
  H  H240  1  0.434500  0.688600  0.257700  1.0  0.1195
  H  H241  1  0.605900  0.001700  0.434800  1.0  0.0678
  H  H242  1  0.598600  0.099400  0.453600  1.0  0.1199
  H  H243  1  0.710900  0.142300  0.369200  1.0  0.1205
  H  H244  1  0.712100  0.043800  0.352000  1.0  0.0789
  H  H245  1  0.738400  0.172700  0.500300  1.0  0.1232
  H  H246  1  0.738500  0.127100  0.558300  1.0  0.0793
  H  H247  1  0.566800  0.134100  0.563800  1.0  0.0718
  H  H248  1  0.561400  0.184500  0.507700  1.0  0.1185
  H  H249  1  0.105900  0.501700  0.934800  1.0  0.0678
  H  H250  1  0.098600  0.599400  0.953600  1.0  0.1199
  H  H251  1  0.210900  0.642300  0.869200  1.0  0.1206
  H  H252  1  0.212100  0.543800  0.852000  1.0  0.0789
  H  H253  1  0.238400  0.672700  0.000300  1.0  0.1232
  H  H254  1  0.238500  0.627100  0.058300  1.0  0.0793
  H  H255  1  0.066800  0.634100  0.063800  1.0  0.0718
  H  H256  1  0.061400  0.684500  0.007700  1.0  0.1185
  H  H257  1  0.894100  0.998300  0.934800  1.0  0.0675
  H  H258  1  0.901400  0.900600  0.953600  1.0  0.1194
  H  H259  1  0.789100  0.857700  0.869200  1.0  0.1201
  H  H260  1  0.787900  0.956200  0.852000  1.0  0.0789
  H  H261  1  0.761600  0.827300  0.000300  1.0  0.1243
  H  H262  1  0.761500  0.872900  0.058300  1.0  0.0792
  H  H263  1  0.933200  0.865900  0.063800  1.0  0.0715
  H  H264  1  0.938600  0.815500  0.007700  1.0  0.1199
  H  H265  1  0.394100  0.498300  0.434800  1.0  0.0675
  H  H266  1  0.401400  0.400600  0.453600  1.0  0.1194
  H  H267  1  0.289100  0.357700  0.369200  1.0  0.1201
  H  H268  1  0.287900  0.456200  0.352000  1.0  0.0789
  H  H269  1  0.261600  0.327300  0.500300  1.0  0.1243
  H  H270  1  0.261500  0.372900  0.558300  1.0  0.0792
  H  H271  1  0.433200  0.365900  0.563800  1.0  0.0715
  H  H272  1  0.438600  0.315500  0.507700  1.0  0.1192
  C  C273  1  0.219000  0.123190  0.670910  1.0  0.1316
  C  C274  1  0.160870  0.127110  0.682760  1.0  -0.2029
  C  C275  1  0.117730  0.095120  0.663830  1.0  0.014
  C  C276  1  0.135750  0.061620  0.633150  1.0  -0.1928
  C  C277  1  0.194640  0.061270  0.623050  1.0  0.1391
  C  C278  1  0.055060  0.096130  0.675550  1.0  -0.1687
  C  C279  1  0.031780  0.100780  0.711340  1.0  -0.0518
  C  C280  1  0.065650  0.100690  0.747180  1.0  0.0993
  C  C281  1  0.083740  0.048010  0.763100  1.0  -0.2084
  C  C282  1  0.111200  0.048430  0.797680  1.0  0.148
  C  C283  1  0.106610  0.147220  0.801180  1.0  0.1514
  C  C284  1  0.077430  0.151080  0.767210  1.0  -0.2171
  C  C285  1  0.719000  0.623190  0.170910  1.0  0.1316
  C  C286  1  0.660870  0.627110  0.182760  1.0  -0.2029
  C  C287  1  0.617730  0.595120  0.163830  1.0  0.014
  C  C288  1  0.635750  0.561620  0.133150  1.0  -0.1928
  C  C289  1  0.694640  0.561270  0.123050  1.0  0.1391
  C  C290  1  0.555060  0.596130  0.175550  1.0  -0.1687
  C  C291  1  0.531780  0.600780  0.211340  1.0  -0.0518
  C  C292  1  0.565650  0.600690  0.247180  1.0  0.0993
  C  C293  1  0.583740  0.548010  0.263100  1.0  -0.2084
  C  C294  1  0.611200  0.548430  0.297680  1.0  0.148
  C  C295  1  0.606610  0.647220  0.301180  1.0  0.1514
  C  C296  1  0.577430  0.651080  0.267210  1.0  -0.2171
  C  C297  1  0.281000  0.876810  0.170910  1.0  0.1323
  C  C298  1  0.339130  0.872890  0.182760  1.0  -0.2006
  C  C299  1  0.382270  0.904880  0.163830  1.0  0.015
  C  C300  1  0.364250  0.938380  0.133150  1.0  -0.1937
  C  C301  1  0.305360  0.938730  0.123050  1.0  0.1378
  C  C302  1  0.444940  0.903870  0.175550  1.0  -0.1694
  C  C303  1  0.468220  0.899220  0.211340  1.0  -0.0518
  C  C304  1  0.434350  0.899310  0.247180  1.0  0.0981
  C  C305  1  0.416260  0.951990  0.263100  1.0  -0.2062
  C  C306  1  0.388800  0.951570  0.297680  1.0  0.1472
  C  C307  1  0.393390  0.852780  0.301180  1.0  0.1527
  C  C308  1  0.422570  0.848920  0.267210  1.0  -0.2148
  C  C309  1  0.781000  0.376810  0.670910  1.0  0.1323
  C  C310  1  0.839130  0.372890  0.682760  1.0  -0.2006
  C  C311  1  0.882270  0.404880  0.663830  1.0  0.015
  C  C312  1  0.864250  0.438380  0.633150  1.0  -0.1937
  C  C313  1  0.805360  0.438730  0.623050  1.0  0.1378
  C  C314  1  0.944940  0.403870  0.675550  1.0  -0.1694
  C  C315  1  0.968220  0.399220  0.711340  1.0  -0.0518
  C  C316  1  0.934350  0.399310  0.747180  1.0  0.0981
  C  C317  1  0.916260  0.451990  0.763100  1.0  -0.2062
  C  C318  1  0.888800  0.451570  0.797680  1.0  0.1472
  C  C319  1  0.893390  0.352780  0.801180  1.0  0.1527
  C  C320  1  0.922570  0.348920  0.767210  1.0  -0.2148
  C  C321  1  0.126810  0.969000  0.920910  1.0  0.131
  C  C322  1  0.122890  0.910870  0.932760  1.0  -0.2011
  C  C323  1  0.154880  0.867730  0.913830  1.0  0.015
  C  C324  1  0.188380  0.885750  0.883150  1.0  -0.1944
  C  C325  1  0.188730  0.944640  0.873050  1.0  0.1373
  C  C326  1  0.153870  0.805060  0.925550  1.0  -0.1699
  C  C327  1  0.149220  0.781780  0.961340  1.0  -0.0517
  C  C328  1  0.149310  0.815650  0.997180  1.0  0.0988
  C  C329  1  0.201990  0.833740  0.013100  1.0  -0.2051
  C  C330  1  0.201570  0.861200  0.047680  1.0  0.1508
  C  C331  1  0.102780  0.856610  0.051180  1.0  0.1536
  C  C332  1  0.098920  0.827430  0.017210  1.0  -0.2157
  C  C333  1  0.626810  0.469000  0.420910  1.0  0.131
  C  C334  1  0.622890  0.410870  0.432760  1.0  -0.2011
  C  C335  1  0.654880  0.367730  0.413830  1.0  0.015
  C  C336  1  0.688380  0.385750  0.383150  1.0  -0.1944
  C  C337  1  0.688730  0.444640  0.373050  1.0  0.1373
  C  C338  1  0.653870  0.305060  0.425550  1.0  -0.1699
  C  C339  1  0.649220  0.281780  0.461340  1.0  -0.0517
  C  C340  1  0.649310  0.315650  0.497180  1.0  0.0988
  C  C341  1  0.701990  0.333740  0.513100  1.0  -0.2051
  C  C342  1  0.701570  0.361200  0.547680  1.0  0.1508
  C  C343  1  0.602780  0.356610  0.551180  1.0  0.1536
  C  C344  1  0.598920  0.327430  0.517210  1.0  -0.2157
  C  C345  1  0.373190  0.031000  0.420910  1.0  0.1311
  C  C346  1  0.377110  0.089130  0.432760  1.0  -0.2011
  C  C347  1  0.345120  0.132270  0.413830  1.0  0.0161
  C  C348  1  0.311620  0.114250  0.383150  1.0  -0.1942
  C  C349  1  0.311270  0.055360  0.373050  1.0  0.1391
  C  C350  1  0.346130  0.194940  0.425550  1.0  -0.1688
  C  C351  1  0.350780  0.218220  0.461340  1.0  -0.0518
  C  C352  1  0.350690  0.184350  0.497180  1.0  0.0997
  C  C353  1  0.298010  0.166260  0.513100  1.0  -0.2043
  C  C354  1  0.298430  0.138800  0.547680  1.0  0.1508
  C  C355  1  0.397220  0.143390  0.551180  1.0  0.1543
  C  C356  1  0.401080  0.172570  0.517210  1.0  -0.2154
  C  C357  1  0.873190  0.531000  0.920910  1.0  0.1311
  C  C358  1  0.877110  0.589130  0.932760  1.0  -0.2011
  C  C359  1  0.845120  0.632270  0.913830  1.0  0.0161
  C  C360  1  0.811620  0.614250  0.883150  1.0  -0.1942
  C  C361  1  0.811270  0.555360  0.873050  1.0  0.1391
  C  C362  1  0.846130  0.694940  0.925550  1.0  -0.1688
  C  C363  1  0.850780  0.718220  0.961340  1.0  -0.0518
  C  C364  1  0.850690  0.684350  0.997180  1.0  0.0997
  C  C365  1  0.798010  0.666260  0.013100  1.0  -0.2043
  C  C366  1  0.798430  0.638800  0.047680  1.0  0.1508
  C  C367  1  0.897220  0.643390  0.051180  1.0  0.1543
  C  C368  1  0.901080  0.672570  0.017210  1.0  -0.2154
  C  C369  1  0.281000  0.123190  0.829090  1.0  0.1317
  C  C370  1  0.339130  0.127110  0.817240  1.0  -0.2006
  C  C371  1  0.382270  0.095120  0.836170  1.0  0.0156
  C  C372  1  0.364250  0.061620  0.866850  1.0  -0.1915
  C  C373  1  0.305360  0.061270  0.876950  1.0  0.1384
  C  C374  1  0.444940  0.096130  0.824450  1.0  -0.1679
  C  C375  1  0.468220  0.100780  0.788660  1.0  -0.0518
  C  C376  1  0.434350  0.100690  0.752820  1.0  0.0985
  C  C377  1  0.416260  0.048010  0.736900  1.0  -0.2064
  C  C378  1  0.388800  0.048430  0.702320  1.0  0.1477
  C  C379  1  0.393390  0.147220  0.698820  1.0  0.1518
  C  C380  1  0.422570  0.151080  0.732790  1.0  -0.2148
  C  C381  1  0.781000  0.623190  0.329090  1.0  0.1317
  C  C382  1  0.839130  0.627110  0.317240  1.0  -0.2006
  C  C383  1  0.882270  0.595120  0.336170  1.0  0.0156
  C  C384  1  0.864250  0.561620  0.366850  1.0  -0.1915
  C  C385  1  0.805360  0.561270  0.376950  1.0  0.1384
  C  C386  1  0.944940  0.596130  0.324450  1.0  -0.1679
  C  C387  1  0.968220  0.600780  0.288660  1.0  -0.0518
  C  C388  1  0.934350  0.600690  0.252820  1.0  0.0985
  C  C389  1  0.916260  0.548010  0.236900  1.0  -0.2064
  C  C390  1  0.888800  0.548430  0.202320  1.0  0.1477
  C  C391  1  0.893390  0.647220  0.198820  1.0  0.1518
  C  C392  1  0.922570  0.651080  0.232790  1.0  -0.2148
  C  C393  1  0.219000  0.876810  0.329090  1.0  0.132
  C  C394  1  0.160870  0.872890  0.317240  1.0  -0.202
  C  C395  1  0.117730  0.904880  0.336170  1.0  0.015
  C  C396  1  0.135750  0.938380  0.366850  1.0  -0.1944
  C  C397  1  0.194640  0.938730  0.376950  1.0  0.1394
  C  C398  1  0.055060  0.903870  0.324450  1.0  -0.1681
  C  C399  1  0.031780  0.899220  0.288660  1.0  -0.0518
  C  C400  1  0.065650  0.899310  0.252820  1.0  0.0982
  C  C401  1  0.083740  0.951990  0.236900  1.0  -0.2069
  C  C402  1  0.111200  0.951570  0.202320  1.0  0.1475
  C  C403  1  0.106610  0.852780  0.198820  1.0  0.1515
  C  C404  1  0.077430  0.848920  0.232790  1.0  -0.2163
  C  C405  1  0.719000  0.376810  0.829090  1.0  0.132
  C  C406  1  0.660870  0.372890  0.817240  1.0  -0.202
  C  C407  1  0.617730  0.404880  0.836170  1.0  0.015
  C  C408  1  0.635750  0.438380  0.866850  1.0  -0.1944
  C  C409  1  0.694640  0.438730  0.876950  1.0  0.1394
  C  C410  1  0.555060  0.403870  0.824450  1.0  -0.1681
  C  C411  1  0.531780  0.399220  0.788660  1.0  -0.0518
  C  C412  1  0.565650  0.399310  0.752820  1.0  0.0982
  C  C413  1  0.583740  0.451990  0.736900  1.0  -0.2069
  C  C414  1  0.611200  0.451570  0.702320  1.0  0.1475
  C  C415  1  0.606610  0.352780  0.698820  1.0  0.1515
  C  C416  1  0.577430  0.348920  0.732790  1.0  -0.2163
  C  C417  1  0.373190  0.969000  0.579090  1.0  0.1305
  C  C418  1  0.377110  0.910870  0.567240  1.0  -0.2
  C  C419  1  0.345120  0.867730  0.586170  1.0  0.0154
  C  C420  1  0.311620  0.885750  0.616850  1.0  -0.1934
  C  C421  1  0.311270  0.944640  0.626950  1.0  0.1391
  C  C422  1  0.346130  0.805060  0.574450  1.0  -0.1684
  C  C423  1  0.350780  0.781780  0.538660  1.0  -0.052
  C  C424  1  0.350690  0.815650  0.502820  1.0  0.0987
  C  C425  1  0.298010  0.833740  0.486900  1.0  -0.2048
  C  C426  1  0.298430  0.861200  0.452320  1.0  0.1499
  C  C427  1  0.397220  0.856610  0.448820  1.0  0.1535
  C  C428  1  0.401080  0.827430  0.482790  1.0  -0.2148
  C  C429  1  0.873190  0.469000  0.079090  1.0  0.1305
  C  C430  1  0.877110  0.410870  0.067240  1.0  -0.2
  C  C431  1  0.845120  0.367730  0.086170  1.0  0.0154
  C  C432  1  0.811620  0.385750  0.116850  1.0  -0.1934
  C  C433  1  0.811270  0.444640  0.126950  1.0  0.1391
  C  C434  1  0.846130  0.305060  0.074450  1.0  -0.1684
  C  C435  1  0.850780  0.281780  0.038660  1.0  -0.052
  C  C436  1  0.850690  0.315650  0.002820  1.0  0.0987
  C  C437  1  0.798010  0.333740  0.986900  1.0  -0.2048
  C  C438  1  0.798430  0.361200  0.952320  1.0  0.1499
  C  C439  1  0.897220  0.356610  0.948820  1.0  0.1535
  C  C440  1  0.901080  0.327430  0.982790  1.0  -0.2148
  C  C441  1  0.126810  0.031000  0.079090  1.0  0.1311
  C  C442  1  0.122890  0.089130  0.067240  1.0  -0.2024
  C  C443  1  0.154880  0.132270  0.086170  1.0  0.0169
  C  C444  1  0.188380  0.114250  0.116850  1.0  -0.1938
  C  C445  1  0.188730  0.055360  0.126950  1.0  0.1379
  C  C446  1  0.153870  0.194940  0.074450  1.0  -0.1683
  C  C447  1  0.149220  0.218220  0.038660  1.0  -0.052
  C  C448  1  0.149310  0.184350  0.002820  1.0  0.0993
  C  C449  1  0.201990  0.166260  0.986900  1.0  -0.203
  C  C450  1  0.201570  0.138800  0.952320  1.0  0.1501
  C  C451  1  0.102780  0.143390  0.948820  1.0  0.1542
  C  C452  1  0.098920  0.172570  0.982790  1.0  -0.2161
  C  C453  1  0.626810  0.531000  0.579090  1.0  0.1311
  C  C454  1  0.622890  0.589130  0.567240  1.0  -0.2024
  C  C455  1  0.654880  0.632270  0.586170  1.0  0.0169
  C  C456  1  0.688380  0.614250  0.616850  1.0  -0.1938
  C  C457  1  0.688730  0.555360  0.626950  1.0  0.1379
  C  C458  1  0.653870  0.694940  0.574450  1.0  -0.1683
  C  C459  1  0.649220  0.718220  0.538660  1.0  -0.052
  C  C460  1  0.649310  0.684350  0.502820  1.0  0.0993
  C  C461  1  0.701990  0.666260  0.486900  1.0  -0.203
  C  C462  1  0.701570  0.638800  0.452320  1.0  0.1501
  C  C463  1  0.602780  0.643390  0.448820  1.0  0.1542
  C  C464  1  0.598920  0.672570  0.482790  1.0  -0.2161
  C  C465  1  0.781000  0.876810  0.329090  1.0  0.1319
  C  C466  1  0.839130  0.872890  0.317240  1.0  -0.2007
  C  C467  1  0.882270  0.904880  0.336170  1.0  0.0156
  C  C468  1  0.864250  0.938380  0.366850  1.0  -0.1922
  C  C469  1  0.805360  0.938730  0.376950  1.0  0.1378
  C  C470  1  0.944940  0.903870  0.324450  1.0  -0.168
  C  C471  1  0.968220  0.899220  0.288660  1.0  -0.0518
  C  C472  1  0.934350  0.899310  0.252820  1.0  0.0978
  C  C473  1  0.916260  0.951990  0.236900  1.0  -0.2062
  C  C474  1  0.888800  0.951570  0.202320  1.0  0.1471
  C  C475  1  0.893390  0.852780  0.198820  1.0  0.1525
  C  C476  1  0.922570  0.848920  0.232790  1.0  -0.2147
  C  C477  1  0.281000  0.376810  0.829090  1.0  0.1319
  C  C478  1  0.339130  0.372890  0.817240  1.0  -0.2007
  C  C479  1  0.382270  0.404880  0.836170  1.0  0.0156
  C  C480  1  0.364250  0.438380  0.866850  1.0  -0.1922
  C  C481  1  0.305360  0.438730  0.876950  1.0  0.1378
  C  C482  1  0.444940  0.403870  0.824450  1.0  -0.168
  C  C483  1  0.468220  0.399220  0.788660  1.0  -0.0518
  C  C484  1  0.434350  0.399310  0.752820  1.0  0.0978
  C  C485  1  0.416260  0.451990  0.736900  1.0  -0.2062
  C  C486  1  0.388800  0.451570  0.702320  1.0  0.1471
  C  C487  1  0.393390  0.352780  0.698820  1.0  0.1525
  C  C488  1  0.422570  0.348920  0.732790  1.0  -0.2147
  C  C489  1  0.719000  0.123190  0.829090  1.0  0.132
  C  C490  1  0.660870  0.127110  0.817240  1.0  -0.2016
  C  C491  1  0.617730  0.095120  0.836170  1.0  0.015
  C  C492  1  0.635750  0.061620  0.866850  1.0  -0.193
  C  C493  1  0.694640  0.061270  0.876950  1.0  0.1397
  C  C494  1  0.555060  0.096130  0.824450  1.0  -0.168
  C  C495  1  0.531780  0.100780  0.788660  1.0  -0.0519
  C  C496  1  0.565650  0.100690  0.752820  1.0  0.099
  C  C497  1  0.583740  0.048010  0.736900  1.0  -0.2076
  C  C498  1  0.611200  0.048430  0.702320  1.0  0.1473
  C  C499  1  0.606610  0.147220  0.698820  1.0  0.1509
  C  C500  1  0.577430  0.151080  0.732790  1.0  -0.2169
  C  C501  1  0.219000  0.623190  0.329090  1.0  0.132
  C  C502  1  0.160870  0.627110  0.317240  1.0  -0.2016
  C  C503  1  0.117730  0.595120  0.336170  1.0  0.015
  C  C504  1  0.135750  0.561620  0.366850  1.0  -0.193
  C  C505  1  0.194640  0.561270  0.376950  1.0  0.1397
  C  C506  1  0.055060  0.596130  0.324450  1.0  -0.168
  C  C507  1  0.031780  0.600780  0.288660  1.0  -0.0519
  C  C508  1  0.065650  0.600690  0.252820  1.0  0.099
  C  C509  1  0.083740  0.548010  0.236900  1.0  -0.2076
  C  C510  1  0.111200  0.548430  0.202320  1.0  0.1473
  C  C511  1  0.106610  0.647220  0.198820  1.0  0.1509
  C  C512  1  0.077430  0.651080  0.232790  1.0  -0.2169
  C  C513  1  0.873190  0.031000  0.079090  1.0  0.1308
  C  C514  1  0.877110  0.089130  0.067240  1.0  -0.2006
  C  C515  1  0.845120  0.132270  0.086170  1.0  0.0168
  C  C516  1  0.811620  0.114250  0.116850  1.0  -0.1953
  C  C517  1  0.811270  0.055360  0.126950  1.0  0.1392
  C  C518  1  0.846130  0.194940  0.074450  1.0  -0.1679
  C  C519  1  0.850780  0.218220  0.038660  1.0  -0.0521
  C  C520  1  0.850690  0.184350  0.002820  1.0  0.099
  C  C521  1  0.798010  0.166260  0.986900  1.0  -0.2045
  C  C522  1  0.798430  0.138800  0.952320  1.0  0.15
  C  C523  1  0.897220  0.143390  0.948820  1.0  0.1534
  C  C524  1  0.901080  0.172570  0.982790  1.0  -0.215
  C  C525  1  0.373190  0.531000  0.579090  1.0  0.1308
  C  C526  1  0.377110  0.589130  0.567240  1.0  -0.2006
  C  C527  1  0.345120  0.632270  0.586170  1.0  0.0168
  C  C528  1  0.311620  0.614250  0.616850  1.0  -0.1953
  C  C529  1  0.311270  0.555360  0.626950  1.0  0.1392
  C  C530  1  0.346130  0.694940  0.574450  1.0  -0.1679
  C  C531  1  0.350780  0.718220  0.538660  1.0  -0.0521
  C  C532  1  0.350690  0.684350  0.502820  1.0  0.099
  C  C533  1  0.298010  0.666260  0.486900  1.0  -0.2045
  C  C534  1  0.298430  0.638800  0.452320  1.0  0.15
  C  C535  1  0.397220  0.643390  0.448820  1.0  0.1534
  C  C536  1  0.401080  0.672570  0.482790  1.0  -0.215
  C  C537  1  0.626810  0.969000  0.579090  1.0  0.1315
  C  C538  1  0.622890  0.910870  0.567240  1.0  -0.2018
  C  C539  1  0.654880  0.867730  0.586170  1.0  0.0154
  C  C540  1  0.688380  0.885750  0.616850  1.0  -0.1926
  C  C541  1  0.688730  0.944640  0.626950  1.0  0.1378
  C  C542  1  0.653870  0.805060  0.574450  1.0  -0.1688
  C  C543  1  0.649220  0.781780  0.538660  1.0  -0.0518
  C  C544  1  0.649310  0.815650  0.502820  1.0  0.0991
  C  C545  1  0.701990  0.833740  0.486900  1.0  -0.2037
  C  C546  1  0.701570  0.861200  0.452320  1.0  0.1504
  C  C547  1  0.602780  0.856610  0.448820  1.0  0.154
  C  C548  1  0.598920  0.827430  0.482790  1.0  -0.2156
  C  C549  1  0.126810  0.469000  0.079090  1.0  0.1315
  C  C550  1  0.122890  0.410870  0.067240  1.0  -0.2018
  C  C551  1  0.154880  0.367730  0.086170  1.0  0.0154
  C  C552  1  0.188380  0.385750  0.116850  1.0  -0.1926
  C  C553  1  0.188730  0.444640  0.126950  1.0  0.1378
  C  C554  1  0.153870  0.305060  0.074450  1.0  -0.1688
  C  C555  1  0.149220  0.281780  0.038660  1.0  -0.0518
  C  C556  1  0.149310  0.315650  0.002820  1.0  0.0991
  C  C557  1  0.201990  0.333740  0.986900  1.0  -0.2037
  C  C558  1  0.201570  0.361200  0.952320  1.0  0.1504
  C  C559  1  0.102780  0.356610  0.948820  1.0  0.154
  C  C560  1  0.098920  0.327430  0.982790  1.0  -0.2156
  C  C561  1  0.719000  0.876810  0.170910  1.0  0.1324
  C  C562  1  0.660870  0.872890  0.182760  1.0  -0.202
  C  C563  1  0.617730  0.904880  0.163830  1.0  0.014
  C  C564  1  0.635750  0.938380  0.133150  1.0  -0.1935
  C  C565  1  0.694640  0.938730  0.123050  1.0  0.1391
  C  C566  1  0.555060  0.903870  0.175550  1.0  -0.1688
  C  C567  1  0.531780  0.899220  0.211340  1.0  -0.052
  C  C568  1  0.565650  0.899310  0.247180  1.0  0.0984
  C  C569  1  0.583740  0.951990  0.263100  1.0  -0.207
  C  C570  1  0.611200  0.951570  0.297680  1.0  0.148
  C  C571  1  0.606610  0.852780  0.301180  1.0  0.1528
  C  C572  1  0.577430  0.848920  0.267210  1.0  -0.2166
  C  C573  1  0.219000  0.376810  0.670910  1.0  0.1324
  C  C574  1  0.160870  0.372890  0.682760  1.0  -0.202
  C  C575  1  0.117730  0.404880  0.663830  1.0  0.014
  C  C576  1  0.135750  0.438380  0.633150  1.0  -0.1935
  C  C577  1  0.194640  0.438730  0.623050  1.0  0.1391
  C  C578  1  0.055060  0.403870  0.675550  1.0  -0.1688
  C  C579  1  0.031780  0.399220  0.711340  1.0  -0.052
  C  C580  1  0.065650  0.399310  0.747180  1.0  0.0984
  C  C581  1  0.083740  0.451990  0.763100  1.0  -0.207
  C  C582  1  0.111200  0.451570  0.797680  1.0  0.148
  C  C583  1  0.106610  0.352780  0.801180  1.0  0.1528
  C  C584  1  0.077430  0.348920  0.767210  1.0  -0.2166
  C  C585  1  0.781000  0.123190  0.670910  1.0  0.1313
  C  C586  1  0.839130  0.127110  0.682760  1.0  -0.202
  C  C587  1  0.882270  0.095120  0.663830  1.0  0.0149
  C  C588  1  0.864250  0.061620  0.633150  1.0  -0.1934
  C  C589  1  0.805360  0.061270  0.623050  1.0  0.1379
  C  C590  1  0.944940  0.096130  0.675550  1.0  -0.1692
  C  C591  1  0.968220  0.100780  0.711340  1.0  -0.0517
  C  C592  1  0.934350  0.100690  0.747180  1.0  0.0988
  C  C593  1  0.916260  0.048010  0.763100  1.0  -0.2069
  C  C594  1  0.888800  0.048430  0.797680  1.0  0.1483
  C  C595  1  0.893390  0.147220  0.801180  1.0  0.1509
  C  C596  1  0.922570  0.151080  0.767210  1.0  -0.2149
  C  C597  1  0.281000  0.623190  0.170910  1.0  0.1313
  C  C598  1  0.339130  0.627110  0.182760  1.0  -0.202
  C  C599  1  0.382270  0.595120  0.163830  1.0  0.0149
  C  C600  1  0.364250  0.561620  0.133150  1.0  -0.1934
  C  C601  1  0.305360  0.561270  0.123050  1.0  0.1379
  C  C602  1  0.444940  0.596130  0.175550  1.0  -0.1692
  C  C603  1  0.468220  0.600780  0.211340  1.0  -0.0517
  C  C604  1  0.434350  0.600690  0.247180  1.0  0.0988
  C  C605  1  0.416260  0.548010  0.263100  1.0  -0.2069
  C  C606  1  0.388800  0.548430  0.297680  1.0  0.1483
  C  C607  1  0.393390  0.647220  0.301180  1.0  0.1509
  C  C608  1  0.422570  0.651080  0.267210  1.0  -0.2149
  C  C609  1  0.626810  0.031000  0.420910  1.0  0.1316
  C  C610  1  0.622890  0.089130  0.432760  1.0  -0.2022
  C  C611  1  0.654880  0.132270  0.413830  1.0  0.0161
  C  C612  1  0.688380  0.114250  0.383150  1.0  -0.1947
  C  C613  1  0.688730  0.055360  0.373050  1.0  0.1375
  C  C614  1  0.653870  0.194940  0.425550  1.0  -0.1697
  C  C615  1  0.649220  0.218220  0.461340  1.0  -0.0516
  C  C616  1  0.649310  0.184350  0.497180  1.0  0.1
  C  C617  1  0.701990  0.166260  0.513100  1.0  -0.2044
  C  C618  1  0.701570  0.138800  0.547680  1.0  0.151
  C  C619  1  0.602780  0.143390  0.551180  1.0  0.1544
  C  C620  1  0.598920  0.172570  0.517210  1.0  -0.2159
  C  C621  1  0.126810  0.531000  0.920910  1.0  0.1316
  C  C622  1  0.122890  0.589130  0.932760  1.0  -0.2022
  C  C623  1  0.154880  0.632270  0.913830  1.0  0.0161
  C  C624  1  0.188380  0.614250  0.883150  1.0  -0.1947
  C  C625  1  0.188730  0.555360  0.873050  1.0  0.1375
  C  C626  1  0.153870  0.694940  0.925550  1.0  -0.1697
  C  C627  1  0.149220  0.718220  0.961340  1.0  -0.0516
  C  C628  1  0.149310  0.684350  0.997180  1.0  0.1
  C  C629  1  0.201990  0.666260  0.013100  1.0  -0.2044
  C  C630  1  0.201570  0.638800  0.047680  1.0  0.151
  C  C631  1  0.102780  0.643390  0.051180  1.0  0.1544
  C  C632  1  0.098920  0.672570  0.017210  1.0  -0.2159
  C  C633  1  0.873190  0.969000  0.920910  1.0  0.1299
  C  C634  1  0.877110  0.910870  0.932760  1.0  -0.2005
  C  C635  1  0.845120  0.867730  0.913830  1.0  0.0149
  C  C636  1  0.811620  0.885750  0.883150  1.0  -0.1938
  C  C637  1  0.811270  0.944640  0.873050  1.0  0.1392
  C  C638  1  0.846130  0.805060  0.925550  1.0  -0.1691
  C  C639  1  0.850780  0.781780  0.961340  1.0  -0.0519
  C  C640  1  0.850690  0.815650  0.997180  1.0  0.0985
  C  C641  1  0.798010  0.833740  0.013100  1.0  -0.2051
  C  C642  1  0.798430  0.861200  0.047680  1.0  0.1503
  C  C643  1  0.897220  0.856610  0.051180  1.0  0.1539
  C  C644  1  0.901080  0.827430  0.017210  1.0  -0.2154
  C  C645  1  0.373190  0.469000  0.420910  1.0  0.1299
  C  C646  1  0.377110  0.410870  0.432760  1.0  -0.2005
  C  C647  1  0.345120  0.367730  0.413830  1.0  0.0149
  C  C648  1  0.311620  0.385750  0.383150  1.0  -0.1938
  C  C649  1  0.311270  0.444640  0.373050  1.0  0.1392
  C  C650  1  0.346130  0.305060  0.425550  1.0  -0.1691
  C  C651  1  0.350780  0.281780  0.461340  1.0  -0.0519
  C  C652  1  0.350690  0.315650  0.497180  1.0  0.0985
  C  C653  1  0.298010  0.333740  0.513100  1.0  -0.2051
  C  C654  1  0.298430  0.361200  0.547680  1.0  0.1503
  C  C655  1  0.397220  0.356610  0.551180  1.0  0.1539
  C  C656  1  0.401080  0.327430  0.517210  1.0  -0.2154
  S  S657  1  0.000000  0.092960  0.642170  1.0  0.1176
  S  S658  1  0.500000  0.592960  0.142170  1.0  0.1176
  S  S659  1  0.500000  0.907040  0.142170  1.0  0.1173
  S  S660  1  0.000000  0.407040  0.642170  1.0  0.1173
  S  S661  1  0.157040  0.750000  0.892170  1.0  0.1178
  S  S662  1  0.342960  0.250000  0.392170  1.0  0.1174
  S  S663  1  0.500000  0.092960  0.857830  1.0  0.1215
  S  S664  1  0.000000  0.592960  0.357830  1.0  0.1215
  S  S665  1  0.000000  0.907040  0.357830  1.0  0.1211
  S  S666  1  0.500000  0.407040  0.857830  1.0  0.1211
  S  S667  1  0.342960  0.750000  0.607830  1.0  0.1216
  S  S668  1  0.157040  0.250000  0.107830  1.0  0.1217
  S  S669  1  0.842960  0.250000  0.107830  1.0  0.1216
  S  S670  1  0.657040  0.750000  0.607830  1.0  0.1217
  S  S671  1  0.657040  0.250000  0.392170  1.0  0.1178
  S  S672  1  0.842960  0.750000  0.892170  1.0  0.1174
  N  N673  1  0.236320  0.091760  0.641090  1.0  -0.327
  N  N674  1  0.122380  0.097760  0.817180  1.0  -0.3148
  N  N675  1  0.736320  0.591760  0.141090  1.0  -0.327
  N  N676  1  0.622380  0.597760  0.317180  1.0  -0.3148
  N  N677  1  0.263680  0.908240  0.141090  1.0  -0.3192
  N  N678  1  0.377620  0.902240  0.317180  1.0  -0.316
  N  N679  1  0.763680  0.408240  0.641090  1.0  -0.3192
  N  N680  1  0.877620  0.402240  0.817180  1.0  -0.316
  N  N681  1  0.158240  0.986320  0.891090  1.0  -0.3294
  N  N682  1  0.152240  0.872380  0.067180  1.0  -0.3179
  N  N683  1  0.658240  0.486320  0.391090  1.0  -0.3294
  N  N684  1  0.652240  0.372380  0.567180  1.0  -0.3179
  N  N685  1  0.341760  0.013680  0.391090  1.0  -0.3289
  N  N686  1  0.347760  0.127620  0.567180  1.0  -0.3175
  N  N687  1  0.841760  0.513680  0.891090  1.0  -0.3289
  N  N688  1  0.847760  0.627620  0.067180  1.0  -0.3175
  N  N689  1  0.263680  0.091760  0.858910  1.0  -0.3193
  N  N690  1  0.377620  0.097760  0.682820  1.0  -0.3177
  N  N691  1  0.763680  0.591760  0.358910  1.0  -0.3193
  N  N692  1  0.877620  0.597760  0.182820  1.0  -0.3177
  N  N693  1  0.236320  0.908240  0.358910  1.0  -0.3272
  N  N694  1  0.122380  0.902240  0.182820  1.0  -0.3157
  N  N695  1  0.736320  0.408240  0.858910  1.0  -0.3272
  N  N696  1  0.622380  0.402240  0.682820  1.0  -0.3157
  N  N697  1  0.341760  0.986320  0.608910  1.0  -0.33
  N  N698  1  0.347760  0.872380  0.432820  1.0  -0.3186
  N  N699  1  0.841760  0.486320  0.108910  1.0  -0.33
  N  N700  1  0.847760  0.372380  0.932820  1.0  -0.3186
  N  N701  1  0.158240  0.013680  0.108910  1.0  -0.3293
  N  N702  1  0.152240  0.127620  0.932820  1.0  -0.3207
  N  N703  1  0.658240  0.513680  0.608910  1.0  -0.3293
  N  N704  1  0.652240  0.627620  0.432820  1.0  -0.3207
  N  N705  1  0.763680  0.908240  0.358910  1.0  -0.3191
  N  N706  1  0.877620  0.902240  0.182820  1.0  -0.3171
  N  N707  1  0.263680  0.408240  0.858910  1.0  -0.3191
  N  N708  1  0.377620  0.402240  0.682820  1.0  -0.3171
  N  N709  1  0.736320  0.091760  0.858910  1.0  -0.3276
  N  N710  1  0.622380  0.097760  0.682820  1.0  -0.3163
  N  N711  1  0.236320  0.591760  0.358910  1.0  -0.3276
  N  N712  1  0.122380  0.597760  0.182820  1.0  -0.3163
  N  N713  1  0.841760  0.013680  0.108910  1.0  -0.3289
  N  N714  1  0.847760  0.127620  0.932820  1.0  -0.3209
  N  N715  1  0.341760  0.513680  0.608910  1.0  -0.3289
  N  N716  1  0.347760  0.627620  0.432820  1.0  -0.3209
  N  N717  1  0.658240  0.986320  0.608910  1.0  -0.33
  N  N718  1  0.652240  0.872380  0.432820  1.0  -0.3185
  N  N719  1  0.158240  0.486320  0.108910  1.0  -0.33
  N  N720  1  0.152240  0.372380  0.932820  1.0  -0.3185
  N  N721  1  0.736320  0.908240  0.141090  1.0  -0.3267
  N  N722  1  0.622380  0.902240  0.317180  1.0  -0.3148
  N  N723  1  0.236320  0.408240  0.641090  1.0  -0.3267
  N  N724  1  0.122380  0.402240  0.817180  1.0  -0.3148
  N  N725  1  0.763680  0.091760  0.641090  1.0  -0.3195
  N  N726  1  0.877620  0.097760  0.817180  1.0  -0.3159
  N  N727  1  0.263680  0.591760  0.141090  1.0  -0.3195
  N  N728  1  0.377620  0.597760  0.317180  1.0  -0.3159
  N  N729  1  0.658240  0.013680  0.391090  1.0  -0.3291
  N  N730  1  0.652240  0.127620  0.567180  1.0  -0.3178
  N  N731  1  0.158240  0.513680  0.891090  1.0  -0.3291
  N  N732  1  0.152240  0.627620  0.067180  1.0  -0.3178
  N  N733  1  0.841760  0.986320  0.891090  1.0  -0.3293
  N  N734  1  0.847760  0.872380  0.067180  1.0  -0.3177
  N  N735  1  0.341760  0.486320  0.391090  1.0  -0.3293
  N  N736  1  0.347760  0.372380  0.567180  1.0  -0.3177
