# generated using pymatgen
data_AgH16C24SN4
_symmetry_space_group_name_H-M   'P 1'
_cell_length_a   22.97500000
_cell_length_b   22.97500000
_cell_length_c   34.29800000
_cell_angle_alpha   90.00000000
_cell_angle_beta   90.00000000
_cell_angle_gamma   90.00000000
_symmetry_Int_Tables_number   1
_chemical_formula_structural   AgH16C24SN4
_chemical_formula_sum   'Ag16 H256 C384 S16 N64'
_cell_volume   18104.22073625
_cell_formula_units_Z   16
loop_
 _symmetry_equiv_pos_site_id
 _symmetry_equiv_pos_as_xyz
  1  'x, y, z'
loop_
 _atom_site_type_symbol
 _atom_site_label
 _atom_site_symmetry_multiplicity
 _atom_site_fract_x
 _atom_site_fract_y
 _atom_site_fract_z
 _atom_site_occupancy
 _atom_site_charge
  Ag  Ag1  1  0.334740  0.084740  0.625000  1.0  0.324
  Ag  Ag2  1  0.834740  0.584740  0.125000  1.0  0.324
  Ag  Ag3  1  0.165260  0.915260  0.125000  1.0  0.3262
  Ag  Ag4  1  0.665260  0.415260  0.625000  1.0  0.3262
  Ag  Ag5  1  0.165260  0.084740  0.875000  1.0  0.3259
  Ag  Ag6  1  0.665260  0.584740  0.375000  1.0  0.3259
  Ag  Ag7  1  0.334740  0.915260  0.375000  1.0  0.3246
  Ag  Ag8  1  0.834740  0.415260  0.875000  1.0  0.3246
  Ag  Ag9  1  0.665260  0.915260  0.375000  1.0  0.3262
  Ag  Ag10  1  0.165260  0.415260  0.875000  1.0  0.3262
  Ag  Ag11  1  0.834740  0.084740  0.875000  1.0  0.324
  Ag  Ag12  1  0.334740  0.584740  0.375000  1.0  0.324
  Ag  Ag13  1  0.834740  0.915260  0.125000  1.0  0.3246
  Ag  Ag14  1  0.334740  0.415260  0.625000  1.0  0.3246
  Ag  Ag15  1  0.665260  0.084740  0.625000  1.0  0.3259
  Ag  Ag16  1  0.165260  0.584740  0.125000  1.0  0.3259
  H  H17  1  0.242500  0.143600  0.678500  1.0  0.0672
  H  H18  1  0.148600  0.149000  0.699200  1.0  0.1139
  H  H19  1  0.107700  0.031900  0.615500  1.0  0.1092
  H  H20  1  0.204800  0.030100  0.598200  1.0  0.0748
  H  H21  1  0.084800  0.014000  0.744200  1.0  0.1188
  H  H22  1  0.133800  0.013400  0.801800  1.0  0.0735
  H  H23  1  0.108700  0.180100  0.815900  1.0  0.0685
  H  H24  1  0.058900  0.184000  0.757800  1.0  0.1074
  H  H25  1  0.742500  0.643600  0.178500  1.0  0.0672
  H  H26  1  0.648600  0.649000  0.199200  1.0  0.1139
  H  H27  1  0.607700  0.531900  0.115500  1.0  0.1085
  H  H28  1  0.704800  0.530100  0.098200  1.0  0.0748
  H  H29  1  0.584800  0.514000  0.244200  1.0  0.1184
  H  H30  1  0.633800  0.513400  0.301800  1.0  0.0735
  H  H31  1  0.608700  0.680100  0.315900  1.0  0.0685
  H  H32  1  0.558900  0.684000  0.257800  1.0  0.1074
  H  H33  1  0.257500  0.856400  0.178500  1.0  0.067
  H  H34  1  0.351400  0.851000  0.199200  1.0  0.1142
  H  H35  1  0.392300  0.968100  0.115500  1.0  0.1098
  H  H36  1  0.295200  0.969900  0.098200  1.0  0.0757
  H  H37  1  0.415200  0.986000  0.244200  1.0  0.1206
  H  H38  1  0.366200  0.986600  0.301800  1.0  0.0736
  H  H39  1  0.391300  0.819900  0.315900  1.0  0.0686
  H  H40  1  0.441100  0.816000  0.257800  1.0  0.108
  H  H41  1  0.757500  0.356400  0.678500  1.0  0.067
  H  H42  1  0.851400  0.351000  0.699200  1.0  0.1142
  H  H43  1  0.892300  0.468100  0.615500  1.0  0.1094
  H  H44  1  0.795200  0.469900  0.598200  1.0  0.0757
  H  H45  1  0.915200  0.486000  0.744200  1.0  0.1202
  H  H46  1  0.866200  0.486600  0.801800  1.0  0.0736
  H  H47  1  0.891300  0.319900  0.815900  1.0  0.0686
  H  H48  1  0.941100  0.316000  0.757800  1.0  0.1075
  H  H49  1  0.106400  0.992500  0.928500  1.0  0.0663
  H  H50  1  0.101000  0.898600  0.949200  1.0  0.1138
  H  H51  1  0.218100  0.857700  0.865500  1.0  0.1088
  H  H52  1  0.219900  0.954800  0.848200  1.0  0.0752
  H  H53  1  0.236000  0.834800  0.994200  1.0  0.1195
  H  H54  1  0.236600  0.883800  0.051800  1.0  0.0736
  H  H55  1  0.069900  0.858700  0.065900  1.0  0.0673
  H  H56  1  0.066000  0.808900  0.007800  1.0  0.1056
  H  H57  1  0.606400  0.492500  0.428500  1.0  0.0663
  H  H58  1  0.601000  0.398600  0.449200  1.0  0.1138
  H  H59  1  0.718100  0.357700  0.365500  1.0  0.1088
  H  H60  1  0.719900  0.454800  0.348200  1.0  0.0752
  H  H61  1  0.736000  0.334800  0.494200  1.0  0.1195
  H  H62  1  0.736600  0.383800  0.551800  1.0  0.0736
  H  H63  1  0.569900  0.358700  0.565900  1.0  0.0673
  H  H64  1  0.566000  0.308900  0.507800  1.0  0.1056
  H  H65  1  0.393600  0.007500  0.428500  1.0  0.066
  H  H66  1  0.399000  0.101400  0.449200  1.0  0.114
  H  H67  1  0.281900  0.142300  0.365500  1.0  0.1092
  H  H68  1  0.280100  0.045200  0.348200  1.0  0.0751
  H  H69  1  0.264000  0.165200  0.494200  1.0  0.1202
  H  H70  1  0.263400  0.116200  0.551800  1.0  0.0736
  H  H71  1  0.430100  0.141300  0.565900  1.0  0.0671
  H  H72  1  0.434000  0.191100  0.507800  1.0  0.1074
  H  H73  1  0.893600  0.507500  0.928500  1.0  0.066
  H  H74  1  0.899000  0.601400  0.949200  1.0  0.114
  H  H75  1  0.781900  0.642300  0.865500  1.0  0.1089
  H  H76  1  0.780100  0.545200  0.848200  1.0  0.0751
  H  H77  1  0.764000  0.665200  0.994200  1.0  0.1202
  H  H78  1  0.763400  0.616200  0.051800  1.0  0.0736
  H  H79  1  0.930100  0.641300  0.065900  1.0  0.0671
  H  H80  1  0.934000  0.691100  0.007800  1.0  0.1074
  H  H81  1  0.257500  0.143600  0.821500  1.0  0.0674
  H  H82  1  0.351400  0.149000  0.800800  1.0  0.1143
  H  H83  1  0.392300  0.031900  0.884500  1.0  0.1094
  H  H84  1  0.295200  0.030100  0.901800  1.0  0.075
  H  H85  1  0.415200  0.014000  0.755800  1.0  0.1194
  H  H86  1  0.366200  0.013400  0.698200  1.0  0.0734
  H  H87  1  0.391300  0.180100  0.684100  1.0  0.068
  H  H88  1  0.441100  0.184000  0.742200  1.0  0.1081
  H  H89  1  0.757500  0.643600  0.321500  1.0  0.0674
  H  H90  1  0.851400  0.649000  0.300800  1.0  0.1143
  H  H91  1  0.892300  0.531900  0.384500  1.0  0.109
  H  H92  1  0.795200  0.530100  0.401800  1.0  0.075
  H  H93  1  0.915200  0.514000  0.255800  1.0  0.1189
  H  H94  1  0.866200  0.513400  0.198200  1.0  0.0734
  H  H95  1  0.891300  0.680100  0.184100  1.0  0.068
  H  H96  1  0.941100  0.684000  0.242200  1.0  0.1081
  H  H97  1  0.242500  0.856400  0.321500  1.0  0.0665
  H  H98  1  0.148600  0.851000  0.300800  1.0  0.1143
  H  H99  1  0.107700  0.968100  0.384500  1.0  0.1098
  H  H100  1  0.204800  0.969900  0.401800  1.0  0.0748
  H  H101  1  0.084800  0.986000  0.255800  1.0  0.1197
  H  H102  1  0.133800  0.986600  0.198200  1.0  0.0733
  H  H103  1  0.108700  0.819900  0.184100  1.0  0.0679
  H  H104  1  0.058900  0.816000  0.242200  1.0  0.1077
  H  H105  1  0.742500  0.356400  0.821500  1.0  0.0665
  H  H106  1  0.648600  0.351000  0.800800  1.0  0.1143
  H  H107  1  0.607700  0.468100  0.884500  1.0  0.1093
  H  H108  1  0.704800  0.469900  0.901800  1.0  0.0748
  H  H109  1  0.584800  0.486000  0.755800  1.0  0.1194
  H  H110  1  0.633800  0.486600  0.698200  1.0  0.0733
  H  H111  1  0.608700  0.319900  0.684100  1.0  0.0679
  H  H112  1  0.558900  0.316000  0.742200  1.0  0.1077
  H  H113  1  0.393600  0.992500  0.571500  1.0  0.0661
  H  H114  1  0.399000  0.898600  0.550800  1.0  0.1141
  H  H115  1  0.281900  0.857700  0.634500  1.0  0.1095
  H  H116  1  0.280100  0.954800  0.651800  1.0  0.0749
  H  H117  1  0.264000  0.834800  0.505800  1.0  0.1201
  H  H118  1  0.263400  0.883800  0.448200  1.0  0.0737
  H  H119  1  0.430100  0.858700  0.434100  1.0  0.0663
  H  H120  1  0.434000  0.808900  0.492200  1.0  0.1072
  H  H121  1  0.893600  0.492500  0.071500  1.0  0.0661
  H  H122  1  0.899000  0.398600  0.050800  1.0  0.1141
  H  H123  1  0.781900  0.357700  0.134500  1.0  0.1091
  H  H124  1  0.780100  0.454800  0.151800  1.0  0.0749
  H  H125  1  0.764000  0.334800  0.005800  1.0  0.1201
  H  H126  1  0.763400  0.383800  0.948200  1.0  0.0737
  H  H127  1  0.930100  0.358700  0.934100  1.0  0.0663
  H  H128  1  0.934000  0.308900  0.992200  1.0  0.1067
  H  H129  1  0.106400  0.007500  0.071500  1.0  0.0657
  H  H130  1  0.101000  0.101400  0.050800  1.0  0.1143
  H  H131  1  0.218100  0.142300  0.134500  1.0  0.1088
  H  H132  1  0.219900  0.045200  0.151800  1.0  0.0749
  H  H133  1  0.236000  0.165200  0.005800  1.0  0.1192
  H  H134  1  0.236600  0.116200  0.948200  1.0  0.0738
  H  H135  1  0.069900  0.141300  0.934100  1.0  0.0666
  H  H136  1  0.066000  0.191100  0.992200  1.0  0.1059
  H  H137  1  0.606400  0.507500  0.571500  1.0  0.0657
  H  H138  1  0.601000  0.601400  0.550800  1.0  0.1143
  H  H139  1  0.718100  0.642300  0.634500  1.0  0.1088
  H  H140  1  0.719900  0.545200  0.651800  1.0  0.0749
  H  H141  1  0.736000  0.665200  0.505800  1.0  0.1192
  H  H142  1  0.736600  0.616200  0.448200  1.0  0.0738
  H  H143  1  0.569900  0.641300  0.434100  1.0  0.0666
  H  H144  1  0.566000  0.691100  0.492200  1.0  0.1059
  H  H145  1  0.757500  0.856400  0.321500  1.0  0.0668
  H  H146  1  0.851400  0.851000  0.300800  1.0  0.1144
  H  H147  1  0.892300  0.968100  0.384500  1.0  0.1094
  H  H148  1  0.795200  0.969900  0.401800  1.0  0.0751
  H  H149  1  0.915200  0.986000  0.255800  1.0  0.1199
  H  H150  1  0.866200  0.986600  0.198200  1.0  0.0737
  H  H151  1  0.891300  0.819900  0.184100  1.0  0.068
  H  H152  1  0.941100  0.816000  0.242200  1.0  0.1082
  H  H153  1  0.257500  0.356400  0.821500  1.0  0.0668
  H  H154  1  0.351400  0.351000  0.800800  1.0  0.1144
  H  H155  1  0.392300  0.468100  0.884500  1.0  0.1091
  H  H156  1  0.295200  0.469900  0.901800  1.0  0.0751
  H  H157  1  0.415200  0.486000  0.755800  1.0  0.1195
  H  H158  1  0.366200  0.486600  0.698200  1.0  0.0737
  H  H159  1  0.391300  0.319900  0.684100  1.0  0.068
  H  H160  1  0.441100  0.316000  0.742200  1.0  0.1075
  H  H161  1  0.742500  0.143600  0.821500  1.0  0.0673
  H  H162  1  0.648600  0.149000  0.800800  1.0  0.1142
  H  H163  1  0.607700  0.031900  0.884500  1.0  0.1098
  H  H164  1  0.704800  0.030100  0.901800  1.0  0.0751
  H  H165  1  0.584800  0.014000  0.755800  1.0  0.1192
  H  H166  1  0.633800  0.013400  0.698200  1.0  0.0733
  H  H167  1  0.608700  0.180100  0.684100  1.0  0.0679
  H  H168  1  0.558900  0.184000  0.742200  1.0  0.1082
  H  H169  1  0.242500  0.643600  0.321500  1.0  0.0673
  H  H170  1  0.148600  0.649000  0.300800  1.0  0.1142
  H  H171  1  0.107700  0.531900  0.384500  1.0  0.1092
  H  H172  1  0.204800  0.530100  0.401800  1.0  0.0751
  H  H173  1  0.084800  0.514000  0.255800  1.0  0.1187
  H  H174  1  0.133800  0.513400  0.198200  1.0  0.0733
  H  H175  1  0.108700  0.680100  0.184100  1.0  0.0679
  H  H176  1  0.058900  0.684000  0.242200  1.0  0.1082
  H  H177  1  0.893600  0.007500  0.071500  1.0  0.0658
  H  H178  1  0.899000  0.101400  0.050800  1.0  0.1139
  H  H179  1  0.781900  0.142300  0.134500  1.0  0.1088
  H  H180  1  0.780100  0.045200  0.151800  1.0  0.0749
  H  H181  1  0.764000  0.165200  0.005800  1.0  0.1202
  H  H182  1  0.763400  0.116200  0.948200  1.0  0.0736
  H  H183  1  0.930100  0.141300  0.934100  1.0  0.0665
  H  H184  1  0.934000  0.191100  0.992200  1.0  0.1076
  H  H185  1  0.393600  0.507500  0.571500  1.0  0.0658
  H  H186  1  0.399000  0.601400  0.550800  1.0  0.1139
  H  H187  1  0.281900  0.642300  0.634500  1.0  0.1088
  H  H188  1  0.280100  0.545200  0.651800  1.0  0.0749
  H  H189  1  0.264000  0.665200  0.505800  1.0  0.1202
  H  H190  1  0.263400  0.616200  0.448200  1.0  0.0736
  H  H191  1  0.430100  0.641300  0.434100  1.0  0.0665
  H  H192  1  0.434000  0.691100  0.492200  1.0  0.1076
  H  H193  1  0.606400  0.992500  0.571500  1.0  0.0662
  H  H194  1  0.601000  0.898600  0.550800  1.0  0.1143
  H  H195  1  0.718100  0.857700  0.634500  1.0  0.1094
  H  H196  1  0.719900  0.954800  0.651800  1.0  0.075
  H  H197  1  0.736000  0.834800  0.505800  1.0  0.1192
  H  H198  1  0.736600  0.883800  0.448200  1.0  0.0736
  H  H199  1  0.569900  0.858700  0.434100  1.0  0.0667
  H  H200  1  0.566000  0.808900  0.492200  1.0  0.1064
  H  H201  1  0.106400  0.492500  0.071500  1.0  0.0662
  H  H202  1  0.101000  0.398600  0.050800  1.0  0.1143
  H  H203  1  0.218100  0.357700  0.134500  1.0  0.1088
  H  H204  1  0.219900  0.454800  0.151800  1.0  0.075
  H  H205  1  0.236000  0.334800  0.005800  1.0  0.1192
  H  H206  1  0.236600  0.383800  0.948200  1.0  0.0736
  H  H207  1  0.069900  0.358700  0.934100  1.0  0.0667
  H  H208  1  0.066000  0.308900  0.992200  1.0  0.1064
  H  H209  1  0.742500  0.856400  0.178500  1.0  0.0667
  H  H210  1  0.648600  0.851000  0.199200  1.0  0.1141
  H  H211  1  0.607700  0.968100  0.115500  1.0  0.1098
  H  H212  1  0.704800  0.969900  0.098200  1.0  0.0748
  H  H213  1  0.584800  0.986000  0.244200  1.0  0.1205
  H  H214  1  0.633800  0.986600  0.301800  1.0  0.0734
  H  H215  1  0.608700  0.819900  0.315900  1.0  0.0686
  H  H216  1  0.558900  0.816000  0.257800  1.0  0.1083
  H  H217  1  0.242500  0.356400  0.678500  1.0  0.0667
  H  H218  1  0.148600  0.351000  0.699200  1.0  0.1141
  H  H219  1  0.107700  0.468100  0.615500  1.0  0.1093
  H  H220  1  0.204800  0.469900  0.598200  1.0  0.0748
  H  H221  1  0.084800  0.486000  0.744200  1.0  0.1202
  H  H222  1  0.133800  0.486600  0.801800  1.0  0.0734
  H  H223  1  0.108700  0.319900  0.815900  1.0  0.0686
  H  H224  1  0.058900  0.316000  0.757800  1.0  0.1083
  H  H225  1  0.757500  0.143600  0.678500  1.0  0.0673
  H  H226  1  0.851400  0.149000  0.699200  1.0  0.114
  H  H227  1  0.892300  0.031900  0.615500  1.0  0.1091
  H  H228  1  0.795200  0.030100  0.598200  1.0  0.0753
  H  H229  1  0.915200  0.014000  0.744200  1.0  0.119
  H  H230  1  0.866200  0.013400  0.801800  1.0  0.0735
  H  H231  1  0.891300  0.180100  0.815900  1.0  0.0685
  H  H232  1  0.941100  0.184000  0.757800  1.0  0.1081
  H  H233  1  0.257500  0.643600  0.178500  1.0  0.0673
  H  H234  1  0.351400  0.649000  0.199200  1.0  0.114
  H  H235  1  0.392300  0.531900  0.115500  1.0  0.1088
  H  H236  1  0.295200  0.530100  0.098200  1.0  0.0753
  H  H237  1  0.415200  0.514000  0.244200  1.0  0.1186
  H  H238  1  0.366200  0.513400  0.301800  1.0  0.0735
  H  H239  1  0.391300  0.680100  0.315900  1.0  0.0685
  H  H240  1  0.441100  0.684000  0.257800  1.0  0.1081
  H  H241  1  0.606400  0.007500  0.428500  1.0  0.0666
  H  H242  1  0.601000  0.101400  0.449200  1.0  0.1144
  H  H243  1  0.718100  0.142300  0.365500  1.0  0.1096
  H  H244  1  0.719900  0.045200  0.348200  1.0  0.0751
  H  H245  1  0.736000  0.165200  0.494200  1.0  0.1195
  H  H246  1  0.736600  0.116200  0.551800  1.0  0.0737
  H  H247  1  0.569900  0.141300  0.565900  1.0  0.0673
  H  H248  1  0.566000  0.191100  0.507800  1.0  0.1066
  H  H249  1  0.106400  0.507500  0.928500  1.0  0.0666
  H  H250  1  0.101000  0.601400  0.949200  1.0  0.1144
  H  H251  1  0.218100  0.642300  0.865500  1.0  0.1093
  H  H252  1  0.219900  0.545200  0.848200  1.0  0.0751
  H  H253  1  0.236000  0.665200  0.994200  1.0  0.1195
  H  H254  1  0.236600  0.616200  0.051800  1.0  0.0737
  H  H255  1  0.069900  0.641300  0.065900  1.0  0.0673
  H  H256  1  0.066000  0.691100  0.007800  1.0  0.1066
  H  H257  1  0.893600  0.992500  0.928500  1.0  0.0656
  H  H258  1  0.899000  0.898600  0.949200  1.0  0.1136
  H  H259  1  0.781900  0.857700  0.865500  1.0  0.1083
  H  H260  1  0.780100  0.954800  0.848200  1.0  0.0749
  H  H261  1  0.764000  0.834800  0.994200  1.0  0.1201
  H  H262  1  0.763400  0.883800  0.051800  1.0  0.0735
  H  H263  1  0.930100  0.858700  0.065900  1.0  0.0668
  H  H264  1  0.934000  0.808900  0.007800  1.0  0.1072
  H  H265  1  0.393600  0.492500  0.428500  1.0  0.0656
  H  H266  1  0.399000  0.398600  0.449200  1.0  0.1136
  H  H267  1  0.281900  0.357700  0.365500  1.0  0.1083
  H  H268  1  0.280100  0.454800  0.348200  1.0  0.0749
  H  H269  1  0.264000  0.334800  0.494200  1.0  0.1201
  H  H270  1  0.263400  0.383800  0.551800  1.0  0.0735
  H  H271  1  0.430100  0.358700  0.565900  1.0  0.0668
  H  H272  1  0.434000  0.308900  0.507800  1.0  0.1065
  C  C273  1  0.214300  0.120700  0.665300  1.0  0.1534
  C  C274  1  0.158500  0.124500  0.677900  1.0  -0.1996
  C  C275  1  0.115800  0.091700  0.658900  1.0  0.0126
  C  C276  1  0.134700  0.055900  0.628900  1.0  -0.1689
  C  C277  1  0.192700  0.055100  0.618700  1.0  0.1357
  C  C278  1  0.054800  0.093700  0.670880  1.0  -0.1411
  C  C279  1  0.032100  0.098700  0.707680  1.0  -0.0286
  C  C280  1  0.065800  0.098900  0.745140  1.0  0.0764
  C  C281  1  0.088800  0.049000  0.758600  1.0  -0.199
  C  C282  1  0.117700  0.049200  0.793100  1.0  0.1435
  C  C283  1  0.103600  0.145100  0.801520  1.0  0.1116
  C  C284  1  0.073800  0.147800  0.766800  1.0  -0.1913
  C  C285  1  0.714300  0.620700  0.165300  1.0  0.1534
  C  C286  1  0.658500  0.624500  0.177900  1.0  -0.1996
  C  C287  1  0.615800  0.591700  0.158900  1.0  0.0126
  C  C288  1  0.634700  0.555900  0.128900  1.0  -0.1689
  C  C289  1  0.692700  0.555100  0.118700  1.0  0.1357
  C  C290  1  0.554800  0.593700  0.170880  1.0  -0.1411
  C  C291  1  0.532100  0.598700  0.207680  1.0  -0.0286
  C  C292  1  0.565800  0.598900  0.245140  1.0  0.0764
  C  C293  1  0.588800  0.549000  0.258600  1.0  -0.199
  C  C294  1  0.617700  0.549200  0.293100  1.0  0.1435
  C  C295  1  0.603600  0.645100  0.301520  1.0  0.1116
  C  C296  1  0.573800  0.647800  0.266800  1.0  -0.1913
  C  C297  1  0.285700  0.879300  0.165300  1.0  0.1548
  C  C298  1  0.341500  0.875500  0.177900  1.0  -0.1991
  C  C299  1  0.384200  0.908300  0.158900  1.0  0.0132
  C  C300  1  0.365300  0.944100  0.128900  1.0  -0.17
  C  C301  1  0.307300  0.944900  0.118700  1.0  0.1348
  C  C302  1  0.445200  0.906300  0.170880  1.0  -0.1413
  C  C303  1  0.467900  0.901300  0.207680  1.0  -0.0283
  C  C304  1  0.434200  0.901100  0.245140  1.0  0.0751
  C  C305  1  0.411200  0.951000  0.258600  1.0  -0.197
  C  C306  1  0.382300  0.950800  0.293100  1.0  0.1429
  C  C307  1  0.396400  0.854900  0.301520  1.0  0.115
  C  C308  1  0.426200  0.852200  0.266800  1.0  -0.1897
  C  C309  1  0.785700  0.379300  0.665300  1.0  0.1548
  C  C310  1  0.841500  0.375500  0.677900  1.0  -0.1991
  C  C311  1  0.884200  0.408300  0.658900  1.0  0.0132
  C  C312  1  0.865300  0.444100  0.628900  1.0  -0.17
  C  C313  1  0.807300  0.444900  0.618700  1.0  0.1348
  C  C314  1  0.945200  0.406300  0.670880  1.0  -0.1413
  C  C315  1  0.967900  0.401300  0.707680  1.0  -0.0283
  C  C316  1  0.934200  0.401100  0.745140  1.0  0.0751
  C  C317  1  0.911200  0.451000  0.758600  1.0  -0.197
  C  C318  1  0.882300  0.450800  0.793100  1.0  0.1429
  C  C319  1  0.896400  0.354900  0.801520  1.0  0.115
  C  C320  1  0.926200  0.352200  0.766800  1.0  -0.1897
  C  C321  1  0.129300  0.964300  0.915300  1.0  0.1536
  C  C322  1  0.125500  0.908500  0.927900  1.0  -0.1971
  C  C323  1  0.158300  0.865800  0.908900  1.0  0.0118
  C  C324  1  0.194100  0.884700  0.878900  1.0  -0.1691
  C  C325  1  0.194900  0.942700  0.868700  1.0  0.135
  C  C326  1  0.156300  0.804800  0.920880  1.0  -0.1416
  C  C327  1  0.151300  0.782100  0.957680  1.0  -0.0285
  C  C328  1  0.151100  0.815800  0.995140  1.0  0.0759
  C  C329  1  0.201000  0.838800  0.008600  1.0  -0.1938
  C  C330  1  0.200800  0.867700  0.043100  1.0  0.144
  C  C331  1  0.104900  0.853600  0.051520  1.0  0.1154
  C  C332  1  0.102200  0.823800  0.016800  1.0  -0.1894
  C  C333  1  0.629300  0.464300  0.415300  1.0  0.1536
  C  C334  1  0.625500  0.408500  0.427900  1.0  -0.1971
  C  C335  1  0.658300  0.365800  0.408900  1.0  0.0118
  C  C336  1  0.694100  0.384700  0.378900  1.0  -0.1691
  C  C337  1  0.694900  0.442700  0.368700  1.0  0.135
  C  C338  1  0.656300  0.304800  0.420880  1.0  -0.1416
  C  C339  1  0.651300  0.282100  0.457680  1.0  -0.0285
  C  C340  1  0.651100  0.315800  0.495140  1.0  0.0759
  C  C341  1  0.701000  0.338800  0.508600  1.0  -0.1938
  C  C342  1  0.700800  0.367700  0.543100  1.0  0.144
  C  C343  1  0.604900  0.353600  0.551520  1.0  0.1154
  C  C344  1  0.602200  0.323800  0.516800  1.0  -0.1894
  C  C345  1  0.370700  0.035700  0.415300  1.0  0.1547
  C  C346  1  0.374500  0.091500  0.427900  1.0  -0.1977
  C  C347  1  0.341700  0.134200  0.408900  1.0  0.013
  C  C348  1  0.305900  0.115300  0.378900  1.0  -0.1707
  C  C349  1  0.305100  0.057300  0.368700  1.0  0.1357
  C  C350  1  0.343700  0.195200  0.420880  1.0  -0.1415
  C  C351  1  0.348700  0.217900  0.457680  1.0  -0.0284
  C  C352  1  0.348900  0.184200  0.495140  1.0  0.077
  C  C353  1  0.299000  0.161200  0.508600  1.0  -0.1942
  C  C354  1  0.299200  0.132300  0.543100  1.0  0.1439
  C  C355  1  0.395100  0.146400  0.551520  1.0  0.116
  C  C356  1  0.397800  0.176200  0.516800  1.0  -0.1886
  C  C357  1  0.870700  0.535700  0.915300  1.0  0.1547
  C  C358  1  0.874500  0.591500  0.927900  1.0  -0.1977
  C  C359  1  0.841700  0.634200  0.908900  1.0  0.013
  C  C360  1  0.805900  0.615300  0.878900  1.0  -0.1707
  C  C361  1  0.805100  0.557300  0.868700  1.0  0.1357
  C  C362  1  0.843700  0.695200  0.920880  1.0  -0.1415
  C  C363  1  0.848700  0.717900  0.957680  1.0  -0.0284
  C  C364  1  0.848900  0.684200  0.995140  1.0  0.077
  C  C365  1  0.799000  0.661200  0.008600  1.0  -0.1942
  C  C366  1  0.799200  0.632300  0.043100  1.0  0.1439
  C  C367  1  0.895100  0.646400  0.051520  1.0  0.116
  C  C368  1  0.897800  0.676200  0.016800  1.0  -0.1886
  C  C369  1  0.285700  0.120700  0.834700  1.0  0.1539
  C  C370  1  0.341500  0.124500  0.822100  1.0  -0.1984
  C  C371  1  0.384200  0.091700  0.841100  1.0  0.0141
  C  C372  1  0.365300  0.055900  0.871100  1.0  -0.1666
  C  C373  1  0.307300  0.055100  0.881300  1.0  0.1344
  C  C374  1  0.445200  0.093700  0.829120  1.0  -0.1437
  C  C375  1  0.467900  0.098700  0.792320  1.0  -0.0292
  C  C376  1  0.434200  0.098900  0.754860  1.0  0.0755
  C  C377  1  0.411200  0.049000  0.741400  1.0  -0.197
  C  C378  1  0.382300  0.049200  0.706900  1.0  0.1435
  C  C379  1  0.396400  0.145100  0.698480  1.0  0.1132
  C  C380  1  0.426200  0.147800  0.733200  1.0  -0.1902
  C  C381  1  0.785700  0.620700  0.334700  1.0  0.1539
  C  C382  1  0.841500  0.624500  0.322100  1.0  -0.1984
  C  C383  1  0.884200  0.591700  0.341100  1.0  0.0141
  C  C384  1  0.865300  0.555900  0.371100  1.0  -0.1666
  C  C385  1  0.807300  0.555100  0.381300  1.0  0.1344
  C  C386  1  0.945200  0.593700  0.329120  1.0  -0.1437
  C  C387  1  0.967900  0.598700  0.292320  1.0  -0.0292
  C  C388  1  0.934200  0.598900  0.254860  1.0  0.0755
  C  C389  1  0.911200  0.549000  0.241400  1.0  -0.197
  C  C390  1  0.882300  0.549200  0.206900  1.0  0.1435
  C  C391  1  0.896400  0.645100  0.198480  1.0  0.1132
  C  C392  1  0.926200  0.647800  0.233200  1.0  -0.1902
  C  C393  1  0.214300  0.879300  0.334700  1.0  0.1547
  C  C394  1  0.158500  0.875500  0.322100  1.0  -0.2007
  C  C395  1  0.115800  0.908300  0.341100  1.0  0.0133
  C  C396  1  0.134700  0.944100  0.371100  1.0  -0.1714
  C  C397  1  0.192700  0.944900  0.381300  1.0  0.135
  C  C398  1  0.054800  0.906300  0.329120  1.0  -0.1437
  C  C399  1  0.032100  0.901300  0.292320  1.0  -0.0292
  C  C400  1  0.065800  0.901100  0.254860  1.0  0.0753
  C  C401  1  0.088800  0.951000  0.241400  1.0  -0.197
  C  C402  1  0.117700  0.950800  0.206900  1.0  0.1436
  C  C403  1  0.103600  0.854900  0.198480  1.0  0.1129
  C  C404  1  0.073800  0.852200  0.233200  1.0  -0.1914
  C  C405  1  0.714300  0.379300  0.834700  1.0  0.1547
  C  C406  1  0.658500  0.375500  0.822100  1.0  -0.2007
  C  C407  1  0.615800  0.408300  0.841100  1.0  0.0133
  C  C408  1  0.634700  0.444100  0.871100  1.0  -0.1714
  C  C409  1  0.692700  0.444900  0.881300  1.0  0.135
  C  C410  1  0.554800  0.406300  0.829120  1.0  -0.1437
  C  C411  1  0.532100  0.401300  0.792320  1.0  -0.0292
  C  C412  1  0.565800  0.401100  0.754860  1.0  0.0753
  C  C413  1  0.588800  0.451000  0.741400  1.0  -0.197
  C  C414  1  0.617700  0.450800  0.706900  1.0  0.1436
  C  C415  1  0.603600  0.354900  0.698480  1.0  0.1129
  C  C416  1  0.573800  0.352200  0.733200  1.0  -0.1914
  C  C417  1  0.370700  0.964300  0.584700  1.0  0.1543
  C  C418  1  0.374500  0.908500  0.572100  1.0  -0.1975
  C  C419  1  0.341700  0.865800  0.591100  1.0  0.0126
  C  C420  1  0.305900  0.884700  0.621100  1.0  -0.1698
  C  C421  1  0.305100  0.942700  0.631300  1.0  0.1352
  C  C422  1  0.343700  0.804800  0.579120  1.0  -0.1443
  C  C423  1  0.348700  0.782100  0.542320  1.0  -0.0289
  C  C424  1  0.348900  0.815800  0.504860  1.0  0.0753
  C  C425  1  0.299000  0.838800  0.491400  1.0  -0.1945
  C  C426  1  0.299200  0.867700  0.456900  1.0  0.1435
  C  C427  1  0.395100  0.853600  0.448480  1.0  0.1153
  C  C428  1  0.397800  0.823800  0.483200  1.0  -0.1893
  C  C429  1  0.870700  0.464300  0.084700  1.0  0.1543
  C  C430  1  0.874500  0.408500  0.072100  1.0  -0.1975
  C  C431  1  0.841700  0.365800  0.091100  1.0  0.0126
  C  C432  1  0.805900  0.384700  0.121100  1.0  -0.1698
  C  C433  1  0.805100  0.442700  0.131300  1.0  0.1352
  C  C434  1  0.843700  0.304800  0.079120  1.0  -0.1443
  C  C435  1  0.848700  0.282100  0.042320  1.0  -0.0289
  C  C436  1  0.848900  0.315800  0.004860  1.0  0.0753
  C  C437  1  0.799000  0.338800  0.991400  1.0  -0.1945
  C  C438  1  0.799200  0.367700  0.956900  1.0  0.1435
  C  C439  1  0.895100  0.353600  0.948480  1.0  0.1153
  C  C440  1  0.897800  0.323800  0.983200  1.0  -0.1893
  C  C441  1  0.129300  0.035700  0.084700  1.0  0.1538
  C  C442  1  0.125500  0.091500  0.072100  1.0  -0.1975
  C  C443  1  0.158300  0.134200  0.091100  1.0  0.013
  C  C444  1  0.194100  0.115300  0.121100  1.0  -0.1687
  C  C445  1  0.194900  0.057300  0.131300  1.0  0.1348
  C  C446  1  0.156300  0.195200  0.079120  1.0  -0.144
  C  C447  1  0.151300  0.217900  0.042320  1.0  -0.0295
  C  C448  1  0.151100  0.184200  0.004860  1.0  0.0765
  C  C449  1  0.201000  0.161200  0.991400  1.0  -0.1935
  C  C450  1  0.200800  0.132300  0.956900  1.0  0.1442
  C  C451  1  0.104900  0.146400  0.948480  1.0  0.1156
  C  C452  1  0.102200  0.176200  0.983200  1.0  -0.1905
  C  C453  1  0.629300  0.535700  0.584700  1.0  0.1538
  C  C454  1  0.625500  0.591500  0.572100  1.0  -0.1975
  C  C455  1  0.658300  0.634200  0.591100  1.0  0.013
  C  C456  1  0.694100  0.615300  0.621100  1.0  -0.1687
  C  C457  1  0.694900  0.557300  0.631300  1.0  0.1348
  C  C458  1  0.656300  0.695200  0.579120  1.0  -0.144
  C  C459  1  0.651300  0.717900  0.542320  1.0  -0.0295
  C  C460  1  0.651100  0.684200  0.504860  1.0  0.0765
  C  C461  1  0.701000  0.661200  0.491400  1.0  -0.1935
  C  C462  1  0.700800  0.632300  0.456900  1.0  0.1442
  C  C463  1  0.604900  0.646400  0.448480  1.0  0.1156
  C  C464  1  0.602200  0.676200  0.483200  1.0  -0.1905
  C  C465  1  0.785700  0.879300  0.334700  1.0  0.1545
  C  C466  1  0.841500  0.875500  0.322100  1.0  -0.1997
  C  C467  1  0.884200  0.908300  0.341100  1.0  0.014
  C  C468  1  0.865300  0.944100  0.371100  1.0  -0.1683
  C  C469  1  0.807300  0.944900  0.381300  1.0  0.1339
  C  C470  1  0.945200  0.906300  0.329120  1.0  -0.1467
  C  C471  1  0.967900  0.901300  0.292320  1.0  -0.029
  C  C472  1  0.934200  0.901100  0.254860  1.0  0.0747
  C  C473  1  0.911200  0.951000  0.241400  1.0  -0.1969
  C  C474  1  0.882300  0.950800  0.206900  1.0  0.1432
  C  C475  1  0.896400  0.854900  0.198480  1.0  0.1141
  C  C476  1  0.926200  0.852200  0.233200  1.0  -0.1906
  C  C477  1  0.285700  0.379300  0.834700  1.0  0.1545
  C  C478  1  0.341500  0.375500  0.822100  1.0  -0.1997
  C  C479  1  0.384200  0.408300  0.841100  1.0  0.014
  C  C480  1  0.365300  0.444100  0.871100  1.0  -0.1683
  C  C481  1  0.307300  0.444900  0.881300  1.0  0.1339
  C  C482  1  0.445200  0.406300  0.829120  1.0  -0.1467
  C  C483  1  0.467900  0.401300  0.792320  1.0  -0.029
  C  C484  1  0.434200  0.401100  0.754860  1.0  0.0747
  C  C485  1  0.411200  0.451000  0.741400  1.0  -0.1969
  C  C486  1  0.382300  0.450800  0.706900  1.0  0.1432
  C  C487  1  0.396400  0.354900  0.698480  1.0  0.1141
  C  C488  1  0.426200  0.352200  0.733200  1.0  -0.1906
  C  C489  1  0.714300  0.120700  0.834700  1.0  0.1542
  C  C490  1  0.658500  0.124500  0.822100  1.0  -0.1996
  C  C491  1  0.615800  0.091700  0.841100  1.0  0.0133
  C  C492  1  0.634700  0.055900  0.871100  1.0  -0.1694
  C  C493  1  0.692700  0.055100  0.881300  1.0  0.1353
  C  C494  1  0.554800  0.093700  0.829120  1.0  -0.1472
  C  C495  1  0.532100  0.098700  0.792320  1.0  -0.0294
  C  C496  1  0.565800  0.098900  0.754860  1.0  0.076
  C  C497  1  0.588800  0.049000  0.741400  1.0  -0.1985
  C  C498  1  0.617700  0.049200  0.706900  1.0  0.1433
  C  C499  1  0.603600  0.145100  0.698480  1.0  0.1118
  C  C500  1  0.573800  0.147800  0.733200  1.0  -0.1915
  C  C501  1  0.214300  0.620700  0.334700  1.0  0.1542
  C  C502  1  0.158500  0.624500  0.322100  1.0  -0.1996
  C  C503  1  0.115800  0.591700  0.341100  1.0  0.0133
  C  C504  1  0.134700  0.555900  0.371100  1.0  -0.1694
  C  C505  1  0.192700  0.555100  0.381300  1.0  0.1353
  C  C506  1  0.054800  0.593700  0.329120  1.0  -0.1472
  C  C507  1  0.032100  0.598700  0.292320  1.0  -0.0294
  C  C508  1  0.065800  0.598900  0.254860  1.0  0.076
  C  C509  1  0.088800  0.549000  0.241400  1.0  -0.1985
  C  C510  1  0.117700  0.549200  0.206900  1.0  0.1433
  C  C511  1  0.103600  0.645100  0.198480  1.0  0.1118
  C  C512  1  0.073800  0.647800  0.233200  1.0  -0.1915
  C  C513  1  0.870700  0.035700  0.084700  1.0  0.1544
  C  C514  1  0.874500  0.091500  0.072100  1.0  -0.1977
  C  C515  1  0.841700  0.134200  0.091100  1.0  0.0132
  C  C516  1  0.805900  0.115300  0.121100  1.0  -0.1716
  C  C517  1  0.805100  0.057300  0.131300  1.0  0.1353
  C  C518  1  0.843700  0.195200  0.079120  1.0  -0.1474
  C  C519  1  0.848700  0.217900  0.042320  1.0  -0.0291
  C  C520  1  0.848900  0.184200  0.004860  1.0  0.0759
  C  C521  1  0.799000  0.161200  0.991400  1.0  -0.1942
  C  C522  1  0.799200  0.132300  0.956900  1.0  0.1434
  C  C523  1  0.895100  0.146400  0.948480  1.0  0.115
  C  C524  1  0.897800  0.176200  0.983200  1.0  -0.189
  C  C525  1  0.370700  0.535700  0.584700  1.0  0.1544
  C  C526  1  0.374500  0.591500  0.572100  1.0  -0.1977
  C  C527  1  0.341700  0.634200  0.591100  1.0  0.0132
  C  C528  1  0.305900  0.615300  0.621100  1.0  -0.1716
  C  C529  1  0.305100  0.557300  0.631300  1.0  0.1353
  C  C530  1  0.343700  0.695200  0.579120  1.0  -0.1474
  C  C531  1  0.348700  0.717900  0.542320  1.0  -0.0291
  C  C532  1  0.348900  0.684200  0.504860  1.0  0.0759
  C  C533  1  0.299000  0.661200  0.491400  1.0  -0.1942
  C  C534  1  0.299200  0.632300  0.456900  1.0  0.1434
  C  C535  1  0.395100  0.646400  0.448480  1.0  0.115
  C  C536  1  0.397800  0.676200  0.483200  1.0  -0.189
  C  C537  1  0.629300  0.964300  0.584700  1.0  0.1543
  C  C538  1  0.625500  0.908500  0.572100  1.0  -0.1978
  C  C539  1  0.658300  0.865800  0.591100  1.0  0.0124
  C  C540  1  0.694100  0.884700  0.621100  1.0  -0.1673
  C  C541  1  0.694900  0.942700  0.631300  1.0  0.1346
  C  C542  1  0.656300  0.804800  0.579120  1.0  -0.1478
  C  C543  1  0.651300  0.782100  0.542320  1.0  -0.0293
  C  C544  1  0.651100  0.815800  0.504860  1.0  0.0758
  C  C545  1  0.701000  0.838800  0.491400  1.0  -0.1929
  C  C546  1  0.700800  0.867700  0.456900  1.0  0.1441
  C  C547  1  0.604900  0.853600  0.448480  1.0  0.1157
  C  C548  1  0.602200  0.823800  0.483200  1.0  -0.1903
  C  C549  1  0.129300  0.464300  0.084700  1.0  0.1543
  C  C550  1  0.125500  0.408500  0.072100  1.0  -0.1978
  C  C551  1  0.158300  0.365800  0.091100  1.0  0.0124
  C  C552  1  0.194100  0.384700  0.121100  1.0  -0.1673
  C  C553  1  0.194900  0.442700  0.131300  1.0  0.1346
  C  C554  1  0.156300  0.304800  0.079120  1.0  -0.1478
  C  C555  1  0.151300  0.282100  0.042320  1.0  -0.0293
  C  C556  1  0.151100  0.315800  0.004860  1.0  0.0758
  C  C557  1  0.201000  0.338800  0.991400  1.0  -0.1929
  C  C558  1  0.200800  0.367700  0.956900  1.0  0.1441
  C  C559  1  0.104900  0.353600  0.948480  1.0  0.1157
  C  C560  1  0.102200  0.323800  0.983200  1.0  -0.1903
  C  C561  1  0.714300  0.879300  0.165300  1.0  0.1548
  C  C562  1  0.658500  0.875500  0.177900  1.0  -0.2
  C  C563  1  0.615800  0.908300  0.158900  1.0  0.0122
  C  C564  1  0.634700  0.944100  0.128900  1.0  -0.1704
  C  C565  1  0.692700  0.944900  0.118700  1.0  0.1359
  C  C566  1  0.554800  0.906300  0.170880  1.0  -0.1442
  C  C567  1  0.532100  0.901300  0.207680  1.0  -0.0284
  C  C568  1  0.565800  0.901100  0.245140  1.0  0.0756
  C  C569  1  0.588800  0.951000  0.258600  1.0  -0.1973
  C  C570  1  0.617700  0.950800  0.293100  1.0  0.1437
  C  C571  1  0.603600  0.854900  0.301520  1.0  0.1144
  C  C572  1  0.573800  0.852200  0.266800  1.0  -0.1908
  C  C573  1  0.214300  0.379300  0.665300  1.0  0.1548
  C  C574  1  0.158500  0.375500  0.677900  1.0  -0.2
  C  C575  1  0.115800  0.408300  0.658900  1.0  0.0122
  C  C576  1  0.134700  0.444100  0.628900  1.0  -0.1704
  C  C577  1  0.192700  0.444900  0.618700  1.0  0.1359
  C  C578  1  0.054800  0.406300  0.670880  1.0  -0.1442
  C  C579  1  0.032100  0.401300  0.707680  1.0  -0.0284
  C  C580  1  0.065800  0.401100  0.745140  1.0  0.0756
  C  C581  1  0.088800  0.451000  0.758600  1.0  -0.1973
  C  C582  1  0.117700  0.450800  0.793100  1.0  0.1437
  C  C583  1  0.103600  0.354900  0.801520  1.0  0.1144
  C  C584  1  0.073800  0.352200  0.766800  1.0  -0.1908
  C  C585  1  0.785700  0.120700  0.665300  1.0  0.1531
  C  C586  1  0.841500  0.124500  0.677900  1.0  -0.1986
  C  C587  1  0.884200  0.091700  0.658900  1.0  0.0135
  C  C588  1  0.865300  0.055900  0.628900  1.0  -0.1687
  C  C589  1  0.807300  0.055100  0.618700  1.0  0.1347
  C  C590  1  0.945200  0.093700  0.670880  1.0  -0.1442
  C  C591  1  0.967900  0.098700  0.707680  1.0  -0.0285
  C  C592  1  0.934200  0.098900  0.745140  1.0  0.076
  C  C593  1  0.911200  0.049000  0.758600  1.0  -0.1974
  C  C594  1  0.882300  0.049200  0.793100  1.0  0.1435
  C  C595  1  0.896400  0.145100  0.801520  1.0  0.1119
  C  C596  1  0.926200  0.147800  0.766800  1.0  -0.1897
  C  C597  1  0.285700  0.620700  0.165300  1.0  0.1531
  C  C598  1  0.341500  0.624500  0.177900  1.0  -0.1986
  C  C599  1  0.384200  0.591700  0.158900  1.0  0.0135
  C  C600  1  0.365300  0.555900  0.128900  1.0  -0.1687
  C  C601  1  0.307300  0.555100  0.118700  1.0  0.1347
  C  C602  1  0.445200  0.593700  0.170880  1.0  -0.1442
  C  C603  1  0.467900  0.598700  0.207680  1.0  -0.0285
  C  C604  1  0.434200  0.598900  0.245140  1.0  0.076
  C  C605  1  0.411200  0.549000  0.258600  1.0  -0.1974
  C  C606  1  0.382300  0.549200  0.293100  1.0  0.1435
  C  C607  1  0.396400  0.645100  0.301520  1.0  0.1119
  C  C608  1  0.426200  0.647800  0.266800  1.0  -0.1897
  C  C609  1  0.629300  0.035700  0.415300  1.0  0.1542
  C  C610  1  0.625500  0.091500  0.427900  1.0  -0.1969
  C  C611  1  0.658300  0.134200  0.408900  1.0  0.0129
  C  C612  1  0.694100  0.115300  0.378900  1.0  -0.17
  C  C613  1  0.694900  0.057300  0.368700  1.0  0.1351
  C  C614  1  0.656300  0.195200  0.420880  1.0  -0.1449
  C  C615  1  0.651300  0.217900  0.457680  1.0  -0.0287
  C  C616  1  0.651100  0.184200  0.495140  1.0  0.0774
  C  C617  1  0.701000  0.161200  0.508600  1.0  -0.1942
  C  C618  1  0.700800  0.132300  0.543100  1.0  0.1445
  C  C619  1  0.604900  0.146400  0.551520  1.0  0.1162
  C  C620  1  0.602200  0.176200  0.516800  1.0  -0.1895
  C  C621  1  0.129300  0.535700  0.915300  1.0  0.1542
  C  C622  1  0.125500  0.591500  0.927900  1.0  -0.1969
  C  C623  1  0.158300  0.634200  0.908900  1.0  0.0129
  C  C624  1  0.194100  0.615300  0.878900  1.0  -0.17
  C  C625  1  0.194900  0.557300  0.868700  1.0  0.1351
  C  C626  1  0.156300  0.695200  0.920880  1.0  -0.1449
  C  C627  1  0.151300  0.717900  0.957680  1.0  -0.0287
  C  C628  1  0.151100  0.684200  0.995140  1.0  0.0774
  C  C629  1  0.201000  0.661200  0.008600  1.0  -0.1942
  C  C630  1  0.200800  0.632300  0.043100  1.0  0.1445
  C  C631  1  0.104900  0.646400  0.051520  1.0  0.1162
  C  C632  1  0.102200  0.676200  0.016800  1.0  -0.1895
  C  C633  1  0.870700  0.964300  0.915300  1.0  0.1536
  C  C634  1  0.874500  0.908500  0.927900  1.0  -0.1975
  C  C635  1  0.841700  0.865800  0.908900  1.0  0.0119
  C  C636  1  0.805900  0.884700  0.878900  1.0  -0.1701
  C  C637  1  0.805100  0.942700  0.868700  1.0  0.1359
  C  C638  1  0.843700  0.804800  0.920880  1.0  -0.1448
  C  C639  1  0.848700  0.782100  0.957680  1.0  -0.0281
  C  C640  1  0.848900  0.815800  0.995140  1.0  0.0755
  C  C641  1  0.799000  0.838800  0.008600  1.0  -0.1946
  C  C642  1  0.799200  0.867700  0.043100  1.0  0.1435
  C  C643  1  0.895100  0.853600  0.051520  1.0  0.1156
  C  C644  1  0.897800  0.823800  0.016800  1.0  -0.189
  C  C645  1  0.370700  0.464300  0.415300  1.0  0.1536
  C  C646  1  0.374500  0.408500  0.427900  1.0  -0.1975
  C  C647  1  0.341700  0.365800  0.408900  1.0  0.0119
  C  C648  1  0.305900  0.384700  0.378900  1.0  -0.1701
  C  C649  1  0.305100  0.442700  0.368700  1.0  0.1359
  C  C650  1  0.343700  0.304800  0.420880  1.0  -0.1448
  C  C651  1  0.348700  0.282100  0.457680  1.0  -0.0281
  C  C652  1  0.348900  0.315800  0.495140  1.0  0.0755
  C  C653  1  0.299000  0.338800  0.508600  1.0  -0.1946
  C  C654  1  0.299200  0.367700  0.543100  1.0  0.1435
  C  C655  1  0.395100  0.353600  0.551520  1.0  0.1156
  C  C656  1  0.397800  0.323800  0.516800  1.0  -0.189
  S  S657  1  0.000000  0.089120  0.636230  1.0  0.1252
  S  S658  1  0.500000  0.589120  0.136230  1.0  0.1252
  S  S659  1  0.500000  0.910880  0.136230  1.0  0.1252
  S  S660  1  0.000000  0.410880  0.636230  1.0  0.1252
  S  S661  1  0.160880  0.750000  0.886230  1.0  0.1255
  S  S662  1  0.339120  0.250000  0.386230  1.0  0.1255
  S  S663  1  0.500000  0.089120  0.863770  1.0  0.1275
  S  S664  1  0.000000  0.589120  0.363770  1.0  0.1275
  S  S665  1  0.000000  0.910880  0.363770  1.0  0.1275
  S  S666  1  0.500000  0.410880  0.863770  1.0  0.1275
  S  S667  1  0.339120  0.750000  0.613770  1.0  0.1273
  S  S668  1  0.160880  0.250000  0.113770  1.0  0.1275
  S  S669  1  0.839120  0.250000  0.113770  1.0  0.1273
  S  S670  1  0.660880  0.750000  0.613770  1.0  0.1275
  S  S671  1  0.660880  0.250000  0.386230  1.0  0.1255
  S  S672  1  0.839120  0.750000  0.886230  1.0  0.1255
  N  N673  1  0.232600  0.087700  0.636220  1.0  -0.3367
  N  N674  1  0.125400  0.096500  0.816020  1.0  -0.3301
  N  N675  1  0.732600  0.587700  0.136220  1.0  -0.3367
  N  N676  1  0.625400  0.596500  0.316020  1.0  -0.3301
  N  N677  1  0.267400  0.912300  0.136220  1.0  -0.3303
  N  N678  1  0.374600  0.903500  0.316020  1.0  -0.3302
  N  N679  1  0.767400  0.412300  0.636220  1.0  -0.3303
  N  N680  1  0.874600  0.403500  0.816020  1.0  -0.3302
  N  N681  1  0.162300  0.982600  0.886220  1.0  -0.3392
  N  N682  1  0.153500  0.875400  0.066020  1.0  -0.3327
  N  N683  1  0.662300  0.482600  0.386220  1.0  -0.3392
  N  N684  1  0.653500  0.375400  0.566020  1.0  -0.3327
  N  N685  1  0.337700  0.017400  0.386220  1.0  -0.3386
  N  N686  1  0.346500  0.124600  0.566020  1.0  -0.3317
  N  N687  1  0.837700  0.517400  0.886220  1.0  -0.3386
  N  N688  1  0.846500  0.624600  0.066020  1.0  -0.3317
  N  N689  1  0.267400  0.087700  0.863780  1.0  -0.3302
  N  N690  1  0.374600  0.096500  0.683980  1.0  -0.3317
  N  N691  1  0.767400  0.587700  0.363780  1.0  -0.3302
  N  N692  1  0.874600  0.596500  0.183980  1.0  -0.3317
  N  N693  1  0.232600  0.912300  0.363780  1.0  -0.3359
  N  N694  1  0.125400  0.903500  0.183980  1.0  -0.331
  N  N695  1  0.732600  0.412300  0.863780  1.0  -0.3359
  N  N696  1  0.625400  0.403500  0.683980  1.0  -0.331
  N  N697  1  0.337700  0.982600  0.613780  1.0  -0.3393
  N  N698  1  0.346500  0.875400  0.433980  1.0  -0.3329
  N  N699  1  0.837700  0.482600  0.113780  1.0  -0.3393
  N  N700  1  0.846500  0.375400  0.933980  1.0  -0.3329
  N  N701  1  0.162300  0.017400  0.113780  1.0  -0.3382
  N  N702  1  0.153500  0.124600  0.933980  1.0  -0.3341
  N  N703  1  0.662300  0.517400  0.613780  1.0  -0.3382
  N  N704  1  0.653500  0.624600  0.433980  1.0  -0.3341
  N  N705  1  0.767400  0.912300  0.363780  1.0  -0.3303
  N  N706  1  0.874600  0.903500  0.183980  1.0  -0.3312
  N  N707  1  0.267400  0.412300  0.863780  1.0  -0.3303
  N  N708  1  0.374600  0.403500  0.683980  1.0  -0.3312
  N  N709  1  0.732600  0.087700  0.863780  1.0  -0.3364
  N  N710  1  0.625400  0.096500  0.683980  1.0  -0.3315
  N  N711  1  0.232600  0.587700  0.363780  1.0  -0.3364
  N  N712  1  0.125400  0.596500  0.183980  1.0  -0.3315
  N  N713  1  0.837700  0.017400  0.113780  1.0  -0.338
  N  N714  1  0.846500  0.124600  0.933980  1.0  -0.3344
  N  N715  1  0.337700  0.517400  0.613780  1.0  -0.338
  N  N716  1  0.346500  0.624600  0.433980  1.0  -0.3344
  N  N717  1  0.662300  0.982600  0.613780  1.0  -0.34
  N  N718  1  0.653500  0.875400  0.433980  1.0  -0.3325
  N  N719  1  0.162300  0.482600  0.113780  1.0  -0.34
  N  N720  1  0.153500  0.375400  0.933980  1.0  -0.3325
  N  N721  1  0.732600  0.912300  0.136220  1.0  -0.336
  N  N722  1  0.625400  0.903500  0.316020  1.0  -0.3298
  N  N723  1  0.232600  0.412300  0.636220  1.0  -0.336
  N  N724  1  0.125400  0.403500  0.816020  1.0  -0.3298
  N  N725  1  0.767400  0.087700  0.636220  1.0  -0.3303
  N  N726  1  0.874600  0.096500  0.816020  1.0  -0.3305
  N  N727  1  0.267400  0.587700  0.136220  1.0  -0.3303
  N  N728  1  0.374600  0.596500  0.316020  1.0  -0.3305
  N  N729  1  0.662300  0.017400  0.386220  1.0  -0.3387
  N  N730  1  0.653500  0.124600  0.566020  1.0  -0.3318
  N  N731  1  0.162300  0.517400  0.886220  1.0  -0.3387
  N  N732  1  0.153500  0.624600  0.066020  1.0  -0.3318
  N  N733  1  0.837700  0.982600  0.886220  1.0  -0.3387
  N  N734  1  0.846500  0.875400  0.066020  1.0  -0.3325
  N  N735  1  0.337700  0.482600  0.386220  1.0  -0.3387
  N  N736  1  0.346500  0.375400  0.566020  1.0  -0.3325
