# generated using pymatgen
data_Zn2H88C106N9O8
_symmetry_space_group_name_H-M   'P 1'
_cell_length_a   38.53100000
_cell_length_b   20.84000000
_cell_length_c   38.68800000
_cell_angle_alpha   90.00000000
_cell_angle_beta   91.60000000
_cell_angle_gamma   90.00000000
_symmetry_Int_Tables_number   1
_chemical_formula_structural   Zn2H88C106N9O8
_chemical_formula_sum   'Zn16 H704 C848 N72 O64'
_cell_volume   31053.81177903
_cell_formula_units_Z   8
loop_
 _symmetry_equiv_pos_site_id
 _symmetry_equiv_pos_as_xyz
  1  'x, y, z'
loop_
 _atom_site_type_symbol
 _atom_site_label
 _atom_site_symmetry_multiplicity
 _atom_site_fract_x
 _atom_site_fract_y
 _atom_site_fract_z
 _atom_site_occupancy
 _atom_site_charge
  Zn  Zn1  1  0.273510  0.925240  0.844350  1.0  0.7205
  Zn  Zn2  1  0.405010  0.861330  0.025880  1.0  0.668
  Zn  Zn3  1  0.773510  0.425240  0.344350  1.0  0.7205
  Zn  Zn4  1  0.905010  0.361330  0.525880  1.0  0.668
  Zn  Zn5  1  0.226490  0.925240  0.155650  1.0  0.7194
  Zn  Zn6  1  0.094990  0.861330  0.974120  1.0  0.6679
  Zn  Zn7  1  0.726490  0.425240  0.655650  1.0  0.7194
  Zn  Zn8  1  0.594990  0.361330  0.474120  1.0  0.6679
  Zn  Zn9  1  0.726490  0.074760  0.155650  1.0  0.7208
  Zn  Zn10  1  0.594990  0.138670  0.974120  1.0  0.6675
  Zn  Zn11  1  0.226490  0.574760  0.655650  1.0  0.7208
  Zn  Zn12  1  0.094990  0.638670  0.474120  1.0  0.6675
  Zn  Zn13  1  0.773510  0.074760  0.844350  1.0  0.7218
  Zn  Zn14  1  0.905010  0.138670  0.025880  1.0  0.6678
  Zn  Zn15  1  0.273510  0.574760  0.344350  1.0  0.7218
  Zn  Zn16  1  0.405010  0.638670  0.525880  1.0  0.6678
  H  H17  1  0.309900  0.429300  0.011800  1.0  0.0889
  H  H18  1  0.360400  0.490000  0.020500  1.0  0.1024
  H  H19  1  0.256300  0.470000  0.028600  1.0  0.0967
  H  H20  1  0.266200  0.691000  0.026300  1.0  0.0679
  H  H21  1  0.302300  0.675100  0.008300  1.0  0.076
  H  H22  1  0.257800  0.806400  0.045500  1.0  0.1028
  H  H23  1  0.280400  0.907500  0.056200  1.0  0.0885
  H  H24  1  0.339800  0.924100  0.051000  1.0  0.0721
  H  H25  1  0.352800  0.742000  0.021400  1.0  0.099
  H  H26  1  0.222300  0.568200  0.040800  1.0  0.0927
  H  H27  1  0.240500  0.622500  0.064500  1.0  0.0783
  H  H28  1  0.191000  0.407800  0.114500  1.0  0.0887
  H  H29  1  0.202000  0.471000  0.066000  1.0  0.0885
  H  H30  1  0.213400  0.437800  0.168900  1.0  0.0969
  H  H31  1  0.333800  0.792300  0.126000  1.0  0.0944
  H  H32  1  0.307700  0.692000  0.128900  1.0  0.0925
  H  H33  1  0.216900  0.776800  0.144500  1.0  0.0912
  H  H34  1  0.300900  0.884700  0.132800  1.0  0.079
  H  H35  1  0.227400  0.656700  0.157800  1.0  0.067
  H  H36  1  0.219000  0.663400  0.116900  1.0  0.0774
  H  H37  1  0.239000  0.516200  0.206500  1.0  0.1149
  H  H38  1  0.252800  0.582700  0.191600  1.0  0.0858
  H  H39  1  0.331100  0.376500  0.209700  1.0  0.0895
  H  H40  1  0.275500  0.420900  0.203600  1.0  0.0944
  H  H41  1  0.380100  0.441800  0.204400  1.0  0.0986
  H  H42  1  0.343600  0.636000  0.229000  1.0  0.082
  H  H43  1  0.328900  0.699000  0.209700  1.0  0.1
  H  H44  1  0.259900  0.706400  0.211000  1.0  0.0534
  H  H45  1  0.208400  0.684700  0.240600  1.0  0.1113
  H  H46  1  0.217800  0.632500  0.297800  1.0  0.0807
  H  H47  1  0.317800  0.599300  0.278500  1.0  0.097
  H  H48  1  0.404600  0.551100  0.201800  1.0  0.0943
  H  H49  1  0.380600  0.608100  0.187000  1.0  0.0708
  H  H50  1  0.432000  0.432600  0.101900  1.0  0.0951
  H  H51  1  0.423700  0.463700  0.159200  1.0  0.097
  H  H52  1  0.409200  0.495200  0.056400  1.0  0.0959
  H  H53  1  0.384700  0.731000  0.144000  1.0  0.091
  H  H54  1  0.412000  0.675200  0.153800  1.0  0.0701
  H  H55  1  0.453300  0.639500  0.110100  1.0  0.1063
  H  H56  1  0.476600  0.661600  0.053200  1.0  0.1039
  H  H57  1  0.456800  0.750900  0.024100  1.0  0.0653
  H  H58  1  0.389500  0.788800  0.093700  1.0  0.0973
  H  H59  1  0.364400  0.643600  0.059900  1.0  0.0882
  H  H60  1  0.385600  0.598500  0.034600  1.0  0.0887
  H  H61  1  0.369500  0.381200  0.060700  1.0  0.0877
  H  H62  1  0.422400  0.343300  0.040700  1.0  0.0955
  H  H63  1  0.318300  0.324000  0.048600  1.0  0.1018
  H  H64  1  0.401200  0.122600  0.026000  1.0  0.0699
  H  H65  1  0.360000  0.114700  0.028800  1.0  0.0689
  H  H66  1  0.372600  0.093700  0.944900  1.0  0.0649
  H  H67  1  0.376000  0.996800  0.915800  1.0  0.09
  H  H68  1  0.385100  0.902700  0.950700  1.0  0.072
  H  H69  1  0.388300  0.006500  0.034500  1.0  0.0771
  H  H70  1  0.310800  0.169200  0.008500  1.0  0.0903
  H  H71  1  0.288400  0.222800  0.027500  1.0  0.1027
  H  H72  1  0.259600  0.368800  0.936500  1.0  0.0862
  H  H73  1  0.276100  0.328900  0.991000  1.0  0.0978
  H  H74  1  0.267300  0.306100  0.887100  1.0  0.1033
  H  H75  1  0.271900  0.102400  0.979700  1.0  0.0783
  H  H76  1  0.254300  0.118200  0.942500  1.0  0.0821
  H  H77  1  0.297300  0.994000  0.990600  1.0  0.0904
  H  H78  1  0.304800  0.890400  0.971800  1.0  0.0803
  H  H79  1  0.294400  0.862700  0.914600  1.0  0.0972
  H  H80  1  0.270500  0.049100  0.891000  1.0  0.105
  H  H81  1  0.306700  0.149000  0.882700  1.0  0.0932
  H  H82  1  0.278800  0.191200  0.861200  1.0  0.1026
  H  H83  1  0.349800  0.366100  0.821700  1.0  0.0951
  H  H84  1  0.301900  0.305500  0.838300  1.0  0.0957
  H  H85  1  0.406100  0.329300  0.834300  1.0  0.0967
  H  H86  1  0.398500  0.117400  0.842600  1.0  0.0713
  H  H87  1  0.389200  0.063000  0.870100  1.0  0.0895
  H  H88  1  0.348200  0.154200  0.795400  1.0  0.1119
  H  H89  1  0.297100  0.114900  0.770600  1.0  0.0761
  H  H90  1  0.268900  0.032000  0.789400  1.0  0.081
  H  H91  1  0.340500  0.997100  0.862200  1.0  0.0874
  H  H92  1  0.432900  0.183600  0.870900  1.0  0.098
  H  H93  1  0.445600  0.245600  0.850500  1.0  0.0995
  H  H94  1  0.461900  0.406500  0.930300  1.0  0.0948
  H  H95  1  0.452900  0.346600  0.879700  1.0  0.0972
  H  H96  1  0.456400  0.357700  0.984300  1.0  0.0965
  H  H97  1  0.450200  0.070400  0.991300  1.0  0.0674
  H  H98  1  0.525000  0.140200  0.934900  1.0  0.0871
  H  H99  1  0.547000  0.086800  0.032600  1.0  0.0751
  H  H100  1  0.436400  0.192900  0.000000  1.0  0.0876
  H  H101  1  0.456300  0.252000  0.018000  1.0  0.1025
  H  H102  1  0.401900  0.851600  0.854700  1.0  0.1503
  H  H103  1  0.385600  0.781400  0.850200  1.0  0.1439
  H  H104  1  0.386600  0.815200  0.887300  1.0  0.1506
  H  H105  1  0.809900  0.929300  0.511800  1.0  0.0889
  H  H106  1  0.860400  0.990000  0.520500  1.0  0.1024
  H  H107  1  0.756300  0.970000  0.528600  1.0  0.0967
  H  H108  1  0.766200  0.191000  0.526300  1.0  0.0679
  H  H109  1  0.802300  0.175100  0.508300  1.0  0.076
  H  H110  1  0.757800  0.306400  0.545500  1.0  0.1028
  H  H111  1  0.780400  0.407500  0.556200  1.0  0.0885
  H  H112  1  0.839800  0.424100  0.551000  1.0  0.0721
  H  H113  1  0.852800  0.242000  0.521400  1.0  0.099
  H  H114  1  0.722300  0.068200  0.540800  1.0  0.0927
  H  H115  1  0.740500  0.122500  0.564500  1.0  0.0783
  H  H116  1  0.691000  0.907800  0.614500  1.0  0.0887
  H  H117  1  0.702000  0.971000  0.566000  1.0  0.0885
  H  H118  1  0.713400  0.937800  0.668900  1.0  0.0969
  H  H119  1  0.833800  0.292300  0.626000  1.0  0.0944
  H  H120  1  0.807700  0.192000  0.628900  1.0  0.0925
  H  H121  1  0.716900  0.276800  0.644500  1.0  0.0912
  H  H122  1  0.800900  0.384700  0.632800  1.0  0.079
  H  H123  1  0.727400  0.156700  0.657800  1.0  0.067
  H  H124  1  0.719000  0.163400  0.616900  1.0  0.0774
  H  H125  1  0.739000  0.016200  0.706500  1.0  0.1149
  H  H126  1  0.752800  0.082700  0.691600  1.0  0.0858
  H  H127  1  0.831100  0.876500  0.709700  1.0  0.0889
  H  H128  1  0.775500  0.920900  0.703600  1.0  0.0944
  H  H129  1  0.880100  0.941800  0.704400  1.0  0.0986
  H  H130  1  0.843600  0.136000  0.729000  1.0  0.082
  H  H131  1  0.828900  0.199000  0.709700  1.0  0.1
  H  H132  1  0.759900  0.206400  0.711000  1.0  0.0534
  H  H133  1  0.708400  0.184700  0.740600  1.0  0.1113
  H  H134  1  0.717800  0.132500  0.797800  1.0  0.0807
  H  H135  1  0.817800  0.099300  0.778500  1.0  0.097
  H  H136  1  0.904600  0.051100  0.701800  1.0  0.0939
  H  H137  1  0.880600  0.108100  0.687000  1.0  0.0708
  H  H138  1  0.932000  0.932600  0.601900  1.0  0.0951
  H  H139  1  0.923700  0.963700  0.659200  1.0  0.097
  H  H140  1  0.909200  0.995200  0.556400  1.0  0.0959
  H  H141  1  0.884700  0.231000  0.644000  1.0  0.091
  H  H142  1  0.912000  0.175200  0.653800  1.0  0.0701
  H  H143  1  0.953300  0.139500  0.610100  1.0  0.1063
  H  H144  1  0.976600  0.161600  0.553200  1.0  0.1054
  H  H145  1  0.956800  0.250900  0.524100  1.0  0.0653
  H  H146  1  0.889500  0.288800  0.593700  1.0  0.0973
  H  H147  1  0.864400  0.143600  0.559900  1.0  0.0882
  H  H148  1  0.885600  0.098500  0.534600  1.0  0.0887
  H  H149  1  0.869500  0.881200  0.560700  1.0  0.0877
  H  H150  1  0.922400  0.843300  0.540700  1.0  0.0955
  H  H151  1  0.818300  0.824000  0.548600  1.0  0.1018
  H  H152  1  0.901200  0.622600  0.526000  1.0  0.0699
  H  H153  1  0.860000  0.614700  0.528800  1.0  0.0689
  H  H154  1  0.872600  0.593700  0.444900  1.0  0.0649
  H  H155  1  0.876000  0.496800  0.415800  1.0  0.0897
  H  H156  1  0.885100  0.402700  0.450700  1.0  0.0723
  H  H157  1  0.888300  0.506500  0.534500  1.0  0.0771
  H  H158  1  0.810800  0.669200  0.508500  1.0  0.0903
  H  H159  1  0.788400  0.722800  0.527500  1.0  0.1027
  H  H160  1  0.759600  0.868800  0.436500  1.0  0.0862
  H  H161  1  0.776100  0.828900  0.491000  1.0  0.0978
  H  H162  1  0.767300  0.806100  0.387100  1.0  0.1033
  H  H163  1  0.771900  0.602400  0.479700  1.0  0.0792
  H  H164  1  0.754300  0.618200  0.442500  1.0  0.0821
  H  H165  1  0.797300  0.494000  0.490600  1.0  0.0904
  H  H166  1  0.804800  0.390400  0.471800  1.0  0.0803
  H  H167  1  0.794400  0.362700  0.414600  1.0  0.0972
  H  H168  1  0.770500  0.549100  0.391000  1.0  0.105
  H  H169  1  0.806700  0.649000  0.382700  1.0  0.0932
  H  H170  1  0.778800  0.691200  0.361200  1.0  0.1026
  H  H171  1  0.849800  0.866100  0.321700  1.0  0.0951
  H  H172  1  0.801900  0.805500  0.338300  1.0  0.0957
  H  H173  1  0.906100  0.829300  0.334300  1.0  0.0967
  H  H174  1  0.898500  0.617400  0.342600  1.0  0.0713
  H  H175  1  0.889200  0.563000  0.370100  1.0  0.0895
  H  H176  1  0.848200  0.654200  0.295400  1.0  0.1119
  H  H177  1  0.797100  0.614900  0.270600  1.0  0.0761
  H  H178  1  0.768900  0.532000  0.289400  1.0  0.081
  H  H179  1  0.840500  0.497100  0.362200  1.0  0.0874
  H  H180  1  0.932900  0.683600  0.370900  1.0  0.098
  H  H181  1  0.945600  0.745600  0.350500  1.0  0.0995
  H  H182  1  0.961900  0.906500  0.430300  1.0  0.0948
  H  H183  1  0.952900  0.846600  0.379700  1.0  0.0972
  H  H184  1  0.956400  0.857700  0.484300  1.0  0.0965
  H  H185  1  0.950200  0.570400  0.491300  1.0  0.0674
  H  H186  1  0.025000  0.640200  0.434900  1.0  0.0871
  H  H187  1  0.047000  0.586800  0.532600  1.0  0.0751
  H  H188  1  0.936400  0.692900  0.500000  1.0  0.0876
  H  H189  1  0.956300  0.752000  0.518000  1.0  0.1025
  H  H190  1  0.901900  0.351600  0.354700  1.0  0.1503
  H  H191  1  0.885600  0.281400  0.350200  1.0  0.1439
  H  H192  1  0.886600  0.315200  0.387300  1.0  0.1506
  H  H193  1  0.190100  0.429300  0.988200  1.0  0.0882
  H  H194  1  0.139600  0.490000  0.979500  1.0  0.1026
  H  H195  1  0.243700  0.470000  0.971400  1.0  0.0964
  H  H196  1  0.233800  0.691000  0.973700  1.0  0.0711
  H  H197  1  0.197700  0.675100  0.991700  1.0  0.0754
  H  H198  1  0.242200  0.806400  0.954500  1.0  0.103
  H  H199  1  0.219600  0.907500  0.943800  1.0  0.0883
  H  H200  1  0.160200  0.924100  0.949000  1.0  0.0719
  H  H201  1  0.147200  0.742000  0.978600  1.0  0.0987
  H  H202  1  0.277700  0.568200  0.959200  1.0  0.0918
  H  H203  1  0.259500  0.622500  0.935500  1.0  0.0783
  H  H204  1  0.309000  0.407800  0.885500  1.0  0.0888
  H  H205  1  0.298000  0.471000  0.934000  1.0  0.0888
  H  H206  1  0.286600  0.437800  0.831100  1.0  0.0964
  H  H207  1  0.166200  0.792300  0.874000  1.0  0.0945
  H  H208  1  0.192300  0.692000  0.871100  1.0  0.0932
  H  H209  1  0.283100  0.776800  0.855500  1.0  0.0913
  H  H210  1  0.199100  0.884700  0.867200  1.0  0.0791
  H  H211  1  0.272600  0.656700  0.842200  1.0  0.0667
  H  H212  1  0.281000  0.663400  0.883100  1.0  0.0765
  H  H213  1  0.261000  0.516200  0.793500  1.0  0.1122
  H  H214  1  0.247200  0.582700  0.808400  1.0  0.0846
  H  H215  1  0.168900  0.376500  0.790300  1.0  0.0902
  H  H216  1  0.224500  0.420900  0.796400  1.0  0.0942
  H  H217  1  0.119900  0.441800  0.795600  1.0  0.0982
  H  H218  1  0.156400  0.636000  0.771000  1.0  0.0843
  H  H219  1  0.171100  0.699000  0.790300  1.0  0.0999
  H  H220  1  0.240100  0.706400  0.789000  1.0  0.0534
  H  H221  1  0.291600  0.684700  0.759400  1.0  0.1121
  H  H222  1  0.282200  0.632500  0.702200  1.0  0.0812
  H  H223  1  0.182200  0.599300  0.721500  1.0  0.0973
  H  H224  1  0.095400  0.551100  0.798200  1.0  0.0927
  H  H225  1  0.119400  0.608100  0.813000  1.0  0.0731
  H  H226  1  0.068000  0.432600  0.898100  1.0  0.0937
  H  H227  1  0.076300  0.463700  0.840800  1.0  0.0978
  H  H228  1  0.090800  0.495200  0.943600  1.0  0.0955
  H  H229  1  0.115300  0.731000  0.856000  1.0  0.0897
  H  H230  1  0.088000  0.675200  0.846200  1.0  0.0718
  H  H231  1  0.046700  0.639500  0.889900  1.0  0.1073
  H  H232  1  0.023400  0.661600  0.946800  1.0  0.1039
  H  H233  1  0.043200  0.750900  0.975900  1.0  0.0639
  H  H234  1  0.110500  0.788800  0.906300  1.0  0.098
  H  H235  1  0.135600  0.643600  0.940100  1.0  0.0884
  H  H236  1  0.114400  0.598500  0.965400  1.0  0.0906
  H  H237  1  0.130500  0.381200  0.939300  1.0  0.0881
  H  H238  1  0.077600  0.343300  0.959300  1.0  0.0949
  H  H239  1  0.181700  0.324000  0.951400  1.0  0.1025
  H  H240  1  0.098800  0.122600  0.974000  1.0  0.069
  H  H241  1  0.140000  0.114700  0.971200  1.0  0.0674
  H  H242  1  0.127400  0.093700  0.055100  1.0  0.0637
  H  H243  1  0.124000  0.996800  0.084200  1.0  0.0873
  H  H244  1  0.114900  0.902700  0.049300  1.0  0.0749
  H  H245  1  0.111700  0.006500  0.965500  1.0  0.0776
  H  H246  1  0.189200  0.169200  0.991500  1.0  0.0903
  H  H247  1  0.211600  0.222800  0.972500  1.0  0.101
  H  H248  1  0.240400  0.368800  0.063500  1.0  0.0881
  H  H249  1  0.223900  0.328900  0.009000  1.0  0.0967
  H  H250  1  0.232700  0.306100  0.112900  1.0  0.1038
  H  H251  1  0.228100  0.102400  0.020300  1.0  0.0805
  H  H252  1  0.245700  0.118200  0.057500  1.0  0.0817
  H  H253  1  0.202700  0.994000  0.009400  1.0  0.091
  H  H254  1  0.195200  0.890400  0.028200  1.0  0.0782
  H  H255  1  0.205600  0.862700  0.085400  1.0  0.0968
  H  H256  1  0.229500  0.049100  0.109000  1.0  0.105
  H  H257  1  0.193300  0.149000  0.117300  1.0  0.0962
  H  H258  1  0.221200  0.191200  0.138800  1.0  0.1024
  H  H259  1  0.150200  0.366100  0.178300  1.0  0.0958
  H  H260  1  0.198100  0.305500  0.161700  1.0  0.095
  H  H261  1  0.093900  0.329300  0.165700  1.0  0.0969
  H  H262  1  0.101500  0.117400  0.157400  1.0  0.0724
  H  H263  1  0.110800  0.063000  0.129900  1.0  0.0902
  H  H264  1  0.151800  0.154200  0.204600  1.0  0.1126
  H  H265  1  0.202900  0.114900  0.229400  1.0  0.0759
  H  H266  1  0.231100  0.032000  0.210600  1.0  0.0793
  H  H267  1  0.159500  0.997100  0.137800  1.0  0.088
  H  H268  1  0.067100  0.183600  0.129100  1.0  0.0987
  H  H269  1  0.054400  0.245600  0.149500  1.0  0.1004
  H  H270  1  0.038100  0.406500  0.069700  1.0  0.095
  H  H271  1  0.047100  0.346600  0.120300  1.0  0.0972
  H  H272  1  0.043600  0.357700  0.015700  1.0  0.0964
  H  H273  1  0.049800  0.070400  0.008700  1.0  0.0663
  H  H274  1  0.975000  0.140200  0.065100  1.0  0.0861
  H  H275  1  0.953000  0.086800  0.967400  1.0  0.0748
  H  H276  1  0.063600  0.192900  0.000000  1.0  0.087
  H  H277  1  0.043700  0.252000  0.982000  1.0  0.1009
  H  H278  1  0.098100  0.851600  0.145300  1.0  0.1486
  H  H279  1  0.114400  0.781400  0.149800  1.0  0.1455
  H  H280  1  0.113400  0.815200  0.112700  1.0  0.1519
  H  H281  1  0.690100  0.929300  0.488200  1.0  0.0882
  H  H282  1  0.639600  0.990000  0.479500  1.0  0.1026
  H  H283  1  0.743700  0.970000  0.471400  1.0  0.0964
  H  H284  1  0.733800  0.191000  0.473700  1.0  0.0711
  H  H285  1  0.697700  0.175100  0.491700  1.0  0.0754
  H  H286  1  0.742200  0.306400  0.454500  1.0  0.103
  H  H287  1  0.719600  0.407500  0.443800  1.0  0.0883
  H  H288  1  0.660200  0.424100  0.449000  1.0  0.0724
  H  H289  1  0.647200  0.242000  0.478600  1.0  0.0987
  H  H290  1  0.777700  0.068200  0.459200  1.0  0.0918
  H  H291  1  0.759500  0.122500  0.435500  1.0  0.0783
  H  H292  1  0.809000  0.907800  0.385500  1.0  0.0888
  H  H293  1  0.798000  0.971000  0.434000  1.0  0.0888
  H  H294  1  0.786600  0.937800  0.331100  1.0  0.0964
  H  H295  1  0.666200  0.292300  0.374000  1.0  0.0945
  H  H296  1  0.692300  0.192000  0.371100  1.0  0.0932
  H  H297  1  0.783100  0.276800  0.355500  1.0  0.0913
  H  H298  1  0.699100  0.384700  0.367200  1.0  0.0791
  H  H299  1  0.772600  0.156700  0.342200  1.0  0.0667
  H  H300  1  0.781000  0.163400  0.383100  1.0  0.0765
  H  H301  1  0.761000  0.016200  0.293500  1.0  0.1122
  H  H302  1  0.747200  0.082700  0.308400  1.0  0.0846
  H  H303  1  0.668900  0.876500  0.290300  1.0  0.09
  H  H304  1  0.724500  0.920900  0.296400  1.0  0.0942
  H  H305  1  0.619900  0.941800  0.295600  1.0  0.0982
  H  H306  1  0.656400  0.136000  0.271000  1.0  0.0843
  H  H307  1  0.671100  0.199000  0.290300  1.0  0.0999
  H  H308  1  0.740100  0.206400  0.289000  1.0  0.0534
  H  H309  1  0.791600  0.184700  0.259400  1.0  0.1121
  H  H310  1  0.782200  0.132500  0.202200  1.0  0.0812
  H  H311  1  0.682200  0.099300  0.221500  1.0  0.0973
  H  H312  1  0.595400  0.051100  0.298200  1.0  0.0927
  H  H313  1  0.619400  0.108100  0.313000  1.0  0.0731
  H  H314  1  0.568000  0.932600  0.398100  1.0  0.0937
  H  H315  1  0.576300  0.963700  0.340800  1.0  0.0978
  H  H316  1  0.590800  0.995200  0.443600  1.0  0.0955
  H  H317  1  0.615300  0.231000  0.356000  1.0  0.0901
  H  H318  1  0.588000  0.175200  0.346200  1.0  0.0718
  H  H319  1  0.546700  0.139500  0.389900  1.0  0.1073
  H  H320  1  0.523400  0.161600  0.446800  1.0  0.1054
  H  H321  1  0.543200  0.250900  0.475900  1.0  0.0639
  H  H322  1  0.610500  0.288800  0.406300  1.0  0.098
  H  H323  1  0.635600  0.143600  0.440100  1.0  0.0884
  H  H324  1  0.614400  0.098500  0.465400  1.0  0.0906
  H  H325  1  0.630500  0.881200  0.439300  1.0  0.0881
  H  H326  1  0.577600  0.843300  0.459300  1.0  0.0949
  H  H327  1  0.681700  0.824000  0.451400  1.0  0.1025
  H  H328  1  0.598800  0.622600  0.474000  1.0  0.069
  H  H329  1  0.640000  0.614700  0.471200  1.0  0.0674
  H  H330  1  0.627400  0.593700  0.555100  1.0  0.0637
  H  H331  1  0.624000  0.496800  0.584200  1.0  0.0871
  H  H332  1  0.614900  0.402700  0.549300  1.0  0.0749
  H  H333  1  0.611700  0.506500  0.465500  1.0  0.0776
  H  H334  1  0.689200  0.669200  0.491500  1.0  0.0903
  H  H335  1  0.711600  0.722800  0.472500  1.0  0.101
  H  H336  1  0.740400  0.868800  0.563500  1.0  0.0881
  H  H337  1  0.723900  0.828900  0.509000  1.0  0.0967
  H  H338  1  0.732700  0.806100  0.612900  1.0  0.1038
  H  H339  1  0.728100  0.602400  0.520300  1.0  0.0806
  H  H340  1  0.745700  0.618200  0.557500  1.0  0.0817
  H  H341  1  0.702700  0.494000  0.509400  1.0  0.091
  H  H342  1  0.695200  0.390400  0.528200  1.0  0.0782
  H  H343  1  0.705600  0.362700  0.585400  1.0  0.0968
  H  H344  1  0.729500  0.549100  0.609000  1.0  0.105
  H  H345  1  0.693300  0.649000  0.617300  1.0  0.0962
  H  H346  1  0.721200  0.691200  0.638800  1.0  0.1024
  H  H347  1  0.650200  0.866100  0.678300  1.0  0.0958
  H  H348  1  0.698100  0.805500  0.661700  1.0  0.095
  H  H349  1  0.593900  0.829300  0.665700  1.0  0.0969
  H  H350  1  0.601500  0.617400  0.657400  1.0  0.0724
  H  H351  1  0.610800  0.563000  0.629900  1.0  0.0902
  H  H352  1  0.651800  0.654200  0.704600  1.0  0.1126
  H  H353  1  0.702900  0.614900  0.729400  1.0  0.0759
  H  H354  1  0.731100  0.532000  0.710600  1.0  0.0793
  H  H355  1  0.659500  0.497100  0.637800  1.0  0.088
  H  H356  1  0.567100  0.683600  0.629100  1.0  0.0987
  H  H357  1  0.554400  0.745600  0.649500  1.0  0.1004
  H  H358  1  0.538100  0.906500  0.569700  1.0  0.095
  H  H359  1  0.547100  0.846600  0.620300  1.0  0.0972
  H  H360  1  0.543600  0.857700  0.515700  1.0  0.0964
  H  H361  1  0.549800  0.570400  0.508700  1.0  0.0663
  H  H362  1  0.475000  0.640200  0.565100  1.0  0.0859
  H  H363  1  0.453000  0.586800  0.467400  1.0  0.0748
  H  H364  1  0.563600  0.692900  0.500000  1.0  0.087
  H  H365  1  0.543700  0.752000  0.482000  1.0  0.1009
  H  H366  1  0.598100  0.351600  0.645300  1.0  0.1486
  H  H367  1  0.614400  0.281400  0.649800  1.0  0.1455
  H  H368  1  0.613400  0.315200  0.612700  1.0  0.1519
  H  H369  1  0.690100  0.570700  0.988200  1.0  0.0869
  H  H370  1  0.639600  0.510000  0.979500  1.0  0.1025
  H  H371  1  0.743700  0.530000  0.971400  1.0  0.0964
  H  H372  1  0.733800  0.309000  0.973700  1.0  0.0715
  H  H373  1  0.697700  0.324900  0.991700  1.0  0.0752
  H  H374  1  0.742200  0.193600  0.954500  1.0  0.1031
  H  H375  1  0.719600  0.092500  0.943800  1.0  0.0879
  H  H376  1  0.660200  0.075900  0.949000  1.0  0.0726
  H  H377  1  0.647200  0.258000  0.978600  1.0  0.0983
  H  H378  1  0.777700  0.431800  0.959200  1.0  0.0913
  H  H379  1  0.759500  0.377500  0.935500  1.0  0.078
  H  H380  1  0.809000  0.592200  0.885500  1.0  0.0888
  H  H381  1  0.798000  0.529000  0.934000  1.0  0.0888
  H  H382  1  0.786600  0.562200  0.831100  1.0  0.0967
  H  H383  1  0.666200  0.207700  0.874000  1.0  0.0945
  H  H384  1  0.692300  0.308000  0.871100  1.0  0.0944
  H  H385  1  0.783100  0.223200  0.855500  1.0  0.0916
  H  H386  1  0.699100  0.115300  0.867200  1.0  0.0788
  H  H387  1  0.772600  0.343300  0.842200  1.0  0.0666
  H  H388  1  0.781000  0.336600  0.883100  1.0  0.0768
  H  H389  1  0.761000  0.483800  0.793500  1.0  0.113
  H  H390  1  0.747200  0.417300  0.808400  1.0  0.0867
  H  H391  1  0.668900  0.623500  0.790300  1.0  0.0899
  H  H392  1  0.724500  0.579100  0.796400  1.0  0.0941
  H  H393  1  0.619900  0.558200  0.795600  1.0  0.0982
  H  H394  1  0.656400  0.364000  0.771000  1.0  0.0821
  H  H395  1  0.671100  0.301000  0.790300  1.0  0.0994
  H  H396  1  0.740100  0.293600  0.789000  1.0  0.0536
  H  H397  1  0.791600  0.315300  0.759400  1.0  0.1121
  H  H398  1  0.782200  0.367500  0.702200  1.0  0.0813
  H  H399  1  0.682200  0.400700  0.721500  1.0  0.0972
  H  H400  1  0.595400  0.448900  0.798200  1.0  0.0928
  H  H401  1  0.619400  0.391900  0.813000  1.0  0.0716
  H  H402  1  0.568000  0.567400  0.898100  1.0  0.0948
  H  H403  1  0.576300  0.536300  0.840800  1.0  0.0983
  H  H404  1  0.590800  0.504800  0.943600  1.0  0.0952
  H  H405  1  0.615300  0.269000  0.856000  1.0  0.089
  H  H406  1  0.588000  0.324800  0.846200  1.0  0.0716
  H  H407  1  0.546700  0.360500  0.889900  1.0  0.1073
  H  H408  1  0.523400  0.338400  0.946800  1.0  0.1055
  H  H409  1  0.543200  0.249100  0.975900  1.0  0.0634
  H  H410  1  0.610500  0.211200  0.906300  1.0  0.098
  H  H411  1  0.635600  0.356400  0.940100  1.0  0.0896
  H  H412  1  0.614400  0.401500  0.965400  1.0  0.0907
  H  H413  1  0.630500  0.618800  0.939300  1.0  0.0882
  H  H414  1  0.577600  0.656700  0.959300  1.0  0.0948
  H  H415  1  0.681700  0.676000  0.951400  1.0  0.1025
  H  H416  1  0.598800  0.877400  0.974000  1.0  0.0692
  H  H417  1  0.640000  0.885300  0.971200  1.0  0.0676
  H  H418  1  0.627400  0.906300  0.055100  1.0  0.0642
  H  H419  1  0.624000  0.003200  0.084200  1.0  0.0874
  H  H420  1  0.614900  0.097300  0.049300  1.0  0.0725
  H  H421  1  0.611700  0.993500  0.965500  1.0  0.0779
  H  H422  1  0.689200  0.830800  0.991500  1.0  0.0902
  H  H423  1  0.711600  0.777200  0.972500  1.0  0.1012
  H  H424  1  0.740400  0.631200  0.063500  1.0  0.0882
  H  H425  1  0.723900  0.671100  0.009000  1.0  0.0963
  H  H426  1  0.732700  0.693900  0.112900  1.0  0.1036
  H  H427  1  0.728100  0.897600  0.020300  1.0  0.0806
  H  H428  1  0.745700  0.881800  0.057500  1.0  0.0817
  H  H429  1  0.702700  0.006000  0.009400  1.0  0.091
  H  H430  1  0.695200  0.109600  0.028200  1.0  0.0785
  H  H431  1  0.705600  0.137300  0.085400  1.0  0.0968
  H  H432  1  0.729500  0.950900  0.109000  1.0  0.1058
  H  H433  1  0.693300  0.851000  0.117300  1.0  0.0945
  H  H434  1  0.721200  0.808800  0.138800  1.0  0.1022
  H  H435  1  0.650200  0.633900  0.178300  1.0  0.0965
  H  H436  1  0.698100  0.694500  0.161700  1.0  0.0951
  H  H437  1  0.593900  0.670700  0.165700  1.0  0.0965
  H  H438  1  0.601500  0.882600  0.157400  1.0  0.073
  H  H439  1  0.610800  0.937000  0.129900  1.0  0.091
  H  H440  1  0.651800  0.845800  0.204600  1.0  0.1128
  H  H441  1  0.702900  0.885100  0.229400  1.0  0.0758
  H  H442  1  0.731100  0.968000  0.210600  1.0  0.0791
  H  H443  1  0.659500  0.002900  0.137800  1.0  0.0883
  H  H444  1  0.567100  0.816400  0.129100  1.0  0.0983
  H  H445  1  0.554400  0.754400  0.149500  1.0  0.1007
  H  H446  1  0.538100  0.593500  0.069700  1.0  0.0943
  H  H447  1  0.547100  0.653400  0.120300  1.0  0.0975
  H  H448  1  0.543600  0.642300  0.015700  1.0  0.0959
  H  H449  1  0.549800  0.929600  0.008700  1.0  0.0666
  H  H450  1  0.475000  0.859800  0.065100  1.0  0.0836
  H  H451  1  0.453000  0.913200  0.967400  1.0  0.0747
  H  H452  1  0.563600  0.807100  0.000000  1.0  0.0869
  H  H453  1  0.543700  0.748000  0.982000  1.0  0.1012
  H  H454  1  0.598100  0.148400  0.145300  1.0  0.1494
  H  H455  1  0.614400  0.218600  0.149800  1.0  0.1405
  H  H456  1  0.613400  0.184800  0.112700  1.0  0.1508
  H  H457  1  0.190100  0.070700  0.488200  1.0  0.0868
  H  H458  1  0.139600  0.010000  0.479500  1.0  0.1025
  H  H459  1  0.243700  0.030000  0.471400  1.0  0.0964
  H  H460  1  0.233800  0.809000  0.473700  1.0  0.0715
  H  H461  1  0.197700  0.824900  0.491700  1.0  0.0752
  H  H462  1  0.242200  0.693600  0.454500  1.0  0.1031
  H  H463  1  0.219600  0.592500  0.443800  1.0  0.0879
  H  H464  1  0.160200  0.575900  0.449000  1.0  0.0726
  H  H465  1  0.147200  0.758000  0.478600  1.0  0.0983
  H  H466  1  0.277700  0.931800  0.459200  1.0  0.0913
  H  H467  1  0.259500  0.877500  0.435500  1.0  0.078
  H  H468  1  0.309000  0.092200  0.385500  1.0  0.0888
  H  H469  1  0.298000  0.029000  0.434000  1.0  0.0888
  H  H470  1  0.286600  0.062200  0.331100  1.0  0.0967
  H  H471  1  0.166200  0.707700  0.374000  1.0  0.0945
  H  H472  1  0.192300  0.808000  0.371100  1.0  0.0944
  H  H473  1  0.283100  0.723200  0.355500  1.0  0.0916
  H  H474  1  0.199100  0.615300  0.367200  1.0  0.0788
  H  H475  1  0.272600  0.843300  0.342200  1.0  0.0666
  H  H476  1  0.281000  0.836600  0.383100  1.0  0.0768
  H  H477  1  0.261000  0.983800  0.293500  1.0  0.113
  H  H478  1  0.247200  0.917300  0.308400  1.0  0.0867
  H  H479  1  0.168900  0.123500  0.290300  1.0  0.0913
  H  H480  1  0.224500  0.079100  0.296400  1.0  0.0941
  H  H481  1  0.119900  0.058200  0.295600  1.0  0.0982
  H  H482  1  0.156400  0.864000  0.271000  1.0  0.0821
  H  H483  1  0.171100  0.801000  0.290300  1.0  0.0994
  H  H484  1  0.240100  0.793600  0.289000  1.0  0.0536
  H  H485  1  0.291600  0.815300  0.259400  1.0  0.1121
  H  H486  1  0.282200  0.867500  0.202200  1.0  0.0813
  H  H487  1  0.182200  0.900700  0.221500  1.0  0.0972
  H  H488  1  0.095400  0.948900  0.298200  1.0  0.0926
  H  H489  1  0.119400  0.891900  0.313000  1.0  0.0716
  H  H490  1  0.068000  0.067400  0.398100  1.0  0.0948
  H  H491  1  0.076300  0.036300  0.340800  1.0  0.0983
  H  H492  1  0.090800  0.004800  0.443600  1.0  0.0952
  H  H493  1  0.115300  0.769000  0.356000  1.0  0.089
  H  H494  1  0.088000  0.824800  0.346200  1.0  0.0716
  H  H495  1  0.046700  0.860500  0.389900  1.0  0.1073
  H  H496  1  0.023400  0.838400  0.446800  1.0  0.1055
  H  H497  1  0.043200  0.749100  0.475900  1.0  0.0634
  H  H498  1  0.110500  0.711200  0.406300  1.0  0.098
  H  H499  1  0.135600  0.856400  0.440100  1.0  0.0896
  H  H500  1  0.114400  0.901500  0.465400  1.0  0.0907
  H  H501  1  0.130500  0.118800  0.439300  1.0  0.0882
  H  H502  1  0.077600  0.156700  0.459300  1.0  0.0948
  H  H503  1  0.181700  0.176000  0.451400  1.0  0.1025
  H  H504  1  0.098800  0.377400  0.474000  1.0  0.0692
  H  H505  1  0.140000  0.385300  0.471200  1.0  0.0676
  H  H506  1  0.127400  0.406300  0.555100  1.0  0.0642
  H  H507  1  0.124000  0.503200  0.584200  1.0  0.0874
  H  H508  1  0.114900  0.597300  0.549300  1.0  0.0724
  H  H509  1  0.111700  0.493500  0.465500  1.0  0.0779
  H  H510  1  0.189200  0.330800  0.491500  1.0  0.0902
  H  H511  1  0.211600  0.277200  0.472500  1.0  0.1012
  H  H512  1  0.240400  0.131200  0.563500  1.0  0.0882
  H  H513  1  0.223900  0.171100  0.509000  1.0  0.0963
  H  H514  1  0.232700  0.193900  0.612900  1.0  0.1036
  H  H515  1  0.228100  0.397600  0.520300  1.0  0.0806
  H  H516  1  0.245700  0.381800  0.557500  1.0  0.0817
  H  H517  1  0.202700  0.506000  0.509400  1.0  0.091
  H  H518  1  0.195200  0.609600  0.528200  1.0  0.0785
  H  H519  1  0.205600  0.637300  0.585400  1.0  0.0968
  H  H520  1  0.229500  0.450900  0.609000  1.0  0.1058
  H  H521  1  0.193300  0.351000  0.617300  1.0  0.0945
  H  H522  1  0.221200  0.308800  0.638800  1.0  0.1022
  H  H523  1  0.150200  0.133900  0.678300  1.0  0.0965
  H  H524  1  0.198100  0.194500  0.661700  1.0  0.0951
  H  H525  1  0.093900  0.170700  0.665700  1.0  0.0965
  H  H526  1  0.101500  0.382600  0.657400  1.0  0.073
  H  H527  1  0.110800  0.437000  0.629900  1.0  0.091
  H  H528  1  0.151800  0.345800  0.704600  1.0  0.1128
  H  H529  1  0.202900  0.385100  0.729400  1.0  0.0758
  H  H530  1  0.231100  0.468000  0.710600  1.0  0.0787
  H  H531  1  0.159500  0.502900  0.637800  1.0  0.0883
  H  H532  1  0.067100  0.316400  0.629100  1.0  0.0983
  H  H533  1  0.054400  0.254400  0.649500  1.0  0.1007
  H  H534  1  0.038100  0.093500  0.569700  1.0  0.0947
  H  H535  1  0.047100  0.153400  0.620300  1.0  0.0975
  H  H536  1  0.043600  0.142300  0.515700  1.0  0.0962
  H  H537  1  0.049800  0.429600  0.508700  1.0  0.0666
  H  H538  1  0.975000  0.359800  0.565100  1.0  0.0852
  H  H539  1  0.953000  0.413200  0.467400  1.0  0.0747
  H  H540  1  0.063600  0.307100  0.500000  1.0  0.0869
  H  H541  1  0.043700  0.248000  0.482000  1.0  0.1007
  H  H542  1  0.098100  0.648400  0.645300  1.0  0.1494
  H  H543  1  0.114400  0.718600  0.649800  1.0  0.1405
  H  H544  1  0.113400  0.684800  0.612700  1.0  0.1508
  H  H545  1  0.809900  0.570700  0.011800  1.0  0.0892
  H  H546  1  0.860400  0.510000  0.020500  1.0  0.1027
  H  H547  1  0.756300  0.530000  0.028600  1.0  0.0964
  H  H548  1  0.766200  0.309000  0.026300  1.0  0.0678
  H  H549  1  0.802300  0.324900  0.008300  1.0  0.0761
  H  H550  1  0.757800  0.193600  0.045500  1.0  0.1029
  H  H551  1  0.780400  0.092500  0.056200  1.0  0.0884
  H  H552  1  0.839800  0.075900  0.051000  1.0  0.0729
  H  H553  1  0.852800  0.258000  0.021400  1.0  0.099
  H  H554  1  0.722300  0.431800  0.040800  1.0  0.0918
  H  H555  1  0.740500  0.377500  0.064500  1.0  0.0785
  H  H556  1  0.691000  0.592200  0.114500  1.0  0.0887
  H  H557  1  0.702000  0.529000  0.066000  1.0  0.0885
  H  H558  1  0.713400  0.562200  0.168900  1.0  0.0966
  H  H559  1  0.833800  0.207700  0.126000  1.0  0.0944
  H  H560  1  0.807700  0.308000  0.128900  1.0  0.0927
  H  H561  1  0.716900  0.223200  0.144500  1.0  0.0911
  H  H562  1  0.800900  0.115300  0.132800  1.0  0.08
  H  H563  1  0.727400  0.343300  0.157800  1.0  0.0669
  H  H564  1  0.719000  0.336600  0.116900  1.0  0.0772
  H  H565  1  0.739000  0.483800  0.206500  1.0  0.1137
  H  H566  1  0.752800  0.417300  0.191600  1.0  0.0866
  H  H567  1  0.831100  0.623500  0.209700  1.0  0.089
  H  H568  1  0.775500  0.579100  0.203600  1.0  0.0945
  H  H569  1  0.880100  0.558200  0.204400  1.0  0.0982
  H  H570  1  0.843600  0.364000  0.229000  1.0  0.0801
  H  H571  1  0.828900  0.301000  0.209700  1.0  0.0996
  H  H572  1  0.759900  0.293600  0.211000  1.0  0.053
  H  H573  1  0.708400  0.315300  0.240600  1.0  0.1117
  H  H574  1  0.717800  0.367500  0.297800  1.0  0.0799
  H  H575  1  0.817800  0.400700  0.278500  1.0  0.0967
  H  H576  1  0.904600  0.448900  0.201800  1.0  0.0945
  H  H577  1  0.880600  0.391900  0.187000  1.0  0.0715
  H  H578  1  0.932000  0.567400  0.101900  1.0  0.0945
  H  H579  1  0.923700  0.536300  0.159200  1.0  0.0979
  H  H580  1  0.909200  0.504800  0.056400  1.0  0.096
  H  H581  1  0.884700  0.269000  0.144000  1.0  0.0908
  H  H582  1  0.912000  0.324800  0.153800  1.0  0.0701
  H  H583  1  0.953300  0.360500  0.110100  1.0  0.1059
  H  H584  1  0.976600  0.338400  0.053200  1.0  0.1055
  H  H585  1  0.956800  0.249100  0.024100  1.0  0.0654
  H  H586  1  0.889500  0.211200  0.093700  1.0  0.0976
  H  H587  1  0.864400  0.356400  0.059900  1.0  0.0891
  H  H588  1  0.885600  0.401500  0.034600  1.0  0.0889
  H  H589  1  0.869500  0.618800  0.060700  1.0  0.0879
  H  H590  1  0.922400  0.656700  0.040700  1.0  0.0955
  H  H591  1  0.818300  0.676000  0.048600  1.0  0.1018
  H  H592  1  0.901200  0.877400  0.026000  1.0  0.0701
  H  H593  1  0.860000  0.885300  0.028800  1.0  0.0685
  H  H594  1  0.872600  0.906300  0.944900  1.0  0.0653
  H  H595  1  0.876000  0.003200  0.915800  1.0  0.09
  H  H596  1  0.885100  0.097300  0.950700  1.0  0.0712
  H  H597  1  0.888300  0.993500  0.034500  1.0  0.0771
  H  H598  1  0.810800  0.830800  0.008500  1.0  0.0891
  H  H599  1  0.788400  0.777200  0.027500  1.0  0.103
  H  H600  1  0.759600  0.631200  0.936500  1.0  0.0858
  H  H601  1  0.776100  0.671100  0.991000  1.0  0.0978
  H  H602  1  0.767300  0.693900  0.887100  1.0  0.1031
  H  H603  1  0.771900  0.897600  0.979700  1.0  0.0788
  H  H604  1  0.754300  0.881800  0.942500  1.0  0.0822
  H  H605  1  0.797300  0.006000  0.990600  1.0  0.0902
  H  H606  1  0.804800  0.109600  0.971800  1.0  0.0786
  H  H607  1  0.794400  0.137300  0.914600  1.0  0.0972
  H  H608  1  0.770500  0.950900  0.891000  1.0  0.1049
  H  H609  1  0.806700  0.851000  0.882700  1.0  0.0935
  H  H610  1  0.778800  0.808800  0.861200  1.0  0.1027
  H  H611  1  0.849800  0.633900  0.821700  1.0  0.0949
  H  H612  1  0.801900  0.694500  0.838300  1.0  0.0959
  H  H613  1  0.906100  0.670700  0.834300  1.0  0.0962
  H  H614  1  0.898500  0.882600  0.842600  1.0  0.0718
  H  H615  1  0.889200  0.937000  0.870100  1.0  0.0896
  H  H616  1  0.848200  0.845800  0.795400  1.0  0.1116
  H  H617  1  0.797100  0.885100  0.770600  1.0  0.0759
  H  H618  1  0.768900  0.968000  0.789400  1.0  0.0809
  H  H619  1  0.840500  0.002900  0.862200  1.0  0.0874
  H  H620  1  0.932900  0.816400  0.870900  1.0  0.0973
  H  H621  1  0.945600  0.754400  0.850500  1.0  0.0996
  H  H622  1  0.961900  0.593500  0.930300  1.0  0.0942
  H  H623  1  0.952900  0.653400  0.879700  1.0  0.0973
  H  H624  1  0.956400  0.642300  0.984300  1.0  0.0963
  H  H625  1  0.950200  0.929600  0.991300  1.0  0.0675
  H  H626  1  0.025000  0.859800  0.934900  1.0  0.0871
  H  H627  1  0.047000  0.913200  0.032600  1.0  0.0748
  H  H628  1  0.936400  0.807100  0.000000  1.0  0.0869
  H  H629  1  0.956300  0.748000  0.018000  1.0  0.1022
  H  H630  1  0.901900  0.148400  0.854700  1.0  0.1513
  H  H631  1  0.885600  0.218600  0.850200  1.0  0.1405
  H  H632  1  0.886600  0.184800  0.887300  1.0  0.1501
  H  H633  1  0.309900  0.070700  0.511800  1.0  0.0889
  H  H634  1  0.360400  0.010000  0.520500  1.0  0.1027
  H  H635  1  0.256300  0.030000  0.528600  1.0  0.0964
  H  H636  1  0.266200  0.809000  0.526300  1.0  0.0678
  H  H637  1  0.302300  0.824900  0.508300  1.0  0.0761
  H  H638  1  0.257800  0.693600  0.545500  1.0  0.1029
  H  H639  1  0.280400  0.592500  0.556200  1.0  0.0884
  H  H640  1  0.339800  0.575900  0.551000  1.0  0.0729
  H  H641  1  0.352800  0.758000  0.521400  1.0  0.099
  H  H642  1  0.222300  0.931800  0.540800  1.0  0.0918
  H  H643  1  0.240500  0.877500  0.564500  1.0  0.0785
  H  H644  1  0.191000  0.092200  0.614500  1.0  0.0887
  H  H645  1  0.202000  0.029000  0.566000  1.0  0.0885
  H  H646  1  0.213400  0.062200  0.668900  1.0  0.0966
  H  H647  1  0.333800  0.707700  0.626000  1.0  0.0944
  H  H648  1  0.307700  0.808000  0.628900  1.0  0.0927
  H  H649  1  0.216900  0.723200  0.644500  1.0  0.0911
  H  H650  1  0.300900  0.615300  0.632800  1.0  0.08
  H  H651  1  0.227400  0.843300  0.657800  1.0  0.0669
  H  H652  1  0.219000  0.836600  0.616900  1.0  0.0772
  H  H653  1  0.239000  0.983800  0.706500  1.0  0.114
  H  H654  1  0.252800  0.917300  0.691600  1.0  0.0866
  H  H655  1  0.331100  0.123500  0.709700  1.0  0.0901
  H  H656  1  0.275500  0.079100  0.703600  1.0  0.0945
  H  H657  1  0.380100  0.058200  0.704400  1.0  0.0982
  H  H658  1  0.343600  0.864000  0.729000  1.0  0.0801
  H  H659  1  0.328900  0.801000  0.709700  1.0  0.0996
  H  H660  1  0.259900  0.793600  0.711000  1.0  0.053
  H  H661  1  0.208400  0.815300  0.740600  1.0  0.1117
  H  H662  1  0.217800  0.867500  0.797800  1.0  0.0799
  H  H663  1  0.317800  0.900700  0.778500  1.0  0.0967
  H  H664  1  0.404600  0.948900  0.701800  1.0  0.0945
  H  H665  1  0.380600  0.891900  0.687000  1.0  0.0715
  H  H666  1  0.432000  0.067400  0.601900  1.0  0.0945
  H  H667  1  0.423700  0.036300  0.659200  1.0  0.0979
  H  H668  1  0.409200  0.004800  0.556400  1.0  0.096
  H  H669  1  0.384700  0.769000  0.644000  1.0  0.0909
  H  H670  1  0.412000  0.824800  0.653800  1.0  0.0701
  H  H671  1  0.453300  0.860500  0.610100  1.0  0.1059
  H  H672  1  0.476600  0.838400  0.553200  1.0  0.1055
  H  H673  1  0.456800  0.749100  0.524100  1.0  0.0654
  H  H674  1  0.389500  0.711200  0.593700  1.0  0.0976
  H  H675  1  0.364400  0.856400  0.559900  1.0  0.0891
  H  H676  1  0.385600  0.901500  0.534600  1.0  0.0889
  H  H677  1  0.369500  0.118800  0.560700  1.0  0.0879
  H  H678  1  0.422400  0.156700  0.540700  1.0  0.0955
  H  H679  1  0.318300  0.176000  0.548600  1.0  0.1018
  H  H680  1  0.401200  0.377400  0.526000  1.0  0.0701
  H  H681  1  0.360000  0.385300  0.528800  1.0  0.0685
  H  H682  1  0.372600  0.406300  0.444900  1.0  0.0653
  H  H683  1  0.376000  0.503200  0.415800  1.0  0.09
  H  H684  1  0.385100  0.597300  0.450700  1.0  0.0713
  H  H685  1  0.388300  0.493500  0.534500  1.0  0.0771
  H  H686  1  0.310800  0.330800  0.508500  1.0  0.0891
  H  H687  1  0.288400  0.277200  0.527500  1.0  0.103
  H  H688  1  0.259600  0.131200  0.436500  1.0  0.0858
  H  H689  1  0.276100  0.171100  0.491000  1.0  0.0978
  H  H690  1  0.267300  0.193900  0.387100  1.0  0.1031
  H  H691  1  0.271900  0.397600  0.479700  1.0  0.0788
  H  H692  1  0.254300  0.381800  0.442500  1.0  0.0822
  H  H693  1  0.297300  0.506000  0.490600  1.0  0.0902
  H  H694  1  0.304800  0.609600  0.471800  1.0  0.0786
  H  H695  1  0.294400  0.637300  0.414600  1.0  0.0972
  H  H696  1  0.270500  0.450900  0.391000  1.0  0.1049
  H  H697  1  0.306700  0.351000  0.382700  1.0  0.0935
  H  H698  1  0.278800  0.308800  0.361200  1.0  0.1027
  H  H699  1  0.349800  0.133900  0.321700  1.0  0.0949
  H  H700  1  0.301900  0.194500  0.338300  1.0  0.0959
  H  H701  1  0.406100  0.170700  0.334300  1.0  0.0962
  H  H702  1  0.398500  0.382600  0.342600  1.0  0.0718
  H  H703  1  0.389200  0.437000  0.370100  1.0  0.0896
  H  H704  1  0.348200  0.345800  0.295400  1.0  0.1116
  H  H705  1  0.297100  0.385100  0.270600  1.0  0.0759
  H  H706  1  0.268900  0.468000  0.289400  1.0  0.0809
  H  H707  1  0.340500  0.502900  0.362200  1.0  0.0874
  H  H708  1  0.432900  0.316400  0.370900  1.0  0.0973
  H  H709  1  0.445600  0.254400  0.350500  1.0  0.0996
  H  H710  1  0.461900  0.093500  0.430300  1.0  0.0947
  H  H711  1  0.452900  0.153400  0.379700  1.0  0.0973
  H  H712  1  0.456400  0.142300  0.484300  1.0  0.0965
  H  H713  1  0.450200  0.429600  0.491300  1.0  0.0675
  H  H714  1  0.525000  0.359800  0.434900  1.0  0.0865
  H  H715  1  0.547000  0.413200  0.532600  1.0  0.0748
  H  H716  1  0.436400  0.307100  0.500000  1.0  0.0869
  H  H717  1  0.456300  0.248000  0.518000  1.0  0.1022
  H  H718  1  0.401900  0.648400  0.354700  1.0  0.1513
  H  H719  1  0.385600  0.718600  0.350200  1.0  0.1405
  H  H720  1  0.386600  0.684800  0.387300  1.0  0.1501
  C  C721  1  0.308700  0.470500  0.022200  1.0  -0.1288
  C  C722  1  0.338700  0.506600  0.027300  1.0  -0.1399
  C  C723  1  0.336900  0.566900  0.042500  1.0  0.0345
  C  C724  1  0.305100  0.591100  0.052500  1.0  0.1766
  C  C725  1  0.275100  0.555000  0.047300  1.0  0.0367
  C  C726  1  0.276900  0.494700  0.032200  1.0  -0.1482
  C  C727  1  0.291800  0.692400  0.029500  1.0  -0.0549
  C  C728  1  0.304400  0.763900  0.036100  1.0  0.0216
  C  C729  1  0.282000  0.814000  0.044000  1.0  -0.1095
  C  C730  1  0.295000  0.873200  0.049500  1.0  -0.1415
  C  C731  1  0.330500  0.883100  0.045200  1.0  0.1468
  C  C732  1  0.338600  0.775900  0.029100  1.0  0.1113
  C  C733  1  0.240100  0.576000  0.059300  1.0  -0.2525
  C  C734  1  0.204600  0.445600  0.116900  1.0  -0.1203
  C  C735  1  0.211100  0.483200  0.088100  1.0  -0.1356
  C  C736  1  0.231000  0.538500  0.091700  1.0  0.0182
  C  C737  1  0.244400  0.556400  0.124000  1.0  0.2081
  C  C738  1  0.237800  0.518800  0.152800  1.0  0.0054
  C  C739  1  0.217900  0.463400  0.149200  1.0  -0.1294
  C  C740  1  0.309600  0.788900  0.129600  1.0  -0.0727
  C  C741  1  0.294300  0.730100  0.130600  1.0  -0.0729
  C  C742  1  0.260300  0.727500  0.134000  1.0  0.0283
  C  C743  1  0.240900  0.781200  0.140000  1.0  0.1062
  C  C744  1  0.289800  0.844100  0.133900  1.0  0.1355
  C  C745  1  0.237800  0.662500  0.134900  1.0  -0.0623
  C  C746  1  0.253600  0.535600  0.188500  1.0  -0.309
  C  C747  1  0.328500  0.421000  0.205000  1.0  -0.1373
  C  C748  1  0.295400  0.447400  0.201400  1.0  -0.0824
  C  C749  1  0.291500  0.512500  0.194500  1.0  -0.0322
  C  C750  1  0.320600  0.551200  0.191300  1.0  0.1786
  C  C751  1  0.353600  0.524900  0.195000  1.0  0.0483
  C  C752  1  0.357500  0.459800  0.201800  1.0  -0.1248
  C  C753  1  0.323200  0.654400  0.216400  1.0  -0.0413
  C  C754  1  0.292000  0.654500  0.239800  1.0  0.0732
  C  C755  1  0.261200  0.679900  0.231000  1.0  -0.1061
  C  C756  1  0.230600  0.670800  0.248900  1.0  -0.1456
  C  C757  1  0.236500  0.636700  0.282600  1.0  0.132
  C  C758  1  0.296100  0.617900  0.272100  1.0  0.1069
  C  C759  1  0.385300  0.561500  0.185400  1.0  -0.3625
  C  C760  1  0.419400  0.470600  0.106700  1.0  -0.1225
  C  C761  1  0.414500  0.489100  0.140700  1.0  -0.1038
  C  C762  1  0.396000  0.544700  0.147800  1.0  0.0292
  C  C763  1  0.382500  0.581800  0.120700  1.0  0.1952
  C  C764  1  0.387400  0.563400  0.086700  1.0  -0.0241
  C  C765  1  0.405800  0.507800  0.079700  1.0  -0.1345
  C  C766  1  0.396100  0.691800  0.135400  1.0  -0.0395
  C  C767  1  0.414800  0.706300  0.105800  1.0  0.1009
  C  C768  1  0.443600  0.672200  0.095700  1.0  -0.0948
  C  C769  1  0.458700  0.687300  0.062400  1.0  -0.1587
  C  C770  1  0.446000  0.739900  0.045000  1.0  0.1452
  C  C771  1  0.406500  0.760700  0.084900  1.0  0.1034
  C  C772  1  0.369300  0.598400  0.053900  1.0  -0.3113
  C  C773  1  0.370200  0.342600  0.047600  1.0  -0.1197
  C  C774  1  0.401600  0.320100  0.035700  1.0  -0.103
  C  C775  1  0.402700  0.263700  0.016700  1.0  0.0147
  C  C776  1  0.372300  0.229700  0.009500  1.0  0.1647
  C  C777  1  0.340800  0.252200  0.021400  1.0  -0.0009
  C  C778  1  0.339800  0.308600  0.040500  1.0  -0.0856
  C  C779  1  0.379200  0.117600  0.012400  1.0  -0.0891
  C  C780  1  0.380500  0.061600  0.992400  1.0  0.2666
  C  C781  1  0.376700  0.055700  0.957900  1.0  -0.1005
  C  C782  1  0.378400  0.999100  0.940300  1.0  -0.1903
  C  C783  1  0.384200  0.943600  0.961500  1.0  0.1342
  C  C784  1  0.386000  0.004200  0.010000  1.0  0.0795
  C  C785  1  0.306400  0.215800  0.010100  1.0  -0.2623
  C  C786  1  0.269400  0.327100  0.938600  1.0  -0.137
  C  C787  1  0.279200  0.303400  0.971000  1.0  -0.1348
  C  C788  1  0.293500  0.242400  0.974100  1.0  -0.004
  C  C789  1  0.298100  0.205100  0.944800  1.0  0.1417
  C  C790  1  0.288300  0.228800  0.912400  1.0  -0.0052
  C  C791  1  0.274000  0.289800  0.909300  1.0  -0.0915
  C  C792  1  0.275300  0.100700  0.954500  1.0  0.0336
  C  C793  1  0.281600  0.035000  0.943400  1.0  0.0503
  C  C794  1  0.293000  0.984100  0.966900  1.0  -0.1196
  C  C795  1  0.297500  0.922400  0.955700  1.0  -0.0771
  C  C796  1  0.291600  0.905900  0.921800  1.0  0.1358
  C  C797  1  0.276800  0.017600  0.907800  1.0  0.0905
  C  C798  1  0.299000  0.193300  0.877500  1.0  -0.2926
  C  C799  1  0.353200  0.326600  0.833600  1.0  -0.1321
  C  C800  1  0.324700  0.290600  0.843400  1.0  -0.1205
  C  C801  1  0.329700  0.232700  0.860700  1.0  0.0358
  C  C802  1  0.363200  0.210900  0.868200  1.0  0.1996
  C  C803  1  0.391700  0.246900  0.858400  1.0  0.0057
  C  C804  1  0.386600  0.304700  0.841000  1.0  -0.1418
  C  C805  1  0.380000  0.101000  0.857500  1.0  -0.0568
  C  C806  1  0.352200  0.083000  0.837300  1.0  0.0383
  C  C807  1  0.337100  0.117700  0.804800  1.0  -0.137
  C  C808  1  0.306700  0.093000  0.790200  1.0  -0.1558
  C  C809  1  0.290300  0.043300  0.800600  1.0  0.106
  C  C810  1  0.331700  0.023800  0.844100  1.0  0.1298
  C  C811  1  0.430300  0.230700  0.869000  1.0  -0.2996
  C  C812  1  0.456000  0.362400  0.931700  1.0  -0.1323
  C  C813  1  0.450600  0.326800  0.901600  1.0  -0.1417
  C  C814  1  0.441900  0.262200  0.903700  1.0  0.0044
  C  C815  1  0.438600  0.233200  0.935800  1.0  0.1971
  C  C816  1  0.444000  0.268800  0.965800  1.0  -0.0091
  C  C817  1  0.452700  0.333400  0.963800  1.0  -0.1228
  C  C818  1  0.457600  0.126400  0.928600  1.0  -0.0677
  C  C819  1  0.496900  0.075900  0.016300  1.0  0.0386
  C  C820  1  0.473600  0.083400  0.988800  1.0  -0.0686
  C  C821  1  0.483400  0.109600  0.957400  1.0  0.0179
  C  C822  1  0.517800  0.122700  0.956200  1.0  0.1172
  C  C823  1  0.531600  0.091500  0.013200  1.0  0.157
  C  C824  1  0.436900  0.240300  0.001800  1.0  -0.2857
  C  C825  1  0.348300  0.852000  0.854500  1.0  0.3577
  C  C826  1  0.383700  0.822500  0.862400  1.0  -0.3966
  C  C827  1  0.808700  0.970500  0.522200  1.0  -0.1253
  C  C828  1  0.838700  0.006600  0.527300  1.0  -0.1399
  C  C829  1  0.836900  0.066900  0.542500  1.0  0.0345
  C  C830  1  0.805100  0.091100  0.552500  1.0  0.1766
  C  C831  1  0.775100  0.055000  0.547300  1.0  0.0367
  C  C832  1  0.776900  0.994700  0.532200  1.0  -0.1482
  C  C833  1  0.791800  0.192400  0.529500  1.0  -0.0549
  C  C834  1  0.804400  0.263900  0.536100  1.0  0.0216
  C  C835  1  0.782000  0.314000  0.544000  1.0  -0.1095
  C  C836  1  0.795000  0.373200  0.549500  1.0  -0.1415
  C  C837  1  0.830500  0.383100  0.545200  1.0  0.1468
  C  C838  1  0.838600  0.275900  0.529100  1.0  0.1113
  C  C839  1  0.740100  0.076000  0.559300  1.0  -0.2525
  C  C840  1  0.704600  0.945600  0.616900  1.0  -0.12
  C  C841  1  0.711100  0.983200  0.588100  1.0  -0.1356
  C  C842  1  0.731000  0.038500  0.591700  1.0  0.0182
  C  C843  1  0.744400  0.056400  0.624000  1.0  0.2081
  C  C844  1  0.737800  0.018800  0.652800  1.0  0.0054
  C  C845  1  0.717900  0.963400  0.649200  1.0  -0.1294
  C  C846  1  0.809600  0.288900  0.629600  1.0  -0.0727
  C  C847  1  0.794300  0.230100  0.630600  1.0  -0.0729
  C  C848  1  0.760300  0.227500  0.634000  1.0  0.0283
  C  C849  1  0.740900  0.281200  0.640000  1.0  0.1062
  C  C850  1  0.789800  0.344100  0.633900  1.0  0.1355
  C  C851  1  0.737800  0.162500  0.634900  1.0  -0.0623
  C  C852  1  0.753600  0.035600  0.688500  1.0  -0.309
  C  C853  1  0.828500  0.921000  0.705000  1.0  -0.1373
  C  C854  1  0.795400  0.947400  0.701400  1.0  -0.0911
  C  C855  1  0.791500  0.012500  0.694500  1.0  -0.0322
  C  C856  1  0.820600  0.051200  0.691300  1.0  0.1782
  C  C857  1  0.853600  0.024900  0.695000  1.0  0.0483
  C  C858  1  0.857500  0.959800  0.701800  1.0  -0.1248
  C  C859  1  0.823200  0.154400  0.716400  1.0  -0.0413
  C  C860  1  0.792000  0.154500  0.739800  1.0  0.0732
  C  C861  1  0.761200  0.179900  0.731000  1.0  -0.1061
  C  C862  1  0.730600  0.170800  0.748900  1.0  -0.1456
  C  C863  1  0.736500  0.136700  0.782600  1.0  0.132
  C  C864  1  0.796100  0.117900  0.772100  1.0  0.1069
  C  C865  1  0.885300  0.061500  0.685400  1.0  -0.3625
  C  C866  1  0.919400  0.970600  0.606700  1.0  -0.1225
  C  C867  1  0.914500  0.989100  0.640700  1.0  -0.1038
  C  C868  1  0.896000  0.044700  0.647800  1.0  0.0292
  C  C869  1  0.882500  0.081800  0.620700  1.0  0.1952
  C  C870  1  0.887400  0.063400  0.586700  1.0  -0.0241
  C  C871  1  0.905800  0.007800  0.579700  1.0  -0.1345
  C  C872  1  0.896100  0.191800  0.635400  1.0  -0.0395
  C  C873  1  0.914800  0.206300  0.605800  1.0  0.1009
  C  C874  1  0.943600  0.172200  0.595700  1.0  -0.0948
  C  C875  1  0.958700  0.187300  0.562400  1.0  -0.1587
  C  C876  1  0.946000  0.239900  0.545000  1.0  0.1452
  C  C877  1  0.906500  0.260700  0.584900  1.0  0.1034
  C  C878  1  0.869300  0.098400  0.553900  1.0  -0.3113
  C  C879  1  0.870200  0.842600  0.547600  1.0  -0.1197
  C  C880  1  0.901600  0.820100  0.535700  1.0  -0.103
  C  C881  1  0.902700  0.763700  0.516700  1.0  0.0147
  C  C882  1  0.872300  0.729700  0.509500  1.0  0.1647
  C  C883  1  0.840800  0.752200  0.521400  1.0  -0.0009
  C  C884  1  0.839800  0.808600  0.540500  1.0  -0.0856
  C  C885  1  0.879200  0.617600  0.512400  1.0  -0.0891
  C  C886  1  0.880500  0.561600  0.492400  1.0  0.2666
  C  C887  1  0.876700  0.555700  0.457900  1.0  -0.1005
  C  C888  1  0.878400  0.499100  0.440300  1.0  -0.1903
  C  C889  1  0.884200  0.443600  0.461500  1.0  0.1342
  C  C890  1  0.886000  0.504200  0.510000  1.0  0.0795
  C  C891  1  0.806400  0.715800  0.510100  1.0  -0.2623
  C  C892  1  0.769400  0.827100  0.438600  1.0  -0.137
  C  C893  1  0.779200  0.803400  0.471000  1.0  -0.1333
  C  C894  1  0.793500  0.742400  0.474100  1.0  -0.004
  C  C895  1  0.798100  0.705100  0.444800  1.0  0.1417
  C  C896  1  0.788300  0.728800  0.412400  1.0  -0.0052
  C  C897  1  0.774000  0.789800  0.409300  1.0  -0.0915
  C  C898  1  0.775300  0.600700  0.454500  1.0  0.0336
  C  C899  1  0.781600  0.535000  0.443400  1.0  0.0503
  C  C900  1  0.793000  0.484100  0.466900  1.0  -0.1196
  C  C901  1  0.797500  0.422400  0.455700  1.0  -0.0785
  C  C902  1  0.791600  0.405900  0.421800  1.0  0.1358
  C  C903  1  0.776800  0.517600  0.407800  1.0  0.0905
  C  C904  1  0.799000  0.693300  0.377500  1.0  -0.2926
  C  C905  1  0.853200  0.826600  0.333600  1.0  -0.1321
  C  C906  1  0.824700  0.790600  0.343400  1.0  -0.1205
  C  C907  1  0.829700  0.732700  0.360700  1.0  0.0358
  C  C908  1  0.863200  0.710900  0.368200  1.0  0.1996
  C  C909  1  0.891700  0.746900  0.358400  1.0  0.0057
  C  C910  1  0.886600  0.804700  0.341000  1.0  -0.1418
  C  C911  1  0.880000  0.601000  0.357500  1.0  -0.0568
  C  C912  1  0.852200  0.583000  0.337300  1.0  0.0383
  C  C913  1  0.837100  0.617700  0.304800  1.0  -0.137
  C  C914  1  0.806700  0.593000  0.290200  1.0  -0.1558
  C  C915  1  0.790300  0.543300  0.300600  1.0  0.106
  C  C916  1  0.831700  0.523800  0.344100  1.0  0.1298
  C  C917  1  0.930300  0.730700  0.369000  1.0  -0.2996
  C  C918  1  0.956000  0.862400  0.431700  1.0  -0.1323
  C  C919  1  0.950600  0.826800  0.401600  1.0  -0.1417
  C  C920  1  0.941900  0.762200  0.403700  1.0  0.0044
  C  C921  1  0.938600  0.733200  0.435800  1.0  0.1971
  C  C922  1  0.944000  0.768800  0.465800  1.0  -0.0091
  C  C923  1  0.952700  0.833400  0.463800  1.0  -0.1228
  C  C924  1  0.957600  0.626400  0.428600  1.0  -0.0677
  C  C925  1  0.996900  0.575900  0.516300  1.0  0.0386
  C  C926  1  0.973600  0.583400  0.488800  1.0  -0.0686
  C  C927  1  0.983400  0.609600  0.457400  1.0  0.0179
  C  C928  1  0.017800  0.622700  0.456200  1.0  0.1146
  C  C929  1  0.031600  0.591500  0.513200  1.0  0.157
  C  C930  1  0.936900  0.740300  0.501800  1.0  -0.2857
  C  C931  1  0.848300  0.352000  0.354500  1.0  0.3577
  C  C932  1  0.883700  0.322500  0.362400  1.0  -0.3966
  C  C933  1  0.191300  0.470500  0.977800  1.0  -0.128
  C  C934  1  0.161300  0.506600  0.972700  1.0  -0.1431
  C  C935  1  0.163100  0.566900  0.957500  1.0  0.0343
  C  C936  1  0.194900  0.591100  0.947500  1.0  0.1744
  C  C937  1  0.224900  0.555000  0.952700  1.0  0.037
  C  C938  1  0.223100  0.494700  0.967800  1.0  -0.1494
  C  C939  1  0.208200  0.692400  0.970500  1.0  -0.0547
  C  C940  1  0.195600  0.763900  0.963900  1.0  0.0213
  C  C941  1  0.218000  0.814000  0.956000  1.0  -0.1025
  C  C942  1  0.205000  0.873200  0.950500  1.0  -0.1374
  C  C943  1  0.169500  0.883100  0.954800  1.0  0.147
  C  C944  1  0.161400  0.775900  0.970900  1.0  0.1161
  C  C945  1  0.259900  0.576000  0.940700  1.0  -0.2532
  C  C946  1  0.295400  0.445600  0.883100  1.0  -0.1189
  C  C947  1  0.288900  0.483200  0.911900  1.0  -0.1331
  C  C948  1  0.269000  0.538500  0.908300  1.0  0.0159
  C  C949  1  0.255600  0.556400  0.876000  1.0  0.2076
  C  C950  1  0.262200  0.518800  0.847200  1.0  0.005
  C  C951  1  0.282100  0.463400  0.850800  1.0  -0.1276
  C  C952  1  0.190400  0.788900  0.870400  1.0  -0.0787
  C  C953  1  0.205700  0.730100  0.869400  1.0  -0.0739
  C  C954  1  0.239700  0.727500  0.866000  1.0  0.0312
  C  C955  1  0.259100  0.781200  0.860000  1.0  0.1039
  C  C956  1  0.210200  0.844100  0.866100  1.0  0.1344
  C  C957  1  0.262200  0.662500  0.865100  1.0  -0.0623
  C  C958  1  0.246400  0.535600  0.811500  1.0  -0.309
  C  C959  1  0.171500  0.421000  0.795000  1.0  -0.1378
  C  C960  1  0.204600  0.447400  0.798600  1.0  -0.0806
  C  C961  1  0.208500  0.512500  0.805500  1.0  -0.0334
  C  C962  1  0.179400  0.551200  0.808700  1.0  0.1772
  C  C963  1  0.146400  0.524900  0.805000  1.0  0.0475
  C  C964  1  0.142500  0.459800  0.798200  1.0  -0.1211
  C  C965  1  0.176800  0.654400  0.783600  1.0  -0.041
  C  C966  1  0.208000  0.654500  0.760200  1.0  0.0732
  C  C967  1  0.238800  0.679900  0.769000  1.0  -0.1038
  C  C968  1  0.269400  0.670800  0.751100  1.0  -0.1465
  C  C969  1  0.263500  0.636700  0.717400  1.0  0.1324
  C  C970  1  0.203900  0.617900  0.727900  1.0  0.1062
  C  C971  1  0.114700  0.561500  0.814600  1.0  -0.3656
  C  C972  1  0.080600  0.470600  0.893300  1.0  -0.1216
  C  C973  1  0.085500  0.489100  0.859300  1.0  -0.1047
  C  C974  1  0.104000  0.544700  0.852200  1.0  0.0299
  C  C975  1  0.117500  0.581800  0.879300  1.0  0.1967
  C  C976  1  0.112600  0.563400  0.913300  1.0  -0.0231
  C  C977  1  0.094200  0.507800  0.920300  1.0  -0.1332
  C  C978  1  0.103900  0.691800  0.864600  1.0  -0.0366
  C  C979  1  0.085200  0.706300  0.894200  1.0  0.1008
  C  C980  1  0.056400  0.672200  0.904300  1.0  -0.0949
  C  C981  1  0.041300  0.687300  0.937600  1.0  -0.1623
  C  C982  1  0.054000  0.739900  0.955000  1.0  0.1443
  C  C983  1  0.093500  0.760700  0.915100  1.0  0.1016
  C  C984  1  0.130700  0.598400  0.946100  1.0  -0.3161
  C  C985  1  0.129800  0.342600  0.952400  1.0  -0.1196
  C  C986  1  0.098400  0.320100  0.964300  1.0  -0.1052
  C  C987  1  0.097300  0.263700  0.983300  1.0  0.0119
  C  C988  1  0.127700  0.229700  0.990500  1.0  0.1648
  C  C989  1  0.159200  0.252200  0.978600  1.0  -0.0041
  C  C990  1  0.160200  0.308600  0.959500  1.0  -0.0852
  C  C991  1  0.120800  0.117600  0.987600  1.0  -0.0857
  C  C992  1  0.119500  0.061600  0.007600  1.0  0.2673
  C  C993  1  0.123300  0.055700  0.042100  1.0  -0.0999
  C  C994  1  0.121600  0.999100  0.059700  1.0  -0.1914
  C  C995  1  0.115800  0.943600  0.038500  1.0  0.1347
  C  C996  1  0.114000  0.004200  0.990000  1.0  0.0781
  C  C997  1  0.193600  0.215800  0.989900  1.0  -0.2598
  C  C998  1  0.230600  0.327100  0.061400  1.0  -0.1355
  C  C999  1  0.220800  0.303400  0.029000  1.0  -0.1301
  C  C1000  1  0.206500  0.242400  0.025900  1.0  -0.004
  C  C1001  1  0.201900  0.205100  0.055200  1.0  0.1422
  C  C1002  1  0.211700  0.228800  0.087600  1.0  -0.0049
  C  C1003  1  0.226000  0.289800  0.090700  1.0  -0.0924
  C  C1004  1  0.224700  0.100700  0.045500  1.0  0.0324
  C  C1005  1  0.218400  0.035000  0.056600  1.0  0.0502
  C  C1006  1  0.207000  0.984100  0.033100  1.0  -0.128
  C  C1007  1  0.202500  0.922400  0.044300  1.0  -0.0869
  C  C1008  1  0.208400  0.905900  0.078200  1.0  0.1357
  C  C1009  1  0.223200  0.017600  0.092200  1.0  0.0906
  C  C1010  1  0.201000  0.193300  0.122500  1.0  -0.2905
  C  C1011  1  0.146800  0.326600  0.166400  1.0  -0.1343
  C  C1012  1  0.175300  0.290600  0.156600  1.0  -0.1234
  C  C1013  1  0.170300  0.232700  0.139300  1.0  0.0318
  C  C1014  1  0.136800  0.210900  0.131800  1.0  0.1995
  C  C1015  1  0.108300  0.246900  0.141600  1.0  0.0032
  C  C1016  1  0.113400  0.304700  0.159000  1.0  -0.1415
  C  C1017  1  0.120000  0.101000  0.142500  1.0  -0.0575
  C  C1018  1  0.147800  0.083000  0.162700  1.0  0.0397
  C  C1019  1  0.162900  0.117700  0.195200  1.0  -0.1379
  C  C1020  1  0.193300  0.093000  0.209800  1.0  -0.154
  C  C1021  1  0.209700  0.043300  0.199400  1.0  0.1057
  C  C1022  1  0.168300  0.023800  0.155900  1.0  0.1309
  C  C1023  1  0.069700  0.230700  0.131000  1.0  -0.2998
  C  C1024  1  0.044000  0.362400  0.068300  1.0  -0.134
  C  C1025  1  0.049400  0.326800  0.098400  1.0  -0.1326
  C  C1026  1  0.058100  0.262200  0.096300  1.0  0.0024
  C  C1027  1  0.061400  0.233200  0.064200  1.0  0.1964
  C  C1028  1  0.056000  0.268800  0.034200  1.0  -0.0094
  C  C1029  1  0.047300  0.333400  0.036200  1.0  -0.127
  C  C1030  1  0.042400  0.126400  0.071400  1.0  -0.069
  C  C1031  1  0.003100  0.075900  0.983700  1.0  0.0405
  C  C1032  1  0.026400  0.083400  0.011200  1.0  -0.0709
  C  C1033  1  0.016600  0.109600  0.042600  1.0  0.016
  C  C1034  1  0.982200  0.122700  0.043800  1.0  0.1167
  C  C1035  1  0.968400  0.091500  0.986800  1.0  0.156
  C  C1036  1  0.063100  0.240300  0.998200  1.0  -0.2865
  C  C1037  1  0.151700  0.852000  0.145500  1.0  0.3583
  C  C1038  1  0.116300  0.822500  0.137600  1.0  -0.3936
  C  C1039  1  0.691300  0.970500  0.477800  1.0  -0.13
  C  C1040  1  0.661300  0.006600  0.472700  1.0  -0.1431
  C  C1041  1  0.663100  0.066900  0.457500  1.0  0.0343
  C  C1042  1  0.694900  0.091100  0.447500  1.0  0.1744
  C  C1043  1  0.724900  0.055000  0.452700  1.0  0.037
  C  C1044  1  0.723100  0.994700  0.467800  1.0  -0.1494
  C  C1045  1  0.708200  0.192400  0.470500  1.0  -0.0547
  C  C1046  1  0.695600  0.263900  0.463900  1.0  0.0213
  C  C1047  1  0.718000  0.314000  0.456000  1.0  -0.1025
  C  C1048  1  0.705000  0.373200  0.450500  1.0  -0.1374
  C  C1049  1  0.669500  0.383100  0.454800  1.0  0.147
  C  C1050  1  0.661400  0.275900  0.470900  1.0  0.1161
  C  C1051  1  0.759900  0.076000  0.440700  1.0  -0.2532
  C  C1052  1  0.795400  0.945600  0.383100  1.0  -0.1194
  C  C1053  1  0.788900  0.983200  0.411900  1.0  -0.1331
  C  C1054  1  0.769000  0.038500  0.408300  1.0  0.0159
  C  C1055  1  0.755600  0.056400  0.376000  1.0  0.2076
  C  C1056  1  0.762200  0.018800  0.347200  1.0  0.005
  C  C1057  1  0.782100  0.963400  0.350800  1.0  -0.1276
  C  C1058  1  0.690400  0.288900  0.370400  1.0  -0.0787
  C  C1059  1  0.705700  0.230100  0.369400  1.0  -0.0739
  C  C1060  1  0.739700  0.227500  0.366000  1.0  0.0312
  C  C1061  1  0.759100  0.281200  0.360000  1.0  0.1039
  C  C1062  1  0.710200  0.344100  0.366100  1.0  0.1344
  C  C1063  1  0.762200  0.162500  0.365100  1.0  -0.0623
  C  C1064  1  0.746400  0.035600  0.311500  1.0  -0.309
  C  C1065  1  0.671500  0.921000  0.295000  1.0  -0.1378
  C  C1066  1  0.704600  0.947400  0.298600  1.0  -0.0823
  C  C1067  1  0.708500  0.012500  0.305500  1.0  -0.0334
  C  C1068  1  0.679400  0.051200  0.308700  1.0  0.1768
  C  C1069  1  0.646400  0.024900  0.305000  1.0  0.0475
  C  C1070  1  0.642500  0.959800  0.298200  1.0  -0.1211
  C  C1071  1  0.676800  0.154400  0.283600  1.0  -0.041
  C  C1072  1  0.708000  0.154500  0.260200  1.0  0.0732
  C  C1073  1  0.738800  0.179900  0.269000  1.0  -0.1038
  C  C1074  1  0.769400  0.170800  0.251100  1.0  -0.1465
  C  C1075  1  0.763500  0.136700  0.217400  1.0  0.1324
  C  C1076  1  0.703900  0.117900  0.227900  1.0  0.1062
  C  C1077  1  0.614700  0.061500  0.314600  1.0  -0.3656
  C  C1078  1  0.580600  0.970600  0.393300  1.0  -0.1216
  C  C1079  1  0.585500  0.989100  0.359300  1.0  -0.1047
  C  C1080  1  0.604000  0.044700  0.352200  1.0  0.0299
  C  C1081  1  0.617500  0.081800  0.379300  1.0  0.1967
  C  C1082  1  0.612600  0.063400  0.413300  1.0  -0.0231
  C  C1083  1  0.594200  0.007800  0.420300  1.0  -0.1332
  C  C1084  1  0.603900  0.191800  0.364600  1.0  -0.0366
  C  C1085  1  0.585200  0.206300  0.394200  1.0  0.1008
  C  C1086  1  0.556400  0.172200  0.404300  1.0  -0.0949
  C  C1087  1  0.541300  0.187300  0.437600  1.0  -0.1623
  C  C1088  1  0.554000  0.239900  0.455000  1.0  0.1443
  C  C1089  1  0.593500  0.260700  0.415100  1.0  0.1016
  C  C1090  1  0.630700  0.098400  0.446100  1.0  -0.3161
  C  C1091  1  0.629800  0.842600  0.452400  1.0  -0.1196
  C  C1092  1  0.598400  0.820100  0.464300  1.0  -0.1052
  C  C1093  1  0.597300  0.763700  0.483300  1.0  0.0119
  C  C1094  1  0.627700  0.729700  0.490500  1.0  0.1648
  C  C1095  1  0.659200  0.752200  0.478600  1.0  -0.0041
  C  C1096  1  0.660200  0.808600  0.459500  1.0  -0.0852
  C  C1097  1  0.620800  0.617600  0.487600  1.0  -0.0843
  C  C1098  1  0.619500  0.561600  0.507600  1.0  0.2673
  C  C1099  1  0.623300  0.555700  0.542100  1.0  -0.0999
  C  C1100  1  0.621600  0.499100  0.559700  1.0  -0.1914
  C  C1101  1  0.615800  0.443600  0.538500  1.0  0.1347
  C  C1102  1  0.614000  0.504200  0.490000  1.0  0.0781
  C  C1103  1  0.693600  0.715800  0.489900  1.0  -0.2598
  C  C1104  1  0.730600  0.827100  0.561400  1.0  -0.1355
  C  C1105  1  0.720800  0.803400  0.529000  1.0  -0.1301
  C  C1106  1  0.706500  0.742400  0.525900  1.0  -0.004
  C  C1107  1  0.701900  0.705100  0.555200  1.0  0.1422
  C  C1108  1  0.711700  0.728800  0.587600  1.0  -0.0049
  C  C1109  1  0.726000  0.789800  0.590700  1.0  -0.0924
  C  C1110  1  0.724700  0.600700  0.545500  1.0  0.0324
  C  C1111  1  0.718400  0.535000  0.556600  1.0  0.0502
  C  C1112  1  0.707000  0.484100  0.533100  1.0  -0.128
  C  C1113  1  0.702500  0.422400  0.544300  1.0  -0.0875
  C  C1114  1  0.708400  0.405900  0.578200  1.0  0.1357
  C  C1115  1  0.723200  0.517600  0.592200  1.0  0.0906
  C  C1116  1  0.701000  0.693300  0.622500  1.0  -0.2905
  C  C1117  1  0.646800  0.826600  0.666400  1.0  -0.1343
  C  C1118  1  0.675300  0.790600  0.656600  1.0  -0.1234
  C  C1119  1  0.670300  0.732700  0.639300  1.0  0.0318
  C  C1120  1  0.636800  0.710900  0.631800  1.0  0.1995
  C  C1121  1  0.608300  0.746900  0.641600  1.0  0.0032
  C  C1122  1  0.613400  0.804700  0.659000  1.0  -0.1415
  C  C1123  1  0.620000  0.601000  0.642500  1.0  -0.0575
  C  C1124  1  0.647800  0.583000  0.662700  1.0  0.0397
  C  C1125  1  0.662900  0.617700  0.695200  1.0  -0.1379
  C  C1126  1  0.693300  0.593000  0.709800  1.0  -0.154
  C  C1127  1  0.709700  0.543300  0.699400  1.0  0.1057
  C  C1128  1  0.668300  0.523800  0.655900  1.0  0.1309
  C  C1129  1  0.569700  0.730700  0.631000  1.0  -0.2998
  C  C1130  1  0.544000  0.862400  0.568300  1.0  -0.134
  C  C1131  1  0.549400  0.826800  0.598400  1.0  -0.1326
  C  C1132  1  0.558100  0.762200  0.596300  1.0  0.0024
  C  C1133  1  0.561400  0.733200  0.564200  1.0  0.1964
  C  C1134  1  0.556000  0.768800  0.534200  1.0  -0.0094
  C  C1135  1  0.547300  0.833400  0.536200  1.0  -0.1273
  C  C1136  1  0.542400  0.626400  0.571400  1.0  -0.0713
  C  C1137  1  0.503100  0.575900  0.483700  1.0  0.0405
  C  C1138  1  0.526400  0.583400  0.511200  1.0  -0.0709
  C  C1139  1  0.516600  0.609600  0.542600  1.0  0.016
  C  C1140  1  0.482200  0.622700  0.543800  1.0  0.1167
  C  C1141  1  0.468400  0.591500  0.486800  1.0  0.156
  C  C1142  1  0.563100  0.740300  0.498200  1.0  -0.2865
  C  C1143  1  0.651700  0.352000  0.645500  1.0  0.3583
  C  C1144  1  0.616300  0.322500  0.637600  1.0  -0.3936
  C  C1145  1  0.691300  0.529500  0.977800  1.0  -0.1274
  C  C1146  1  0.661300  0.493400  0.972700  1.0  -0.1503
  C  C1147  1  0.663100  0.433100  0.957500  1.0  0.0345
  C  C1148  1  0.694900  0.408900  0.947500  1.0  0.1755
  C  C1149  1  0.724900  0.445000  0.952700  1.0  0.0368
  C  C1150  1  0.723100  0.505300  0.967800  1.0  -0.149
  C  C1151  1  0.708200  0.307600  0.970500  1.0  -0.0539
  C  C1152  1  0.695600  0.236100  0.963900  1.0  0.021
  C  C1153  1  0.718000  0.186000  0.956000  1.0  -0.1046
  C  C1154  1  0.705000  0.126800  0.950500  1.0  -0.1387
  C  C1155  1  0.669500  0.116900  0.954800  1.0  0.147
  C  C1156  1  0.661400  0.224100  0.970900  1.0  0.1159
  C  C1157  1  0.759900  0.424000  0.940700  1.0  -0.2526
  C  C1158  1  0.795400  0.554400  0.883100  1.0  -0.1187
  C  C1159  1  0.788900  0.516800  0.911900  1.0  -0.137
  C  C1160  1  0.769000  0.461500  0.908300  1.0  0.0154
  C  C1161  1  0.755600  0.443600  0.876000  1.0  0.2083
  C  C1162  1  0.762200  0.481200  0.847200  1.0  0.0056
  C  C1163  1  0.782100  0.536600  0.850800  1.0  -0.1273
  C  C1164  1  0.690400  0.211100  0.870400  1.0  -0.0731
  C  C1165  1  0.705700  0.269900  0.869400  1.0  -0.0733
  C  C1166  1  0.739700  0.272500  0.866000  1.0  0.031
  C  C1167  1  0.759100  0.218800  0.860000  1.0  0.1039
  C  C1168  1  0.710200  0.155900  0.866100  1.0  0.1339
  C  C1169  1  0.762200  0.337500  0.865100  1.0  -0.0625
  C  C1170  1  0.746400  0.464400  0.811500  1.0  -0.3076
  C  C1171  1  0.671500  0.579000  0.795000  1.0  -0.137
  C  C1172  1  0.704600  0.552600  0.798600  1.0  -0.0809
  C  C1173  1  0.708500  0.487500  0.805500  1.0  -0.0335
  C  C1174  1  0.679400  0.448800  0.808700  1.0  0.1791
  C  C1175  1  0.646400  0.475100  0.805000  1.0  0.0474
  C  C1176  1  0.642500  0.540200  0.798200  1.0  -0.1231
  C  C1177  1  0.676800  0.345600  0.783600  1.0  -0.0411
  C  C1178  1  0.708000  0.345500  0.760200  1.0  0.073
  C  C1179  1  0.738800  0.320100  0.769000  1.0  -0.1045
  C  C1180  1  0.769400  0.329200  0.751100  1.0  -0.1466
  C  C1181  1  0.763500  0.363300  0.717400  1.0  0.1327
  C  C1182  1  0.703900  0.382100  0.727900  1.0  0.106
  C  C1183  1  0.614700  0.438500  0.814600  1.0  -0.3647
  C  C1184  1  0.580600  0.529400  0.893300  1.0  -0.1211
  C  C1185  1  0.585500  0.510900  0.859300  1.0  -0.1053
  C  C1186  1  0.604000  0.455300  0.852200  1.0  0.0293
  C  C1187  1  0.617500  0.418200  0.879300  1.0  0.1958
  C  C1188  1  0.612600  0.436600  0.913300  1.0  -0.0229
  C  C1189  1  0.594200  0.492200  0.920300  1.0  -0.1321
  C  C1190  1  0.603900  0.308200  0.864600  1.0  -0.0375
  C  C1191  1  0.585200  0.293700  0.894200  1.0  0.1
  C  C1192  1  0.556400  0.327800  0.904300  1.0  -0.0964
  C  C1193  1  0.541300  0.312700  0.937600  1.0  -0.1623
  C  C1194  1  0.554000  0.260100  0.955000  1.0  0.1446
  C  C1195  1  0.593500  0.239300  0.915100  1.0  0.1019
  C  C1196  1  0.630700  0.401600  0.946100  1.0  -0.3188
  C  C1197  1  0.629800  0.657400  0.952400  1.0  -0.1195
  C  C1198  1  0.598400  0.679900  0.964300  1.0  -0.1047
  C  C1199  1  0.597300  0.736300  0.983300  1.0  0.0123
  C  C1200  1  0.627700  0.770300  0.990500  1.0  0.1645
  C  C1201  1  0.659200  0.747800  0.978600  1.0  -0.0037
  C  C1202  1  0.660200  0.691400  0.959500  1.0  -0.0856
  C  C1203  1  0.620800  0.882400  0.987600  1.0  -0.086
  C  C1204  1  0.619500  0.938400  0.007600  1.0  0.2664
  C  C1205  1  0.623300  0.944300  0.042100  1.0  -0.1008
  C  C1206  1  0.621600  0.000900  0.059700  1.0  -0.1909
  C  C1207  1  0.615800  0.056400  0.038500  1.0  0.1364
  C  C1208  1  0.614000  0.995800  0.990000  1.0  0.0782
  C  C1209  1  0.693600  0.784200  0.989900  1.0  -0.2605
  C  C1210  1  0.730600  0.672900  0.061400  1.0  -0.135
  C  C1211  1  0.720800  0.696600  0.029000  1.0  -0.1327
  C  C1212  1  0.706500  0.757600  0.025900  1.0  -0.0037
  C  C1213  1  0.701900  0.794900  0.055200  1.0  0.1426
  C  C1214  1  0.711700  0.771200  0.087600  1.0  -0.0047
  C  C1215  1  0.726000  0.710200  0.090700  1.0  -0.0926
  C  C1216  1  0.724700  0.899300  0.045500  1.0  0.0326
  C  C1217  1  0.718400  0.965000  0.056600  1.0  0.0503
  C  C1218  1  0.707000  0.015900  0.033100  1.0  -0.1279
  C  C1219  1  0.702500  0.077600  0.044300  1.0  -0.0819
  C  C1220  1  0.708400  0.094100  0.078200  1.0  0.1347
  C  C1221  1  0.723200  0.982400  0.092200  1.0  0.0901
  C  C1222  1  0.701000  0.806700  0.122500  1.0  -0.2902
  C  C1223  1  0.646800  0.673400  0.166400  1.0  -0.1349
  C  C1224  1  0.675300  0.709400  0.156600  1.0  -0.1235
  C  C1225  1  0.670300  0.767300  0.139300  1.0  0.0337
  C  C1226  1  0.636800  0.789100  0.131800  1.0  0.1994
  C  C1227  1  0.608300  0.753100  0.141600  1.0  0.003
  C  C1228  1  0.613400  0.695300  0.159000  1.0  -0.1403
  C  C1229  1  0.620000  0.899000  0.142500  1.0  -0.0578
  C  C1230  1  0.647800  0.917000  0.162700  1.0  0.0396
  C  C1231  1  0.662900  0.882300  0.195200  1.0  -0.1374
  C  C1232  1  0.693300  0.907000  0.209800  1.0  -0.1545
  C  C1233  1  0.709700  0.956700  0.199400  1.0  0.1074
  C  C1234  1  0.668300  0.976200  0.155900  1.0  0.1293
  C  C1235  1  0.569700  0.769300  0.131000  1.0  -0.2996
  C  C1236  1  0.544000  0.637600  0.068300  1.0  -0.1366
  C  C1237  1  0.549400  0.673200  0.098400  1.0  -0.1306
  C  C1238  1  0.558100  0.737800  0.096300  1.0  0.0007
  C  C1239  1  0.561400  0.766800  0.064200  1.0  0.1964
  C  C1240  1  0.556000  0.731200  0.034200  1.0  -0.0104
  C  C1241  1  0.547300  0.666667  0.036200  1.0  -0.1274
  C  C1242  1  0.542400  0.873600  0.071400  1.0  -0.0728
  C  C1243  1  0.503100  0.924100  0.983700  1.0  0.0412
  C  C1244  1  0.526400  0.916600  0.011200  1.0  -0.0705
  C  C1245  1  0.516600  0.890400  0.042600  1.0  0.0172
  C  C1246  1  0.482200  0.877300  0.043800  1.0  0.1179
  C  C1247  1  0.468400  0.908500  0.986800  1.0  0.1566
  C  C1248  1  0.563100  0.759700  0.998200  1.0  -0.2847
  C  C1249  1  0.651700  0.148000  0.145500  1.0  0.3593
  C  C1250  1  0.616300  0.177500  0.137600  1.0  -0.3941
  C  C1251  1  0.191300  0.029500  0.477800  1.0  -0.1274
  C  C1252  1  0.161300  0.993400  0.472700  1.0  -0.1503
  C  C1253  1  0.163100  0.933100  0.457500  1.0  0.0345
  C  C1254  1  0.194900  0.908900  0.447500  1.0  0.1755
  C  C1255  1  0.224900  0.945000  0.452700  1.0  0.0368
  C  C1256  1  0.223100  0.005300  0.467800  1.0  -0.149
  C  C1257  1  0.208200  0.807600  0.470500  1.0  -0.0539
  C  C1258  1  0.195600  0.736100  0.463900  1.0  0.021
  C  C1259  1  0.218000  0.686000  0.456000  1.0  -0.1046
  C  C1260  1  0.205000  0.626800  0.450500  1.0  -0.1387
  C  C1261  1  0.169500  0.616900  0.454800  1.0  0.147
  C  C1262  1  0.161400  0.724100  0.470900  1.0  0.1159
  C  C1263  1  0.259900  0.924000  0.440700  1.0  -0.2526
  C  C1264  1  0.295400  0.054400  0.383100  1.0  -0.1187
  C  C1265  1  0.288900  0.016800  0.411900  1.0  -0.137
  C  C1266  1  0.269000  0.961500  0.408300  1.0  0.0154
  C  C1267  1  0.255600  0.943600  0.376000  1.0  0.2083
  C  C1268  1  0.262200  0.981200  0.347200  1.0  0.0056
  C  C1269  1  0.282100  0.036600  0.350800  1.0  -0.1273
  C  C1270  1  0.190400  0.711100  0.370400  1.0  -0.0731
  C  C1271  1  0.205700  0.769900  0.369400  1.0  -0.0733
  C  C1272  1  0.239700  0.772500  0.366000  1.0  0.031
  C  C1273  1  0.259100  0.718800  0.360000  1.0  0.1039
  C  C1274  1  0.210200  0.655900  0.366100  1.0  0.1339
  C  C1275  1  0.262200  0.837500  0.365100  1.0  -0.0625
  C  C1276  1  0.246400  0.964400  0.311500  1.0  -0.3076
  C  C1277  1  0.171500  0.079000  0.295000  1.0  -0.1374
  C  C1278  1  0.204600  0.052600  0.298600  1.0  -0.0809
  C  C1279  1  0.208500  0.987500  0.305500  1.0  -0.0335
  C  C1280  1  0.179400  0.948800  0.308700  1.0  0.1795
  C  C1281  1  0.146400  0.975100  0.305000  1.0  0.0474
  C  C1282  1  0.142500  0.040200  0.298200  1.0  -0.1231
  C  C1283  1  0.176800  0.845600  0.283600  1.0  -0.0411
  C  C1284  1  0.208000  0.845500  0.260200  1.0  0.073
  C  C1285  1  0.238800  0.820100  0.269000  1.0  -0.1045
  C  C1286  1  0.269400  0.829200  0.251100  1.0  -0.1466
  C  C1287  1  0.263500  0.863300  0.217400  1.0  0.1327
  C  C1288  1  0.203900  0.882100  0.227900  1.0  0.106
  C  C1289  1  0.114700  0.938500  0.314600  1.0  -0.3647
  C  C1290  1  0.080600  0.029400  0.393300  1.0  -0.1205
  C  C1291  1  0.085500  0.010900  0.359300  1.0  -0.1053
  C  C1292  1  0.104000  0.955300  0.352200  1.0  0.0293
  C  C1293  1  0.117500  0.918200  0.379300  1.0  0.1958
  C  C1294  1  0.112600  0.936600  0.413300  1.0  -0.0229
  C  C1295  1  0.094200  0.992200  0.420300  1.0  -0.1321
  C  C1296  1  0.103900  0.808200  0.364600  1.0  -0.0375
  C  C1297  1  0.085200  0.793700  0.394200  1.0  0.1
  C  C1298  1  0.056400  0.827800  0.404300  1.0  -0.0964
  C  C1299  1  0.041300  0.812700  0.437600  1.0  -0.1623
  C  C1300  1  0.054000  0.760100  0.455000  1.0  0.1446
  C  C1301  1  0.093500  0.739300  0.415100  1.0  0.1019
  C  C1302  1  0.130700  0.901600  0.446100  1.0  -0.3193
  C  C1303  1  0.129800  0.157400  0.452400  1.0  -0.1195
  C  C1304  1  0.098400  0.179900  0.464300  1.0  -0.1047
  C  C1305  1  0.097300  0.236300  0.483300  1.0  0.0123
  C  C1306  1  0.127700  0.270300  0.490500  1.0  0.1645
  C  C1307  1  0.159200  0.247800  0.478600  1.0  -0.0037
  C  C1308  1  0.160200  0.191400  0.459500  1.0  -0.0856
  C  C1309  1  0.120800  0.382400  0.487600  1.0  -0.0859
  C  C1310  1  0.119500  0.438400  0.507600  1.0  0.2664
  C  C1311  1  0.123300  0.444300  0.542100  1.0  -0.1008
  C  C1312  1  0.121600  0.500900  0.559700  1.0  -0.1907
  C  C1313  1  0.115800  0.556400  0.538500  1.0  0.1339
  C  C1314  1  0.114000  0.495800  0.490000  1.0  0.0782
  C  C1315  1  0.193600  0.284200  0.489900  1.0  -0.2605
  C  C1316  1  0.230600  0.172900  0.561400  1.0  -0.135
  C  C1317  1  0.220800  0.196600  0.529000  1.0  -0.1322
  C  C1318  1  0.206500  0.257600  0.525900  1.0  -0.0037
  C  C1319  1  0.201900  0.294900  0.555200  1.0  0.1426
  C  C1320  1  0.211700  0.271200  0.587600  1.0  -0.0047
  C  C1321  1  0.226000  0.210200  0.590700  1.0  -0.0926
  C  C1322  1  0.224700  0.399300  0.545500  1.0  0.0326
  C  C1323  1  0.218400  0.465000  0.556600  1.0  0.0503
  C  C1324  1  0.207000  0.515900  0.533100  1.0  -0.1279
  C  C1325  1  0.202500  0.577600  0.544300  1.0  -0.0819
  C  C1326  1  0.208400  0.594100  0.578200  1.0  0.1347
  C  C1327  1  0.223200  0.482400  0.592200  1.0  0.0901
  C  C1328  1  0.201000  0.306700  0.622500  1.0  -0.2902
  C  C1329  1  0.146800  0.173400  0.666400  1.0  -0.1349
  C  C1330  1  0.175300  0.209400  0.656600  1.0  -0.1235
  C  C1331  1  0.170300  0.267300  0.639300  1.0  0.0337
  C  C1332  1  0.136800  0.289100  0.631800  1.0  0.1994
  C  C1333  1  0.108300  0.253100  0.641600  1.0  0.003
  C  C1334  1  0.113400  0.195300  0.659000  1.0  -0.1403
  C  C1335  1  0.120000  0.399000  0.642500  1.0  -0.0578
  C  C1336  1  0.147800  0.417000  0.662700  1.0  0.0396
  C  C1337  1  0.162900  0.382300  0.695200  1.0  -0.1374
  C  C1338  1  0.193300  0.407000  0.709800  1.0  -0.1545
  C  C1339  1  0.209700  0.456700  0.699400  1.0  0.1074
  C  C1340  1  0.168300  0.476200  0.655900  1.0  0.1293
  C  C1341  1  0.069700  0.269300  0.631000  1.0  -0.2996
  C  C1342  1  0.044000  0.137600  0.568300  1.0  -0.134
  C  C1343  1  0.049400  0.173200  0.598400  1.0  -0.1306
  C  C1344  1  0.058100  0.237800  0.596300  1.0  0.0027
  C  C1345  1  0.061400  0.266800  0.564200  1.0  0.1964
  C  C1346  1  0.056000  0.231200  0.534200  1.0  -0.0094
  C  C1347  1  0.047300  0.166600  0.536200  1.0  -0.1266
  C  C1348  1  0.042400  0.373600  0.571400  1.0  -0.0728
  C  C1349  1  0.003100  0.424100  0.483700  1.0  0.0412
  C  C1350  1  0.026400  0.416600  0.511200  1.0  -0.0705
  C  C1351  1  0.016600  0.390400  0.542600  1.0  0.0172
  C  C1352  1  0.982200  0.377300  0.543800  1.0  0.1179
  C  C1353  1  0.968400  0.408500  0.486800  1.0  0.1566
  C  C1354  1  0.063100  0.259700  0.498200  1.0  -0.2847
  C  C1355  1  0.151700  0.648000  0.645500  1.0  0.3593
  C  C1356  1  0.116300  0.677500  0.637600  1.0  -0.3941
  C  C1357  1  0.808700  0.529500  0.022200  1.0  -0.1325
  C  C1358  1  0.838700  0.493400  0.027300  1.0  -0.1469
  C  C1359  1  0.836900  0.433100  0.042500  1.0  0.0352
  C  C1360  1  0.805100  0.408900  0.052500  1.0  0.1765
  C  C1361  1  0.775100  0.445000  0.047300  1.0  0.0364
  C  C1362  1  0.776900  0.505300  0.032200  1.0  -0.1483
  C  C1363  1  0.791800  0.307600  0.029500  1.0  -0.0546
  C  C1364  1  0.804400  0.236100  0.036100  1.0  0.0215
  C  C1365  1  0.782000  0.186000  0.044000  1.0  -0.1102
  C  C1366  1  0.795000  0.126800  0.049500  1.0  -0.1411
  C  C1367  1  0.830500  0.116900  0.045200  1.0  0.1475
  C  C1368  1  0.838600  0.224100  0.029100  1.0  0.1113
  C  C1369  1  0.740100  0.424000  0.059300  1.0  -0.252
  C  C1370  1  0.704600  0.554400  0.116900  1.0  -0.1205
  C  C1371  1  0.711100  0.516800  0.088100  1.0  -0.1362
  C  C1372  1  0.731000  0.461500  0.091700  1.0  0.0178
  C  C1373  1  0.744400  0.443600  0.124000  1.0  0.2086
  C  C1374  1  0.737800  0.481200  0.152800  1.0  0.0054
  C  C1375  1  0.717900  0.536600  0.149200  1.0  -0.1303
  C  C1376  1  0.809600  0.211100  0.129600  1.0  -0.0778
  C  C1377  1  0.794300  0.269900  0.130600  1.0  -0.0723
  C  C1378  1  0.760300  0.272500  0.134000  1.0  0.0268
  C  C1379  1  0.740900  0.218800  0.140000  1.0  0.1063
  C  C1380  1  0.789800  0.155900  0.133900  1.0  0.1353
  C  C1381  1  0.737800  0.337500  0.134900  1.0  -0.0626
  C  C1382  1  0.753600  0.464400  0.188500  1.0  -0.3093
  C  C1383  1  0.828500  0.579000  0.205000  1.0  -0.1365
  C  C1384  1  0.795400  0.552600  0.201400  1.0  -0.0919
  C  C1385  1  0.791500  0.487500  0.194500  1.0  -0.0327
  C  C1386  1  0.820600  0.448800  0.191300  1.0  0.1824
  C  C1387  1  0.853600  0.475100  0.195000  1.0  0.0479
  C  C1388  1  0.857500  0.540200  0.201800  1.0  -0.1229
  C  C1389  1  0.823200  0.345600  0.216400  1.0  -0.0398
  C  C1390  1  0.792000  0.345500  0.239800  1.0  0.0733
  C  C1391  1  0.761200  0.320100  0.231000  1.0  -0.1072
  C  C1392  1  0.730600  0.329200  0.248900  1.0  -0.1458
  C  C1393  1  0.736500  0.363300  0.282600  1.0  0.1319
  C  C1394  1  0.796100  0.382100  0.272100  1.0  0.1064
  C  C1395  1  0.885300  0.438500  0.185400  1.0  -0.3629
  C  C1396  1  0.919400  0.529400  0.106700  1.0  -0.1227
  C  C1397  1  0.914500  0.510900  0.140700  1.0  -0.1053
  C  C1398  1  0.896000  0.455300  0.147800  1.0  0.0292
  C  C1399  1  0.882500  0.418200  0.120700  1.0  0.1947
  C  C1400  1  0.887400  0.436600  0.086700  1.0  -0.0237
  C  C1401  1  0.905800  0.492200  0.079700  1.0  -0.1339
  C  C1402  1  0.896100  0.308200  0.135400  1.0  -0.0394
  C  C1403  1  0.914800  0.293700  0.105800  1.0  0.1013
  C  C1404  1  0.943600  0.327800  0.095700  1.0  -0.093
  C  C1405  1  0.958700  0.312700  0.062400  1.0  -0.1589
  C  C1406  1  0.946000  0.260100  0.045000  1.0  0.1451
  C  C1407  1  0.906500  0.239300  0.084900  1.0  0.1063
  C  C1408  1  0.869300  0.401600  0.053900  1.0  -0.3135
  C  C1409  1  0.870200  0.657400  0.047600  1.0  -0.1191
  C  C1410  1  0.901600  0.679900  0.035700  1.0  -0.1036
  C  C1411  1  0.902700  0.736300  0.016700  1.0  0.0144
  C  C1412  1  0.872300  0.770300  0.009500  1.0  0.1649
  C  C1413  1  0.840800  0.747800  0.021400  1.0  -0.0006
  C  C1414  1  0.839800  0.691400  0.040500  1.0  -0.0862
  C  C1415  1  0.879200  0.882400  0.012400  1.0  -0.0879
  C  C1416  1  0.880500  0.938400  0.992400  1.0  0.2662
  C  C1417  1  0.876700  0.944300  0.957900  1.0  -0.1013
  C  C1418  1  0.878400  0.000900  0.940300  1.0  -0.1897
  C  C1419  1  0.884200  0.056400  0.961500  1.0  0.1357
  C  C1420  1  0.886000  0.995800  0.010000  1.0  0.0794
  C  C1421  1  0.806400  0.784200  0.010100  1.0  -0.263
  C  C1422  1  0.769400  0.672900  0.938600  1.0  -0.1366
  C  C1423  1  0.779200  0.696600  0.971000  1.0  -0.1395
  C  C1424  1  0.793500  0.757600  0.974100  1.0  -0.0037
  C  C1425  1  0.798100  0.794900  0.944800  1.0  0.142
  C  C1426  1  0.788300  0.771200  0.912400  1.0  -0.0043
  C  C1427  1  0.774000  0.710200  0.909300  1.0  -0.0913
  C  C1428  1  0.775300  0.899300  0.954500  1.0  0.0333
  C  C1429  1  0.781600  0.965000  0.943400  1.0  0.0503
  C  C1430  1  0.793000  0.015900  0.966900  1.0  -0.1194
  C  C1431  1  0.797500  0.077600  0.955700  1.0  -0.0766
  C  C1432  1  0.791600  0.094100  0.921800  1.0  0.1353
  C  C1433  1  0.776800  0.982400  0.907800  1.0  0.0898
  C  C1434  1  0.799000  0.806700  0.877500  1.0  -0.2937
  C  C1435  1  0.853200  0.673400  0.833600  1.0  -0.1318
  C  C1436  1  0.824700  0.709400  0.843400  1.0  -0.1211
  C  C1437  1  0.829700  0.767300  0.860700  1.0  0.0363
  C  C1438  1  0.863200  0.789100  0.868200  1.0  0.1996
  C  C1439  1  0.891700  0.753100  0.858400  1.0  0.0053
  C  C1440  1  0.886600  0.695300  0.841000  1.0  -0.1428
  C  C1441  1  0.880000  0.899000  0.857500  1.0  -0.0569
  C  C1442  1  0.852200  0.917000  0.837300  1.0  0.0386
  C  C1443  1  0.837100  0.882300  0.804800  1.0  -0.137
  C  C1444  1  0.806700  0.907000  0.790200  1.0  -0.1586
  C  C1445  1  0.790300  0.956700  0.800600  1.0  0.1053
  C  C1446  1  0.831700  0.976200  0.844100  1.0  0.1264
  C  C1447  1  0.930300  0.769300  0.869000  1.0  -0.2998
  C  C1448  1  0.956000  0.637600  0.931700  1.0  -0.135
  C  C1449  1  0.950600  0.673200  0.901600  1.0  -0.1414
  C  C1450  1  0.941900  0.737800  0.903700  1.0  0.007
  C  C1451  1  0.938600  0.766800  0.935800  1.0  0.1971
  C  C1452  1  0.944000  0.731200  0.965800  1.0  -0.0103
  C  C1453  1  0.952700  0.666667  0.963800  1.0  -0.1236
  C  C1454  1  0.957600  0.873600  0.928600  1.0  -0.0694
  C  C1455  1  0.996900  0.924100  0.016300  1.0  0.0386
  C  C1456  1  0.973600  0.916600  0.988800  1.0  -0.0737
  C  C1457  1  0.983400  0.890400  0.957400  1.0  0.019
  C  C1458  1  0.017800  0.877300  0.956200  1.0  0.1182
  C  C1459  1  0.031600  0.908500  0.013200  1.0  0.1576
  C  C1460  1  0.936900  0.759700  0.001800  1.0  -0.287
  C  C1461  1  0.848300  0.148000  0.854500  1.0  0.3589
  C  C1462  1  0.883700  0.177500  0.862400  1.0  -0.3956
  C  C1463  1  0.308700  0.029500  0.522200  1.0  -0.1325
  C  C1464  1  0.338700  0.993400  0.527300  1.0  -0.1469
  C  C1465  1  0.336900  0.933100  0.542500  1.0  0.0352
  C  C1466  1  0.305100  0.908900  0.552500  1.0  0.1765
  C  C1467  1  0.275100  0.945000  0.547300  1.0  0.0364
  C  C1468  1  0.276900  0.005300  0.532200  1.0  -0.1483
  C  C1469  1  0.291800  0.807600  0.529500  1.0  -0.0546
  C  C1470  1  0.304400  0.736100  0.536100  1.0  0.0215
  C  C1471  1  0.282000  0.686000  0.544000  1.0  -0.1102
  C  C1472  1  0.295000  0.626800  0.549500  1.0  -0.1411
  C  C1473  1  0.330500  0.616900  0.545200  1.0  0.1475
  C  C1474  1  0.338600  0.724100  0.529100  1.0  0.1113
  C  C1475  1  0.240100  0.924000  0.559300  1.0  -0.252
  C  C1476  1  0.204600  0.054400  0.616900  1.0  -0.1205
  C  C1477  1  0.211100  0.016800  0.588100  1.0  -0.1362
  C  C1478  1  0.231000  0.961500  0.591700  1.0  0.0178
  C  C1479  1  0.244400  0.943600  0.624000  1.0  0.2086
  C  C1480  1  0.237800  0.981200  0.652800  1.0  0.0054
  C  C1481  1  0.217900  0.036600  0.649200  1.0  -0.1303
  C  C1482  1  0.309600  0.711100  0.629600  1.0  -0.0778
  C  C1483  1  0.294300  0.769900  0.630600  1.0  -0.0723
  C  C1484  1  0.260300  0.772500  0.634000  1.0  0.0268
  C  C1485  1  0.240900  0.718800  0.640000  1.0  0.1063
  C  C1486  1  0.289800  0.655900  0.633900  1.0  0.1353
  C  C1487  1  0.237800  0.837500  0.634900  1.0  -0.0626
  C  C1488  1  0.253600  0.964400  0.688500  1.0  -0.3093
  C  C1489  1  0.328500  0.079000  0.705000  1.0  -0.1357
  C  C1490  1  0.295400  0.052600  0.701400  1.0  -0.0919
  C  C1491  1  0.291500  0.987500  0.694500  1.0  -0.0327
  C  C1492  1  0.320600  0.948800  0.691300  1.0  0.1824
  C  C1493  1  0.353600  0.975100  0.695000  1.0  0.0479
  C  C1494  1  0.357500  0.040200  0.701800  1.0  -0.1229
  C  C1495  1  0.323200  0.845600  0.716400  1.0  -0.0398
  C  C1496  1  0.292000  0.845500  0.739800  1.0  0.0733
  C  C1497  1  0.261200  0.820100  0.731000  1.0  -0.1072
  C  C1498  1  0.230600  0.829200  0.748900  1.0  -0.1458
  C  C1499  1  0.236500  0.863300  0.782600  1.0  0.1319
  C  C1500  1  0.296100  0.882100  0.772100  1.0  0.1064
  C  C1501  1  0.385300  0.938500  0.685400  1.0  -0.3629
  C  C1502  1  0.419400  0.029400  0.606700  1.0  -0.12
  C  C1503  1  0.414500  0.010900  0.640700  1.0  -0.1053
  C  C1504  1  0.396000  0.955300  0.647800  1.0  0.0292
  C  C1505  1  0.382500  0.918200  0.620700  1.0  0.1947
  C  C1506  1  0.387400  0.936600  0.586700  1.0  -0.0237
  C  C1507  1  0.405800  0.992200  0.579700  1.0  -0.1339
  C  C1508  1  0.396100  0.808200  0.635400  1.0  -0.0394
  C  C1509  1  0.414800  0.793700  0.605800  1.0  0.1013
  C  C1510  1  0.443600  0.827800  0.595700  1.0  -0.093
  C  C1511  1  0.458700  0.812700  0.562400  1.0  -0.1589
  C  C1512  1  0.446000  0.760100  0.545000  1.0  0.1451
  C  C1513  1  0.406500  0.739300  0.584900  1.0  0.1063
  C  C1514  1  0.369300  0.901600  0.553900  1.0  -0.3139
  C  C1515  1  0.370200  0.157400  0.547600  1.0  -0.1191
  C  C1516  1  0.401600  0.179900  0.535700  1.0  -0.1036
  C  C1517  1  0.402700  0.236300  0.516700  1.0  0.0144
  C  C1518  1  0.372300  0.270300  0.509500  1.0  0.1649
  C  C1519  1  0.340800  0.247800  0.521400  1.0  -0.0006
  C  C1520  1  0.339800  0.191400  0.540500  1.0  -0.0862
  C  C1521  1  0.379200  0.382400  0.512400  1.0  -0.0891
  C  C1522  1  0.380500  0.438400  0.492400  1.0  0.2662
  C  C1523  1  0.376700  0.444300  0.457900  1.0  -0.1013
  C  C1524  1  0.378400  0.500900  0.440300  1.0  -0.1897
  C  C1525  1  0.384200  0.556400  0.461500  1.0  0.1357
  C  C1526  1  0.386000  0.495800  0.510000  1.0  0.0794
  C  C1527  1  0.306400  0.284200  0.510100  1.0  -0.263
  C  C1528  1  0.269400  0.172900  0.438600  1.0  -0.1366
  C  C1529  1  0.279200  0.196600  0.471000  1.0  -0.1339
  C  C1530  1  0.293500  0.257600  0.474100  1.0  -0.0037
  C  C1531  1  0.298100  0.294900  0.444800  1.0  0.142
  C  C1532  1  0.288300  0.271200  0.412400  1.0  -0.0043
  C  C1533  1  0.274000  0.210200  0.409300  1.0  -0.0913
  C  C1534  1  0.275300  0.399300  0.454500  1.0  0.0333
  C  C1535  1  0.281600  0.465000  0.443400  1.0  0.0503
  C  C1536  1  0.293000  0.515900  0.466900  1.0  -0.1194
  C  C1537  1  0.297500  0.577600  0.455700  1.0  -0.0766
  C  C1538  1  0.291600  0.594100  0.421800  1.0  0.1353
  C  C1539  1  0.276800  0.482400  0.407800  1.0  0.0898
  C  C1540  1  0.299000  0.306700  0.377500  1.0  -0.2937
  C  C1541  1  0.353200  0.173400  0.333600  1.0  -0.1318
  C  C1542  1  0.324700  0.209400  0.343400  1.0  -0.1211
  C  C1543  1  0.329700  0.267300  0.360700  1.0  0.0363
  C  C1544  1  0.363200  0.289100  0.368200  1.0  0.1996
  C  C1545  1  0.391700  0.253100  0.358400  1.0  0.0053
  C  C1546  1  0.386600  0.195300  0.341000  1.0  -0.1428
  C  C1547  1  0.380000  0.399000  0.357500  1.0  -0.0569
  C  C1548  1  0.352200  0.417000  0.337300  1.0  0.0386
  C  C1549  1  0.337100  0.382300  0.304800  1.0  -0.137
  C  C1550  1  0.306700  0.407000  0.290200  1.0  -0.1586
  C  C1551  1  0.290300  0.456700  0.300600  1.0  0.1053
  C  C1552  1  0.331700  0.476200  0.344100  1.0  0.1264
  C  C1553  1  0.430300  0.269300  0.369000  1.0  -0.2998
  C  C1554  1  0.456000  0.137600  0.431700  1.0  -0.132
  C  C1555  1  0.450600  0.173200  0.401600  1.0  -0.1414
  C  C1556  1  0.441900  0.237800  0.403700  1.0  0.0094
  C  C1557  1  0.438600  0.266800  0.435800  1.0  0.1971
  C  C1558  1  0.444000  0.231200  0.465800  1.0  -0.0096
  C  C1559  1  0.452700  0.166600  0.463800  1.0  -0.1211
  C  C1560  1  0.457600  0.373600  0.428600  1.0  -0.0694
  C  C1561  1  0.496900  0.424100  0.516300  1.0  0.0386
  C  C1562  1  0.473600  0.416600  0.488800  1.0  -0.0737
  C  C1563  1  0.483400  0.390400  0.457400  1.0  0.019
  C  C1564  1  0.517800  0.377300  0.456200  1.0  0.1154
  C  C1565  1  0.531600  0.408500  0.513200  1.0  0.1576
  C  C1566  1  0.436900  0.259700  0.501800  1.0  -0.287
  C  C1567  1  0.348300  0.648000  0.354500  1.0  0.3589
  C  C1568  1  0.383700  0.677500  0.362400  1.0  -0.3956
  N  N1569  1  0.352700  0.837900  0.033400  1.0  -0.3827
  N  N1570  1  0.255600  0.841900  0.139500  1.0  -0.3582
  N  N1571  1  0.268600  0.611200  0.292300  1.0  -0.3515
  N  N1572  1  0.419600  0.777400  0.054600  1.0  -0.3637
  N  N1573  1  0.388400  0.946700  0.995700  1.0  -0.3257
  N  N1574  1  0.281500  0.952400  0.898000  1.0  -0.3859
  N  N1575  1  0.303400  0.004200  0.828600  1.0  -0.3622
  N  N1576  1  0.544500  0.114800  0.981200  1.0  -0.3577
  N  N1577  1  0.323600  0.873100  0.851200  1.0  -0.3855
  N  N1578  1  0.852700  0.337900  0.533400  1.0  -0.3827
  N  N1579  1  0.755600  0.341900  0.639500  1.0  -0.3582
  N  N1580  1  0.768600  0.111200  0.792300  1.0  -0.3515
  N  N1581  1  0.919600  0.277400  0.554600  1.0  -0.3637
  N  N1582  1  0.888400  0.446700  0.495700  1.0  -0.3257
  N  N1583  1  0.781500  0.452400  0.398000  1.0  -0.385
  N  N1584  1  0.803400  0.504200  0.328600  1.0  -0.3622
  N  N1585  1  0.044500  0.614800  0.481200  1.0  -0.3577
  N  N1586  1  0.823600  0.373100  0.351200  1.0  -0.3855
  N  N1587  1  0.147300  0.837900  0.966600  1.0  -0.3818
  N  N1588  1  0.244400  0.841900  0.860500  1.0  -0.3579
  N  N1589  1  0.231400  0.611200  0.707700  1.0  -0.3544
  N  N1590  1  0.080400  0.777400  0.945400  1.0  -0.3633
  N  N1591  1  0.111600  0.946700  0.004300  1.0  -0.3272
  N  N1592  1  0.218500  0.952400  0.102000  1.0  -0.3822
  N  N1593  1  0.196600  0.004200  0.171400  1.0  -0.3606
  N  N1594  1  0.955500  0.114800  0.018800  1.0  -0.3589
  N  N1595  1  0.176400  0.873100  0.148800  1.0  -0.3859
  N  N1596  1  0.647300  0.337900  0.466600  1.0  -0.3818
  N  N1597  1  0.744400  0.341900  0.360500  1.0  -0.3579
  N  N1598  1  0.731400  0.111200  0.207700  1.0  -0.3544
  N  N1599  1  0.580400  0.277400  0.445400  1.0  -0.3633
  N  N1600  1  0.611600  0.446700  0.504300  1.0  -0.3272
  N  N1601  1  0.718500  0.452400  0.602000  1.0  -0.3822
  N  N1602  1  0.696600  0.504200  0.671400  1.0  -0.3606
  N  N1603  1  0.455500  0.614800  0.518800  1.0  -0.3589
  N  N1604  1  0.676400  0.373100  0.648800  1.0  -0.3859
  N  N1605  1  0.647300  0.162100  0.966600  1.0  -0.3815
  N  N1606  1  0.744400  0.158100  0.860500  1.0  -0.357
  N  N1607  1  0.731400  0.388800  0.707700  1.0  -0.3599
  N  N1608  1  0.580400  0.222600  0.945400  1.0  -0.3637
  N  N1609  1  0.611600  0.053300  0.004300  1.0  -0.3287
  N  N1610  1  0.718500  0.047600  0.102000  1.0  -0.3798
  N  N1611  1  0.696600  0.995800  0.171400  1.0  -0.3611
  N  N1612  1  0.455500  0.885200  0.018800  1.0  -0.359
  N  N1613  1  0.676400  0.126900  0.148800  1.0  -0.3845
  N  N1614  1  0.147300  0.662100  0.466600  1.0  -0.3815
  N  N1615  1  0.244400  0.658100  0.360500  1.0  -0.357
  N  N1616  1  0.231400  0.888800  0.207700  1.0  -0.3599
  N  N1617  1  0.080400  0.722600  0.445400  1.0  -0.3637
  N  N1618  1  0.111600  0.553300  0.504300  1.0  -0.3287
  N  N1619  1  0.218500  0.547600  0.602000  1.0  -0.3798
  N  N1620  1  0.196600  0.495800  0.671400  1.0  -0.3611
  N  N1621  1  0.955500  0.385200  0.518800  1.0  -0.359
  N  N1622  1  0.176400  0.626900  0.648800  1.0  -0.3845
  N  N1623  1  0.852700  0.162100  0.033400  1.0  -0.3824
  N  N1624  1  0.755600  0.158100  0.139500  1.0  -0.3583
  N  N1625  1  0.768600  0.388800  0.292300  1.0  -0.3532
  N  N1626  1  0.919600  0.222600  0.054600  1.0  -0.3649
  N  N1627  1  0.888400  0.053300  0.995700  1.0  -0.3275
  N  N1628  1  0.781500  0.047600  0.898000  1.0  -0.3826
  N  N1629  1  0.803400  0.995800  0.828600  1.0  -0.3614
  N  N1630  1  0.044500  0.885200  0.981200  1.0  -0.3578
  N  N1631  1  0.823600  0.126900  0.851200  1.0  -0.3844
  N  N1632  1  0.352700  0.662100  0.533400  1.0  -0.3824
  N  N1633  1  0.255600  0.658100  0.639500  1.0  -0.3583
  N  N1634  1  0.268600  0.888800  0.792300  1.0  -0.3532
  N  N1635  1  0.419600  0.722600  0.554600  1.0  -0.3649
  N  N1636  1  0.388400  0.553300  0.495700  1.0  -0.3275
  N  N1637  1  0.281500  0.547600  0.398000  1.0  -0.3826
  N  N1638  1  0.303400  0.495800  0.328600  1.0  -0.3614
  N  N1639  1  0.544500  0.385200  0.481200  1.0  -0.3578
  N  N1640  1  0.323600  0.626900  0.351200  1.0  -0.3844
  O  O1641  1  0.302400  0.655800  0.058500  1.0  -0.2878
  O  O1642  1  0.262900  0.610300  0.128000  1.0  -0.3973
  O  O1643  1  0.315100  0.616200  0.185500  1.0  -0.3544
  O  O1644  1  0.369300  0.642300  0.126000  1.0  -0.3391
  O  O1645  1  0.373800  0.174100  0.989000  1.0  -0.3678
  O  O1646  1  0.306200  0.137300  0.945200  1.0  -0.4064
  O  O1647  1  0.370900  0.151700  0.883100  1.0  -0.3273
  O  O1648  1  0.431600  0.168200  0.939600  1.0  -0.2937
  O  O1649  1  0.802400  0.155800  0.558500  1.0  -0.2878
  O  O1650  1  0.762900  0.110300  0.628000  1.0  -0.3973
  O  O1651  1  0.815100  0.116200  0.685500  1.0  -0.3544
  O  O1652  1  0.869300  0.142300  0.626000  1.0  -0.3391
  O  O1653  1  0.873800  0.674100  0.489000  1.0  -0.3687
  O  O1654  1  0.806200  0.637300  0.445200  1.0  -0.4064
  O  O1655  1  0.870900  0.651700  0.383100  1.0  -0.3273
  O  O1656  1  0.931600  0.668200  0.439600  1.0  -0.2937
  O  O1657  1  0.197600  0.655800  0.941500  1.0  -0.2858
  O  O1658  1  0.237100  0.610300  0.872000  1.0  -0.3989
  O  O1659  1  0.184900  0.616200  0.814500  1.0  -0.3569
  O  O1660  1  0.130700  0.642300  0.874000  1.0  -0.3416
  O  O1661  1  0.126200  0.174100  0.011000  1.0  -0.368
  O  O1662  1  0.193800  0.137300  0.054800  1.0  -0.4018
  O  O1663  1  0.129100  0.151700  0.116900  1.0  -0.3278
  O  O1664  1  0.068400  0.168200  0.060400  1.0  -0.2938
  O  O1665  1  0.697600  0.155800  0.441500  1.0  -0.2858
  O  O1666  1  0.737100  0.110300  0.372000  1.0  -0.3989
  O  O1667  1  0.684900  0.116200  0.314500  1.0  -0.3569
  O  O1668  1  0.630700  0.142300  0.374000  1.0  -0.3416
  O  O1669  1  0.626200  0.674100  0.511000  1.0  -0.368
  O  O1670  1  0.693800  0.637300  0.554800  1.0  -0.4018
  O  O1671  1  0.629100  0.651700  0.616900  1.0  -0.3278
  O  O1672  1  0.568400  0.668200  0.560400  1.0  -0.2938
  O  O1673  1  0.697600  0.344200  0.941500  1.0  -0.2859
  O  O1674  1  0.737100  0.389700  0.872000  1.0  -0.3995
  O  O1675  1  0.684900  0.383800  0.814500  1.0  -0.3559
  O  O1676  1  0.630700  0.357700  0.874000  1.0  -0.3417
  O  O1677  1  0.626200  0.825900  0.011000  1.0  -0.3668
  O  O1678  1  0.693800  0.862700  0.054800  1.0  -0.4011
  O  O1679  1  0.629100  0.848300  0.116900  1.0  -0.3277
  O  O1680  1  0.568400  0.831800  0.060400  1.0  -0.2936
  O  O1681  1  0.197600  0.844200  0.441500  1.0  -0.2859
  O  O1682  1  0.237100  0.889700  0.372000  1.0  -0.3995
  O  O1683  1  0.184900  0.883800  0.314500  1.0  -0.3559
  O  O1684  1  0.130700  0.857700  0.374000  1.0  -0.3417
  O  O1685  1  0.126200  0.325900  0.511000  1.0  -0.3668
  O  O1686  1  0.193800  0.362700  0.554800  1.0  -0.4011
  O  O1687  1  0.129100  0.348300  0.616900  1.0  -0.3277
  O  O1688  1  0.068400  0.331800  0.560400  1.0  -0.2936
  O  O1689  1  0.802400  0.344200  0.058500  1.0  -0.2874
  O  O1690  1  0.762900  0.389700  0.128000  1.0  -0.3979
  O  O1691  1  0.815100  0.383800  0.185500  1.0  -0.3548
  O  O1692  1  0.869300  0.357700  0.126000  1.0  -0.3392
  O  O1693  1  0.873800  0.825900  0.989000  1.0  -0.3685
  O  O1694  1  0.806200  0.862700  0.945200  1.0  -0.4062
  O  O1695  1  0.870900  0.848300  0.883100  1.0  -0.3276
  O  O1696  1  0.931600  0.831800  0.939600  1.0  -0.2929
  O  O1697  1  0.302400  0.844200  0.558500  1.0  -0.2874
  O  O1698  1  0.262900  0.889700  0.628000  1.0  -0.3979
  O  O1699  1  0.315100  0.883800  0.685500  1.0  -0.3548
  O  O1700  1  0.369300  0.857700  0.626000  1.0  -0.3392
  O  O1701  1  0.373800  0.325900  0.489000  1.0  -0.3683
  O  O1702  1  0.306200  0.362700  0.445200  1.0  -0.4062
  O  O1703  1  0.370900  0.348300  0.383100  1.0  -0.3276
  O  O1704  1  0.431600  0.331800  0.439600  1.0  -0.2929
