# generated using pymatgen
data_Cu17H144C168(N30Cl)2
_symmetry_space_group_name_H-M   'P 1'
_cell_length_a   20.01400000
_cell_length_b   37.95600000
_cell_length_c   25.08500000
_cell_angle_alpha   90.00000000
_cell_angle_beta   109.38400000
_cell_angle_gamma   90.00000000
_symmetry_Int_Tables_number   1
_chemical_formula_structural   Cu17H144C168(N30Cl)2
_chemical_formula_sum   'Cu68 H576 C672 N240 Cl8'
_cell_volume   17975.68103297
_cell_formula_units_Z   4
loop_
 _symmetry_equiv_pos_site_id
 _symmetry_equiv_pos_as_xyz
  1  'x, y, z'
loop_
 _atom_site_type_symbol
 _atom_site_label
 _atom_site_symmetry_multiplicity
 _atom_site_fract_x
 _atom_site_fract_y
 _atom_site_fract_z
 _atom_site_occupancy
 _atom_site_charge
  Cu  Cu1  1  0.538620  0.128260  0.331940  1.0  0.5144
  Cu  Cu2  1  0.553070  0.974570  0.367710  1.0  0.3055
  Cu  Cu3  1  0.092990  0.254920  0.496680  1.0  0.4183
  Cu  Cu4  1  0.795010  0.218250  0.381150  1.0  0.4367
  Cu  Cu5  1  0.006320  0.328930  0.432300  1.0  0.4237
  Cu  Cu6  1  0.316890  0.206060  0.387720  1.0  0.4008
  Cu  Cu7  1  0.152400  0.331110  0.412890  1.0  0.4007
  Cu  Cu8  1  0.608940  0.094610  0.246410  1.0  0.4014
  Cu  Cu9  1  0.038620  0.628260  0.331940  1.0  0.5144
  Cu  Cu10  1  0.053070  0.474570  0.367710  1.0  0.3055
  Cu  Cu11  1  0.592990  0.754920  0.496680  1.0  0.4183
  Cu  Cu12  1  0.295010  0.718250  0.381150  1.0  0.4367
  Cu  Cu13  1  0.506320  0.828930  0.432300  1.0  0.4242
  Cu  Cu14  1  0.816890  0.706060  0.387720  1.0  0.4008
  Cu  Cu15  1  0.652400  0.831110  0.412890  1.0  0.4007
  Cu  Cu16  1  0.108940  0.594610  0.246410  1.0  0.4014
  Cu  Cu17  1  0.461380  0.128260  0.168060  1.0  0.5142
  Cu  Cu18  1  0.446930  0.974570  0.132290  1.0  0.3052
  Cu  Cu19  1  0.907010  0.254920  0.003320  1.0  0.4177
  Cu  Cu20  1  0.204990  0.218250  0.118850  1.0  0.4368
  Cu  Cu21  1  0.993680  0.328930  0.067700  1.0  0.4221
  Cu  Cu22  1  0.683110  0.206060  0.112280  1.0  0.3973
  Cu  Cu23  1  0.847600  0.331110  0.087110  1.0  0.4008
  Cu  Cu24  1  0.391060  0.094610  0.253590  1.0  0.4019
  Cu  Cu25  1  0.961380  0.628260  0.168060  1.0  0.5142
  Cu  Cu26  1  0.946930  0.474570  0.132290  1.0  0.3052
  Cu  Cu27  1  0.407010  0.754920  0.003320  1.0  0.4177
  Cu  Cu28  1  0.704990  0.718250  0.118850  1.0  0.4368
  Cu  Cu29  1  0.493680  0.828930  0.067700  1.0  0.4226
  Cu  Cu30  1  0.183110  0.706060  0.112280  1.0  0.3973
  Cu  Cu31  1  0.347600  0.831110  0.087110  1.0  0.4008
  Cu  Cu32  1  0.891060  0.594610  0.253590  1.0  0.4019
  Cu  Cu33  1  0.461380  0.871740  0.668060  1.0  0.5142
  Cu  Cu34  1  0.446930  0.025430  0.632290  1.0  0.3052
  Cu  Cu35  1  0.907010  0.745080  0.503320  1.0  0.4193
  Cu  Cu36  1  0.204990  0.781750  0.618850  1.0  0.4375
  Cu  Cu37  1  0.993680  0.671070  0.567700  1.0  0.4221
  Cu  Cu38  1  0.683110  0.793940  0.612280  1.0  0.3984
  Cu  Cu39  1  0.847600  0.668890  0.587110  1.0  0.4009
  Cu  Cu40  1  0.391060  0.905390  0.753590  1.0  0.4019
  Cu  Cu41  1  0.961380  0.371740  0.668060  1.0  0.5142
  Cu  Cu42  1  0.946930  0.525430  0.632290  1.0  0.3052
  Cu  Cu43  1  0.407010  0.245080  0.503320  1.0  0.4193
  Cu  Cu44  1  0.704990  0.281750  0.618850  1.0  0.4375
  Cu  Cu45  1  0.493680  0.171070  0.567700  1.0  0.4226
  Cu  Cu46  1  0.183110  0.293940  0.612280  1.0  0.3984
  Cu  Cu47  1  0.347600  0.168890  0.587110  1.0  0.4009
  Cu  Cu48  1  0.891060  0.405390  0.753590  1.0  0.4019
  Cu  Cu49  1  0.538620  0.871740  0.831940  1.0  0.5143
  Cu  Cu50  1  0.553070  0.025430  0.867710  1.0  0.3056
  Cu  Cu51  1  0.092990  0.745080  0.996680  1.0  0.4195
  Cu  Cu52  1  0.795010  0.781750  0.881150  1.0  0.4376
  Cu  Cu53  1  0.006320  0.671070  0.932300  1.0  0.4235
  Cu  Cu54  1  0.316890  0.793940  0.887720  1.0  0.4015
  Cu  Cu55  1  0.152400  0.668890  0.912890  1.0  0.4011
  Cu  Cu56  1  0.608940  0.905390  0.746410  1.0  0.4013
  Cu  Cu57  1  0.038620  0.371740  0.831940  1.0  0.5143
  Cu  Cu58  1  0.053070  0.525430  0.867710  1.0  0.3056
  Cu  Cu59  1  0.592990  0.245080  0.996680  1.0  0.4195
  Cu  Cu60  1  0.295010  0.281750  0.881150  1.0  0.4376
  Cu  Cu61  1  0.506320  0.171070  0.932300  1.0  0.424
  Cu  Cu62  1  0.816890  0.293940  0.887720  1.0  0.4015
  Cu  Cu63  1  0.652400  0.168890  0.912890  1.0  0.4011
  Cu  Cu64  1  0.108940  0.405390  0.746410  1.0  0.4013
  Cu  Cu65  1  0.500000  0.191950  0.250000  1.0  0.3793
  Cu  Cu66  1  0.000000  0.691950  0.250000  1.0  0.3793
  Cu  Cu67  1  0.500000  0.808050  0.750000  1.0  0.3799
  Cu  Cu68  1  0.000000  0.308050  0.750000  1.0  0.3799
  H  H69  1  0.682100  0.392400  0.283800  1.0  0.3228
  H  H70  1  0.637100  0.375000  0.312800  1.0  0.3431
  H  H71  1  0.596200  0.347100  0.170900  1.0  0.3462
  H  H72  1  0.662700  0.336800  0.160600  1.0  0.3673
  H  H73  1  0.333333  0.102100  0.477500  1.0  0.3162
  H  H74  1  0.285600  0.073700  0.445100  1.0  0.3339
  H  H75  1  0.724000  0.928800  0.176300  1.0  0.3024
  H  H76  1  0.780700  0.956000  0.189900  1.0  0.3455
  H  H77  1  0.684600  0.265500  0.486400  1.0  0.3328
  H  H78  1  0.640700  0.294100  0.451200  1.0  0.3303
  H  H79  1  0.082500  0.072500  0.411400  1.0  0.3547
  H  H80  1  0.046500  0.097900  0.365500  1.0  0.3099
  H  H81  1  0.041200  0.082500  0.541300  1.0  0.3332
  H  H82  1  0.987200  0.070300  0.487800  1.0  0.3416
  H  H83  1  0.483300  0.295700  0.836000  1.0  0.3591
  H  H84  1  0.502800  0.257900  0.847700  1.0  0.3167
  H  H85  1  0.872500  0.085300  0.572000  1.0  0.3519
  H  H86  1  0.857000  0.055200  0.531700  1.0  0.334
  H  H87  1  0.883800  0.929800  0.335300  1.0  0.3452
  H  H88  1  0.889500  0.961000  0.372500  1.0  0.3236
  H  H89  1  0.297200  0.986700  0.486500  1.0  0.336
  H  H90  1  0.260000  0.952100  0.477700  1.0  0.3172
  H  H91  1  0.054100  0.075500  0.182500  1.0  0.3195
  H  H92  1  0.042100  0.076400  0.238100  1.0  0.3261
  H  H93  1  0.136400  0.206400  0.431300  1.0  0.0926
  H  H94  1  0.172000  0.092000  0.497800  1.0  0.1009
  H  H95  1  0.227800  0.137900  0.555200  1.0  0.0625
  H  H96  1  0.078200  0.160500  0.374400  1.0  0.0964
  H  H97  1  0.370700  0.196200  0.693800  1.0  0.093
  H  H98  1  0.449100  0.212500  0.780800  1.0  0.102
  H  H99  1  0.316500  0.297300  0.659700  1.0  0.0693
  H  H100  1  0.393100  0.313400  0.747600  1.0  0.1021
  H  H101  1  0.677300  0.876100  0.323300  1.0  0.1035
  H  H102  1  0.781500  0.892300  0.310000  1.0  0.0902
  H  H103  1  0.693800  0.958900  0.425100  1.0  0.0972
  H  H104  1  0.798100  0.974500  0.412700  1.0  0.1179
  H  H105  1  0.494400  0.971300  0.441700  1.0  0.0738
  H  H106  1  0.407900  0.993600  0.471900  1.0  0.091
  H  H107  1  0.401800  0.876900  0.422200  1.0  0.0849
  H  H108  1  0.312000  0.900000  0.448400  1.0  0.1048
  H  H109  1  0.757100  0.179300  0.472000  1.0  0.0821
  H  H110  1  0.706300  0.098400  0.365500  1.0  0.0772
  H  H111  1  0.826300  0.142800  0.541800  1.0  0.0948
  H  H112  1  0.779100  0.062200  0.434700  1.0  0.1097
  H  H113  1  0.737200  0.235700  0.259500  1.0  0.1
  H  H114  1  0.729600  0.285400  0.205800  1.0  0.089
  H  H115  1  0.559200  0.264200  0.287800  1.0  0.0878
  H  H116  1  0.551700  0.313400  0.233500  1.0  0.0933
  H  H117  1  0.564700  0.965900  0.256900  1.0  0.0885
  H  H118  1  0.717100  0.039100  0.294800  1.0  0.0919
  H  H119  1  0.623700  0.934600  0.208000  1.0  0.0998
  H  H120  1  0.777300  0.007000  0.248200  1.0  0.1195
  H  H121  1  0.406000  0.019100  0.343100  1.0  0.0854
  H  H122  1  0.446800  0.112800  0.466800  1.0  0.1011
  H  H123  1  0.531000  0.096700  0.429300  1.0  0.099
  H  H124  1  0.320800  0.035300  0.380800  1.0  0.1127
  H  H125  1  0.037100  0.201700  0.534900  1.0  0.0934
  H  H126  1  0.892200  0.169600  0.390700  1.0  0.0889
  H  H127  1  0.918100  0.111900  0.418500  1.0  0.0891
  H  H128  1  0.060400  0.144300  0.563100  1.0  0.0865
  H  H129  1  0.763000  0.282600  0.408600  1.0  0.0896
  H  H130  1  0.675800  0.323200  0.369500  1.0  0.0931
  H  H131  1  0.797500  0.368900  0.291300  1.0  0.0903
  H  H132  1  0.885500  0.328300  0.330800  1.0  0.1065
  H  H133  1  0.263700  0.129800  0.210800  1.0  0.0725
  H  H134  1  0.234500  0.134200  0.360300  1.0  0.1094
  H  H135  1  0.158700  0.099900  0.172700  1.0  0.0911
  H  H136  1  0.126300  0.106000  0.320500  1.0  0.0786
  H  H137  1  0.431900  0.242900  0.348900  1.0  0.0843
  H  H138  1  0.521400  0.282700  0.387500  1.0  0.1026
  H  H139  1  0.639200  0.206400  0.483200  1.0  0.0926
  H  H140  1  0.550000  0.166000  0.442900  1.0  0.0984
  H  H141  1  0.182100  0.892400  0.283800  1.0  0.3228
  H  H142  1  0.137100  0.875000  0.312800  1.0  0.3431
  H  H143  1  0.096200  0.847100  0.170900  1.0  0.3462
  H  H144  1  0.162700  0.836800  0.160600  1.0  0.3673
  H  H145  1  0.833300  0.602100  0.477500  1.0  0.3168
  H  H146  1  0.785600  0.573700  0.445100  1.0  0.3364
  H  H147  1  0.224000  0.428800  0.176300  1.0  0.3024
  H  H148  1  0.280700  0.456000  0.189900  1.0  0.3455
  H  H149  1  0.184600  0.765500  0.486400  1.0  0.3328
  H  H150  1  0.140700  0.794100  0.451200  1.0  0.3303
  H  H151  1  0.582500  0.572500  0.411400  1.0  0.3547
  H  H152  1  0.546500  0.597900  0.365500  1.0  0.3099
  H  H153  1  0.541200  0.582500  0.541300  1.0  0.3332
  H  H154  1  0.487200  0.570300  0.487800  1.0  0.3416
  H  H155  1  0.983300  0.795700  0.836000  1.0  0.3591
  H  H156  1  0.002800  0.757900  0.847700  1.0  0.3167
  H  H157  1  0.372500  0.585300  0.572000  1.0  0.3519
  H  H158  1  0.357000  0.555200  0.531700  1.0  0.334
  H  H159  1  0.383800  0.429800  0.335300  1.0  0.3452
  H  H160  1  0.389500  0.461000  0.372500  1.0  0.3236
  H  H161  1  0.797200  0.486700  0.486500  1.0  0.336
  H  H162  1  0.760000  0.452100  0.477700  1.0  0.3172
  H  H163  1  0.554100  0.575500  0.182500  1.0  0.3195
  H  H164  1  0.542100  0.576400  0.238100  1.0  0.3261
  H  H165  1  0.636400  0.706400  0.431300  1.0  0.0926
  H  H166  1  0.672000  0.592000  0.497800  1.0  0.101
  H  H167  1  0.727800  0.637900  0.555200  1.0  0.0625
  H  H168  1  0.578200  0.660500  0.374400  1.0  0.0964
  H  H169  1  0.870700  0.696200  0.693800  1.0  0.093
  H  H170  1  0.949100  0.712500  0.780800  1.0  0.102
  H  H171  1  0.816500  0.797300  0.659700  1.0  0.0693
  H  H172  1  0.893100  0.813400  0.747600  1.0  0.1021
  H  H173  1  0.177300  0.376100  0.323300  1.0  0.1035
  H  H174  1  0.281500  0.392300  0.310000  1.0  0.0902
  H  H175  1  0.193800  0.458900  0.425100  1.0  0.0972
  H  H176  1  0.298100  0.474500  0.412700  1.0  0.1179
  H  H177  1  0.994400  0.471300  0.441700  1.0  0.0738
  H  H178  1  0.907900  0.493600  0.471900  1.0  0.091
  H  H179  1  0.901800  0.376900  0.422200  1.0  0.0849
  H  H180  1  0.812000  0.400000  0.448400  1.0  0.1048
  H  H181  1  0.257100  0.679300  0.472000  1.0  0.0821
  H  H182  1  0.206300  0.598400  0.365500  1.0  0.0772
  H  H183  1  0.326300  0.642800  0.541800  1.0  0.0948
  H  H184  1  0.279100  0.562200  0.434700  1.0  0.1097
  H  H185  1  0.237200  0.735700  0.259500  1.0  0.1
  H  H186  1  0.229600  0.785400  0.205800  1.0  0.089
  H  H187  1  0.059200  0.764200  0.287800  1.0  0.0878
  H  H188  1  0.051700  0.813400  0.233500  1.0  0.0933
  H  H189  1  0.064700  0.465900  0.256900  1.0  0.0885
  H  H190  1  0.217100  0.539100  0.294800  1.0  0.0919
  H  H191  1  0.123700  0.434600  0.208000  1.0  0.0998
  H  H192  1  0.277300  0.507000  0.248200  1.0  0.1195
  H  H193  1  0.906000  0.519100  0.343100  1.0  0.0854
  H  H194  1  0.946800  0.612800  0.466800  1.0  0.1011
  H  H195  1  0.031000  0.596700  0.429300  1.0  0.099
  H  H196  1  0.820800  0.535300  0.380800  1.0  0.1127
  H  H197  1  0.537100  0.701700  0.534900  1.0  0.0934
  H  H198  1  0.392200  0.669600  0.390700  1.0  0.0889
  H  H199  1  0.418100  0.611900  0.418500  1.0  0.0891
  H  H200  1  0.560400  0.644300  0.563100  1.0  0.0865
  H  H201  1  0.263000  0.782600  0.408600  1.0  0.0896
  H  H202  1  0.175800  0.823200  0.369500  1.0  0.0931
  H  H203  1  0.297500  0.868900  0.291300  1.0  0.0903
  H  H204  1  0.385500  0.828300  0.330800  1.0  0.1065
  H  H205  1  0.763700  0.629800  0.210800  1.0  0.0725
  H  H206  1  0.734500  0.634200  0.360300  1.0  0.1094
  H  H207  1  0.658700  0.599900  0.172700  1.0  0.0911
  H  H208  1  0.626300  0.606000  0.320500  1.0  0.0786
  H  H209  1  0.931900  0.742900  0.348900  1.0  0.0843
  H  H210  1  0.021400  0.782700  0.387500  1.0  0.1026
  H  H211  1  0.139200  0.706400  0.483200  1.0  0.0926
  H  H212  1  0.050000  0.666000  0.442900  1.0  0.0984
  H  H213  1  0.317900  0.392400  0.216200  1.0  0.3232
  H  H214  1  0.362900  0.375000  0.187200  1.0  0.3447
  H  H215  1  0.403800  0.347100  0.329100  1.0  0.3459
  H  H216  1  0.337300  0.336800  0.339400  1.0  0.3659
  H  H217  1  0.666667  0.102100  0.022500  1.0  0.3166
  H  H218  1  0.714400  0.073700  0.054900  1.0  0.3353
  H  H219  1  0.276000  0.928800  0.323700  1.0  0.305
  H  H220  1  0.219300  0.956000  0.310100  1.0  0.3442
  H  H221  1  0.315400  0.265500  0.013600  1.0  0.3301
  H  H222  1  0.359300  0.294100  0.048800  1.0  0.33
  H  H223  1  0.917500  0.072500  0.088600  1.0  0.3536
  H  H224  1  0.953500  0.097900  0.134500  1.0  0.3118
  H  H225  1  0.958800  0.082500  0.958700  1.0  0.3305
  H  H226  1  0.012800  0.070300  0.012200  1.0  0.3434
  H  H227  1  0.516700  0.295700  0.664000  1.0  0.3598
  H  H228  1  0.497200  0.257900  0.652300  1.0  0.3153
  H  H229  1  0.127500  0.085300  0.928000  1.0  0.3502
  H  H230  1  0.143000  0.055200  0.968300  1.0  0.3341
  H  H231  1  0.116200  0.929800  0.164700  1.0  0.3452
  H  H232  1  0.110500  0.961000  0.127500  1.0  0.3237
  H  H233  1  0.702800  0.986700  0.013500  1.0  0.3357
  H  H234  1  0.740000  0.952100  0.022300  1.0  0.3185
  H  H235  1  0.945900  0.075500  0.317500  1.0  0.319
  H  H236  1  0.957900  0.076400  0.261900  1.0  0.3263
  H  H237  1  0.863600  0.206400  0.068700  1.0  0.0924
  H  H238  1  0.828000  0.092000  0.002200  1.0  0.1012
  H  H239  1  0.772200  0.137900  0.944800  1.0  0.0625
  H  H240  1  0.921800  0.160500  0.125600  1.0  0.0961
  H  H241  1  0.629300  0.196200  0.806200  1.0  0.0928
  H  H242  1  0.550900  0.212500  0.719200  1.0  0.1019
  H  H243  1  0.683500  0.297300  0.840300  1.0  0.069
  H  H244  1  0.606900  0.313400  0.752400  1.0  0.1024
  H  H245  1  0.322700  0.876100  0.176700  1.0  0.1035
  H  H246  1  0.218500  0.892300  0.190000  1.0  0.0897
  H  H247  1  0.306200  0.958900  0.074900  1.0  0.0972
  H  H248  1  0.201900  0.974500  0.087300  1.0  0.1178
  H  H249  1  0.505600  0.971300  0.058300  1.0  0.0734
  H  H250  1  0.592100  0.993600  0.028100  1.0  0.0914
  H  H251  1  0.598200  0.876900  0.077800  1.0  0.0848
  H  H252  1  0.688000  0.900000  0.051600  1.0  0.1046
  H  H253  1  0.242900  0.179300  0.028000  1.0  0.0823
  H  H254  1  0.293700  0.098400  0.134500  1.0  0.0778
  H  H255  1  0.173700  0.142800  0.958200  1.0  0.0947
  H  H256  1  0.220900  0.062200  0.065300  1.0  0.1101
  H  H257  1  0.262800  0.235700  0.240500  1.0  0.0998
  H  H258  1  0.270400  0.285400  0.294200  1.0  0.089
  H  H259  1  0.440800  0.264200  0.212200  1.0  0.0884
  H  H260  1  0.448300  0.313400  0.266500  1.0  0.0929
  H  H261  1  0.435300  0.965900  0.243100  1.0  0.0879
  H  H262  1  0.282900  0.039100  0.205200  1.0  0.0923
  H  H263  1  0.376300  0.934600  0.292000  1.0  0.1001
  H  H264  1  0.222700  0.007000  0.251800  1.0  0.1198
  H  H265  1  0.594000  0.019100  0.156900  1.0  0.0859
  H  H266  1  0.553200  0.112800  0.033200  1.0  0.1013
  H  H267  1  0.469000  0.096700  0.070700  1.0  0.0989
  H  H268  1  0.679200  0.035300  0.119200  1.0  0.1122
  H  H269  1  0.962900  0.201700  0.965100  1.0  0.0941
  H  H270  1  0.107800  0.169600  0.109300  1.0  0.0889
  H  H271  1  0.081900  0.111900  0.081500  1.0  0.0899
  H  H272  1  0.939600  0.144300  0.936900  1.0  0.0865
  H  H273  1  0.237000  0.282600  0.091400  1.0  0.0893
  H  H274  1  0.324200  0.323200  0.130500  1.0  0.0931
  H  H275  1  0.202500  0.368900  0.208700  1.0  0.0908
  H  H276  1  0.114500  0.328300  0.169200  1.0  0.1067
  H  H277  1  0.736300  0.129800  0.289200  1.0  0.0728
  H  H278  1  0.765500  0.134200  0.139700  1.0  0.1091
  H  H279  1  0.841300  0.099900  0.327300  1.0  0.0908
  H  H280  1  0.873700  0.106000  0.179500  1.0  0.0782
  H  H281  1  0.568100  0.242900  0.151100  1.0  0.084
  H  H282  1  0.478600  0.282700  0.112500  1.0  0.1025
  H  H283  1  0.360800  0.206400  0.016800  1.0  0.0924
  H  H284  1  0.450000  0.166000  0.057100  1.0  0.098
  H  H285  1  0.817900  0.892400  0.216200  1.0  0.3232
  H  H286  1  0.862900  0.875000  0.187200  1.0  0.3447
  H  H287  1  0.903800  0.847100  0.329100  1.0  0.3459
  H  H288  1  0.837300  0.836800  0.339400  1.0  0.3659
  H  H289  1  0.166700  0.602100  0.022500  1.0  0.3174
  H  H290  1  0.214400  0.573700  0.054900  1.0  0.3379
  H  H291  1  0.776000  0.428800  0.323700  1.0  0.305
  H  H292  1  0.719300  0.456000  0.310100  1.0  0.3442
  H  H293  1  0.815400  0.765500  0.013600  1.0  0.3301
  H  H294  1  0.859300  0.794100  0.048800  1.0  0.33
  H  H295  1  0.417500  0.572500  0.088600  1.0  0.3536
  H  H296  1  0.453500  0.597900  0.134500  1.0  0.3118
  H  H297  1  0.458800  0.582500  0.958700  1.0  0.3305
  H  H298  1  0.512800  0.570300  0.012200  1.0  0.3434
  H  H299  1  0.016700  0.795700  0.664000  1.0  0.3598
  H  H300  1  0.997200  0.757900  0.652300  1.0  0.3153
  H  H301  1  0.627500  0.585300  0.928000  1.0  0.3502
  H  H302  1  0.643000  0.555200  0.968300  1.0  0.3341
  H  H303  1  0.616200  0.429800  0.164700  1.0  0.3452
  H  H304  1  0.610500  0.461000  0.127500  1.0  0.3237
  H  H305  1  0.202800  0.486700  0.013500  1.0  0.3357
  H  H306  1  0.240000  0.452100  0.022300  1.0  0.3185
  H  H307  1  0.445900  0.575500  0.317500  1.0  0.319
  H  H308  1  0.457900  0.576400  0.261900  1.0  0.3263
  H  H309  1  0.363600  0.706400  0.068700  1.0  0.0924
  H  H310  1  0.328000  0.592000  0.002200  1.0  0.1014
  H  H311  1  0.272200  0.637900  0.944800  1.0  0.0624
  H  H312  1  0.421800  0.660500  0.125600  1.0  0.0961
  H  H313  1  0.129300  0.696200  0.806200  1.0  0.0928
  H  H314  1  0.050900  0.712500  0.719200  1.0  0.1019
  H  H315  1  0.183500  0.797300  0.840300  1.0  0.069
  H  H316  1  0.106900  0.813400  0.752400  1.0  0.1024
  H  H317  1  0.822700  0.376100  0.176700  1.0  0.1035
  H  H318  1  0.718500  0.392300  0.190000  1.0  0.0897
  H  H319  1  0.806200  0.458900  0.074900  1.0  0.0972
  H  H320  1  0.701900  0.474500  0.087300  1.0  0.1178
  H  H321  1  0.005600  0.471300  0.058300  1.0  0.0734
  H  H322  1  0.092100  0.493600  0.028100  1.0  0.0914
  H  H323  1  0.098200  0.376900  0.077800  1.0  0.0848
  H  H324  1  0.188000  0.400000  0.051600  1.0  0.1046
  H  H325  1  0.742900  0.679300  0.028000  1.0  0.0823
  H  H326  1  0.793700  0.598400  0.134500  1.0  0.0778
  H  H327  1  0.673700  0.642800  0.958200  1.0  0.0947
  H  H328  1  0.720900  0.562200  0.065300  1.0  0.1101
  H  H329  1  0.762800  0.735700  0.240500  1.0  0.0998
  H  H330  1  0.770400  0.785400  0.294200  1.0  0.089
  H  H331  1  0.940800  0.764200  0.212200  1.0  0.0884
  H  H332  1  0.948300  0.813400  0.266500  1.0  0.0929
  H  H333  1  0.935300  0.465900  0.243100  1.0  0.0879
  H  H334  1  0.782900  0.539100  0.205200  1.0  0.0923
  H  H335  1  0.876300  0.434600  0.292000  1.0  0.1001
  H  H336  1  0.722700  0.507000  0.251800  1.0  0.1198
  H  H337  1  0.094000  0.519100  0.156900  1.0  0.0859
  H  H338  1  0.053200  0.612800  0.033200  1.0  0.1013
  H  H339  1  0.969000  0.596700  0.070700  1.0  0.0989
  H  H340  1  0.179200  0.535300  0.119200  1.0  0.1122
  H  H341  1  0.462900  0.701700  0.965100  1.0  0.0941
  H  H342  1  0.607800  0.669600  0.109300  1.0  0.0889
  H  H343  1  0.581900  0.611900  0.081500  1.0  0.0899
  H  H344  1  0.439600  0.644300  0.936900  1.0  0.0865
  H  H345  1  0.737000  0.782600  0.091400  1.0  0.0893
  H  H346  1  0.824200  0.823200  0.130500  1.0  0.0931
  H  H347  1  0.702500  0.868900  0.208700  1.0  0.0908
  H  H348  1  0.614500  0.828300  0.169200  1.0  0.1067
  H  H349  1  0.236300  0.629800  0.289200  1.0  0.0728
  H  H350  1  0.265500  0.634200  0.139700  1.0  0.1091
  H  H351  1  0.341300  0.599900  0.327300  1.0  0.0908
  H  H352  1  0.373700  0.606000  0.179500  1.0  0.0782
  H  H353  1  0.068100  0.742900  0.151100  1.0  0.084
  H  H354  1  0.978600  0.782700  0.112500  1.0  0.1025
  H  H355  1  0.860800  0.706400  0.016800  1.0  0.0924
  H  H356  1  0.950000  0.666000  0.057100  1.0  0.098
  H  H357  1  0.317900  0.607600  0.716200  1.0  0.3248
  H  H358  1  0.362900  0.625000  0.687200  1.0  0.3453
  H  H359  1  0.403800  0.652900  0.829100  1.0  0.3466
  H  H360  1  0.337300  0.663200  0.839400  1.0  0.366
  H  H361  1  0.666667  0.897900  0.522500  1.0  0.3134
  H  H362  1  0.714400  0.926300  0.554900  1.0  0.3348
  H  H363  1  0.276000  0.071200  0.823700  1.0  0.3074
  H  H364  1  0.219300  0.044000  0.810100  1.0  0.3445
  H  H365  1  0.315400  0.734500  0.513600  1.0  0.3305
  H  H366  1  0.359300  0.705900  0.548800  1.0  0.3306
  H  H367  1  0.917500  0.927500  0.588600  1.0  0.3525
  H  H368  1  0.953500  0.902100  0.634500  1.0  0.31
  H  H369  1  0.958800  0.917500  0.458700  1.0  0.33
  H  H370  1  0.012800  0.929700  0.512200  1.0  0.3428
  H  H371  1  0.516700  0.704300  0.164000  1.0  0.3612
  H  H372  1  0.497200  0.742100  0.152300  1.0  0.3161
  H  H373  1  0.127500  0.914700  0.428000  1.0  0.3495
  H  H374  1  0.143000  0.944800  0.468300  1.0  0.3346
  H  H375  1  0.116200  0.070200  0.664700  1.0  0.3454
  H  H376  1  0.110500  0.039000  0.627500  1.0  0.3239
  H  H377  1  0.702800  0.013300  0.513500  1.0  0.3355
  H  H378  1  0.740000  0.047900  0.522300  1.0  0.3188
  H  H379  1  0.945900  0.924500  0.817500  1.0  0.3187
  H  H380  1  0.957900  0.923600  0.761900  1.0  0.3267
  H  H381  1  0.863600  0.793600  0.568700  1.0  0.0932
  H  H382  1  0.828000  0.908000  0.502200  1.0  0.1013
  H  H383  1  0.772200  0.862100  0.444800  1.0  0.0626
  H  H384  1  0.921800  0.839500  0.625600  1.0  0.0964
  H  H385  1  0.629300  0.803800  0.306200  1.0  0.0923
  H  H386  1  0.550900  0.787500  0.219200  1.0  0.1028
  H  H387  1  0.683500  0.702700  0.340300  1.0  0.0695
  H  H388  1  0.606900  0.686600  0.252400  1.0  0.1028
  H  H389  1  0.322700  0.123900  0.676700  1.0  0.1033
  H  H390  1  0.218500  0.107700  0.690000  1.0  0.0894
  H  H391  1  0.306200  0.041100  0.574900  1.0  0.0972
  H  H392  1  0.201900  0.025500  0.587300  1.0  0.1179
  H  H393  1  0.505600  0.028700  0.558300  1.0  0.0736
  H  H394  1  0.592100  0.006400  0.528100  1.0  0.0913
  H  H395  1  0.598200  0.123100  0.577800  1.0  0.085
  H  H396  1  0.688000  0.100000  0.551600  1.0  0.1047
  H  H397  1  0.242900  0.820700  0.528000  1.0  0.0823
  H  H398  1  0.293700  0.901600  0.634500  1.0  0.0776
  H  H399  1  0.173700  0.857200  0.458200  1.0  0.0944
  H  H400  1  0.220900  0.937800  0.565300  1.0  0.1098
  H  H401  1  0.262800  0.764300  0.740500  1.0  0.1002
  H  H402  1  0.270400  0.714600  0.794200  1.0  0.089
  H  H403  1  0.440800  0.735800  0.712200  1.0  0.0884
  H  H404  1  0.448300  0.686600  0.766500  1.0  0.0933
  H  H405  1  0.435300  0.034100  0.743100  1.0  0.0881
  H  H406  1  0.282900  0.960900  0.705200  1.0  0.0918
  H  H407  1  0.376300  0.065400  0.792000  1.0  0.1001
  H  H408  1  0.222700  0.993000  0.751800  1.0  0.1199
  H  H409  1  0.594000  0.980900  0.656900  1.0  0.0858
  H  H410  1  0.553200  0.887200  0.533200  1.0  0.101
  H  H411  1  0.469000  0.903300  0.570700  1.0  0.0988
  H  H412  1  0.679200  0.964700  0.619200  1.0  0.1123
  H  H413  1  0.962900  0.798300  0.465100  1.0  0.0936
  H  H414  1  0.107800  0.830400  0.609300  1.0  0.0891
  H  H415  1  0.081900  0.888100  0.581500  1.0  0.0896
  H  H416  1  0.939600  0.855700  0.436900  1.0  0.0866
  H  H417  1  0.237000  0.717400  0.591400  1.0  0.0891
  H  H418  1  0.324200  0.676800  0.630500  1.0  0.0931
  H  H419  1  0.202500  0.631100  0.708700  1.0  0.0912
  H  H420  1  0.114500  0.671700  0.669200  1.0  0.1069
  H  H421  1  0.736300  0.870200  0.789200  1.0  0.0729
  H  H422  1  0.765500  0.865800  0.639700  1.0  0.1091
  H  H423  1  0.841300  0.900100  0.827300  1.0  0.0906
  H  H424  1  0.873700  0.894000  0.679500  1.0  0.0786
  H  H425  1  0.568100  0.757100  0.651100  1.0  0.0842
  H  H426  1  0.478600  0.717300  0.612500  1.0  0.1013
  H  H427  1  0.360800  0.793600  0.516800  1.0  0.0927
  H  H428  1  0.450000  0.834000  0.557100  1.0  0.0976
  H  H429  1  0.817900  0.107600  0.716200  1.0  0.3248
  H  H430  1  0.862900  0.125000  0.687200  1.0  0.3453
  H  H431  1  0.903800  0.152900  0.829100  1.0  0.3466
  H  H432  1  0.837300  0.163200  0.839400  1.0  0.366
  H  H433  1  0.166700  0.397900  0.522500  1.0  0.3142
  H  H434  1  0.214400  0.426300  0.554900  1.0  0.3373
  H  H435  1  0.776000  0.571200  0.823700  1.0  0.3074
  H  H436  1  0.719300  0.544000  0.810100  1.0  0.3445
  H  H437  1  0.815400  0.234500  0.513600  1.0  0.3305
  H  H438  1  0.859300  0.205900  0.548800  1.0  0.3306
  H  H439  1  0.417500  0.427500  0.588600  1.0  0.3525
  H  H440  1  0.453500  0.402100  0.634500  1.0  0.31
  H  H441  1  0.458800  0.417500  0.458700  1.0  0.33
  H  H442  1  0.512800  0.429700  0.512200  1.0  0.3428
  H  H443  1  0.016700  0.204300  0.164000  1.0  0.3612
  H  H444  1  0.997200  0.242100  0.152300  1.0  0.3161
  H  H445  1  0.627500  0.414700  0.428000  1.0  0.3495
  H  H446  1  0.643000  0.444800  0.468300  1.0  0.3346
  H  H447  1  0.616200  0.570200  0.664700  1.0  0.3454
  H  H448  1  0.610500  0.539000  0.627500  1.0  0.3239
  H  H449  1  0.202800  0.513300  0.513500  1.0  0.3355
  H  H450  1  0.240000  0.547900  0.522300  1.0  0.3188
  H  H451  1  0.445900  0.424500  0.817500  1.0  0.3187
  H  H452  1  0.457900  0.423600  0.761900  1.0  0.3267
  H  H453  1  0.363600  0.293600  0.568700  1.0  0.0932
  H  H454  1  0.328000  0.408000  0.502200  1.0  0.1015
  H  H455  1  0.272200  0.362100  0.444800  1.0  0.0626
  H  H456  1  0.421800  0.339500  0.625600  1.0  0.0964
  H  H457  1  0.129300  0.303800  0.306200  1.0  0.0923
  H  H458  1  0.050900  0.287500  0.219200  1.0  0.1028
  H  H459  1  0.183500  0.202700  0.340300  1.0  0.0695
  H  H460  1  0.106900  0.186600  0.252400  1.0  0.1028
  H  H461  1  0.822700  0.623900  0.676700  1.0  0.1033
  H  H462  1  0.718500  0.607700  0.690000  1.0  0.0894
  H  H463  1  0.806200  0.541100  0.574900  1.0  0.0972
  H  H464  1  0.701900  0.525500  0.587300  1.0  0.1179
  H  H465  1  0.005600  0.528700  0.558300  1.0  0.0736
  H  H466  1  0.092100  0.506400  0.528100  1.0  0.0913
  H  H467  1  0.098200  0.623100  0.577800  1.0  0.085
  H  H468  1  0.188000  0.600000  0.551600  1.0  0.1047
  H  H469  1  0.742900  0.320700  0.528000  1.0  0.0823
  H  H470  1  0.793700  0.401600  0.634500  1.0  0.0776
  H  H471  1  0.673700  0.357200  0.458200  1.0  0.0944
  H  H472  1  0.720900  0.437800  0.565300  1.0  0.1098
  H  H473  1  0.762800  0.264300  0.740500  1.0  0.1002
  H  H474  1  0.770400  0.214600  0.794200  1.0  0.089
  H  H475  1  0.940800  0.235800  0.712200  1.0  0.0884
  H  H476  1  0.948300  0.186600  0.766500  1.0  0.0933
  H  H477  1  0.935300  0.534100  0.743100  1.0  0.0881
  H  H478  1  0.782900  0.460900  0.705200  1.0  0.0918
  H  H479  1  0.876300  0.565400  0.792000  1.0  0.1001
  H  H480  1  0.722700  0.493000  0.751800  1.0  0.1199
  H  H481  1  0.094000  0.480900  0.656900  1.0  0.0858
  H  H482  1  0.053200  0.387200  0.533200  1.0  0.101
  H  H483  1  0.969000  0.403300  0.570700  1.0  0.0988
  H  H484  1  0.179200  0.464700  0.619200  1.0  0.1123
  H  H485  1  0.462900  0.298300  0.465100  1.0  0.0936
  H  H486  1  0.607800  0.330400  0.609300  1.0  0.0891
  H  H487  1  0.581900  0.388100  0.581500  1.0  0.0896
  H  H488  1  0.439600  0.355700  0.436900  1.0  0.0866
  H  H489  1  0.737000  0.217400  0.591400  1.0  0.0891
  H  H490  1  0.824200  0.176800  0.630500  1.0  0.0931
  H  H491  1  0.702500  0.131100  0.708700  1.0  0.0912
  H  H492  1  0.614500  0.171700  0.669200  1.0  0.1069
  H  H493  1  0.236300  0.370200  0.789200  1.0  0.0729
  H  H494  1  0.265500  0.365800  0.639700  1.0  0.1091
  H  H495  1  0.341300  0.400100  0.827300  1.0  0.0906
  H  H496  1  0.373700  0.394000  0.679500  1.0  0.0786
  H  H497  1  0.068100  0.257100  0.651100  1.0  0.0842
  H  H498  1  0.978600  0.217300  0.612500  1.0  0.1013
  H  H499  1  0.860800  0.293600  0.516800  1.0  0.0927
  H  H500  1  0.950000  0.334000  0.557100  1.0  0.0976
  H  H501  1  0.682100  0.607600  0.783800  1.0  0.3235
  H  H502  1  0.637100  0.625000  0.812800  1.0  0.3427
  H  H503  1  0.596200  0.652900  0.670900  1.0  0.348
  H  H504  1  0.662700  0.663200  0.660600  1.0  0.3672
  H  H505  1  0.333333  0.897900  0.977500  1.0  0.3155
  H  H506  1  0.285600  0.926300  0.945100  1.0  0.3332
  H  H507  1  0.724000  0.071200  0.676300  1.0  0.3049
  H  H508  1  0.780700  0.044000  0.689900  1.0  0.3457
  H  H509  1  0.684600  0.734500  0.986400  1.0  0.3328
  H  H510  1  0.640700  0.705900  0.951200  1.0  0.3299
  H  H511  1  0.082500  0.927500  0.911400  1.0  0.3532
  H  H512  1  0.046500  0.902100  0.865500  1.0  0.3087
  H  H513  1  0.041200  0.917500  0.041300  1.0  0.3317
  H  H514  1  0.987200  0.929700  0.987800  1.0  0.3429
  H  H515  1  0.483300  0.704300  0.336000  1.0  0.3608
  H  H516  1  0.502800  0.742100  0.347700  1.0  0.3157
  H  H517  1  0.872500  0.914700  0.072000  1.0  0.3522
  H  H518  1  0.857000  0.944800  0.031700  1.0  0.3344
  H  H519  1  0.883800  0.070200  0.835300  1.0  0.3449
  H  H520  1  0.889500  0.039000  0.872500  1.0  0.3234
  H  H521  1  0.297200  0.013300  0.986500  1.0  0.3348
  H  H522  1  0.260000  0.047900  0.977700  1.0  0.3165
  H  H523  1  0.054100  0.924500  0.682500  1.0  0.3189
  H  H524  1  0.042100  0.923600  0.738100  1.0  0.3262
  H  H525  1  0.136400  0.793600  0.931300  1.0  0.0929
  H  H526  1  0.172000  0.908000  0.997800  1.0  0.101
  H  H527  1  0.227800  0.862100  0.055200  1.0  0.0626
  H  H528  1  0.078200  0.839500  0.874400  1.0  0.0965
  H  H529  1  0.370700  0.803800  0.193800  1.0  0.0928
  H  H530  1  0.449100  0.787500  0.280800  1.0  0.1026
  H  H531  1  0.316500  0.702700  0.159700  1.0  0.0694
  H  H532  1  0.393100  0.686600  0.247600  1.0  0.1027
  H  H533  1  0.677300  0.123900  0.823300  1.0  0.1041
  H  H534  1  0.781500  0.107700  0.810000  1.0  0.0896
  H  H535  1  0.693800  0.041100  0.925100  1.0  0.0972
  H  H536  1  0.798100  0.025500  0.912700  1.0  0.1184
  H  H537  1  0.494400  0.028700  0.941700  1.0  0.0738
  H  H538  1  0.407900  0.006400  0.971900  1.0  0.0914
  H  H539  1  0.401800  0.123100  0.922200  1.0  0.0849
  H  H540  1  0.312000  0.100000  0.948400  1.0  0.1048
  H  H541  1  0.757100  0.820700  0.972000  1.0  0.082
  H  H542  1  0.706300  0.901600  0.865500  1.0  0.0776
  H  H543  1  0.826300  0.857200  0.041800  1.0  0.0946
  H  H544  1  0.779100  0.937800  0.934700  1.0  0.1095
  H  H545  1  0.737200  0.764300  0.759500  1.0  0.1002
  H  H546  1  0.729600  0.714600  0.705800  1.0  0.0889
  H  H547  1  0.559200  0.735800  0.787800  1.0  0.0879
  H  H548  1  0.551700  0.686600  0.733500  1.0  0.0931
  H  H549  1  0.564700  0.034100  0.756900  1.0  0.0884
  H  H550  1  0.717100  0.960900  0.794800  1.0  0.0921
  H  H551  1  0.623700  0.065400  0.708000  1.0  0.1
  H  H552  1  0.777300  0.993000  0.748200  1.0  0.1194
  H  H553  1  0.406000  0.980900  0.843100  1.0  0.0856
  H  H554  1  0.446800  0.887200  0.966800  1.0  0.1011
  H  H555  1  0.531000  0.903300  0.929300  1.0  0.099
  H  H556  1  0.320800  0.964700  0.880800  1.0  0.1129
  H  H557  1  0.037100  0.798300  0.034900  1.0  0.0937
  H  H558  1  0.892200  0.830400  0.890700  1.0  0.0888
  H  H559  1  0.918100  0.888100  0.918500  1.0  0.0896
  H  H560  1  0.060400  0.855700  0.063100  1.0  0.086
  H  H561  1  0.763000  0.717400  0.908600  1.0  0.089
  H  H562  1  0.675800  0.676800  0.869500  1.0  0.0933
  H  H563  1  0.797500  0.631100  0.791300  1.0  0.0903
  H  H564  1  0.885500  0.671700  0.830800  1.0  0.1066
  H  H565  1  0.263700  0.870200  0.710800  1.0  0.0725
  H  H566  1  0.234500  0.865800  0.860300  1.0  0.1094
  H  H567  1  0.158700  0.900100  0.672700  1.0  0.0913
  H  H568  1  0.126300  0.894000  0.820500  1.0  0.0784
  H  H569  1  0.431900  0.757100  0.848900  1.0  0.0843
  H  H570  1  0.521400  0.717300  0.887500  1.0  0.101
  H  H571  1  0.639200  0.793600  0.983200  1.0  0.0926
  H  H572  1  0.550000  0.834000  0.942900  1.0  0.0977
  H  H573  1  0.182100  0.107600  0.783800  1.0  0.3235
  H  H574  1  0.137100  0.125000  0.812800  1.0  0.3427
  H  H575  1  0.096200  0.152900  0.670900  1.0  0.348
  H  H576  1  0.162700  0.163200  0.660600  1.0  0.3672
  H  H577  1  0.833300  0.397900  0.977500  1.0  0.3161
  H  H578  1  0.785600  0.426300  0.945100  1.0  0.3357
  H  H579  1  0.224000  0.571200  0.676300  1.0  0.3049
  H  H580  1  0.280700  0.544000  0.689900  1.0  0.3457
  H  H581  1  0.184600  0.234500  0.986400  1.0  0.3328
  H  H582  1  0.140700  0.205900  0.951200  1.0  0.3299
  H  H583  1  0.582500  0.427500  0.911400  1.0  0.3532
  H  H584  1  0.546500  0.402100  0.865500  1.0  0.3087
  H  H585  1  0.541200  0.417500  0.041300  1.0  0.3317
  H  H586  1  0.487200  0.429700  0.987800  1.0  0.3429
  H  H587  1  0.983300  0.204300  0.336000  1.0  0.3608
  H  H588  1  0.002800  0.242100  0.347700  1.0  0.3157
  H  H589  1  0.372500  0.414700  0.072000  1.0  0.3522
  H  H590  1  0.357000  0.444800  0.031700  1.0  0.3344
  H  H591  1  0.383800  0.570200  0.835300  1.0  0.3449
  H  H592  1  0.389500  0.539000  0.872500  1.0  0.3234
  H  H593  1  0.797200  0.513300  0.986500  1.0  0.3348
  H  H594  1  0.760000  0.547900  0.977700  1.0  0.3165
  H  H595  1  0.554100  0.424500  0.682500  1.0  0.3189
  H  H596  1  0.542100  0.423600  0.738100  1.0  0.3262
  H  H597  1  0.636400  0.293600  0.931300  1.0  0.0929
  H  H598  1  0.672000  0.408000  0.997800  1.0  0.1012
  H  H599  1  0.727800  0.362100  0.055200  1.0  0.0625
  H  H600  1  0.578200  0.339500  0.874400  1.0  0.0965
  H  H601  1  0.870700  0.303800  0.193800  1.0  0.0928
  H  H602  1  0.949100  0.287500  0.280800  1.0  0.1026
  H  H603  1  0.816500  0.202700  0.159700  1.0  0.0694
  H  H604  1  0.893100  0.186600  0.247600  1.0  0.1027
  H  H605  1  0.177300  0.623900  0.823300  1.0  0.1041
  H  H606  1  0.281500  0.607700  0.810000  1.0  0.0896
  H  H607  1  0.193800  0.541100  0.925100  1.0  0.0972
  H  H608  1  0.298100  0.525500  0.912700  1.0  0.1184
  H  H609  1  0.994400  0.528700  0.941700  1.0  0.0738
  H  H610  1  0.907900  0.506400  0.971900  1.0  0.0914
  H  H611  1  0.901800  0.623100  0.922200  1.0  0.0849
  H  H612  1  0.812000  0.600000  0.948400  1.0  0.1048
  H  H613  1  0.257100  0.320700  0.972000  1.0  0.082
  H  H614  1  0.206300  0.401600  0.865500  1.0  0.0776
  H  H615  1  0.326300  0.357200  0.041800  1.0  0.0946
  H  H616  1  0.279100  0.437800  0.934700  1.0  0.1095
  H  H617  1  0.237200  0.264300  0.759500  1.0  0.1002
  H  H618  1  0.229600  0.214600  0.705800  1.0  0.0889
  H  H619  1  0.059200  0.235800  0.787800  1.0  0.0879
  H  H620  1  0.051700  0.186600  0.733500  1.0  0.0931
  H  H621  1  0.064700  0.534100  0.756900  1.0  0.0884
  H  H622  1  0.217100  0.460900  0.794800  1.0  0.0921
  H  H623  1  0.123700  0.565400  0.708000  1.0  0.1
  H  H624  1  0.277300  0.493000  0.748200  1.0  0.1194
  H  H625  1  0.906000  0.480900  0.843100  1.0  0.0856
  H  H626  1  0.946800  0.387200  0.966800  1.0  0.1011
  H  H627  1  0.031000  0.403300  0.929300  1.0  0.099
  H  H628  1  0.820800  0.464700  0.880800  1.0  0.1129
  H  H629  1  0.537100  0.298300  0.034900  1.0  0.0937
  H  H630  1  0.392200  0.330400  0.890700  1.0  0.0888
  H  H631  1  0.418100  0.388100  0.918500  1.0  0.0896
  H  H632  1  0.560400  0.355700  0.063100  1.0  0.086
  H  H633  1  0.263000  0.217400  0.908600  1.0  0.089
  H  H634  1  0.175800  0.176800  0.869500  1.0  0.0933
  H  H635  1  0.297500  0.131100  0.791300  1.0  0.0903
  H  H636  1  0.385500  0.171700  0.830800  1.0  0.1066
  H  H637  1  0.763700  0.370200  0.710800  1.0  0.0725
  H  H638  1  0.734500  0.365800  0.860300  1.0  0.1094
  H  H639  1  0.658700  0.400100  0.672700  1.0  0.0913
  H  H640  1  0.626300  0.394000  0.820500  1.0  0.0784
  H  H641  1  0.931900  0.257100  0.848900  1.0  0.0843
  H  H642  1  0.021400  0.217300  0.887500  1.0  0.101
  H  H643  1  0.139200  0.293600  0.983200  1.0  0.0926
  H  H644  1  0.050000  0.334000  0.942900  1.0  0.0977
  C  C645  1  0.216610  0.206000  0.540460  1.0  0.321
  C  C646  1  0.142500  0.183500  0.445410  1.0  -0.1113
  C  C647  1  0.114600  0.121490  0.431500  1.0  0.1899
  C  C648  1  0.162800  0.115040  0.484900  1.0  -0.1998
  C  C649  1  0.186820  0.177390  0.500430  1.0  -0.0543
  C  C650  1  0.197100  0.142640  0.519010  1.0  -0.1131
  C  C651  1  0.107200  0.155940  0.411240  1.0  -0.1944
  C  C652  1  0.280930  0.234660  0.613140  1.0  0.3031
  C  C653  1  0.335120  0.244950  0.666430  1.0  -0.0697
  C  C654  1  0.375300  0.219820  0.704020  1.0  -0.0765
  C  C655  1  0.422300  0.229640  0.756500  1.0  -0.1856
  C  C656  1  0.342900  0.280050  0.683920  1.0  -0.0933
  C  C657  1  0.429700  0.264770  0.773100  1.0  0.2062
  C  C658  1  0.389300  0.289880  0.736800  1.0  -0.1702
  C  C659  1  0.610140  0.905000  0.387660  1.0  0.321
  C  C660  1  0.674200  0.915450  0.375840  1.0  -0.0372
  C  C661  1  0.701500  0.895990  0.341500  1.0  -0.081
  C  C662  1  0.764200  0.905550  0.333700  1.0  -0.1943
  C  C663  1  0.711500  0.945170  0.402100  1.0  -0.0722
  C  C664  1  0.801200  0.934510  0.360700  1.0  0.242
  C  C665  1  0.773900  0.954560  0.394800  1.0  -0.202
  C  C666  1  0.514850  0.907420  0.409340  1.0  0.2961
  C  C667  1  0.457400  0.956740  0.442600  1.0  -0.0881
  C  C668  1  0.405200  0.970240  0.460300  1.0  -0.2285
  C  C669  1  0.456700  0.921460  0.426000  1.0  -0.0676
  C  C670  1  0.402300  0.900780  0.430500  1.0  -0.0825
  C  C671  1  0.348800  0.914470  0.446800  1.0  -0.2065
  C  C672  1  0.349100  0.950090  0.461200  1.0  0.2579
  C  C673  1  0.725050  0.143080  0.410610  1.0  -0.0531
  C  C674  1  0.761100  0.155670  0.463960  1.0  -0.127
  C  C675  1  0.731400  0.107810  0.400800  1.0  -0.1211
  C  C676  1  0.681590  0.166850  0.365680  1.0  0.299
  C  C677  1  0.803200  0.133730  0.506000  1.0  -0.1824
  C  C678  1  0.774700  0.085880  0.442500  1.0  -0.1815
  C  C679  1  0.811100  0.099150  0.495400  1.0  0.228
  C  C680  1  0.648460  0.244090  0.278790  1.0  -0.038
  C  C681  1  0.699400  0.251120  0.254080  1.0  -0.0874
  C  C682  1  0.694500  0.280830  0.221600  1.0  -0.195
  C  C683  1  0.593340  0.268180  0.270720  1.0  -0.1561
  C  C684  1  0.649420  0.211310  0.309860  1.0  0.3186
  C  C685  1  0.638200  0.304100  0.211920  1.0  0.2451
  C  C686  1  0.588700  0.297560  0.238080  1.0  -0.1946
  C  C687  1  0.593050  0.029260  0.305470  1.0  0.2839
  C  C688  1  0.633700  0.006650  0.280270  1.0  -0.0322
  C  C689  1  0.607100  0.974620  0.254410  1.0  -0.0895
  C  C690  1  0.705400  0.967750  0.221500  1.0  0.2138
  C  C691  1  0.697900  0.018060  0.277300  1.0  -0.1411
  C  C692  1  0.642600  0.955720  0.225300  1.0  -0.1919
  C  C693  1  0.733800  0.999000  0.249000  1.0  -0.2069
  C  C694  1  0.414300  0.038030  0.367910  1.0  -0.0985
  C  C695  1  0.438200  0.093860  0.441960  1.0  -0.1916
  C  C696  1  0.477800  0.056160  0.381260  1.0  -0.0512
  C  C697  1  0.527300  0.050540  0.350520  1.0  0.2967
  C  C698  1  0.488600  0.084300  0.419320  1.0  -0.1135
  C  C699  1  0.374600  0.075980  0.428900  1.0  0.2147
  C  C700  1  0.363300  0.047630  0.390700  1.0  -0.1933
  C  C701  1  0.961860  0.192430  0.459440  1.0  0.0026
  C  C702  1  0.012600  0.183780  0.511220  1.0  -0.0657
  C  C703  1  0.926600  0.164770  0.425300  1.0  -0.0751
  C  C704  1  0.942000  0.130040  0.442200  1.0  -0.1929
  C  C705  1  0.946860  0.229170  0.441760  1.0  0.2801
  C  C706  1  0.027000  0.149280  0.528090  1.0  -0.1882
  C  C707  1  0.992400  0.121930  0.493600  1.0  0.2298
  C  C708  1  0.891870  0.276510  0.403880  1.0  0.3035
  C  C709  1  0.770600  0.300160  0.385460  1.0  -0.0828
  C  C710  1  0.718200  0.324460  0.362000  1.0  -0.2105
  C  C711  1  0.728000  0.350880  0.327100  1.0  0.2527
  C  C712  1  0.790700  0.351700  0.315500  1.0  -0.1853
  C  C713  1  0.843700  0.327310  0.339160  1.0  -0.1053
  C  C714  1  0.834800  0.301390  0.375350  1.0  -0.0538
  C  C715  1  0.333790  0.147090  0.313650  1.0  0.2618
  C  C716  1  0.260790  0.134090  0.289460  1.0  -0.0536
  C  C717  1  0.236700  0.124340  0.233600  1.0  -0.1328
  C  C718  1  0.219600  0.127340  0.322500  1.0  -0.0756
  C  C719  1  0.173400  0.106580  0.210500  1.0  -0.1827
  C  C720  1  0.133100  0.098800  0.241800  1.0  0.2314
  C  C721  1  0.155100  0.110100  0.298700  1.0  -0.1539
  C  C722  1  0.482310  0.200080  0.390660  1.0  -0.0561
  C  C723  1  0.474100  0.235330  0.375350  1.0  -0.0691
  C  C724  1  0.527400  0.259250  0.398700  1.0  -0.1806
  C  C725  1  0.597700  0.213740  0.455600  1.0  -0.1772
  C  C726  1  0.590100  0.248420  0.438900  1.0  0.2091
  C  C727  1  0.429490  0.174190  0.358340  1.0  0.3047
  C  C728  1  0.544100  0.189440  0.431480  1.0  -0.0878
  C  C729  1  0.716610  0.706000  0.540460  1.0  0.321
  C  C730  1  0.642500  0.683500  0.445410  1.0  -0.1113
  C  C731  1  0.614600  0.621490  0.431500  1.0  0.1899
  C  C732  1  0.662800  0.615040  0.484900  1.0  -0.1998
  C  C733  1  0.686820  0.677390  0.500430  1.0  -0.0543
  C  C734  1  0.697100  0.642640  0.519010  1.0  -0.1131
  C  C735  1  0.607200  0.655940  0.411240  1.0  -0.1944
  C  C736  1  0.780930  0.734660  0.613140  1.0  0.3031
  C  C737  1  0.835120  0.744950  0.666430  1.0  -0.0697
  C  C738  1  0.875300  0.719820  0.704020  1.0  -0.0765
  C  C739  1  0.922300  0.729640  0.756500  1.0  -0.1856
  C  C740  1  0.842900  0.780050  0.683920  1.0  -0.0933
  C  C741  1  0.929700  0.764770  0.773100  1.0  0.2062
  C  C742  1  0.889300  0.789880  0.736800  1.0  -0.1702
  C  C743  1  0.110140  0.405000  0.387660  1.0  0.321
  C  C744  1  0.174200  0.415450  0.375840  1.0  -0.0372
  C  C745  1  0.201500  0.395990  0.341500  1.0  -0.081
  C  C746  1  0.264200  0.405550  0.333700  1.0  -0.1943
  C  C747  1  0.211500  0.445170  0.402100  1.0  -0.0722
  C  C748  1  0.301200  0.434510  0.360700  1.0  0.242
  C  C749  1  0.273900  0.454560  0.394800  1.0  -0.202
  C  C750  1  0.014850  0.407420  0.409340  1.0  0.296
  C  C751  1  0.957400  0.456740  0.442600  1.0  -0.0881
  C  C752  1  0.905200  0.470240  0.460300  1.0  -0.2285
  C  C753  1  0.956700  0.421460  0.426000  1.0  -0.0676
  C  C754  1  0.902300  0.400780  0.430500  1.0  -0.0825
  C  C755  1  0.848800  0.414470  0.446800  1.0  -0.2065
  C  C756  1  0.849100  0.450090  0.461200  1.0  0.2579
  C  C757  1  0.225050  0.643080  0.410610  1.0  -0.0531
  C  C758  1  0.261100  0.655670  0.463960  1.0  -0.127
  C  C759  1  0.231400  0.607810  0.400800  1.0  -0.1211
  C  C760  1  0.181590  0.666850  0.365680  1.0  0.299
  C  C761  1  0.303200  0.633730  0.506000  1.0  -0.1824
  C  C762  1  0.274700  0.585880  0.442500  1.0  -0.1815
  C  C763  1  0.311100  0.599150  0.495400  1.0  0.228
  C  C764  1  0.148460  0.744090  0.278790  1.0  -0.038
  C  C765  1  0.199400  0.751120  0.254080  1.0  -0.0874
  C  C766  1  0.194500  0.780830  0.221600  1.0  -0.195
  C  C767  1  0.093340  0.768180  0.270720  1.0  -0.1561
  C  C768  1  0.149420  0.711310  0.309860  1.0  0.3186
  C  C769  1  0.138200  0.804100  0.211920  1.0  0.2451
  C  C770  1  0.088700  0.797560  0.238080  1.0  -0.1946
  C  C771  1  0.093050  0.529260  0.305470  1.0  0.2839
  C  C772  1  0.133700  0.506650  0.280270  1.0  -0.0322
  C  C773  1  0.107100  0.474620  0.254410  1.0  -0.0895
  C  C774  1  0.205400  0.467750  0.221500  1.0  0.2138
  C  C775  1  0.197900  0.518060  0.277300  1.0  -0.1411
  C  C776  1  0.142600  0.455720  0.225300  1.0  -0.1919
  C  C777  1  0.233800  0.499000  0.249000  1.0  -0.2069
  C  C778  1  0.914300  0.538030  0.367910  1.0  -0.0985
  C  C779  1  0.938200  0.593860  0.441960  1.0  -0.1917
  C  C780  1  0.977800  0.556160  0.381260  1.0  -0.0512
  C  C781  1  0.027300  0.550540  0.350520  1.0  0.2967
  C  C782  1  0.988600  0.584300  0.419320  1.0  -0.1135
  C  C783  1  0.874600  0.575980  0.428900  1.0  0.2147
  C  C784  1  0.863300  0.547630  0.390700  1.0  -0.1933
  C  C785  1  0.461860  0.692430  0.459440  1.0  0.0026
  C  C786  1  0.512600  0.683780  0.511220  1.0  -0.0657
  C  C787  1  0.426600  0.664770  0.425300  1.0  -0.0751
  C  C788  1  0.442000  0.630040  0.442200  1.0  -0.1929
  C  C789  1  0.446860  0.729170  0.441760  1.0  0.2801
  C  C790  1  0.527000  0.649280  0.528090  1.0  -0.1882
  C  C791  1  0.492400  0.621930  0.493600  1.0  0.2298
  C  C792  1  0.391870  0.776510  0.403880  1.0  0.3035
  C  C793  1  0.270600  0.800160  0.385460  1.0  -0.0828
  C  C794  1  0.218200  0.824460  0.362000  1.0  -0.2105
  C  C795  1  0.228000  0.850880  0.327100  1.0  0.2527
  C  C796  1  0.290700  0.851700  0.315500  1.0  -0.1853
  C  C797  1  0.343700  0.827310  0.339160  1.0  -0.1053
  C  C798  1  0.334800  0.801390  0.375350  1.0  -0.0538
  C  C799  1  0.833790  0.647090  0.313650  1.0  0.2618
  C  C800  1  0.760790  0.634090  0.289460  1.0  -0.0536
  C  C801  1  0.736700  0.624340  0.233600  1.0  -0.1328
  C  C802  1  0.719600  0.627340  0.322500  1.0  -0.0756
  C  C803  1  0.673400  0.606580  0.210500  1.0  -0.1827
  C  C804  1  0.633100  0.598800  0.241800  1.0  0.2314
  C  C805  1  0.655100  0.610100  0.298700  1.0  -0.1539
  C  C806  1  0.982310  0.700080  0.390660  1.0  -0.0561
  C  C807  1  0.974100  0.735330  0.375350  1.0  -0.0691
  C  C808  1  0.027400  0.759250  0.398700  1.0  -0.1806
  C  C809  1  0.097700  0.713740  0.455600  1.0  -0.1772
  C  C810  1  0.090100  0.748420  0.438900  1.0  0.2091
  C  C811  1  0.929490  0.674190  0.358340  1.0  0.3047
  C  C812  1  0.044100  0.689440  0.431480  1.0  -0.0878
  C  C813  1  0.783390  0.206000  0.959540  1.0  0.3206
  C  C814  1  0.857500  0.183500  0.054590  1.0  -0.1113
  C  C815  1  0.885400  0.121490  0.068500  1.0  0.1893
  C  C816  1  0.837200  0.115040  0.015100  1.0  -0.201
  C  C817  1  0.813180  0.177390  0.999570  1.0  -0.0543
  C  C818  1  0.802900  0.142640  0.980990  1.0  -0.1108
  C  C819  1  0.892800  0.155940  0.088760  1.0  -0.1953
  C  C820  1  0.719070  0.234660  0.886860  1.0  0.303
  C  C821  1  0.664880  0.244950  0.833570  1.0  -0.0717
  C  C822  1  0.624700  0.219820  0.795980  1.0  -0.0762
  C  C823  1  0.577700  0.229640  0.743500  1.0  -0.1846
  C  C824  1  0.657100  0.280050  0.816080  1.0  -0.0952
  C  C825  1  0.570300  0.264770  0.726900  1.0  0.2063
  C  C826  1  0.610700  0.289880  0.763200  1.0  -0.1689
  C  C827  1  0.389860  0.905000  0.112340  1.0  0.3224
  C  C828  1  0.325800  0.915450  0.124160  1.0  -0.0353
  C  C829  1  0.298500  0.895990  0.158500  1.0  -0.083
  C  C830  1  0.235800  0.905550  0.166300  1.0  -0.1944
  C  C831  1  0.288500  0.945170  0.097900  1.0  -0.0714
  C  C832  1  0.198800  0.934510  0.139300  1.0  0.2434
  C  C833  1  0.226100  0.954560  0.105200  1.0  -0.2027
  C  C834  1  0.485150  0.907420  0.090660  1.0  0.2958
  C  C835  1  0.542600  0.956740  0.057400  1.0  -0.0867
  C  C836  1  0.594800  0.970240  0.039700  1.0  -0.2286
  C  C837  1  0.543300  0.921460  0.074000  1.0  -0.0679
  C  C838  1  0.597700  0.900780  0.069500  1.0  -0.0822
  C  C839  1  0.651200  0.914470  0.053200  1.0  -0.2085
  C  C840  1  0.650900  0.950090  0.038800  1.0  0.2589
  C  C841  1  0.274950  0.143080  0.089390  1.0  -0.0531
  C  C842  1  0.238900  0.155670  0.036040  1.0  -0.1277
  C  C843  1  0.268600  0.107810  0.099200  1.0  -0.1201
  C  C844  1  0.318410  0.166850  0.134320  1.0  0.2992
  C  C845  1  0.196800  0.133730  0.994000  1.0  -0.1817
  C  C846  1  0.225300  0.085880  0.057500  1.0  -0.1818
  C  C847  1  0.188900  0.099150  0.004600  1.0  0.229
  C  C848  1  0.351540  0.244090  0.221210  1.0  -0.0376
  C  C849  1  0.300600  0.251120  0.245920  1.0  -0.0862
  C  C850  1  0.305500  0.280830  0.278400  1.0  -0.1965
  C  C851  1  0.406660  0.268180  0.229280  1.0  -0.1577
  C  C852  1  0.350580  0.211310  0.190140  1.0  0.3181
  C  C853  1  0.361800  0.304100  0.288080  1.0  0.245
  C  C854  1  0.411300  0.297560  0.261920  1.0  -0.1942
  C  C855  1  0.406950  0.029260  0.194530  1.0  0.2839
  C  C856  1  0.366300  0.006650  0.219730  1.0  -0.0318
  C  C857  1  0.392900  0.974620  0.245590  1.0  -0.0909
  C  C858  1  0.294600  0.967750  0.278500  1.0  0.2129
  C  C859  1  0.302100  0.018060  0.222700  1.0  -0.1378
  C  C860  1  0.357400  0.955720  0.274700  1.0  -0.1923
  C  C861  1  0.266200  0.999000  0.251000  1.0  -0.2064
  C  C862  1  0.585700  0.038030  0.132090  1.0  -0.0986
  C  C863  1  0.561800  0.093860  0.058040  1.0  -0.1926
  C  C864  1  0.522200  0.056160  0.118740  1.0  -0.0516
  C  C865  1  0.472700  0.050540  0.149480  1.0  0.2962
  C  C866  1  0.511400  0.084300  0.080680  1.0  -0.113
  C  C867  1  0.625400  0.075980  0.071100  1.0  0.2142
  C  C868  1  0.636700  0.047630  0.109300  1.0  -0.1946
  C  C869  1  0.038140  0.192430  0.040560  1.0  0.002
  C  C870  1  0.987400  0.183780  0.988780  1.0  -0.065
  C  C871  1  0.073400  0.164770  0.074700  1.0  -0.0759
  C  C872  1  0.058000  0.130040  0.057800  1.0  -0.1938
  C  C873  1  0.053140  0.229170  0.058240  1.0  0.2802
  C  C874  1  0.973000  0.149280  0.971910  1.0  -0.1889
  C  C875  1  0.007600  0.121930  0.006400  1.0  0.2282
  C  C876  1  0.108130  0.276510  0.096120  1.0  0.3026
  C  C877  1  0.229400  0.300160  0.114540  1.0  -0.081
  C  C878  1  0.281800  0.324460  0.138000  1.0  -0.2098
  C  C879  1  0.272000  0.350880  0.172900  1.0  0.2517
  C  C880  1  0.209300  0.351700  0.184500  1.0  -0.1855
  C  C881  1  0.156300  0.327310  0.160840  1.0  -0.1046
  C  C882  1  0.165200  0.301390  0.124650  1.0  -0.0551
  C  C883  1  0.666210  0.147090  0.186350  1.0  0.2609
  C  C884  1  0.739210  0.134090  0.210540  1.0  -0.0529
  C  C885  1  0.763300  0.124340  0.266400  1.0  -0.1329
  C  C886  1  0.780400  0.127340  0.177500  1.0  -0.0756
  C  C887  1  0.826600  0.106580  0.289500  1.0  -0.1817
  C  C888  1  0.866900  0.098800  0.258200  1.0  0.2315
  C  C889  1  0.844900  0.110100  0.201300  1.0  -0.1543
  C  C890  1  0.517690  0.200080  0.109340  1.0  -0.056
  C  C891  1  0.525900  0.235330  0.124650  1.0  -0.0688
  C  C892  1  0.472600  0.259250  0.101300  1.0  -0.1799
  C  C893  1  0.402300  0.213740  0.044400  1.0  -0.1765
  C  C894  1  0.409900  0.248420  0.061100  1.0  0.2106
  C  C895  1  0.570510  0.174190  0.141660  1.0  0.3053
  C  C896  1  0.455900  0.189440  0.068520  1.0  -0.0885
  C  C897  1  0.283390  0.706000  0.959540  1.0  0.3206
  C  C898  1  0.357500  0.683500  0.054590  1.0  -0.1113
  C  C899  1  0.385400  0.621490  0.068500  1.0  0.1893
  C  C900  1  0.337200  0.615040  0.015100  1.0  -0.201
  C  C901  1  0.313180  0.677390  0.999570  1.0  -0.0543
  C  C902  1  0.302900  0.642640  0.980990  1.0  -0.1108
  C  C903  1  0.392800  0.655940  0.088760  1.0  -0.1953
  C  C904  1  0.219070  0.734660  0.886860  1.0  0.303
  C  C905  1  0.164880  0.744950  0.833570  1.0  -0.0717
  C  C906  1  0.124700  0.719820  0.795980  1.0  -0.0762
  C  C907  1  0.077700  0.729640  0.743500  1.0  -0.1846
  C  C908  1  0.157100  0.780050  0.816080  1.0  -0.0952
  C  C909  1  0.070300  0.764770  0.726900  1.0  0.2063
  C  C910  1  0.110700  0.789880  0.763200  1.0  -0.1689
  C  C911  1  0.889860  0.405000  0.112340  1.0  0.3224
  C  C912  1  0.825800  0.415450  0.124160  1.0  -0.0353
  C  C913  1  0.798500  0.395990  0.158500  1.0  -0.083
  C  C914  1  0.735800  0.405550  0.166300  1.0  -0.1944
  C  C915  1  0.788500  0.445170  0.097900  1.0  -0.0714
  C  C916  1  0.698800  0.434510  0.139300  1.0  0.2434
  C  C917  1  0.726100  0.454560  0.105200  1.0  -0.2027
  C  C918  1  0.985150  0.407420  0.090660  1.0  0.2956
  C  C919  1  0.042600  0.456740  0.057400  1.0  -0.0867
  C  C920  1  0.094800  0.470240  0.039700  1.0  -0.2286
  C  C921  1  0.043300  0.421460  0.074000  1.0  -0.0679
  C  C922  1  0.097700  0.400780  0.069500  1.0  -0.0822
  C  C923  1  0.151200  0.414470  0.053200  1.0  -0.2085
  C  C924  1  0.150900  0.450090  0.038800  1.0  0.2589
  C  C925  1  0.774950  0.643080  0.089390  1.0  -0.0531
  C  C926  1  0.738900  0.655670  0.036040  1.0  -0.1277
  C  C927  1  0.768600  0.607810  0.099200  1.0  -0.1201
  C  C928  1  0.818410  0.666850  0.134320  1.0  0.2992
  C  C929  1  0.696800  0.633730  0.994000  1.0  -0.1817
  C  C930  1  0.725300  0.585880  0.057500  1.0  -0.1818
  C  C931  1  0.688900  0.599150  0.004600  1.0  0.229
  C  C932  1  0.851540  0.744090  0.221210  1.0  -0.0376
  C  C933  1  0.800600  0.751120  0.245920  1.0  -0.0862
  C  C934  1  0.805500  0.780830  0.278400  1.0  -0.1965
  C  C935  1  0.906660  0.768180  0.229280  1.0  -0.1577
  C  C936  1  0.850580  0.711310  0.190140  1.0  0.3181
  C  C937  1  0.861800  0.804100  0.288080  1.0  0.245
  C  C938  1  0.911300  0.797560  0.261920  1.0  -0.1942
  C  C939  1  0.906950  0.529260  0.194530  1.0  0.2839
  C  C940  1  0.866300  0.506650  0.219730  1.0  -0.0318
  C  C941  1  0.892900  0.474620  0.245590  1.0  -0.0909
  C  C942  1  0.794600  0.467750  0.278500  1.0  0.2129
  C  C943  1  0.802100  0.518060  0.222700  1.0  -0.1378
  C  C944  1  0.857400  0.455720  0.274700  1.0  -0.1923
  C  C945  1  0.766200  0.499000  0.251000  1.0  -0.2064
  C  C946  1  0.085700  0.538030  0.132090  1.0  -0.0986
  C  C947  1  0.061800  0.593860  0.058040  1.0  -0.1927
  C  C948  1  0.022200  0.556160  0.118740  1.0  -0.0516
  C  C949  1  0.972700  0.550540  0.149480  1.0  0.2962
  C  C950  1  0.011400  0.584300  0.080680  1.0  -0.113
  C  C951  1  0.125400  0.575980  0.071100  1.0  0.2142
  C  C952  1  0.136700  0.547630  0.109300  1.0  -0.1946
  C  C953  1  0.538140  0.692430  0.040560  1.0  0.002
  C  C954  1  0.487400  0.683780  0.988780  1.0  -0.065
  C  C955  1  0.573400  0.664770  0.074700  1.0  -0.0759
  C  C956  1  0.558000  0.630040  0.057800  1.0  -0.1938
  C  C957  1  0.553140  0.729170  0.058240  1.0  0.2802
  C  C958  1  0.473000  0.649280  0.971910  1.0  -0.1889
  C  C959  1  0.507600  0.621930  0.006400  1.0  0.2282
  C  C960  1  0.608130  0.776510  0.096120  1.0  0.3026
  C  C961  1  0.729400  0.800160  0.114540  1.0  -0.081
  C  C962  1  0.781800  0.824460  0.138000  1.0  -0.2098
  C  C963  1  0.772000  0.850880  0.172900  1.0  0.2517
  C  C964  1  0.709300  0.851700  0.184500  1.0  -0.1855
  C  C965  1  0.656300  0.827310  0.160840  1.0  -0.1046
  C  C966  1  0.665200  0.801390  0.124650  1.0  -0.0551
  C  C967  1  0.166210  0.647090  0.186350  1.0  0.2609
  C  C968  1  0.239210  0.634090  0.210540  1.0  -0.0529
  C  C969  1  0.263300  0.624340  0.266400  1.0  -0.1329
  C  C970  1  0.280400  0.627340  0.177500  1.0  -0.0756
  C  C971  1  0.326600  0.606580  0.289500  1.0  -0.1817
  C  C972  1  0.366900  0.598800  0.258200  1.0  0.2315
  C  C973  1  0.344900  0.610100  0.201300  1.0  -0.1543
  C  C974  1  0.017690  0.700080  0.109340  1.0  -0.056
  C  C975  1  0.025900  0.735330  0.124650  1.0  -0.0688
  C  C976  1  0.972600  0.759250  0.101300  1.0  -0.1799
  C  C977  1  0.902300  0.713740  0.044400  1.0  -0.1765
  C  C978  1  0.909900  0.748420  0.061100  1.0  0.2106
  C  C979  1  0.070510  0.674190  0.141660  1.0  0.3053
  C  C980  1  0.955900  0.689440  0.068520  1.0  -0.0886
  C  C981  1  0.783390  0.794000  0.459540  1.0  0.3211
  C  C982  1  0.857500  0.816500  0.554590  1.0  -0.1112
  C  C983  1  0.885400  0.878510  0.568500  1.0  0.1899
  C  C984  1  0.837200  0.884960  0.515100  1.0  -0.2022
  C  C985  1  0.813180  0.822610  0.499570  1.0  -0.0544
  C  C986  1  0.802900  0.857360  0.480990  1.0  -0.1107
  C  C987  1  0.892800  0.844060  0.588760  1.0  -0.1954
  C  C988  1  0.719070  0.765340  0.386860  1.0  0.303
  C  C989  1  0.664880  0.755050  0.333570  1.0  -0.072
  C  C990  1  0.624700  0.780180  0.295980  1.0  -0.0756
  C  C991  1  0.577700  0.770360  0.243500  1.0  -0.1852
  C  C992  1  0.657100  0.719950  0.316080  1.0  -0.094
  C  C993  1  0.570300  0.735230  0.226900  1.0  0.2064
  C  C994  1  0.610700  0.710120  0.263200  1.0  -0.1689
  C  C995  1  0.389860  0.095000  0.612340  1.0  0.322
  C  C996  1  0.325800  0.084550  0.624160  1.0  -0.0353
  C  C997  1  0.298500  0.104010  0.658500  1.0  -0.0843
  C  C998  1  0.235800  0.094450  0.666300  1.0  -0.1943
  C  C999  1  0.288500  0.054830  0.597900  1.0  -0.0706
  C  C1000  1  0.198800  0.065490  0.639300  1.0  0.2441
  C  C1001  1  0.226100  0.045440  0.605200  1.0  -0.2018
  C  C1002  1  0.485150  0.092580  0.590660  1.0  0.2956
  C  C1003  1  0.542600  0.043260  0.557400  1.0  -0.0857
  C  C1004  1  0.594800  0.029760  0.539700  1.0  -0.2283
  C  C1005  1  0.543300  0.078540  0.574000  1.0  -0.0684
  C  C1006  1  0.597700  0.099220  0.569500  1.0  -0.0841
  C  C1007  1  0.651200  0.085530  0.553200  1.0  -0.2078
  C  C1008  1  0.650900  0.049910  0.538800  1.0  0.2583
  C  C1009  1  0.274950  0.856920  0.589390  1.0  -0.053
  C  C1010  1  0.238900  0.844330  0.536040  1.0  -0.1286
  C  C1011  1  0.268600  0.892190  0.599200  1.0  -0.1201
  C  C1012  1  0.318410  0.833150  0.634320  1.0  0.2991
  C  C1013  1  0.196800  0.866270  0.494000  1.0  -0.1815
  C  C1014  1  0.225300  0.914120  0.557500  1.0  -0.1831
  C  C1015  1  0.188900  0.900850  0.504600  1.0  0.2296
  C  C1016  1  0.351540  0.755910  0.721210  1.0  -0.037
  C  C1017  1  0.300600  0.748880  0.745920  1.0  -0.0878
  C  C1018  1  0.305500  0.719170  0.778400  1.0  -0.1962
  C  C1019  1  0.406660  0.731820  0.729280  1.0  -0.1572
  C  C1020  1  0.350580  0.788690  0.690140  1.0  0.3176
  C  C1021  1  0.361800  0.695900  0.788080  1.0  0.2453
  C  C1022  1  0.411300  0.702440  0.761920  1.0  -0.1946
  C  C1023  1  0.406950  0.970740  0.694530  1.0  0.2842
  C  C1024  1  0.366300  0.993350  0.719730  1.0  -0.0318
  C  C1025  1  0.392900  0.025380  0.745590  1.0  -0.0912
  C  C1026  1  0.294600  0.032250  0.778500  1.0  0.2139
  C  C1027  1  0.302100  0.981940  0.722700  1.0  -0.1375
  C  C1028  1  0.357400  0.044280  0.774700  1.0  -0.1935
  C  C1029  1  0.266200  0.001000  0.751000  1.0  -0.2041
  C  C1030  1  0.585700  0.961970  0.632090  1.0  -0.0981
  C  C1031  1  0.561800  0.906140  0.558040  1.0  -0.1929
  C  C1032  1  0.522200  0.943840  0.618740  1.0  -0.0513
  C  C1033  1  0.472700  0.949460  0.649480  1.0  0.2966
  C  C1034  1  0.511400  0.915700  0.580680  1.0  -0.1129
  C  C1035  1  0.625400  0.924020  0.571100  1.0  0.2142
  C  C1036  1  0.636700  0.952370  0.609300  1.0  -0.1947
  C  C1037  1  0.038140  0.807570  0.540560  1.0  0.0018
  C  C1038  1  0.987400  0.816220  0.488780  1.0  -0.0651
  C  C1039  1  0.073400  0.835230  0.574700  1.0  -0.0761
  C  C1040  1  0.058000  0.869960  0.557800  1.0  -0.1937
  C  C1041  1  0.053140  0.770830  0.558240  1.0  0.2809
  C  C1042  1  0.973000  0.850720  0.471910  1.0  -0.1893
  C  C1043  1  0.007600  0.878070  0.506400  1.0  0.2285
  C  C1044  1  0.108130  0.723490  0.596120  1.0  0.3025
  C  C1045  1  0.229400  0.699840  0.614540  1.0  -0.0803
  C  C1046  1  0.281800  0.675540  0.638000  1.0  -0.2097
  C  C1047  1  0.272000  0.649120  0.672900  1.0  0.2517
  C  C1048  1  0.209300  0.648300  0.684500  1.0  -0.1853
  C  C1049  1  0.156300  0.672690  0.660840  1.0  -0.1045
  C  C1050  1  0.165200  0.698610  0.624650  1.0  -0.0551
  C  C1051  1  0.666210  0.852910  0.686350  1.0  0.261
  C  C1052  1  0.739210  0.865910  0.710540  1.0  -0.0529
  C  C1053  1  0.763300  0.875660  0.766400  1.0  -0.1325
  C  C1054  1  0.780400  0.872660  0.677500  1.0  -0.0758
  C  C1055  1  0.826600  0.893420  0.789500  1.0  -0.1821
  C  C1056  1  0.866900  0.901200  0.758200  1.0  0.2308
  C  C1057  1  0.844900  0.889900  0.701300  1.0  -0.1538
  C  C1058  1  0.517690  0.799920  0.609340  1.0  -0.0556
  C  C1059  1  0.525900  0.764670  0.624650  1.0  -0.0688
  C  C1060  1  0.472600  0.740750  0.601300  1.0  -0.1794
  C  C1061  1  0.402300  0.786260  0.544400  1.0  -0.1771
  C  C1062  1  0.409900  0.751580  0.561100  1.0  0.2107
  C  C1063  1  0.570510  0.825810  0.641660  1.0  0.3051
  C  C1064  1  0.455900  0.810560  0.568520  1.0  -0.0889
  C  C1065  1  0.283390  0.294000  0.459540  1.0  0.3211
  C  C1066  1  0.357500  0.316500  0.554590  1.0  -0.1112
  C  C1067  1  0.385400  0.378510  0.568500  1.0  0.1899
  C  C1068  1  0.337200  0.384960  0.515100  1.0  -0.2021
  C  C1069  1  0.313180  0.322610  0.499570  1.0  -0.0544
  C  C1070  1  0.302900  0.357360  0.480990  1.0  -0.1107
  C  C1071  1  0.392800  0.344060  0.588760  1.0  -0.1954
  C  C1072  1  0.219070  0.265340  0.386860  1.0  0.303
  C  C1073  1  0.164880  0.255050  0.333570  1.0  -0.072
  C  C1074  1  0.124700  0.280180  0.295980  1.0  -0.0756
  C  C1075  1  0.077700  0.270360  0.243500  1.0  -0.1852
  C  C1076  1  0.157100  0.219950  0.316080  1.0  -0.094
  C  C1077  1  0.070300  0.235230  0.226900  1.0  0.2064
  C  C1078  1  0.110700  0.210120  0.263200  1.0  -0.1689
  C  C1079  1  0.889860  0.595000  0.612340  1.0  0.322
  C  C1080  1  0.825800  0.584550  0.624160  1.0  -0.0353
  C  C1081  1  0.798500  0.604010  0.658500  1.0  -0.0843
  C  C1082  1  0.735800  0.594450  0.666300  1.0  -0.1943
  C  C1083  1  0.788500  0.554830  0.597900  1.0  -0.0706
  C  C1084  1  0.698800  0.565490  0.639300  1.0  0.2441
  C  C1085  1  0.726100  0.545440  0.605200  1.0  -0.2018
  C  C1086  1  0.985150  0.592580  0.590660  1.0  0.2954
  C  C1087  1  0.042600  0.543260  0.557400  1.0  -0.0857
  C  C1088  1  0.094800  0.529760  0.539700  1.0  -0.2283
  C  C1089  1  0.043300  0.578540  0.574000  1.0  -0.0684
  C  C1090  1  0.097700  0.599220  0.569500  1.0  -0.0841
  C  C1091  1  0.151200  0.585530  0.553200  1.0  -0.2078
  C  C1092  1  0.150900  0.549910  0.538800  1.0  0.2583
  C  C1093  1  0.774950  0.356920  0.589390  1.0  -0.053
  C  C1094  1  0.738900  0.344330  0.536040  1.0  -0.1286
  C  C1095  1  0.768600  0.392190  0.599200  1.0  -0.1201
  C  C1096  1  0.818410  0.333150  0.634320  1.0  0.2991
  C  C1097  1  0.696800  0.366270  0.494000  1.0  -0.1815
  C  C1098  1  0.725300  0.414120  0.557500  1.0  -0.1831
  C  C1099  1  0.688900  0.400850  0.504600  1.0  0.2296
  C  C1100  1  0.851540  0.255910  0.721210  1.0  -0.037
  C  C1101  1  0.800600  0.248880  0.745920  1.0  -0.0878
  C  C1102  1  0.805500  0.219170  0.778400  1.0  -0.1962
  C  C1103  1  0.906660  0.231820  0.729280  1.0  -0.1572
  C  C1104  1  0.850580  0.288690  0.690140  1.0  0.3176
  C  C1105  1  0.861800  0.195900  0.788080  1.0  0.2453
  C  C1106  1  0.911300  0.202440  0.761920  1.0  -0.1946
  C  C1107  1  0.906950  0.470740  0.694530  1.0  0.2842
  C  C1108  1  0.866300  0.493350  0.719730  1.0  -0.0318
  C  C1109  1  0.892900  0.525380  0.745590  1.0  -0.0912
  C  C1110  1  0.794600  0.532250  0.778500  1.0  0.2139
  C  C1111  1  0.802100  0.481940  0.722700  1.0  -0.1375
  C  C1112  1  0.857400  0.544280  0.774700  1.0  -0.1935
  C  C1113  1  0.766200  0.501000  0.751000  1.0  -0.2041
  C  C1114  1  0.085700  0.461970  0.632090  1.0  -0.0981
  C  C1115  1  0.061800  0.406140  0.558040  1.0  -0.1929
  C  C1116  1  0.022200  0.443840  0.618740  1.0  -0.0513
  C  C1117  1  0.972700  0.449460  0.649480  1.0  0.2966
  C  C1118  1  0.011400  0.415700  0.580680  1.0  -0.1129
  C  C1119  1  0.125400  0.424020  0.571100  1.0  0.2142
  C  C1120  1  0.136700  0.452370  0.609300  1.0  -0.1947
  C  C1121  1  0.538140  0.307570  0.540560  1.0  0.0018
  C  C1122  1  0.487400  0.316220  0.488780  1.0  -0.0651
  C  C1123  1  0.573400  0.335230  0.574700  1.0  -0.0761
  C  C1124  1  0.558000  0.369960  0.557800  1.0  -0.1937
  C  C1125  1  0.553140  0.270830  0.558240  1.0  0.2809
  C  C1126  1  0.473000  0.350720  0.471910  1.0  -0.1893
  C  C1127  1  0.507600  0.378070  0.506400  1.0  0.2285
  C  C1128  1  0.608130  0.223490  0.596120  1.0  0.3025
  C  C1129  1  0.729400  0.199840  0.614540  1.0  -0.0803
  C  C1130  1  0.781800  0.175540  0.638000  1.0  -0.2097
  C  C1131  1  0.772000  0.149120  0.672900  1.0  0.2517
  C  C1132  1  0.709300  0.148300  0.684500  1.0  -0.1853
  C  C1133  1  0.656300  0.172690  0.660840  1.0  -0.1045
  C  C1134  1  0.665200  0.198610  0.624650  1.0  -0.0551
  C  C1135  1  0.166210  0.352910  0.686350  1.0  0.261
  C  C1136  1  0.239210  0.365910  0.710540  1.0  -0.0529
  C  C1137  1  0.263300  0.375660  0.766400  1.0  -0.1325
  C  C1138  1  0.280400  0.372660  0.677500  1.0  -0.0758
  C  C1139  1  0.326600  0.393420  0.789500  1.0  -0.1821
  C  C1140  1  0.366900  0.401200  0.758200  1.0  0.2308
  C  C1141  1  0.344900  0.389900  0.701300  1.0  -0.1538
  C  C1142  1  0.017690  0.299920  0.609340  1.0  -0.0556
  C  C1143  1  0.025900  0.264670  0.624650  1.0  -0.0688
  C  C1144  1  0.972600  0.240750  0.601300  1.0  -0.1794
  C  C1145  1  0.902300  0.286260  0.544400  1.0  -0.1771
  C  C1146  1  0.909900  0.251580  0.561100  1.0  0.2107
  C  C1147  1  0.070510  0.325810  0.641660  1.0  0.3051
  C  C1148  1  0.955900  0.310560  0.568520  1.0  -0.0889
  C  C1149  1  0.216610  0.794000  0.040460  1.0  0.3214
  C  C1150  1  0.142500  0.816500  0.945410  1.0  -0.1112
  C  C1151  1  0.114600  0.878510  0.931500  1.0  0.1908
  C  C1152  1  0.162800  0.884960  0.984900  1.0  -0.2009
  C  C1153  1  0.186820  0.822610  0.000430  1.0  -0.0545
  C  C1154  1  0.197100  0.857360  0.019010  1.0  -0.1134
  C  C1155  1  0.107200  0.844060  0.911240  1.0  -0.1943
  C  C1156  1  0.280930  0.765340  0.113140  1.0  0.3032
  C  C1157  1  0.335120  0.755050  0.166430  1.0  -0.0696
  C  C1158  1  0.375300  0.780180  0.204020  1.0  -0.076
  C  C1159  1  0.422300  0.770360  0.256500  1.0  -0.1855
  C  C1160  1  0.342900  0.719950  0.183920  1.0  -0.0919
  C  C1161  1  0.429700  0.735230  0.273100  1.0  0.2066
  C  C1162  1  0.389300  0.710120  0.236800  1.0  -0.1699
  C  C1163  1  0.610140  0.095000  0.887660  1.0  0.3206
  C  C1164  1  0.674200  0.084550  0.875840  1.0  -0.0371
  C  C1165  1  0.701500  0.104010  0.841500  1.0  -0.0813
  C  C1166  1  0.764200  0.094450  0.833700  1.0  -0.1942
  C  C1167  1  0.711500  0.054830  0.902100  1.0  -0.0713
  C  C1168  1  0.801200  0.065490  0.860700  1.0  0.242
  C  C1169  1  0.773900  0.045440  0.894800  1.0  -0.2018
  C  C1170  1  0.514850  0.092580  0.909340  1.0  0.2963
  C  C1171  1  0.457400  0.043260  0.942600  1.0  -0.0874
  C  C1172  1  0.405200  0.029760  0.960300  1.0  -0.2284
  C  C1173  1  0.456700  0.078540  0.926000  1.0  -0.0672
  C  C1174  1  0.402300  0.099220  0.930500  1.0  -0.0839
  C  C1175  1  0.348800  0.085530  0.946800  1.0  -0.2067
  C  C1176  1  0.349100  0.049910  0.961200  1.0  0.259
  C  C1177  1  0.725050  0.856920  0.910610  1.0  -0.053
  C  C1178  1  0.761100  0.844330  0.963960  1.0  -0.1278
  C  C1179  1  0.731400  0.892190  0.900800  1.0  -0.1208
  C  C1180  1  0.681590  0.833150  0.865680  1.0  0.2988
  C  C1181  1  0.803200  0.866270  0.006000  1.0  -0.1822
  C  C1182  1  0.774700  0.914120  0.942500  1.0  -0.1824
  C  C1183  1  0.811100  0.900850  0.995400  1.0  0.2285
  C  C1184  1  0.648460  0.755910  0.778790  1.0  -0.0377
  C  C1185  1  0.699400  0.748880  0.754080  1.0  -0.088
  C  C1186  1  0.694500  0.719170  0.721600  1.0  -0.1947
  C  C1187  1  0.593340  0.731820  0.770720  1.0  -0.1561
  C  C1188  1  0.649420  0.788690  0.809860  1.0  0.3181
  C  C1189  1  0.638200  0.695900  0.711920  1.0  0.2453
  C  C1190  1  0.588700  0.702440  0.738080  1.0  -0.1951
  C  C1191  1  0.593050  0.970740  0.805470  1.0  0.284
  C  C1192  1  0.633700  0.993350  0.780270  1.0  -0.0319
  C  C1193  1  0.607100  0.025380  0.754410  1.0  -0.0898
  C  C1194  1  0.705400  0.032250  0.721500  1.0  0.2142
  C  C1195  1  0.697900  0.981940  0.777300  1.0  -0.14
  C  C1196  1  0.642600  0.044280  0.725300  1.0  -0.1923
  C  C1197  1  0.733800  0.001000  0.749000  1.0  -0.2046
  C  C1198  1  0.414300  0.961970  0.867910  1.0  -0.0975
  C  C1199  1  0.438200  0.906140  0.941960  1.0  -0.1913
  C  C1200  1  0.477800  0.943840  0.881260  1.0  -0.0509
  C  C1201  1  0.527300  0.949460  0.850520  1.0  0.2972
  C  C1202  1  0.488600  0.915700  0.919320  1.0  -0.1134
  C  C1203  1  0.374600  0.924020  0.928900  1.0  0.2147
  C  C1204  1  0.363300  0.952370  0.890700  1.0  -0.1925
  C  C1205  1  0.961860  0.807570  0.959440  1.0  0.0023
  C  C1206  1  0.012600  0.816220  0.011220  1.0  -0.0668
  C  C1207  1  0.926600  0.835230  0.925300  1.0  -0.0754
  C  C1208  1  0.942000  0.869960  0.942200  1.0  -0.1929
  C  C1209  1  0.946860  0.770830  0.941760  1.0  0.2807
  C  C1210  1  0.027000  0.850720  0.028090  1.0  -0.1893
  C  C1211  1  0.992400  0.878070  0.993600  1.0  0.229
  C  C1212  1  0.891870  0.723490  0.903880  1.0  0.3032
  C  C1213  1  0.770600  0.699840  0.885460  1.0  -0.082
  C  C1214  1  0.718200  0.675540  0.862000  1.0  -0.2101
  C  C1215  1  0.728000  0.649120  0.827100  1.0  0.2527
  C  C1216  1  0.790700  0.648300  0.815500  1.0  -0.1849
  C  C1217  1  0.843700  0.672690  0.839160  1.0  -0.1049
  C  C1218  1  0.834800  0.698610  0.875350  1.0  -0.0539
  C  C1219  1  0.333790  0.852910  0.813650  1.0  0.2617
  C  C1220  1  0.260790  0.865910  0.789460  1.0  -0.0537
  C  C1221  1  0.236700  0.875660  0.733600  1.0  -0.1325
  C  C1222  1  0.219600  0.872660  0.822500  1.0  -0.0757
  C  C1223  1  0.173400  0.893420  0.710500  1.0  -0.183
  C  C1224  1  0.133100  0.901200  0.741800  1.0  0.2304
  C  C1225  1  0.155100  0.889900  0.798700  1.0  -0.1538
  C  C1226  1  0.482310  0.799920  0.890660  1.0  -0.0555
  C  C1227  1  0.474100  0.764670  0.875350  1.0  -0.0693
  C  C1228  1  0.527400  0.740750  0.898700  1.0  -0.1802
  C  C1229  1  0.597700  0.786260  0.955600  1.0  -0.1776
  C  C1230  1  0.590100  0.751580  0.938900  1.0  0.2092
  C  C1231  1  0.429490  0.825810  0.858340  1.0  0.3046
  C  C1232  1  0.544100  0.810560  0.931480  1.0  -0.0886
  C  C1233  1  0.716610  0.294000  0.040460  1.0  0.3214
  C  C1234  1  0.642500  0.316500  0.945410  1.0  -0.1112
  C  C1235  1  0.614600  0.378510  0.931500  1.0  0.1908
  C  C1236  1  0.662800  0.384960  0.984900  1.0  -0.2009
  C  C1237  1  0.686820  0.322610  0.000430  1.0  -0.0545
  C  C1238  1  0.697100  0.357360  0.019010  1.0  -0.1134
  C  C1239  1  0.607200  0.344060  0.911240  1.0  -0.1943
  C  C1240  1  0.780930  0.265340  0.113140  1.0  0.3032
  C  C1241  1  0.835120  0.255050  0.166430  1.0  -0.0696
  C  C1242  1  0.875300  0.280180  0.204020  1.0  -0.076
  C  C1243  1  0.922300  0.270360  0.256500  1.0  -0.1855
  C  C1244  1  0.842900  0.219950  0.183920  1.0  -0.0919
  C  C1245  1  0.929700  0.235230  0.273100  1.0  0.2066
  C  C1246  1  0.889300  0.210120  0.236800  1.0  -0.1699
  C  C1247  1  0.110140  0.595000  0.887660  1.0  0.3206
  C  C1248  1  0.174200  0.584550  0.875840  1.0  -0.0371
  C  C1249  1  0.201500  0.604010  0.841500  1.0  -0.0813
  C  C1250  1  0.264200  0.594450  0.833700  1.0  -0.1942
  C  C1251  1  0.211500  0.554830  0.902100  1.0  -0.0713
  C  C1252  1  0.301200  0.565490  0.860700  1.0  0.242
  C  C1253  1  0.273900  0.545440  0.894800  1.0  -0.2018
  C  C1254  1  0.014850  0.592580  0.909340  1.0  0.2962
  C  C1255  1  0.957400  0.543260  0.942600  1.0  -0.0874
  C  C1256  1  0.905200  0.529760  0.960300  1.0  -0.2284
  C  C1257  1  0.956700  0.578540  0.926000  1.0  -0.0672
  C  C1258  1  0.902300  0.599220  0.930500  1.0  -0.0839
  C  C1259  1  0.848800  0.585530  0.946800  1.0  -0.2067
  C  C1260  1  0.849100  0.549910  0.961200  1.0  0.259
  C  C1261  1  0.225050  0.356920  0.910610  1.0  -0.053
  C  C1262  1  0.261100  0.344330  0.963960  1.0  -0.1278
  C  C1263  1  0.231400  0.392190  0.900800  1.0  -0.1208
  C  C1264  1  0.181590  0.333150  0.865680  1.0  0.2988
  C  C1265  1  0.303200  0.366270  0.006000  1.0  -0.1822
  C  C1266  1  0.274700  0.414120  0.942500  1.0  -0.1824
  C  C1267  1  0.311100  0.400850  0.995400  1.0  0.2285
  C  C1268  1  0.148460  0.255910  0.778790  1.0  -0.0377
  C  C1269  1  0.199400  0.248880  0.754080  1.0  -0.088
  C  C1270  1  0.194500  0.219170  0.721600  1.0  -0.1947
  C  C1271  1  0.093340  0.231820  0.770720  1.0  -0.1561
  C  C1272  1  0.149420  0.288690  0.809860  1.0  0.3181
  C  C1273  1  0.138200  0.195900  0.711920  1.0  0.2453
  C  C1274  1  0.088700  0.202440  0.738080  1.0  -0.1951
  C  C1275  1  0.093050  0.470740  0.805470  1.0  0.284
  C  C1276  1  0.133700  0.493350  0.780270  1.0  -0.0319
  C  C1277  1  0.107100  0.525380  0.754410  1.0  -0.0898
  C  C1278  1  0.205400  0.532250  0.721500  1.0  0.2142
  C  C1279  1  0.197900  0.481940  0.777300  1.0  -0.14
  C  C1280  1  0.142600  0.544280  0.725300  1.0  -0.1923
  C  C1281  1  0.233800  0.501000  0.749000  1.0  -0.2046
  C  C1282  1  0.914300  0.461970  0.867910  1.0  -0.0975
  C  C1283  1  0.938200  0.406140  0.941960  1.0  -0.1914
  C  C1284  1  0.977800  0.443840  0.881260  1.0  -0.0509
  C  C1285  1  0.027300  0.449460  0.850520  1.0  0.2972
  C  C1286  1  0.988600  0.415700  0.919320  1.0  -0.1134
  C  C1287  1  0.874600  0.424020  0.928900  1.0  0.2147
  C  C1288  1  0.863300  0.452370  0.890700  1.0  -0.1925
  C  C1289  1  0.461860  0.307570  0.959440  1.0  0.0023
  C  C1290  1  0.512600  0.316220  0.011220  1.0  -0.0668
  C  C1291  1  0.426600  0.335230  0.925300  1.0  -0.0754
  C  C1292  1  0.442000  0.369960  0.942200  1.0  -0.1929
  C  C1293  1  0.446860  0.270830  0.941760  1.0  0.2807
  C  C1294  1  0.527000  0.350720  0.028090  1.0  -0.1893
  C  C1295  1  0.492400  0.378070  0.993600  1.0  0.229
  C  C1296  1  0.391870  0.223490  0.903880  1.0  0.3032
  C  C1297  1  0.270600  0.199840  0.885460  1.0  -0.082
  C  C1298  1  0.218200  0.175540  0.862000  1.0  -0.2101
  C  C1299  1  0.228000  0.149120  0.827100  1.0  0.2527
  C  C1300  1  0.290700  0.148300  0.815500  1.0  -0.1849
  C  C1301  1  0.343700  0.172690  0.839160  1.0  -0.1049
  C  C1302  1  0.334800  0.198610  0.875350  1.0  -0.0539
  C  C1303  1  0.833790  0.352910  0.813650  1.0  0.2617
  C  C1304  1  0.760790  0.365910  0.789460  1.0  -0.0537
  C  C1305  1  0.736700  0.375660  0.733600  1.0  -0.1325
  C  C1306  1  0.719600  0.372660  0.822500  1.0  -0.0757
  C  C1307  1  0.673400  0.393420  0.710500  1.0  -0.183
  C  C1308  1  0.633100  0.401200  0.741800  1.0  0.2304
  C  C1309  1  0.655100  0.389900  0.798700  1.0  -0.1538
  C  C1310  1  0.982310  0.299920  0.890660  1.0  -0.0555
  C  C1311  1  0.974100  0.264670  0.875350  1.0  -0.0693
  C  C1312  1  0.027400  0.240750  0.898700  1.0  -0.1802
  C  C1313  1  0.097700  0.286260  0.955600  1.0  -0.1776
  C  C1314  1  0.090100  0.251580  0.938900  1.0  0.2092
  C  C1315  1  0.929490  0.325810  0.858340  1.0  0.3046
  C  C1316  1  0.044100  0.310560  0.931480  1.0  -0.0886
  N  N1317  1  0.550010  0.077610  0.327690  1.0  -0.306
  N  N1318  1  0.553450  0.019540  0.338070  1.0  -0.4107
  N  N1319  1  0.591680  0.064010  0.298420  1.0  -0.3429
  N  N1320  1  0.278920  0.204390  0.583830  1.0  -0.4669
  N  N1321  1  0.223800  0.254300  0.588840  1.0  -0.2973
  N  N1322  1  0.182480  0.235860  0.541700  1.0  -0.336
  N  N1323  1  0.994760  0.254700  0.452300  1.0  -0.3031
  N  N1324  1  0.959160  0.285230  0.427990  1.0  -0.2769
  N  N1325  1  0.881390  0.241660  0.410970  1.0  -0.4283
  N  N1326  1  0.533350  0.873660  0.411330  1.0  -0.3316
  N  N1327  1  0.594980  0.872300  0.397660  1.0  -0.3235
  N  N1328  1  0.560590  0.927900  0.393290  1.0  -0.4701
  N  N1329  1  0.385710  0.130650  0.302410  1.0  -0.3067
  N  N1330  1  0.447390  0.148200  0.330950  1.0  -0.3
  N  N1331  1  0.358830  0.174580  0.349340  1.0  -0.4549
  N  N1332  1  0.706050  0.197590  0.350920  1.0  -0.4294
  N  N1333  1  0.614070  0.161870  0.335710  1.0  -0.2933
  N  N1334  1  0.593280  0.190560  0.299960  1.0  -0.3382
  N  N1335  1  0.675800  0.375940  0.305100  1.0  -0.6732
  N  N1336  1  0.631500  0.332960  0.176700  1.0  -0.6838
  N  N1337  1  0.324900  0.085090  0.453600  1.0  -0.692
  N  N1338  1  0.741300  0.948380  0.192100  1.0  -0.6842
  N  N1339  1  0.645600  0.272460  0.461800  1.0  -0.6635
  N  N1340  1  0.076300  0.093730  0.398500  1.0  -0.6536
  N  N1341  1  0.009100  0.087170  0.509600  1.0  -0.7108
  N  N1342  1  0.478100  0.273960  0.825690  1.0  -0.674
  N  N1343  1  0.852100  0.077040  0.538600  1.0  -0.6636
  N  N1344  1  0.866500  0.942820  0.355500  1.0  -0.7208
  N  N1345  1  0.295300  0.964800  0.477200  1.0  -0.7023
  N  N1346  1  0.068000  0.081300  0.217700  1.0  -0.6901
  N  N1347  1  0.050010  0.577610  0.327690  1.0  -0.306
  N  N1348  1  0.053450  0.519540  0.338070  1.0  -0.4107
  N  N1349  1  0.091680  0.564010  0.298420  1.0  -0.3429
  N  N1350  1  0.778920  0.704390  0.583830  1.0  -0.4669
  N  N1351  1  0.723800  0.754300  0.588840  1.0  -0.2973
  N  N1352  1  0.682480  0.735860  0.541700  1.0  -0.336
  N  N1353  1  0.494760  0.754700  0.452300  1.0  -0.3031
  N  N1354  1  0.459160  0.785230  0.427990  1.0  -0.2769
  N  N1355  1  0.381390  0.741660  0.410970  1.0  -0.4283
  N  N1356  1  0.033350  0.373660  0.411330  1.0  -0.3316
  N  N1357  1  0.094980  0.372300  0.397660  1.0  -0.3235
  N  N1358  1  0.060590  0.427900  0.393290  1.0  -0.4701
  N  N1359  1  0.885710  0.630650  0.302410  1.0  -0.3066
  N  N1360  1  0.947390  0.648200  0.330950  1.0  -0.3
  N  N1361  1  0.858830  0.674580  0.349340  1.0  -0.4549
  N  N1362  1  0.206050  0.697590  0.350920  1.0  -0.4294
  N  N1363  1  0.114070  0.661870  0.335710  1.0  -0.2933
  N  N1364  1  0.093280  0.690560  0.299960  1.0  -0.3382
  N  N1365  1  0.175800  0.875940  0.305100  1.0  -0.6732
  N  N1366  1  0.131500  0.832960  0.176700  1.0  -0.6838
  N  N1367  1  0.824900  0.585090  0.453600  1.0  -0.6919
  N  N1368  1  0.241300  0.448380  0.192100  1.0  -0.6842
  N  N1369  1  0.145600  0.772460  0.461800  1.0  -0.6635
  N  N1370  1  0.576300  0.593730  0.398500  1.0  -0.6536
  N  N1371  1  0.509100  0.587170  0.509600  1.0  -0.7108
  N  N1372  1  0.978100  0.773960  0.825690  1.0  -0.674
  N  N1373  1  0.352100  0.577040  0.538600  1.0  -0.6636
  N  N1374  1  0.366500  0.442820  0.355500  1.0  -0.7208
  N  N1375  1  0.795300  0.464800  0.477200  1.0  -0.7023
  N  N1376  1  0.568000  0.581300  0.217700  1.0  -0.6901
  N  N1377  1  0.449990  0.077610  0.172310  1.0  -0.3057
  N  N1378  1  0.446550  0.019540  0.161930  1.0  -0.4124
  N  N1379  1  0.408320  0.064010  0.201580  1.0  -0.3422
  N  N1380  1  0.721080  0.204390  0.916170  1.0  -0.4672
  N  N1381  1  0.776200  0.254300  0.911160  1.0  -0.2973
  N  N1382  1  0.817520  0.235860  0.958300  1.0  -0.3348
  N  N1383  1  0.005240  0.254700  0.047700  1.0  -0.3053
  N  N1384  1  0.040840  0.285230  0.072010  1.0  -0.2755
  N  N1385  1  0.118610  0.241660  0.089030  1.0  -0.4271
  N  N1386  1  0.466650  0.873660  0.088670  1.0  -0.3303
  N  N1387  1  0.405020  0.872300  0.102340  1.0  -0.3235
  N  N1388  1  0.439410  0.927900  0.106710  1.0  -0.4696
  N  N1389  1  0.614290  0.130650  0.197590  1.0  -0.3074
  N  N1390  1  0.552610  0.148200  0.169050  1.0  -0.2998
  N  N1391  1  0.641170  0.174580  0.150660  1.0  -0.4539
  N  N1392  1  0.293950  0.197590  0.149080  1.0  -0.4299
  N  N1393  1  0.385930  0.161870  0.164290  1.0  -0.2925
  N  N1394  1  0.406720  0.190560  0.200040  1.0  -0.3392
  N  N1395  1  0.324200  0.375940  0.194900  1.0  -0.675
  N  N1396  1  0.368500  0.332960  0.323300  1.0  -0.6839
  N  N1397  1  0.675100  0.085090  0.046400  1.0  -0.6924
  N  N1398  1  0.258700  0.948380  0.307900  1.0  -0.6804
  N  N1399  1  0.354400  0.272460  0.038200  1.0  -0.6652
  N  N1400  1  0.923700  0.093730  0.101500  1.0  -0.6539
  N  N1401  1  0.990900  0.087170  0.990400  1.0  -0.7117
  N  N1402  1  0.521900  0.273960  0.674310  1.0  -0.6737
  N  N1403  1  0.147900  0.077040  0.961400  1.0  -0.6617
  N  N1404  1  0.133500  0.942820  0.144500  1.0  -0.7192
  N  N1405  1  0.704700  0.964800  0.022800  1.0  -0.7023
  N  N1406  1  0.932000  0.081300  0.282300  1.0  -0.6885
  N  N1407  1  0.949990  0.577610  0.172310  1.0  -0.3057
  N  N1408  1  0.946550  0.519540  0.161930  1.0  -0.4124
  N  N1409  1  0.908320  0.564010  0.201580  1.0  -0.3422
  N  N1410  1  0.221080  0.704390  0.916170  1.0  -0.4672
  N  N1411  1  0.276200  0.754300  0.911160  1.0  -0.2973
  N  N1412  1  0.317520  0.735860  0.958300  1.0  -0.3348
  N  N1413  1  0.505240  0.754700  0.047700  1.0  -0.3053
  N  N1414  1  0.540840  0.785230  0.072010  1.0  -0.2755
  N  N1415  1  0.618610  0.741660  0.089030  1.0  -0.4271
  N  N1416  1  0.966650  0.373660  0.088670  1.0  -0.3303
  N  N1417  1  0.905020  0.372300  0.102340  1.0  -0.3235
  N  N1418  1  0.939410  0.427900  0.106710  1.0  -0.4696
  N  N1419  1  0.114290  0.630650  0.197590  1.0  -0.3073
  N  N1420  1  0.052610  0.648200  0.169050  1.0  -0.2998
  N  N1421  1  0.141170  0.674580  0.150660  1.0  -0.4539
  N  N1422  1  0.793950  0.697590  0.149080  1.0  -0.4299
  N  N1423  1  0.885930  0.661870  0.164290  1.0  -0.2925
  N  N1424  1  0.906720  0.690560  0.200040  1.0  -0.3392
  N  N1425  1  0.824200  0.875940  0.194900  1.0  -0.675
  N  N1426  1  0.868500  0.832960  0.323300  1.0  -0.6839
  N  N1427  1  0.175100  0.585090  0.046400  1.0  -0.6922
  N  N1428  1  0.758700  0.448380  0.307900  1.0  -0.6804
  N  N1429  1  0.854400  0.772460  0.038200  1.0  -0.6652
  N  N1430  1  0.423700  0.593730  0.101500  1.0  -0.6539
  N  N1431  1  0.490900  0.587170  0.990400  1.0  -0.7117
  N  N1432  1  0.021900  0.773960  0.674310  1.0  -0.6737
  N  N1433  1  0.647900  0.577040  0.961400  1.0  -0.6617
  N  N1434  1  0.633500  0.442820  0.144500  1.0  -0.7192
  N  N1435  1  0.204700  0.464800  0.022800  1.0  -0.7023
  N  N1436  1  0.432000  0.581300  0.282300  1.0  -0.6885
  N  N1437  1  0.449990  0.922390  0.672310  1.0  -0.3049
  N  N1438  1  0.446550  0.980460  0.661930  1.0  -0.4108
  N  N1439  1  0.408320  0.935990  0.701580  1.0  -0.3418
  N  N1440  1  0.721080  0.795610  0.416170  1.0  -0.4667
  N  N1441  1  0.776200  0.745700  0.411160  1.0  -0.2955
  N  N1442  1  0.817520  0.764140  0.458300  1.0  -0.334
  N  N1443  1  0.005240  0.745300  0.547700  1.0  -0.3058
  N  N1444  1  0.040840  0.714770  0.572010  1.0  -0.2765
  N  N1445  1  0.118610  0.758340  0.589030  1.0  -0.4272
  N  N1446  1  0.466650  0.126340  0.588670  1.0  -0.33
  N  N1447  1  0.405020  0.127700  0.602340  1.0  -0.3238
  N  N1448  1  0.439410  0.072100  0.606710  1.0  -0.4696
  N  N1449  1  0.614290  0.869350  0.697590  1.0  -0.3075
  N  N1450  1  0.552610  0.851800  0.669050  1.0  -0.3001
  N  N1451  1  0.641170  0.825420  0.650660  1.0  -0.4539
  N  N1452  1  0.293950  0.802410  0.649080  1.0  -0.4299
  N  N1453  1  0.385930  0.838130  0.664290  1.0  -0.2931
  N  N1454  1  0.406720  0.809440  0.700040  1.0  -0.34
  N  N1455  1  0.324200  0.624060  0.694900  1.0  -0.6748
  N  N1456  1  0.368500  0.667040  0.823300  1.0  -0.683
  N  N1457  1  0.675100  0.914910  0.546400  1.0  -0.6924
  N  N1458  1  0.258700  0.051620  0.807900  1.0  -0.682
  N  N1459  1  0.354400  0.727540  0.538200  1.0  -0.6648
  N  N1460  1  0.923700  0.906270  0.601500  1.0  -0.6518
  N  N1461  1  0.990900  0.912830  0.490400  1.0  -0.7114
  N  N1462  1  0.521900  0.726040  0.174310  1.0  -0.6737
  N  N1463  1  0.147900  0.922960  0.461400  1.0  -0.6634
  N  N1464  1  0.133500  0.057180  0.644500  1.0  -0.72
  N  N1465  1  0.704700  0.035200  0.522800  1.0  -0.7006
  N  N1466  1  0.932000  0.918700  0.782300  1.0  -0.6869
  N  N1467  1  0.949990  0.422390  0.672310  1.0  -0.3049
  N  N1468  1  0.946550  0.480460  0.661930  1.0  -0.4108
  N  N1469  1  0.908320  0.435990  0.701580  1.0  -0.3418
  N  N1470  1  0.221080  0.295610  0.416170  1.0  -0.4667
  N  N1471  1  0.276200  0.245700  0.411160  1.0  -0.2955
  N  N1472  1  0.317520  0.264140  0.458300  1.0  -0.334
  N  N1473  1  0.505240  0.245300  0.547700  1.0  -0.3058
  N  N1474  1  0.540840  0.214770  0.572010  1.0  -0.2765
  N  N1475  1  0.618610  0.258340  0.589030  1.0  -0.4272
  N  N1476  1  0.966650  0.626340  0.588670  1.0  -0.33
  N  N1477  1  0.905020  0.627700  0.602340  1.0  -0.3238
  N  N1478  1  0.939410  0.572100  0.606710  1.0  -0.4696
  N  N1479  1  0.114290  0.369350  0.697590  1.0  -0.3074
  N  N1480  1  0.052610  0.351800  0.669050  1.0  -0.3001
  N  N1481  1  0.141170  0.325420  0.650660  1.0  -0.4539
  N  N1482  1  0.793950  0.302410  0.649080  1.0  -0.4299
  N  N1483  1  0.885930  0.338130  0.664290  1.0  -0.2931
  N  N1484  1  0.906720  0.309440  0.700040  1.0  -0.34
  N  N1485  1  0.824200  0.124060  0.694900  1.0  -0.6748
  N  N1486  1  0.868500  0.167040  0.823300  1.0  -0.683
  N  N1487  1  0.175100  0.414910  0.546400  1.0  -0.6923
  N  N1488  1  0.758700  0.551620  0.807900  1.0  -0.682
  N  N1489  1  0.854400  0.227540  0.538200  1.0  -0.6648
  N  N1490  1  0.423700  0.406270  0.601500  1.0  -0.6518
  N  N1491  1  0.490900  0.412830  0.490400  1.0  -0.7114
  N  N1492  1  0.021900  0.226040  0.174310  1.0  -0.6737
  N  N1493  1  0.647900  0.422960  0.461400  1.0  -0.6634
  N  N1494  1  0.633500  0.557180  0.644500  1.0  -0.72
  N  N1495  1  0.204700  0.535200  0.522800  1.0  -0.7006
  N  N1496  1  0.432000  0.418700  0.782300  1.0  -0.6869
  N  N1497  1  0.550010  0.922390  0.827690  1.0  -0.3053
  N  N1498  1  0.553450  0.980460  0.838070  1.0  -0.4103
  N  N1499  1  0.591680  0.935990  0.798420  1.0  -0.3422
  N  N1500  1  0.278920  0.795610  0.083830  1.0  -0.467
  N  N1501  1  0.223800  0.745700  0.088840  1.0  -0.2959
  N  N1502  1  0.182480  0.764140  0.041700  1.0  -0.3357
  N  N1503  1  0.994760  0.745300  0.952300  1.0  -0.3029
  N  N1504  1  0.959160  0.714770  0.927990  1.0  -0.277
  N  N1505  1  0.881390  0.758340  0.910970  1.0  -0.4277
  N  N1506  1  0.533350  0.126340  0.911330  1.0  -0.3313
  N  N1507  1  0.594980  0.127700  0.897660  1.0  -0.3241
  N  N1508  1  0.560590  0.072100  0.893290  1.0  -0.4703
  N  N1509  1  0.385710  0.869350  0.802410  1.0  -0.3068
  N  N1510  1  0.447390  0.851800  0.830950  1.0  -0.2999
  N  N1511  1  0.358830  0.825420  0.849340  1.0  -0.4547
  N  N1512  1  0.706050  0.802410  0.850920  1.0  -0.4289
  N  N1513  1  0.614070  0.838130  0.835710  1.0  -0.293
  N  N1514  1  0.593280  0.809440  0.799960  1.0  -0.3385
  N  N1515  1  0.675800  0.624060  0.805100  1.0  -0.6751
  N  N1516  1  0.631500  0.667040  0.676700  1.0  -0.6834
  N  N1517  1  0.324900  0.914910  0.953600  1.0  -0.6921
  N  N1518  1  0.741300  0.051620  0.692100  1.0  -0.6832
  N  N1519  1  0.645600  0.727540  0.961800  1.0  -0.6629
  N  N1520  1  0.076300  0.906270  0.898500  1.0  -0.6524
  N  N1521  1  0.009100  0.912830  0.009600  1.0  -0.7106
  N  N1522  1  0.478100  0.726040  0.325690  1.0  -0.6741
  N  N1523  1  0.852100  0.922960  0.038600  1.0  -0.6666
  N  N1524  1  0.866500  0.057180  0.855500  1.0  -0.7207
  N  N1525  1  0.295300  0.035200  0.977200  1.0  -0.6994
  N  N1526  1  0.068000  0.918700  0.717700  1.0  -0.6891
  N  N1527  1  0.050010  0.422390  0.827690  1.0  -0.3053
  N  N1528  1  0.053450  0.480460  0.838070  1.0  -0.4103
  N  N1529  1  0.091680  0.435990  0.798420  1.0  -0.3422
  N  N1530  1  0.778920  0.295610  0.083830  1.0  -0.467
  N  N1531  1  0.723800  0.245700  0.088840  1.0  -0.2959
  N  N1532  1  0.682480  0.264140  0.041700  1.0  -0.3357
  N  N1533  1  0.494760  0.245300  0.952300  1.0  -0.3029
  N  N1534  1  0.459160  0.214770  0.927990  1.0  -0.277
  N  N1535  1  0.381390  0.258340  0.910970  1.0  -0.4277
  N  N1536  1  0.033350  0.626340  0.911330  1.0  -0.3313
  N  N1537  1  0.094980  0.627700  0.897660  1.0  -0.3241
  N  N1538  1  0.060590  0.572100  0.893290  1.0  -0.4703
  N  N1539  1  0.885710  0.369350  0.802410  1.0  -0.3067
  N  N1540  1  0.947390  0.351800  0.830950  1.0  -0.2999
  N  N1541  1  0.858830  0.325420  0.849340  1.0  -0.4547
  N  N1542  1  0.206050  0.302410  0.850920  1.0  -0.4289
  N  N1543  1  0.114070  0.338130  0.835710  1.0  -0.293
  N  N1544  1  0.093280  0.309440  0.799960  1.0  -0.3385
  N  N1545  1  0.175800  0.124060  0.805100  1.0  -0.6751
  N  N1546  1  0.131500  0.167040  0.676700  1.0  -0.6834
  N  N1547  1  0.824900  0.414910  0.953600  1.0  -0.6921
  N  N1548  1  0.241300  0.551620  0.692100  1.0  -0.6832
  N  N1549  1  0.145600  0.227540  0.961800  1.0  -0.6629
  N  N1550  1  0.576300  0.406270  0.898500  1.0  -0.6524
  N  N1551  1  0.509100  0.412830  0.009600  1.0  -0.7106
  N  N1552  1  0.978100  0.226040  0.325690  1.0  -0.6741
  N  N1553  1  0.352100  0.422960  0.038600  1.0  -0.6666
  N  N1554  1  0.366500  0.557180  0.855500  1.0  -0.7207
  N  N1555  1  0.795300  0.535200  0.977200  1.0  -0.6994
  N  N1556  1  0.568000  0.418700  0.717700  1.0  -0.6891
  Cl  Cl1557  1  0.125110  0.318780  0.508010  1.0  -0.1714
  Cl  Cl1558  1  0.625110  0.818780  0.508010  1.0  -0.1714
  Cl  Cl1559  1  0.874890  0.318780  0.991990  1.0  -0.172
  Cl  Cl1560  1  0.374890  0.818780  0.991990  1.0  -0.1719
  Cl  Cl1561  1  0.874890  0.681220  0.491990  1.0  -0.1718
  Cl  Cl1562  1  0.374890  0.181220  0.491990  1.0  -0.1718
  Cl  Cl1563  1  0.125110  0.681220  0.008010  1.0  -0.1713
  Cl  Cl1564  1  0.625110  0.181220  0.008010  1.0  -0.1712
