# generated using pymatgen
data_Cu17H144C168(N30Cl)2
_symmetry_space_group_name_H-M   'P 1'
_cell_length_a   20.01400000
_cell_length_b   37.95600000
_cell_length_c   25.08500000
_cell_angle_alpha   90.00000000
_cell_angle_beta   109.38400000
_cell_angle_gamma   90.00000000
_symmetry_Int_Tables_number   1
_chemical_formula_structural   Cu17H144C168(N30Cl)2
_chemical_formula_sum   'Cu68 H576 C672 N240 Cl8'
_cell_volume   17975.68103297
_cell_formula_units_Z   4
loop_
 _symmetry_equiv_pos_site_id
 _symmetry_equiv_pos_as_xyz
  1  'x, y, z'
loop_
 _atom_site_type_symbol
 _atom_site_label
 _atom_site_symmetry_multiplicity
 _atom_site_fract_x
 _atom_site_fract_y
 _atom_site_fract_z
 _atom_site_occupancy
 _atom_site_charge
  Cu  Cu1  1  0.538650  0.128260  0.331960  1.0  0.5125
  Cu  Cu2  1  0.553070  0.974570  0.367680  1.0  0.3195
  Cu  Cu3  1  0.093000  0.254920  0.496680  1.0  0.4198
  Cu  Cu4  1  0.795020  0.218250  0.381150  1.0  0.4334
  Cu  Cu5  1  0.006340  0.328930  0.432320  1.0  0.4235
  Cu  Cu6  1  0.316900  0.206050  0.387710  1.0  0.4029
  Cu  Cu7  1  0.152400  0.331120  0.412890  1.0  0.4066
  Cu  Cu8  1  0.608930  0.094610  0.246410  1.0  0.3194
  Cu  Cu9  1  0.038650  0.628260  0.331960  1.0  0.5125
  Cu  Cu10  1  0.053070  0.474570  0.367680  1.0  0.3195
  Cu  Cu11  1  0.593000  0.754920  0.496680  1.0  0.4198
  Cu  Cu12  1  0.295020  0.718250  0.381150  1.0  0.4334
  Cu  Cu13  1  0.506340  0.828930  0.432320  1.0  0.424
  Cu  Cu14  1  0.816900  0.706050  0.387710  1.0  0.4029
  Cu  Cu15  1  0.652400  0.831120  0.412890  1.0  0.4066
  Cu  Cu16  1  0.108930  0.594610  0.246410  1.0  0.3194
  Cu  Cu17  1  0.461350  0.128260  0.168040  1.0  0.5124
  Cu  Cu18  1  0.446930  0.974570  0.132320  1.0  0.3188
  Cu  Cu19  1  0.907000  0.254920  0.003320  1.0  0.4195
  Cu  Cu20  1  0.204980  0.218250  0.118850  1.0  0.4337
  Cu  Cu21  1  0.993660  0.328930  0.067680  1.0  0.4221
  Cu  Cu22  1  0.683100  0.206050  0.112290  1.0  0.3997
  Cu  Cu23  1  0.847600  0.331120  0.087110  1.0  0.4063
  Cu  Cu24  1  0.391070  0.094610  0.253590  1.0  0.3201
  Cu  Cu25  1  0.961350  0.628260  0.168040  1.0  0.5124
  Cu  Cu26  1  0.946930  0.474570  0.132320  1.0  0.3188
  Cu  Cu27  1  0.407000  0.754920  0.003320  1.0  0.4195
  Cu  Cu28  1  0.704980  0.718250  0.118850  1.0  0.4337
  Cu  Cu29  1  0.493660  0.828930  0.067680  1.0  0.4225
  Cu  Cu30  1  0.183100  0.706050  0.112290  1.0  0.3997
  Cu  Cu31  1  0.347600  0.831120  0.087110  1.0  0.4063
  Cu  Cu32  1  0.891070  0.594610  0.253590  1.0  0.3201
  Cu  Cu33  1  0.461350  0.871740  0.668040  1.0  0.5123
  Cu  Cu34  1  0.446930  0.025430  0.632320  1.0  0.3186
  Cu  Cu35  1  0.907000  0.745080  0.503320  1.0  0.4209
  Cu  Cu36  1  0.204980  0.781750  0.618850  1.0  0.4342
  Cu  Cu37  1  0.993660  0.671070  0.567680  1.0  0.4221
  Cu  Cu38  1  0.683100  0.793950  0.612290  1.0  0.4007
  Cu  Cu39  1  0.847600  0.668880  0.587110  1.0  0.4065
  Cu  Cu40  1  0.391070  0.905390  0.753590  1.0  0.3199
  Cu  Cu41  1  0.961350  0.371740  0.668040  1.0  0.5123
  Cu  Cu42  1  0.946930  0.525430  0.632320  1.0  0.3186
  Cu  Cu43  1  0.407000  0.245080  0.503320  1.0  0.4209
  Cu  Cu44  1  0.704980  0.281750  0.618850  1.0  0.4342
  Cu  Cu45  1  0.493660  0.171070  0.567680  1.0  0.4225
  Cu  Cu46  1  0.183100  0.293950  0.612290  1.0  0.4007
  Cu  Cu47  1  0.347600  0.168880  0.587110  1.0  0.4065
  Cu  Cu48  1  0.891070  0.405390  0.753590  1.0  0.3199
  Cu  Cu49  1  0.538650  0.871740  0.831960  1.0  0.5124
  Cu  Cu50  1  0.553070  0.025430  0.867680  1.0  0.3192
  Cu  Cu51  1  0.093000  0.745080  0.996680  1.0  0.4208
  Cu  Cu52  1  0.795020  0.781750  0.881150  1.0  0.434
  Cu  Cu53  1  0.006340  0.671070  0.932320  1.0  0.4233
  Cu  Cu54  1  0.316900  0.793950  0.887710  1.0  0.4037
  Cu  Cu55  1  0.152400  0.668880  0.912890  1.0  0.407
  Cu  Cu56  1  0.608930  0.905390  0.746410  1.0  0.3193
  Cu  Cu57  1  0.038650  0.371740  0.831960  1.0  0.5124
  Cu  Cu58  1  0.053070  0.525430  0.867680  1.0  0.3192
  Cu  Cu59  1  0.593000  0.245080  0.996680  1.0  0.4208
  Cu  Cu60  1  0.295020  0.281750  0.881150  1.0  0.434
  Cu  Cu61  1  0.506340  0.171070  0.932320  1.0  0.4238
  Cu  Cu62  1  0.816900  0.293950  0.887710  1.0  0.4037
  Cu  Cu63  1  0.652400  0.168880  0.912890  1.0  0.407
  Cu  Cu64  1  0.108930  0.405390  0.746410  1.0  0.3193
  Cu  Cu65  1  0.500000  0.191930  0.250000  1.0  0.3798
  Cu  Cu66  1  0.000000  0.691930  0.250000  1.0  0.3798
  Cu  Cu67  1  0.500000  0.808070  0.750000  1.0  0.3805
  Cu  Cu68  1  0.000000  0.308070  0.750000  1.0  0.3805
  H  H69  1  0.681700  0.392300  0.283600  1.0  0.3218
  H  H70  1  0.636900  0.374800  0.312900  1.0  0.3453
  H  H71  1  0.596300  0.346900  0.170500  1.0  0.3466
  H  H72  1  0.662900  0.336600  0.160600  1.0  0.3539
  H  H73  1  0.333333  0.102100  0.477800  1.0  0.3162
  H  H74  1  0.285500  0.073800  0.445300  1.0  0.3372
  H  H75  1  0.724000  0.929100  0.175600  1.0  0.3037
  H  H76  1  0.781000  0.956200  0.189600  1.0  0.3496
  H  H77  1  0.684500  0.265700  0.486300  1.0  0.3524
  H  H78  1  0.640300  0.294100  0.450700  1.0  0.3267
  H  H79  1  0.082900  0.072500  0.411900  1.0  0.3555
  H  H80  1  0.046700  0.097700  0.365900  1.0  0.3077
  H  H81  1  0.041400  0.082400  0.541200  1.0  0.3342
  H  H82  1  0.987200  0.070200  0.487800  1.0  0.3405
  H  H83  1  0.483600  0.295700  0.835500  1.0  0.3459
  H  H84  1  0.502700  0.257900  0.847700  1.0  0.3185
  H  H85  1  0.872200  0.085200  0.572300  1.0  0.3513
  H  H86  1  0.856800  0.055000  0.532100  1.0  0.3228
  H  H87  1  0.884100  0.929900  0.335500  1.0  0.3466
  H  H88  1  0.889400  0.961100  0.372700  1.0  0.3203
  H  H89  1  0.295700  0.986700  0.484600  1.0  0.3372
  H  H90  1  0.259700  0.951800  0.477000  1.0  0.322
  H  H91  1  0.053700  0.074700  0.183800  1.0  0.3216
  H  H92  1  0.042400  0.075800  0.239500  1.0  0.351
  H  H93  1  0.135900  0.206400  0.431400  1.0  0.0924
  H  H94  1  0.171400  0.091900  0.497100  1.0  0.097
  H  H95  1  0.227700  0.137800  0.555300  1.0  0.0629
  H  H96  1  0.077800  0.160400  0.374500  1.0  0.0969
  H  H97  1  0.371200  0.196100  0.694100  1.0  0.1026
  H  H98  1  0.449300  0.212600  0.780500  1.0  0.0977
  H  H99  1  0.316800  0.297500  0.659800  1.0  0.0713
  H  H100  1  0.393800  0.313300  0.747000  1.0  0.1054
  H  H101  1  0.677500  0.875900  0.323800  1.0  0.1013
  H  H102  1  0.781700  0.892400  0.310200  1.0  0.0883
  H  H103  1  0.693500  0.959000  0.424900  1.0  0.0968
  H  H104  1  0.798400  0.974400  0.412900  1.0  0.1178
  H  H105  1  0.494400  0.971300  0.441900  1.0  0.0754
  H  H106  1  0.407200  0.993600  0.471400  1.0  0.0907
  H  H107  1  0.401000  0.877000  0.421200  1.0  0.0841
  H  H108  1  0.313100  0.899600  0.449800  1.0  0.1011
  H  H109  1  0.757100  0.179400  0.472000  1.0  0.0826
  H  H110  1  0.706900  0.098400  0.365600  1.0  0.0783
  H  H111  1  0.826400  0.142900  0.542000  1.0  0.0941
  H  H112  1  0.779300  0.062400  0.435100  1.0  0.1001
  H  H113  1  0.737100  0.235700  0.259600  1.0  0.0976
  H  H114  1  0.730000  0.285300  0.206000  1.0  0.0928
  H  H115  1  0.559400  0.264300  0.288000  1.0  0.0892
  H  H116  1  0.551600  0.313200  0.233400  1.0  0.0982
  H  H117  1  0.564100  0.966000  0.256600  1.0  0.0884
  H  H118  1  0.717000  0.039100  0.294600  1.0  0.09
  H  H119  1  0.623100  0.934700  0.207600  1.0  0.1027
  H  H120  1  0.777700  0.007300  0.248600  1.0  0.1221
  H  H121  1  0.406100  0.019000  0.343200  1.0  0.0825
  H  H122  1  0.446300  0.113100  0.466500  1.0  0.0993
  H  H123  1  0.531800  0.096500  0.429900  1.0  0.0938
  H  H124  1  0.320800  0.035200  0.381000  1.0  0.1139
  H  H125  1  0.037200  0.201900  0.534700  1.0  0.0884
  H  H126  1  0.892000  0.169500  0.390400  1.0  0.084
  H  H127  1  0.917700  0.112000  0.418300  1.0  0.0885
  H  H128  1  0.060500  0.144300  0.563200  1.0  0.0871
  H  H129  1  0.762700  0.282400  0.408400  1.0  0.0906
  H  H130  1  0.675500  0.323100  0.369000  1.0  0.0998
  H  H131  1  0.797300  0.368900  0.291500  1.0  0.0929
  H  H132  1  0.885500  0.328500  0.330700  1.0  0.0995
  H  H133  1  0.263700  0.130100  0.210900  1.0  0.0714
  H  H134  1  0.234400  0.134000  0.360200  1.0  0.1055
  H  H135  1  0.159000  0.099800  0.172200  1.0  0.1071
  H  H136  1  0.127400  0.104800  0.321300  1.0  0.0811
  H  H137  1  0.432200  0.243100  0.349000  1.0  0.0834
  H  H138  1  0.522000  0.282900  0.388000  1.0  0.1039
  H  H139  1  0.639300  0.206300  0.483700  1.0  0.0931
  H  H140  1  0.550400  0.165900  0.443000  1.0  0.0902
  H  H141  1  0.181700  0.892300  0.283600  1.0  0.3218
  H  H142  1  0.136900  0.874800  0.312900  1.0  0.3453
  H  H143  1  0.096300  0.846900  0.170500  1.0  0.3466
  H  H144  1  0.162900  0.836600  0.160600  1.0  0.3539
  H  H145  1  0.833300  0.602100  0.477800  1.0  0.3162
  H  H146  1  0.785500  0.573800  0.445300  1.0  0.3372
  H  H147  1  0.224000  0.429100  0.175600  1.0  0.3037
  H  H148  1  0.281000  0.456200  0.189600  1.0  0.3496
  H  H149  1  0.184500  0.765700  0.486300  1.0  0.3524
  H  H150  1  0.140300  0.794100  0.450700  1.0  0.3267
  H  H151  1  0.582900  0.572500  0.411900  1.0  0.3555
  H  H152  1  0.546700  0.597700  0.365900  1.0  0.3077
  H  H153  1  0.541400  0.582400  0.541200  1.0  0.3342
  H  H154  1  0.487200  0.570200  0.487800  1.0  0.3405
  H  H155  1  0.983600  0.795700  0.835500  1.0  0.3459
  H  H156  1  0.002700  0.757900  0.847700  1.0  0.3185
  H  H157  1  0.372200  0.585200  0.572300  1.0  0.3513
  H  H158  1  0.356800  0.555000  0.532100  1.0  0.3228
  H  H159  1  0.384100  0.429900  0.335500  1.0  0.3466
  H  H160  1  0.389400  0.461100  0.372700  1.0  0.3203
  H  H161  1  0.795700  0.486700  0.484600  1.0  0.3372
  H  H162  1  0.759700  0.451800  0.477000  1.0  0.322
  H  H163  1  0.553700  0.574700  0.183800  1.0  0.3216
  H  H164  1  0.542400  0.575800  0.239500  1.0  0.351
  H  H165  1  0.635900  0.706400  0.431400  1.0  0.0924
  H  H166  1  0.671400  0.591900  0.497100  1.0  0.097
  H  H167  1  0.727700  0.637800  0.555300  1.0  0.0629
  H  H168  1  0.577800  0.660400  0.374500  1.0  0.0969
  H  H169  1  0.871200  0.696100  0.694100  1.0  0.1026
  H  H170  1  0.949300  0.712600  0.780500  1.0  0.0977
  H  H171  1  0.816800  0.797500  0.659800  1.0  0.0713
  H  H172  1  0.893800  0.813300  0.747000  1.0  0.1054
  H  H173  1  0.177500  0.375900  0.323800  1.0  0.1013
  H  H174  1  0.281700  0.392400  0.310200  1.0  0.0883
  H  H175  1  0.193500  0.459000  0.424900  1.0  0.0968
  H  H176  1  0.298400  0.474400  0.412900  1.0  0.1178
  H  H177  1  0.994400  0.471300  0.441900  1.0  0.0754
  H  H178  1  0.907200  0.493600  0.471400  1.0  0.0907
  H  H179  1  0.901000  0.377000  0.421200  1.0  0.084
  H  H180  1  0.813100  0.399600  0.449800  1.0  0.1011
  H  H181  1  0.257100  0.679400  0.472000  1.0  0.0826
  H  H182  1  0.206900  0.598400  0.365600  1.0  0.0783
  H  H183  1  0.326400  0.642900  0.542000  1.0  0.0941
  H  H184  1  0.279300  0.562400  0.435100  1.0  0.1001
  H  H185  1  0.237100  0.735700  0.259600  1.0  0.0976
  H  H186  1  0.230000  0.785300  0.206000  1.0  0.0928
  H  H187  1  0.059400  0.764300  0.288000  1.0  0.0892
  H  H188  1  0.051600  0.813200  0.233400  1.0  0.0982
  H  H189  1  0.064100  0.466000  0.256600  1.0  0.0884
  H  H190  1  0.217000  0.539100  0.294600  1.0  0.09
  H  H191  1  0.123100  0.434700  0.207600  1.0  0.1027
  H  H192  1  0.277700  0.507300  0.248600  1.0  0.1221
  H  H193  1  0.906100  0.519000  0.343200  1.0  0.0825
  H  H194  1  0.946300  0.613100  0.466500  1.0  0.0993
  H  H195  1  0.031800  0.596500  0.429900  1.0  0.0938
  H  H196  1  0.820800  0.535200  0.381000  1.0  0.1139
  H  H197  1  0.537200  0.701900  0.534700  1.0  0.0884
  H  H198  1  0.392000  0.669500  0.390400  1.0  0.084
  H  H199  1  0.417700  0.612000  0.418300  1.0  0.0885
  H  H200  1  0.560500  0.644300  0.563200  1.0  0.0871
  H  H201  1  0.262700  0.782400  0.408400  1.0  0.0906
  H  H202  1  0.175500  0.823100  0.369000  1.0  0.0998
  H  H203  1  0.297300  0.868900  0.291500  1.0  0.0929
  H  H204  1  0.385500  0.828500  0.330700  1.0  0.0995
  H  H205  1  0.763700  0.630100  0.210900  1.0  0.0714
  H  H206  1  0.734400  0.634000  0.360200  1.0  0.1055
  H  H207  1  0.659000  0.599800  0.172200  1.0  0.1071
  H  H208  1  0.627400  0.604800  0.321300  1.0  0.0811
  H  H209  1  0.932200  0.743100  0.349000  1.0  0.0834
  H  H210  1  0.022000  0.782900  0.388000  1.0  0.1039
  H  H211  1  0.139300  0.706300  0.483700  1.0  0.0931
  H  H212  1  0.050400  0.665900  0.443000  1.0  0.0902
  H  H213  1  0.318300  0.392300  0.216400  1.0  0.3235
  H  H214  1  0.363100  0.374800  0.187100  1.0  0.3462
  H  H215  1  0.403700  0.346900  0.329500  1.0  0.3464
  H  H216  1  0.337100  0.336600  0.339400  1.0  0.3523
  H  H217  1  0.666667  0.102100  0.022200  1.0  0.3163
  H  H218  1  0.714500  0.073800  0.054700  1.0  0.3382
  H  H219  1  0.276000  0.929100  0.324400  1.0  0.3059
  H  H220  1  0.219000  0.956200  0.310400  1.0  0.3488
  H  H221  1  0.315500  0.265700  0.013700  1.0  0.3497
  H  H222  1  0.359700  0.294100  0.049300  1.0  0.3264
  H  H223  1  0.917100  0.072500  0.088100  1.0  0.3542
  H  H224  1  0.953300  0.097700  0.134100  1.0  0.3092
  H  H225  1  0.958600  0.082400  0.958800  1.0  0.3306
  H  H226  1  0.012800  0.070200  0.012200  1.0  0.3424
  H  H227  1  0.516400  0.295700  0.664500  1.0  0.3461
  H  H228  1  0.497300  0.257900  0.652300  1.0  0.3174
  H  H229  1  0.127800  0.085200  0.927700  1.0  0.3494
  H  H230  1  0.143200  0.055000  0.967900  1.0  0.3231
  H  H231  1  0.115900  0.929900  0.164500  1.0  0.3463
  H  H232  1  0.110600  0.961100  0.127300  1.0  0.3212
  H  H233  1  0.704300  0.986700  0.015400  1.0  0.3374
  H  H234  1  0.740300  0.951800  0.023000  1.0  0.3229
  H  H235  1  0.946300  0.074700  0.316200  1.0  0.3208
  H  H236  1  0.957600  0.075800  0.260500  1.0  0.3513
  H  H237  1  0.864100  0.206400  0.068600  1.0  0.0922
  H  H238  1  0.828600  0.091900  0.002900  1.0  0.0975
  H  H239  1  0.772300  0.137800  0.944700  1.0  0.0625
  H  H240  1  0.922200  0.160400  0.125500  1.0  0.0965
  H  H241  1  0.628800  0.196100  0.805900  1.0  0.1024
  H  H242  1  0.550700  0.212600  0.719500  1.0  0.0977
  H  H243  1  0.683200  0.297500  0.840200  1.0  0.0708
  H  H244  1  0.606200  0.313300  0.753000  1.0  0.1057
  H  H245  1  0.322500  0.875900  0.176200  1.0  0.1014
  H  H246  1  0.218300  0.892400  0.189800  1.0  0.0879
  H  H247  1  0.306500  0.959000  0.075100  1.0  0.0971
  H  H248  1  0.201600  0.974400  0.087100  1.0  0.1177
  H  H249  1  0.505600  0.971300  0.058100  1.0  0.0754
  H  H250  1  0.592800  0.993600  0.028600  1.0  0.0907
  H  H251  1  0.599000  0.877000  0.078800  1.0  0.084
  H  H252  1  0.686900  0.899600  0.050200  1.0  0.1008
  H  H253  1  0.242900  0.179400  0.028000  1.0  0.0828
  H  H254  1  0.293100  0.098400  0.134400  1.0  0.0789
  H  H255  1  0.173600  0.142900  0.958000  1.0  0.0941
  H  H256  1  0.220700  0.062400  0.064900  1.0  0.1005
  H  H257  1  0.262900  0.235700  0.240400  1.0  0.0971
  H  H258  1  0.270000  0.285300  0.294000  1.0  0.0926
  H  H259  1  0.440600  0.264300  0.212000  1.0  0.0898
  H  H260  1  0.448400  0.313200  0.266600  1.0  0.0976
  H  H261  1  0.435900  0.966000  0.243400  1.0  0.0883
  H  H262  1  0.283000  0.039100  0.205400  1.0  0.0909
  H  H263  1  0.376900  0.934700  0.292400  1.0  0.1026
  H  H264  1  0.222300  0.007300  0.251400  1.0  0.1225
  H  H265  1  0.593900  0.019000  0.156800  1.0  0.0826
  H  H266  1  0.553700  0.113100  0.033500  1.0  0.0994
  H  H267  1  0.468200  0.096500  0.070100  1.0  0.0938
  H  H268  1  0.679200  0.035200  0.119000  1.0  0.114
  H  H269  1  0.962800  0.201900  0.965300  1.0  0.0887
  H  H270  1  0.108000  0.169500  0.109600  1.0  0.0838
  H  H271  1  0.082300  0.112000  0.081700  1.0  0.089
  H  H272  1  0.939500  0.144300  0.936800  1.0  0.0876
  H  H273  1  0.237300  0.282400  0.091600  1.0  0.0901
  H  H274  1  0.324500  0.323100  0.131000  1.0  0.0998
  H  H275  1  0.202700  0.368900  0.208500  1.0  0.0935
  H  H276  1  0.114500  0.328500  0.169300  1.0  0.0997
  H  H277  1  0.736300  0.130100  0.289100  1.0  0.0716
  H  H278  1  0.765600  0.134000  0.139800  1.0  0.105
  H  H279  1  0.841000  0.099800  0.327800  1.0  0.1077
  H  H280  1  0.872600  0.104800  0.178700  1.0  0.081
  H  H281  1  0.567800  0.243100  0.151000  1.0  0.0829
  H  H282  1  0.478000  0.282900  0.112000  1.0  0.1035
  H  H283  1  0.360700  0.206300  0.016300  1.0  0.0932
  H  H284  1  0.449600  0.165900  0.057000  1.0  0.09
  H  H285  1  0.818300  0.892300  0.216400  1.0  0.3235
  H  H286  1  0.863100  0.874800  0.187100  1.0  0.3462
  H  H287  1  0.903700  0.846900  0.329500  1.0  0.3464
  H  H288  1  0.837100  0.836600  0.339400  1.0  0.3523
  H  H289  1  0.166700  0.602100  0.022200  1.0  0.3163
  H  H290  1  0.214500  0.573800  0.054700  1.0  0.3382
  H  H291  1  0.776000  0.429100  0.324400  1.0  0.3059
  H  H292  1  0.719000  0.456200  0.310400  1.0  0.3488
  H  H293  1  0.815500  0.765700  0.013700  1.0  0.3497
  H  H294  1  0.859700  0.794100  0.049300  1.0  0.3264
  H  H295  1  0.417100  0.572500  0.088100  1.0  0.3542
  H  H296  1  0.453300  0.597700  0.134100  1.0  0.3092
  H  H297  1  0.458600  0.582400  0.958800  1.0  0.3306
  H  H298  1  0.512800  0.570200  0.012200  1.0  0.3424
  H  H299  1  0.016400  0.795700  0.664500  1.0  0.3461
  H  H300  1  0.997300  0.757900  0.652300  1.0  0.3174
  H  H301  1  0.627800  0.585200  0.927700  1.0  0.3494
  H  H302  1  0.643200  0.555000  0.967900  1.0  0.3231
  H  H303  1  0.615900  0.429900  0.164500  1.0  0.3463
  H  H304  1  0.610600  0.461100  0.127300  1.0  0.3212
  H  H305  1  0.204300  0.486700  0.015400  1.0  0.3374
  H  H306  1  0.240300  0.451800  0.023000  1.0  0.3229
  H  H307  1  0.446300  0.574700  0.316200  1.0  0.3208
  H  H308  1  0.457600  0.575800  0.260500  1.0  0.3513
  H  H309  1  0.364100  0.706400  0.068600  1.0  0.0922
  H  H310  1  0.328600  0.591900  0.002900  1.0  0.0975
  H  H311  1  0.272300  0.637800  0.944700  1.0  0.0625
  H  H312  1  0.422200  0.660400  0.125500  1.0  0.0965
  H  H313  1  0.128800  0.696100  0.805900  1.0  0.1024
  H  H314  1  0.050700  0.712600  0.719500  1.0  0.0977
  H  H315  1  0.183200  0.797500  0.840200  1.0  0.0708
  H  H316  1  0.106200  0.813300  0.753000  1.0  0.1057
  H  H317  1  0.822500  0.375900  0.176200  1.0  0.1014
  H  H318  1  0.718300  0.392400  0.189800  1.0  0.0879
  H  H319  1  0.806500  0.459000  0.075100  1.0  0.0971
  H  H320  1  0.701600  0.474400  0.087100  1.0  0.1177
  H  H321  1  0.005600  0.471300  0.058100  1.0  0.0754
  H  H322  1  0.092800  0.493600  0.028600  1.0  0.0907
  H  H323  1  0.099000  0.377000  0.078800  1.0  0.0839
  H  H324  1  0.186900  0.399600  0.050200  1.0  0.1008
  H  H325  1  0.742900  0.679400  0.028000  1.0  0.0828
  H  H326  1  0.793100  0.598400  0.134400  1.0  0.0789
  H  H327  1  0.673600  0.642900  0.958000  1.0  0.0941
  H  H328  1  0.720700  0.562400  0.064900  1.0  0.1005
  H  H329  1  0.762900  0.735700  0.240400  1.0  0.0971
  H  H330  1  0.770000  0.785300  0.294000  1.0  0.0926
  H  H331  1  0.940600  0.764300  0.212000  1.0  0.0898
  H  H332  1  0.948400  0.813200  0.266600  1.0  0.0976
  H  H333  1  0.935900  0.466000  0.243400  1.0  0.0883
  H  H334  1  0.783000  0.539100  0.205400  1.0  0.0909
  H  H335  1  0.876900  0.434700  0.292400  1.0  0.1026
  H  H336  1  0.722300  0.507300  0.251400  1.0  0.1225
  H  H337  1  0.093900  0.519000  0.156800  1.0  0.0826
  H  H338  1  0.053700  0.613100  0.033500  1.0  0.0994
  H  H339  1  0.968200  0.596500  0.070100  1.0  0.0938
  H  H340  1  0.179200  0.535200  0.119000  1.0  0.114
  H  H341  1  0.462800  0.701900  0.965300  1.0  0.0887
  H  H342  1  0.608000  0.669500  0.109600  1.0  0.0838
  H  H343  1  0.582300  0.612000  0.081700  1.0  0.089
  H  H344  1  0.439500  0.644300  0.936800  1.0  0.0876
  H  H345  1  0.737300  0.782400  0.091600  1.0  0.0901
  H  H346  1  0.824500  0.823100  0.131000  1.0  0.0998
  H  H347  1  0.702700  0.868900  0.208500  1.0  0.0935
  H  H348  1  0.614500  0.828500  0.169300  1.0  0.0997
  H  H349  1  0.236300  0.630100  0.289100  1.0  0.0716
  H  H350  1  0.265600  0.634000  0.139800  1.0  0.105
  H  H351  1  0.341000  0.599800  0.327800  1.0  0.1077
  H  H352  1  0.372600  0.604800  0.178700  1.0  0.081
  H  H353  1  0.067800  0.743100  0.151000  1.0  0.0829
  H  H354  1  0.978000  0.782900  0.112000  1.0  0.1035
  H  H355  1  0.860700  0.706300  0.016300  1.0  0.0932
  H  H356  1  0.949600  0.665900  0.057000  1.0  0.09
  H  H357  1  0.318300  0.607700  0.716400  1.0  0.3256
  H  H358  1  0.363100  0.625200  0.687100  1.0  0.3469
  H  H359  1  0.403700  0.653100  0.829500  1.0  0.3472
  H  H360  1  0.337100  0.663400  0.839400  1.0  0.3523
  H  H361  1  0.666667  0.897900  0.522200  1.0  0.3139
  H  H362  1  0.714500  0.926200  0.554700  1.0  0.3374
  H  H363  1  0.276000  0.070900  0.824400  1.0  0.3082
  H  H364  1  0.219000  0.043800  0.810400  1.0  0.3488
  H  H365  1  0.315500  0.734300  0.513700  1.0  0.3506
  H  H366  1  0.359700  0.705900  0.549300  1.0  0.3264
  H  H367  1  0.917100  0.927500  0.588100  1.0  0.3519
  H  H368  1  0.953300  0.902300  0.634100  1.0  0.3072
  H  H369  1  0.958600  0.917600  0.458800  1.0  0.3306
  H  H370  1  0.012800  0.929800  0.512200  1.0  0.3416
  H  H371  1  0.516400  0.704300  0.164500  1.0  0.3458
  H  H372  1  0.497300  0.742100  0.152300  1.0  0.3178
  H  H373  1  0.127800  0.914800  0.427700  1.0  0.3488
  H  H374  1  0.143200  0.945000  0.467900  1.0  0.3227
  H  H375  1  0.115900  0.070100  0.664500  1.0  0.3465
  H  H376  1  0.110600  0.038900  0.627300  1.0  0.3214
  H  H377  1  0.704300  0.013300  0.515400  1.0  0.3369
  H  H378  1  0.740300  0.048200  0.523000  1.0  0.3233
  H  H379  1  0.946300  0.925300  0.816200  1.0  0.3208
  H  H380  1  0.957600  0.924200  0.760500  1.0  0.3526
  H  H381  1  0.864100  0.793600  0.568600  1.0  0.0929
  H  H382  1  0.828600  0.908100  0.502900  1.0  0.0978
  H  H383  1  0.772300  0.862200  0.444700  1.0  0.0624
  H  H384  1  0.922200  0.839600  0.625500  1.0  0.0967
  H  H385  1  0.628800  0.803900  0.305900  1.0  0.102
  H  H386  1  0.550700  0.787400  0.219500  1.0  0.0989
  H  H387  1  0.683200  0.702500  0.340200  1.0  0.0713
  H  H388  1  0.606200  0.686700  0.253000  1.0  0.1061
  H  H389  1  0.322500  0.124100  0.676200  1.0  0.1013
  H  H390  1  0.218300  0.107600  0.689800  1.0  0.0877
  H  H391  1  0.306500  0.041000  0.575100  1.0  0.097
  H  H392  1  0.201600  0.025600  0.587100  1.0  0.118
  H  H393  1  0.505600  0.028700  0.558100  1.0  0.0754
  H  H394  1  0.592800  0.006400  0.528600  1.0  0.0906
  H  H395  1  0.599000  0.123000  0.578800  1.0  0.0842
  H  H396  1  0.686900  0.100400  0.550200  1.0  0.1012
  H  H397  1  0.242900  0.820600  0.528000  1.0  0.0827
  H  H398  1  0.293100  0.901600  0.634400  1.0  0.0788
  H  H399  1  0.173600  0.857100  0.458000  1.0  0.0937
  H  H400  1  0.220700  0.937600  0.564900  1.0  0.1004
  H  H401  1  0.262900  0.764300  0.740400  1.0  0.0973
  H  H402  1  0.270000  0.714700  0.794000  1.0  0.0926
  H  H403  1  0.440600  0.735700  0.712000  1.0  0.0897
  H  H404  1  0.448400  0.686800  0.766600  1.0  0.0977
  H  H405  1  0.435900  0.034000  0.743400  1.0  0.0886
  H  H406  1  0.283000  0.960900  0.705400  1.0  0.0905
  H  H407  1  0.376900  0.065300  0.792400  1.0  0.1027
  H  H408  1  0.222300  0.992700  0.751400  1.0  0.1229
  H  H409  1  0.593900  0.981000  0.656800  1.0  0.0828
  H  H410  1  0.553700  0.886900  0.533500  1.0  0.0993
  H  H411  1  0.468200  0.903500  0.570100  1.0  0.0938
  H  H412  1  0.679200  0.964800  0.619000  1.0  0.114
  H  H413  1  0.962800  0.798100  0.465300  1.0  0.0883
  H  H414  1  0.108000  0.830500  0.609600  1.0  0.0838
  H  H415  1  0.082300  0.888000  0.581700  1.0  0.089
  H  H416  1  0.939500  0.855700  0.436800  1.0  0.0877
  H  H417  1  0.237300  0.717600  0.591600  1.0  0.09
  H  H418  1  0.324500  0.676900  0.631000  1.0  0.0997
  H  H419  1  0.202700  0.631100  0.708500  1.0  0.0942
  H  H420  1  0.114500  0.671500  0.669300  1.0  0.1
  H  H421  1  0.736300  0.869900  0.789100  1.0  0.0718
  H  H422  1  0.765600  0.866000  0.639800  1.0  0.1051
  H  H423  1  0.841000  0.900200  0.827800  1.0  0.1079
  H  H424  1  0.872600  0.895200  0.678700  1.0  0.0814
  H  H425  1  0.567800  0.756900  0.651000  1.0  0.083
  H  H426  1  0.478000  0.717100  0.612000  1.0  0.1021
  H  H427  1  0.360700  0.793700  0.516300  1.0  0.0934
  H  H428  1  0.449600  0.834100  0.557000  1.0  0.09
  H  H429  1  0.818300  0.107700  0.716400  1.0  0.3256
  H  H430  1  0.863100  0.125200  0.687100  1.0  0.3469
  H  H431  1  0.903700  0.153100  0.829500  1.0  0.3472
  H  H432  1  0.837100  0.163400  0.839400  1.0  0.3523
  H  H433  1  0.166700  0.397900  0.522200  1.0  0.3139
  H  H434  1  0.214500  0.426200  0.554700  1.0  0.3374
  H  H435  1  0.776000  0.570900  0.824400  1.0  0.3082
  H  H436  1  0.719000  0.543800  0.810400  1.0  0.3488
  H  H437  1  0.815500  0.234300  0.513700  1.0  0.3506
  H  H438  1  0.859700  0.205900  0.549300  1.0  0.3264
  H  H439  1  0.417100  0.427500  0.588100  1.0  0.3519
  H  H440  1  0.453300  0.402300  0.634100  1.0  0.3073
  H  H441  1  0.458600  0.417600  0.458800  1.0  0.3306
  H  H442  1  0.512800  0.429800  0.512200  1.0  0.3416
  H  H443  1  0.016400  0.204300  0.164500  1.0  0.3458
  H  H444  1  0.997300  0.242100  0.152300  1.0  0.3178
  H  H445  1  0.627800  0.414800  0.427700  1.0  0.3488
  H  H446  1  0.643200  0.445000  0.467900  1.0  0.3227
  H  H447  1  0.615900  0.570100  0.664500  1.0  0.3465
  H  H448  1  0.610600  0.538900  0.627300  1.0  0.3214
  H  H449  1  0.204300  0.513300  0.515400  1.0  0.3369
  H  H450  1  0.240300  0.548200  0.523000  1.0  0.3233
  H  H451  1  0.446300  0.425300  0.816200  1.0  0.3208
  H  H452  1  0.457600  0.424200  0.760500  1.0  0.3526
  H  H453  1  0.364100  0.293600  0.568600  1.0  0.0929
  H  H454  1  0.328600  0.408100  0.502900  1.0  0.0978
  H  H455  1  0.272300  0.362200  0.444700  1.0  0.0624
  H  H456  1  0.422200  0.339600  0.625500  1.0  0.0967
  H  H457  1  0.128800  0.303900  0.305900  1.0  0.102
  H  H458  1  0.050700  0.287400  0.219500  1.0  0.0989
  H  H459  1  0.183200  0.202500  0.340200  1.0  0.0713
  H  H460  1  0.106200  0.186700  0.253000  1.0  0.1061
  H  H461  1  0.822500  0.624100  0.676200  1.0  0.1013
  H  H462  1  0.718300  0.607600  0.689800  1.0  0.0877
  H  H463  1  0.806500  0.541000  0.575100  1.0  0.097
  H  H464  1  0.701600  0.525600  0.587100  1.0  0.118
  H  H465  1  0.005600  0.528700  0.558100  1.0  0.0754
  H  H466  1  0.092800  0.506400  0.528600  1.0  0.0906
  H  H467  1  0.099000  0.623000  0.578800  1.0  0.0842
  H  H468  1  0.186900  0.600400  0.550200  1.0  0.1012
  H  H469  1  0.742900  0.320600  0.528000  1.0  0.0827
  H  H470  1  0.793100  0.401600  0.634400  1.0  0.0788
  H  H471  1  0.673600  0.357100  0.458000  1.0  0.0937
  H  H472  1  0.720700  0.437600  0.564900  1.0  0.1004
  H  H473  1  0.762900  0.264300  0.740400  1.0  0.0973
  H  H474  1  0.770000  0.214700  0.794000  1.0  0.0926
  H  H475  1  0.940600  0.235700  0.712000  1.0  0.0897
  H  H476  1  0.948400  0.186800  0.766600  1.0  0.0977
  H  H477  1  0.935900  0.534000  0.743400  1.0  0.0886
  H  H478  1  0.783000  0.460900  0.705400  1.0  0.0905
  H  H479  1  0.876900  0.565300  0.792400  1.0  0.1027
  H  H480  1  0.722300  0.492700  0.751400  1.0  0.1229
  H  H481  1  0.093900  0.481000  0.656800  1.0  0.0828
  H  H482  1  0.053700  0.386900  0.533500  1.0  0.0992
  H  H483  1  0.968200  0.403500  0.570100  1.0  0.0938
  H  H484  1  0.179200  0.464800  0.619000  1.0  0.114
  H  H485  1  0.462800  0.298100  0.465300  1.0  0.0883
  H  H486  1  0.608000  0.330500  0.609600  1.0  0.0838
  H  H487  1  0.582300  0.388000  0.581700  1.0  0.089
  H  H488  1  0.439500  0.355700  0.436800  1.0  0.0877
  H  H489  1  0.737300  0.217600  0.591600  1.0  0.09
  H  H490  1  0.824500  0.176900  0.631000  1.0  0.0997
  H  H491  1  0.702700  0.131100  0.708500  1.0  0.0942
  H  H492  1  0.614500  0.171500  0.669300  1.0  0.1
  H  H493  1  0.236300  0.369900  0.789100  1.0  0.0718
  H  H494  1  0.265600  0.366000  0.639800  1.0  0.1051
  H  H495  1  0.341000  0.400200  0.827800  1.0  0.1079
  H  H496  1  0.372600  0.395200  0.678700  1.0  0.0814
  H  H497  1  0.067800  0.256900  0.651000  1.0  0.083
  H  H498  1  0.978000  0.217100  0.612000  1.0  0.1021
  H  H499  1  0.860700  0.293700  0.516300  1.0  0.0934
  H  H500  1  0.949600  0.334100  0.557000  1.0  0.09
  H  H501  1  0.681700  0.607700  0.783600  1.0  0.3228
  H  H502  1  0.636900  0.625200  0.812900  1.0  0.3449
  H  H503  1  0.596300  0.653100  0.670500  1.0  0.3483
  H  H504  1  0.662900  0.663400  0.660600  1.0  0.3539
  H  H505  1  0.333333  0.897900  0.977800  1.0  0.3161
  H  H506  1  0.285500  0.926200  0.945300  1.0  0.3366
  H  H507  1  0.724000  0.070900  0.675600  1.0  0.3057
  H  H508  1  0.781000  0.043800  0.689600  1.0  0.35
  H  H509  1  0.684500  0.734300  0.986300  1.0  0.3528
  H  H510  1  0.640300  0.705900  0.950700  1.0  0.3261
  H  H511  1  0.082900  0.927500  0.911900  1.0  0.3529
  H  H512  1  0.046700  0.902300  0.865900  1.0  0.3057
  H  H513  1  0.041400  0.917600  0.041200  1.0  0.3323
  H  H514  1  0.987200  0.929800  0.987800  1.0  0.3415
  H  H515  1  0.483600  0.704300  0.335500  1.0  0.3456
  H  H516  1  0.502700  0.742100  0.347700  1.0  0.3174
  H  H517  1  0.872200  0.914800  0.072300  1.0  0.3518
  H  H518  1  0.856800  0.945000  0.032100  1.0  0.3225
  H  H519  1  0.884100  0.070100  0.835500  1.0  0.3462
  H  H520  1  0.889400  0.038900  0.872700  1.0  0.3202
  H  H521  1  0.295700  0.013300  0.984600  1.0  0.3365
  H  H522  1  0.259700  0.048200  0.977000  1.0  0.3219
  H  H523  1  0.053700  0.925300  0.683800  1.0  0.3215
  H  H524  1  0.042400  0.924200  0.739500  1.0  0.352
  H  H525  1  0.135900  0.793600  0.931400  1.0  0.0927
  H  H526  1  0.171400  0.908100  0.997100  1.0  0.0975
  H  H527  1  0.227700  0.862200  0.055300  1.0  0.0629
  H  H528  1  0.077800  0.839600  0.874500  1.0  0.0969
  H  H529  1  0.371200  0.803900  0.194100  1.0  0.1025
  H  H530  1  0.449300  0.787400  0.280500  1.0  0.0984
  H  H531  1  0.316800  0.702500  0.159800  1.0  0.0712
  H  H532  1  0.393800  0.686700  0.247000  1.0  0.1059
  H  H533  1  0.677500  0.124100  0.823800  1.0  0.1019
  H  H534  1  0.781700  0.107600  0.810200  1.0  0.0878
  H  H535  1  0.693500  0.041000  0.924900  1.0  0.0968
  H  H536  1  0.798400  0.025600  0.912900  1.0  0.1184
  H  H537  1  0.494400  0.028700  0.941900  1.0  0.0752
  H  H538  1  0.407200  0.006400  0.971400  1.0  0.091
  H  H539  1  0.401000  0.123000  0.921200  1.0  0.0842
  H  H540  1  0.313100  0.100400  0.949800  1.0  0.1014
  H  H541  1  0.757100  0.820600  0.972000  1.0  0.0824
  H  H542  1  0.706900  0.901600  0.865600  1.0  0.0788
  H  H543  1  0.826400  0.857100  0.042000  1.0  0.094
  H  H544  1  0.779300  0.937600  0.935100  1.0  0.1
  H  H545  1  0.737100  0.764300  0.759600  1.0  0.0978
  H  H546  1  0.730000  0.714700  0.706000  1.0  0.0927
  H  H547  1  0.559400  0.735700  0.788000  1.0  0.0893
  H  H548  1  0.551600  0.686800  0.733400  1.0  0.0976
  H  H549  1  0.564100  0.034000  0.756600  1.0  0.0884
  H  H550  1  0.717000  0.960900  0.794600  1.0  0.0902
  H  H551  1  0.623100  0.065300  0.707600  1.0  0.1028
  H  H552  1  0.777700  0.992700  0.748600  1.0  0.1218
  H  H553  1  0.406100  0.981000  0.843200  1.0  0.0829
  H  H554  1  0.446300  0.886900  0.966500  1.0  0.0995
  H  H555  1  0.531800  0.903500  0.929900  1.0  0.0939
  H  H556  1  0.320800  0.964800  0.881000  1.0  0.1141
  H  H557  1  0.037200  0.798100  0.034700  1.0  0.0888
  H  H558  1  0.892000  0.830500  0.890400  1.0  0.0839
  H  H559  1  0.917700  0.888000  0.918300  1.0  0.0889
  H  H560  1  0.060500  0.855700  0.063200  1.0  0.0866
  H  H561  1  0.762700  0.717600  0.908400  1.0  0.0899
  H  H562  1  0.675500  0.676900  0.869000  1.0  0.1
  H  H563  1  0.797300  0.631100  0.791500  1.0  0.0933
  H  H564  1  0.885500  0.671500  0.830700  1.0  0.0997
  H  H565  1  0.263700  0.869900  0.710900  1.0  0.0714
  H  H566  1  0.234400  0.866000  0.860200  1.0  0.1055
  H  H567  1  0.159000  0.900200  0.672200  1.0  0.1072
  H  H568  1  0.127400  0.895200  0.821300  1.0  0.081
  H  H569  1  0.432200  0.756900  0.849000  1.0  0.0833
  H  H570  1  0.522000  0.717100  0.888000  1.0  0.1023
  H  H571  1  0.639300  0.793700  0.983700  1.0  0.093
  H  H572  1  0.550400  0.834100  0.943000  1.0  0.0898
  H  H573  1  0.181700  0.107700  0.783600  1.0  0.3228
  H  H574  1  0.136900  0.125200  0.812900  1.0  0.3449
  H  H575  1  0.096300  0.153100  0.670500  1.0  0.3483
  H  H576  1  0.162900  0.163400  0.660600  1.0  0.3539
  H  H577  1  0.833300  0.397900  0.977800  1.0  0.3161
  H  H578  1  0.785500  0.426200  0.945300  1.0  0.3366
  H  H579  1  0.224000  0.570900  0.675600  1.0  0.3057
  H  H580  1  0.281000  0.543800  0.689600  1.0  0.35
  H  H581  1  0.184500  0.234300  0.986300  1.0  0.3528
  H  H582  1  0.140300  0.205900  0.950700  1.0  0.3261
  H  H583  1  0.582900  0.427500  0.911900  1.0  0.3529
  H  H584  1  0.546700  0.402300  0.865900  1.0  0.3057
  H  H585  1  0.541400  0.417600  0.041200  1.0  0.3323
  H  H586  1  0.487200  0.429800  0.987800  1.0  0.3415
  H  H587  1  0.983600  0.204300  0.335500  1.0  0.3456
  H  H588  1  0.002700  0.242100  0.347700  1.0  0.3174
  H  H589  1  0.372200  0.414800  0.072300  1.0  0.3518
  H  H590  1  0.356800  0.445000  0.032100  1.0  0.3225
  H  H591  1  0.384100  0.570100  0.835500  1.0  0.3462
  H  H592  1  0.389400  0.538900  0.872700  1.0  0.3202
  H  H593  1  0.795700  0.513300  0.984600  1.0  0.3365
  H  H594  1  0.759700  0.548200  0.977000  1.0  0.3219
  H  H595  1  0.553700  0.425300  0.683800  1.0  0.3215
  H  H596  1  0.542400  0.424200  0.739500  1.0  0.352
  H  H597  1  0.635900  0.293600  0.931400  1.0  0.0927
  H  H598  1  0.671400  0.408100  0.997100  1.0  0.0975
  H  H599  1  0.727700  0.362200  0.055300  1.0  0.0629
  H  H600  1  0.577800  0.339600  0.874500  1.0  0.0969
  H  H601  1  0.871200  0.303900  0.194100  1.0  0.1025
  H  H602  1  0.949300  0.287400  0.280500  1.0  0.0984
  H  H603  1  0.816800  0.202500  0.159800  1.0  0.0712
  H  H604  1  0.893800  0.186700  0.247000  1.0  0.1059
  H  H605  1  0.177500  0.624100  0.823800  1.0  0.1019
  H  H606  1  0.281700  0.607600  0.810200  1.0  0.0878
  H  H607  1  0.193500  0.541000  0.924900  1.0  0.0968
  H  H608  1  0.298400  0.525600  0.912900  1.0  0.1184
  H  H609  1  0.994400  0.528700  0.941900  1.0  0.0752
  H  H610  1  0.907200  0.506400  0.971400  1.0  0.091
  H  H611  1  0.901000  0.623000  0.921200  1.0  0.0841
  H  H612  1  0.813100  0.600400  0.949800  1.0  0.1014
  H  H613  1  0.257100  0.320600  0.972000  1.0  0.0824
  H  H614  1  0.206900  0.401600  0.865600  1.0  0.0788
  H  H615  1  0.326400  0.357100  0.042000  1.0  0.094
  H  H616  1  0.279300  0.437600  0.935100  1.0  0.1
  H  H617  1  0.237100  0.264300  0.759600  1.0  0.0978
  H  H618  1  0.230000  0.214700  0.706000  1.0  0.0927
  H  H619  1  0.059400  0.235700  0.788000  1.0  0.0893
  H  H620  1  0.051600  0.186800  0.733400  1.0  0.0976
  H  H621  1  0.064100  0.534000  0.756600  1.0  0.0884
  H  H622  1  0.217000  0.460900  0.794600  1.0  0.0902
  H  H623  1  0.123100  0.565300  0.707600  1.0  0.1028
  H  H624  1  0.277700  0.492700  0.748600  1.0  0.1218
  H  H625  1  0.906100  0.481000  0.843200  1.0  0.0829
  H  H626  1  0.946300  0.386900  0.966500  1.0  0.0995
  H  H627  1  0.031800  0.403500  0.929900  1.0  0.0939
  H  H628  1  0.820800  0.464800  0.881000  1.0  0.1141
  H  H629  1  0.537200  0.298100  0.034700  1.0  0.0888
  H  H630  1  0.392000  0.330500  0.890400  1.0  0.0839
  H  H631  1  0.417700  0.388000  0.918300  1.0  0.0889
  H  H632  1  0.560500  0.355700  0.063200  1.0  0.0866
  H  H633  1  0.262700  0.217600  0.908400  1.0  0.0899
  H  H634  1  0.175500  0.176900  0.869000  1.0  0.1
  H  H635  1  0.297300  0.131100  0.791500  1.0  0.0933
  H  H636  1  0.385500  0.171500  0.830700  1.0  0.0997
  H  H637  1  0.763700  0.369900  0.710900  1.0  0.0714
  H  H638  1  0.734400  0.366000  0.860200  1.0  0.1055
  H  H639  1  0.659000  0.400200  0.672200  1.0  0.1072
  H  H640  1  0.627400  0.395200  0.821300  1.0  0.081
  H  H641  1  0.932200  0.256900  0.849000  1.0  0.0833
  H  H642  1  0.022000  0.217100  0.888000  1.0  0.1023
  H  H643  1  0.139300  0.293700  0.983700  1.0  0.093
  H  H644  1  0.050400  0.334100  0.943000  1.0  0.0898
  C  C645  1  0.216490  0.206060  0.540390  1.0  0.3251
  C  C646  1  0.142200  0.183530  0.445510  1.0  -0.1137
  C  C647  1  0.114700  0.121470  0.431600  1.0  0.1993
  C  C648  1  0.162200  0.114980  0.484300  1.0  -0.1878
  C  C649  1  0.186730  0.177430  0.500380  1.0  -0.0536
  C  C650  1  0.197100  0.142670  0.519060  1.0  -0.0558
  C  C651  1  0.106900  0.155870  0.411300  1.0  -0.188
  C  C652  1  0.280980  0.234620  0.613070  1.0  0.3052
  C  C653  1  0.335200  0.244980  0.666410  1.0  -0.0323
  C  C654  1  0.375700  0.219800  0.704200  1.0  -0.0919
  C  C655  1  0.422400  0.229750  0.756300  1.0  -0.1944
  C  C656  1  0.343200  0.280150  0.683900  1.0  -0.0939
  C  C657  1  0.429800  0.264680  0.773100  1.0  0.2096
  C  C658  1  0.389600  0.289760  0.736400  1.0  -0.1826
  C  C659  1  0.609960  0.905000  0.387480  1.0  0.3233
  C  C660  1  0.674000  0.915390  0.375860  1.0  -0.0708
  C  C661  1  0.701400  0.895920  0.341800  1.0  -0.0691
  C  C662  1  0.764500  0.905640  0.333900  1.0  -0.1957
  C  C663  1  0.711300  0.945170  0.402100  1.0  -0.0773
  C  C664  1  0.801400  0.934450  0.360700  1.0  0.2296
  C  C665  1  0.774100  0.954540  0.394800  1.0  -0.2098
  C  C666  1  0.514930  0.907370  0.409220  1.0  0.2947
  C  C667  1  0.457400  0.956700  0.442600  1.0  -0.0989
  C  C668  1  0.404800  0.970140  0.460200  1.0  -0.217
  C  C669  1  0.456600  0.921450  0.425740  1.0  -0.0364
  C  C670  1  0.401900  0.900800  0.430200  1.0  -0.0805
  C  C671  1  0.349200  0.914230  0.447400  1.0  -0.227
  C  C672  1  0.349000  0.950090  0.461600  1.0  0.2622
  C  C673  1  0.725240  0.143060  0.410610  1.0  -0.0535
  C  C674  1  0.761200  0.155710  0.464000  1.0  -0.1362
  C  C675  1  0.731700  0.107860  0.400800  1.0  -0.1227
  C  C676  1  0.681720  0.166850  0.365820  1.0  0.2957
  C  C677  1  0.803300  0.133790  0.506200  1.0  -0.1887
  C  C678  1  0.774900  0.086080  0.442900  1.0  -0.1635
  C  C679  1  0.811100  0.099020  0.495500  1.0  0.2283
  C  C680  1  0.648440  0.244200  0.278950  1.0  -0.04
  C  C681  1  0.699400  0.251220  0.254160  1.0  -0.0917
  C  C682  1  0.694800  0.280780  0.221700  1.0  -0.1874
  C  C683  1  0.593400  0.268240  0.270860  1.0  -0.158
  C  C684  1  0.649220  0.211310  0.309910  1.0  0.3169
  C  C685  1  0.638300  0.304090  0.211970  1.0  0.2276
  C  C686  1  0.588700  0.297440  0.238190  1.0  -0.1951
  C  C687  1  0.592990  0.029380  0.305470  1.0  0.286
  C  C688  1  0.633300  0.006620  0.279990  1.0  -0.0747
  C  C689  1  0.606400  0.974640  0.254130  1.0  -0.0926
  C  C690  1  0.705700  0.967880  0.221400  1.0  0.1915
  C  C691  1  0.697900  0.018080  0.277100  1.0  -0.0737
  C  C692  1  0.642000  0.955750  0.225000  1.0  -0.1834
  C  C693  1  0.734100  0.999260  0.249200  1.0  -0.2234
  C  C694  1  0.414400  0.038050  0.368000  1.0  -0.0865
  C  C695  1  0.438000  0.094050  0.441980  1.0  -0.1887
  C  C696  1  0.477900  0.056150  0.381140  1.0  -0.0523
  C  C697  1  0.527420  0.050630  0.350430  1.0  0.2967
  C  C698  1  0.489000  0.084290  0.419570  1.0  -0.1404
  C  C699  1  0.374500  0.076080  0.428800  1.0  0.2077
  C  C700  1  0.363200  0.047660  0.390800  1.0  -0.1813
  C  C701  1  0.961800  0.192440  0.459440  1.0  0.0101
  C  C702  1  0.012500  0.183910  0.511150  1.0  -0.0831
  C  C703  1  0.926300  0.164670  0.425100  1.0  -0.0668
  C  C704  1  0.941700  0.130110  0.441900  1.0  -0.187
  C  C705  1  0.946800  0.229120  0.441710  1.0  0.2818
  C  C706  1  0.027000  0.149280  0.528140  1.0  -0.1859
  C  C707  1  0.992200  0.121860  0.493500  1.0  0.2227
  C  C708  1  0.891800  0.276420  0.403820  1.0  0.2979
  C  C709  1  0.770500  0.300040  0.385370  1.0  -0.0755
  C  C710  1  0.718000  0.324410  0.361700  1.0  -0.2173
  C  C711  1  0.728000  0.350900  0.327100  1.0  0.2293
  C  C712  1  0.790600  0.351730  0.315600  1.0  -0.1834
  C  C713  1  0.843600  0.327460  0.339120  1.0  -0.0959
  C  C714  1  0.834890  0.301300  0.375460  1.0  -0.0247
  C  C715  1  0.333830  0.147060  0.313740  1.0  0.2649
  C  C716  1  0.260760  0.134080  0.289370  1.0  -0.0248
  C  C717  1  0.236800  0.124450  0.233600  1.0  -0.1153
  C  C718  1  0.219500  0.127050  0.322600  1.0  -0.093
  C  C719  1  0.173600  0.106450  0.210000  1.0  -0.2193
  C  C720  1  0.133100  0.098600  0.242500  1.0  0.2475
  C  C721  1  0.155600  0.109400  0.299200  1.0  -0.1854
  C  C722  1  0.482300  0.200020  0.390560  1.0  -0.0822
  C  C723  1  0.474400  0.235410  0.375430  1.0  -0.0574
  C  C724  1  0.527900  0.259330  0.398900  1.0  -0.1904
  C  C725  1  0.598000  0.213590  0.455800  1.0  -0.175
  C  C726  1  0.590200  0.248290  0.438800  1.0  0.2099
  C  C727  1  0.429480  0.174220  0.358280  1.0  0.3052
  C  C728  1  0.544500  0.189360  0.431600  1.0  -0.0786
  C  C729  1  0.716490  0.706060  0.540390  1.0  0.3251
  C  C730  1  0.642200  0.683530  0.445510  1.0  -0.1137
  C  C731  1  0.614700  0.621470  0.431600  1.0  0.1993
  C  C732  1  0.662200  0.614980  0.484300  1.0  -0.1878
  C  C733  1  0.686730  0.677430  0.500380  1.0  -0.0537
  C  C734  1  0.697100  0.642670  0.519060  1.0  -0.0558
  C  C735  1  0.606900  0.655870  0.411300  1.0  -0.188
  C  C736  1  0.780980  0.734620  0.613070  1.0  0.3052
  C  C737  1  0.835200  0.744980  0.666410  1.0  -0.0323
  C  C738  1  0.875700  0.719800  0.704200  1.0  -0.0919
  C  C739  1  0.922400  0.729750  0.756300  1.0  -0.1944
  C  C740  1  0.843200  0.780150  0.683900  1.0  -0.0939
  C  C741  1  0.929800  0.764680  0.773100  1.0  0.2096
  C  C742  1  0.889600  0.789760  0.736400  1.0  -0.1826
  C  C743  1  0.109960  0.405000  0.387480  1.0  0.3233
  C  C744  1  0.174000  0.415390  0.375860  1.0  -0.0708
  C  C745  1  0.201400  0.395920  0.341800  1.0  -0.0691
  C  C746  1  0.264500  0.405640  0.333900  1.0  -0.1957
  C  C747  1  0.211300  0.445170  0.402100  1.0  -0.0774
  C  C748  1  0.301400  0.434450  0.360700  1.0  0.2296
  C  C749  1  0.274100  0.454540  0.394800  1.0  -0.2098
  C  C750  1  0.014930  0.407370  0.409220  1.0  0.2947
  C  C751  1  0.957400  0.456700  0.442600  1.0  -0.0989
  C  C752  1  0.904800  0.470140  0.460200  1.0  -0.217
  C  C753  1  0.956600  0.421450  0.425740  1.0  -0.0364
  C  C754  1  0.901900  0.400800  0.430200  1.0  -0.0805
  C  C755  1  0.849200  0.414230  0.447400  1.0  -0.227
  C  C756  1  0.849000  0.450090  0.461600  1.0  0.2622
  C  C757  1  0.225240  0.643060  0.410610  1.0  -0.0535
  C  C758  1  0.261200  0.655710  0.464000  1.0  -0.1362
  C  C759  1  0.231700  0.607860  0.400800  1.0  -0.1227
  C  C760  1  0.181720  0.666850  0.365820  1.0  0.2957
  C  C761  1  0.303300  0.633790  0.506200  1.0  -0.1887
  C  C762  1  0.274900  0.586080  0.442900  1.0  -0.1635
  C  C763  1  0.311100  0.599020  0.495500  1.0  0.2283
  C  C764  1  0.148440  0.744200  0.278950  1.0  -0.04
  C  C765  1  0.199400  0.751220  0.254160  1.0  -0.0917
  C  C766  1  0.194800  0.780780  0.221700  1.0  -0.1874
  C  C767  1  0.093400  0.768240  0.270860  1.0  -0.158
  C  C768  1  0.149220  0.711310  0.309910  1.0  0.3169
  C  C769  1  0.138300  0.804090  0.211970  1.0  0.2276
  C  C770  1  0.088700  0.797440  0.238190  1.0  -0.1951
  C  C771  1  0.092990  0.529380  0.305470  1.0  0.286
  C  C772  1  0.133300  0.506620  0.279990  1.0  -0.0747
  C  C773  1  0.106400  0.474640  0.254130  1.0  -0.0926
  C  C774  1  0.205700  0.467880  0.221400  1.0  0.1915
  C  C775  1  0.197900  0.518080  0.277100  1.0  -0.0737
  C  C776  1  0.142000  0.455750  0.225000  1.0  -0.1834
  C  C777  1  0.234100  0.499260  0.249200  1.0  -0.2234
  C  C778  1  0.914400  0.538050  0.368000  1.0  -0.0865
  C  C779  1  0.938000  0.594050  0.441980  1.0  -0.1887
  C  C780  1  0.977900  0.556150  0.381140  1.0  -0.0523
  C  C781  1  0.027420  0.550630  0.350430  1.0  0.2967
  C  C782  1  0.989000  0.584290  0.419570  1.0  -0.1404
  C  C783  1  0.874500  0.576080  0.428800  1.0  0.2077
  C  C784  1  0.863200  0.547660  0.390800  1.0  -0.1813
  C  C785  1  0.461800  0.692440  0.459440  1.0  0.0101
  C  C786  1  0.512500  0.683910  0.511150  1.0  -0.0831
  C  C787  1  0.426300  0.664670  0.425100  1.0  -0.0668
  C  C788  1  0.441700  0.630110  0.441900  1.0  -0.187
  C  C789  1  0.446800  0.729120  0.441710  1.0  0.2818
  C  C790  1  0.527000  0.649280  0.528140  1.0  -0.1859
  C  C791  1  0.492200  0.621860  0.493500  1.0  0.2227
  C  C792  1  0.391800  0.776420  0.403820  1.0  0.2979
  C  C793  1  0.270500  0.800040  0.385370  1.0  -0.0755
  C  C794  1  0.218000  0.824410  0.361700  1.0  -0.2173
  C  C795  1  0.228000  0.850900  0.327100  1.0  0.2293
  C  C796  1  0.290600  0.851730  0.315600  1.0  -0.1834
  C  C797  1  0.343600  0.827460  0.339120  1.0  -0.0959
  C  C798  1  0.334890  0.801300  0.375460  1.0  -0.0247
  C  C799  1  0.833830  0.647060  0.313740  1.0  0.2649
  C  C800  1  0.760760  0.634080  0.289370  1.0  -0.0248
  C  C801  1  0.736800  0.624450  0.233600  1.0  -0.1153
  C  C802  1  0.719500  0.627050  0.322600  1.0  -0.093
  C  C803  1  0.673600  0.606450  0.210000  1.0  -0.2193
  C  C804  1  0.633100  0.598600  0.242500  1.0  0.2475
  C  C805  1  0.655600  0.609400  0.299200  1.0  -0.1854
  C  C806  1  0.982300  0.700020  0.390560  1.0  -0.0822
  C  C807  1  0.974400  0.735410  0.375430  1.0  -0.0574
  C  C808  1  0.027900  0.759330  0.398900  1.0  -0.1904
  C  C809  1  0.098000  0.713590  0.455800  1.0  -0.175
  C  C810  1  0.090200  0.748290  0.438800  1.0  0.2099
  C  C811  1  0.929480  0.674220  0.358280  1.0  0.3052
  C  C812  1  0.044500  0.689360  0.431600  1.0  -0.0786
  C  C813  1  0.783510  0.206060  0.959610  1.0  0.3259
  C  C814  1  0.857800  0.183530  0.054490  1.0  -0.1141
  C  C815  1  0.885300  0.121470  0.068400  1.0  0.1993
  C  C816  1  0.837800  0.114980  0.015700  1.0  -0.1883
  C  C817  1  0.813270  0.177430  0.999620  1.0  -0.0537
  C  C818  1  0.802900  0.142670  0.980940  1.0  -0.0549
  C  C819  1  0.893100  0.155870  0.088700  1.0  -0.1884
  C  C820  1  0.719020  0.234620  0.886930  1.0  0.3053
  C  C821  1  0.664800  0.244980  0.833590  1.0  -0.0339
  C  C822  1  0.624300  0.219800  0.795800  1.0  -0.0914
  C  C823  1  0.577600  0.229750  0.743700  1.0  -0.1931
  C  C824  1  0.656800  0.280150  0.816100  1.0  -0.0965
  C  C825  1  0.570200  0.264680  0.726900  1.0  0.2098
  C  C826  1  0.610400  0.289760  0.763600  1.0  -0.1818
  C  C827  1  0.390040  0.905000  0.112520  1.0  0.3247
  C  C828  1  0.326000  0.915390  0.124140  1.0  -0.0689
  C  C829  1  0.298600  0.895920  0.158200  1.0  -0.071
  C  C830  1  0.235500  0.905640  0.166100  1.0  -0.1962
  C  C831  1  0.288700  0.945170  0.097900  1.0  -0.0765
  C  C832  1  0.198600  0.934450  0.139300  1.0  0.2302
  C  C833  1  0.225900  0.954540  0.105200  1.0  -0.2099
  C  C834  1  0.485070  0.907370  0.090780  1.0  0.2942
  C  C835  1  0.542600  0.956700  0.057400  1.0  -0.0979
  C  C836  1  0.595200  0.970140  0.039800  1.0  -0.2174
  C  C837  1  0.543400  0.921450  0.074260  1.0  -0.0368
  C  C838  1  0.598100  0.900800  0.069800  1.0  -0.0806
  C  C839  1  0.650800  0.914230  0.052600  1.0  -0.2276
  C  C840  1  0.651000  0.950090  0.038400  1.0  0.263
  C  C841  1  0.274760  0.143060  0.089390  1.0  -0.0534
  C  C842  1  0.238800  0.155710  0.036000  1.0  -0.1365
  C  C843  1  0.268300  0.107860  0.099200  1.0  -0.1218
  C  C844  1  0.318280  0.166850  0.134180  1.0  0.2955
  C  C845  1  0.196700  0.133790  0.993800  1.0  -0.1878
  C  C846  1  0.225100  0.086080  0.057100  1.0  -0.1628
  C  C847  1  0.188900  0.099020  0.004500  1.0  0.229
  C  C848  1  0.351560  0.244200  0.221050  1.0  -0.0395
  C  C849  1  0.300600  0.251220  0.245840  1.0  -0.0893
  C  C850  1  0.305200  0.280780  0.278300  1.0  -0.1878
  C  C851  1  0.406600  0.268240  0.229140  1.0  -0.1588
  C  C852  1  0.350780  0.211310  0.190090  1.0  0.3164
  C  C853  1  0.361700  0.304090  0.288030  1.0  0.2274
  C  C854  1  0.411300  0.297440  0.261810  1.0  -0.1956
  C  C855  1  0.407010  0.029380  0.194530  1.0  0.2853
  C  C856  1  0.366700  0.006620  0.220010  1.0  -0.0745
  C  C857  1  0.393600  0.974640  0.245870  1.0  -0.0935
  C  C858  1  0.294300  0.967880  0.278600  1.0  0.1911
  C  C859  1  0.302100  0.018080  0.222900  1.0  -0.0703
  C  C860  1  0.358000  0.955750  0.275000  1.0  -0.1834
  C  C861  1  0.265900  0.999260  0.250800  1.0  -0.2222
  C  C862  1  0.585600  0.038050  0.132000  1.0  -0.0865
  C  C863  1  0.562000  0.094050  0.058020  1.0  -0.1895
  C  C864  1  0.522100  0.056150  0.118860  1.0  -0.0524
  C  C865  1  0.472580  0.050630  0.149570  1.0  0.2956
  C  C866  1  0.511000  0.084290  0.080430  1.0  -0.1397
  C  C867  1  0.625500  0.076080  0.071200  1.0  0.2073
  C  C868  1  0.636800  0.047660  0.109200  1.0  -0.1816
  C  C869  1  0.038200  0.192440  0.040560  1.0  0.0101
  C  C870  1  0.987500  0.183910  0.988850  1.0  -0.0834
  C  C871  1  0.073700  0.164670  0.074900  1.0  -0.0672
  C  C872  1  0.058300  0.130110  0.058100  1.0  -0.1887
  C  C873  1  0.053200  0.229120  0.058290  1.0  0.282
  C  C874  1  0.973000  0.149280  0.971860  1.0  -0.1859
  C  C875  1  0.007800  0.121860  0.006500  1.0  0.2215
  C  C876  1  0.108200  0.276420  0.096180  1.0  0.2964
  C  C877  1  0.229500  0.300040  0.114630  1.0  -0.0735
  C  C878  1  0.282000  0.324410  0.138300  1.0  -0.2168
  C  C879  1  0.272000  0.350900  0.172900  1.0  0.2283
  C  C880  1  0.209400  0.351730  0.184400  1.0  -0.1828
  C  C881  1  0.156400  0.327460  0.160880  1.0  -0.0953
  C  C882  1  0.165110  0.301300  0.124540  1.0  -0.026
  C  C883  1  0.666170  0.147060  0.186260  1.0  0.2641
  C  C884  1  0.739240  0.134080  0.210630  1.0  -0.0239
  C  C885  1  0.763200  0.124450  0.266400  1.0  -0.115
  C  C886  1  0.780500  0.127050  0.177400  1.0  -0.0929
  C  C887  1  0.826400  0.106450  0.290000  1.0  -0.2173
  C  C888  1  0.866900  0.098600  0.257500  1.0  0.2457
  C  C889  1  0.844400  0.109400  0.200800  1.0  -0.185
  C  C890  1  0.517700  0.200020  0.109440  1.0  -0.0812
  C  C891  1  0.525600  0.235410  0.124570  1.0  -0.0569
  C  C892  1  0.472100  0.259330  0.101100  1.0  -0.19
  C  C893  1  0.402000  0.213590  0.044200  1.0  -0.1745
  C  C894  1  0.409800  0.248290  0.061200  1.0  0.2119
  C  C895  1  0.570520  0.174220  0.141720  1.0  0.3057
  C  C896  1  0.455500  0.189360  0.068400  1.0  -0.0792
  C  C897  1  0.283510  0.706060  0.959610  1.0  0.3259
  C  C898  1  0.357800  0.683530  0.054490  1.0  -0.1141
  C  C899  1  0.385300  0.621470  0.068400  1.0  0.1993
  C  C900  1  0.337800  0.614980  0.015700  1.0  -0.1883
  C  C901  1  0.313270  0.677430  0.999620  1.0  -0.0537
  C  C902  1  0.302900  0.642670  0.980940  1.0  -0.0549
  C  C903  1  0.393100  0.655870  0.088700  1.0  -0.1884
  C  C904  1  0.219020  0.734620  0.886930  1.0  0.3053
  C  C905  1  0.164800  0.744980  0.833590  1.0  -0.0339
  C  C906  1  0.124300  0.719800  0.795800  1.0  -0.0914
  C  C907  1  0.077600  0.729750  0.743700  1.0  -0.1931
  C  C908  1  0.156800  0.780150  0.816100  1.0  -0.0965
  C  C909  1  0.070200  0.764680  0.726900  1.0  0.2098
  C  C910  1  0.110400  0.789760  0.763600  1.0  -0.1818
  C  C911  1  0.890040  0.405000  0.112520  1.0  0.3247
  C  C912  1  0.826000  0.415390  0.124140  1.0  -0.0689
  C  C913  1  0.798600  0.395920  0.158200  1.0  -0.071
  C  C914  1  0.735500  0.405640  0.166100  1.0  -0.1962
  C  C915  1  0.788700  0.445170  0.097900  1.0  -0.0765
  C  C916  1  0.698600  0.434450  0.139300  1.0  0.2302
  C  C917  1  0.725900  0.454540  0.105200  1.0  -0.2099
  C  C918  1  0.985070  0.407370  0.090780  1.0  0.2942
  C  C919  1  0.042600  0.456700  0.057400  1.0  -0.0979
  C  C920  1  0.095200  0.470140  0.039800  1.0  -0.2174
  C  C921  1  0.043400  0.421450  0.074260  1.0  -0.0368
  C  C922  1  0.098100  0.400800  0.069800  1.0  -0.0806
  C  C923  1  0.150800  0.414230  0.052600  1.0  -0.2276
  C  C924  1  0.151000  0.450090  0.038400  1.0  0.263
  C  C925  1  0.774760  0.643060  0.089390  1.0  -0.0534
  C  C926  1  0.738800  0.655710  0.036000  1.0  -0.1365
  C  C927  1  0.768300  0.607860  0.099200  1.0  -0.1218
  C  C928  1  0.818280  0.666850  0.134180  1.0  0.2955
  C  C929  1  0.696700  0.633790  0.993800  1.0  -0.1878
  C  C930  1  0.725100  0.586080  0.057100  1.0  -0.1628
  C  C931  1  0.688900  0.599020  0.004500  1.0  0.229
  C  C932  1  0.851560  0.744200  0.221050  1.0  -0.0395
  C  C933  1  0.800600  0.751220  0.245840  1.0  -0.0893
  C  C934  1  0.805200  0.780780  0.278300  1.0  -0.1878
  C  C935  1  0.906600  0.768240  0.229140  1.0  -0.1588
  C  C936  1  0.850780  0.711310  0.190090  1.0  0.3164
  C  C937  1  0.861700  0.804090  0.288030  1.0  0.2274
  C  C938  1  0.911300  0.797440  0.261810  1.0  -0.1956
  C  C939  1  0.907010  0.529380  0.194530  1.0  0.2853
  C  C940  1  0.866700  0.506620  0.220010  1.0  -0.0745
  C  C941  1  0.893600  0.474640  0.245870  1.0  -0.0935
  C  C942  1  0.794300  0.467880  0.278600  1.0  0.1911
  C  C943  1  0.802100  0.518080  0.222900  1.0  -0.0703
  C  C944  1  0.858000  0.455750  0.275000  1.0  -0.1834
  C  C945  1  0.765900  0.499260  0.250800  1.0  -0.2222
  C  C946  1  0.085600  0.538050  0.132000  1.0  -0.0865
  C  C947  1  0.062000  0.594050  0.058020  1.0  -0.1895
  C  C948  1  0.022100  0.556150  0.118860  1.0  -0.0524
  C  C949  1  0.972580  0.550630  0.149570  1.0  0.2956
  C  C950  1  0.011000  0.584290  0.080430  1.0  -0.1397
  C  C951  1  0.125500  0.576080  0.071200  1.0  0.2073
  C  C952  1  0.136800  0.547660  0.109200  1.0  -0.1816
  C  C953  1  0.538200  0.692440  0.040560  1.0  0.0101
  C  C954  1  0.487500  0.683910  0.988850  1.0  -0.0834
  C  C955  1  0.573700  0.664670  0.074900  1.0  -0.0672
  C  C956  1  0.558300  0.630110  0.058100  1.0  -0.1887
  C  C957  1  0.553200  0.729120  0.058290  1.0  0.282
  C  C958  1  0.473000  0.649280  0.971860  1.0  -0.1859
  C  C959  1  0.507800  0.621860  0.006500  1.0  0.2215
  C  C960  1  0.608200  0.776420  0.096180  1.0  0.2964
  C  C961  1  0.729500  0.800040  0.114630  1.0  -0.0735
  C  C962  1  0.782000  0.824410  0.138300  1.0  -0.2168
  C  C963  1  0.772000  0.850900  0.172900  1.0  0.2283
  C  C964  1  0.709400  0.851730  0.184400  1.0  -0.1828
  C  C965  1  0.656400  0.827460  0.160880  1.0  -0.0953
  C  C966  1  0.665110  0.801300  0.124540  1.0  -0.026
  C  C967  1  0.166170  0.647060  0.186260  1.0  0.2641
  C  C968  1  0.239240  0.634080  0.210630  1.0  -0.0239
  C  C969  1  0.263200  0.624450  0.266400  1.0  -0.115
  C  C970  1  0.280500  0.627050  0.177400  1.0  -0.0929
  C  C971  1  0.326400  0.606450  0.290000  1.0  -0.2173
  C  C972  1  0.366900  0.598600  0.257500  1.0  0.2457
  C  C973  1  0.344400  0.609400  0.200800  1.0  -0.185
  C  C974  1  0.017700  0.700020  0.109440  1.0  -0.0812
  C  C975  1  0.025600  0.735410  0.124570  1.0  -0.0569
  C  C976  1  0.972100  0.759330  0.101100  1.0  -0.19
  C  C977  1  0.902000  0.713590  0.044200  1.0  -0.1745
  C  C978  1  0.909800  0.748290  0.061200  1.0  0.2119
  C  C979  1  0.070520  0.674220  0.141720  1.0  0.3057
  C  C980  1  0.955500  0.689360  0.068400  1.0  -0.0792
  C  C981  1  0.783510  0.793940  0.459610  1.0  0.3265
  C  C982  1  0.857800  0.816470  0.554490  1.0  -0.1135
  C  C983  1  0.885300  0.878530  0.568400  1.0  0.1999
  C  C984  1  0.837800  0.885020  0.515700  1.0  -0.1887
  C  C985  1  0.813270  0.822570  0.499620  1.0  -0.0538
  C  C986  1  0.802900  0.857330  0.480940  1.0  -0.0549
  C  C987  1  0.893100  0.844130  0.588700  1.0  -0.1883
  C  C988  1  0.719020  0.765380  0.386930  1.0  0.3053
  C  C989  1  0.664800  0.755020  0.333590  1.0  -0.0342
  C  C990  1  0.624300  0.780200  0.295800  1.0  -0.0909
  C  C991  1  0.577600  0.770250  0.243700  1.0  -0.1948
  C  C992  1  0.656800  0.719850  0.316100  1.0  -0.0951
  C  C993  1  0.570200  0.735320  0.226900  1.0  0.2102
  C  C994  1  0.610400  0.710240  0.263600  1.0  -0.1818
  C  C995  1  0.390040  0.095000  0.612520  1.0  0.3246
  C  C996  1  0.326000  0.084610  0.624140  1.0  -0.0689
  C  C997  1  0.298600  0.104080  0.658200  1.0  -0.0722
  C  C998  1  0.235500  0.094360  0.666100  1.0  -0.1961
  C  C999  1  0.288700  0.054830  0.597900  1.0  -0.0754
  C  C1000  1  0.198600  0.065550  0.639300  1.0  0.231
  C  C1001  1  0.225900  0.045460  0.605200  1.0  -0.208
  C  C1002  1  0.485070  0.092630  0.590780  1.0  0.294
  C  C1003  1  0.542600  0.043300  0.557400  1.0  -0.0975
  C  C1004  1  0.595200  0.029860  0.539800  1.0  -0.2173
  C  C1005  1  0.543400  0.078550  0.574260  1.0  -0.038
  C  C1006  1  0.598100  0.099200  0.569800  1.0  -0.0813
  C  C1007  1  0.650800  0.085770  0.552600  1.0  -0.2278
  C  C1008  1  0.651000  0.049910  0.538400  1.0  0.2625
  C  C1009  1  0.274760  0.856940  0.589390  1.0  -0.0534
  C  C1010  1  0.238800  0.844290  0.536000  1.0  -0.137
  C  C1011  1  0.268300  0.892140  0.599200  1.0  -0.1224
  C  C1012  1  0.318280  0.833150  0.634180  1.0  0.2953
  C  C1013  1  0.196700  0.866210  0.493800  1.0  -0.1879
  C  C1014  1  0.225100  0.913920  0.557100  1.0  -0.1637
  C  C1015  1  0.188900  0.900980  0.504500  1.0  0.2292
  C  C1016  1  0.351560  0.755800  0.721050  1.0  -0.0387
  C  C1017  1  0.300600  0.748780  0.745840  1.0  -0.0913
  C  C1018  1  0.305200  0.719220  0.778300  1.0  -0.1875
  C  C1019  1  0.406600  0.731760  0.729140  1.0  -0.1583
  C  C1020  1  0.350780  0.788690  0.690090  1.0  0.316
  C  C1021  1  0.361700  0.695910  0.788030  1.0  0.2278
  C  C1022  1  0.411300  0.702560  0.761810  1.0  -0.1955
  C  C1023  1  0.407010  0.970620  0.694530  1.0  0.2856
  C  C1024  1  0.366700  0.993380  0.720010  1.0  -0.0748
  C  C1025  1  0.393600  0.025360  0.745870  1.0  -0.0936
  C  C1026  1  0.294300  0.032120  0.778600  1.0  0.1915
  C  C1027  1  0.302100  0.981920  0.722900  1.0  -0.0708
  C  C1028  1  0.358000  0.044250  0.775000  1.0  -0.1846
  C  C1029  1  0.265900  0.000740  0.750800  1.0  -0.2213
  C  C1030  1  0.585600  0.961950  0.632000  1.0  -0.0859
  C  C1031  1  0.562000  0.905950  0.558020  1.0  -0.19
  C  C1032  1  0.522100  0.943850  0.618860  1.0  -0.0518
  C  C1033  1  0.472580  0.949370  0.649570  1.0  0.2956
  C  C1034  1  0.511000  0.915710  0.580430  1.0  -0.1396
  C  C1035  1  0.625500  0.923920  0.571200  1.0  0.2072
  C  C1036  1  0.636800  0.952340  0.609200  1.0  -0.1814
  C  C1037  1  0.038200  0.807560  0.540560  1.0  0.0096
  C  C1038  1  0.987500  0.816090  0.488850  1.0  -0.084
  C  C1039  1  0.073700  0.835330  0.574900  1.0  -0.0673
  C  C1040  1  0.058300  0.869890  0.558100  1.0  -0.1885
  C  C1041  1  0.053200  0.770880  0.558290  1.0  0.2828
  C  C1042  1  0.973000  0.850720  0.471860  1.0  -0.1863
  C  C1043  1  0.007800  0.878140  0.506500  1.0  0.2217
  C  C1044  1  0.108200  0.723580  0.596180  1.0  0.2965
  C  C1045  1  0.229500  0.699960  0.614630  1.0  -0.0725
  C  C1046  1  0.282000  0.675590  0.638300  1.0  -0.2165
  C  C1047  1  0.272000  0.649100  0.672900  1.0  0.2275
  C  C1048  1  0.209400  0.648270  0.684400  1.0  -0.1824
  C  C1049  1  0.156400  0.672540  0.660880  1.0  -0.0952
  C  C1050  1  0.165110  0.698700  0.624540  1.0  -0.0258
  C  C1051  1  0.666170  0.852940  0.686260  1.0  0.264
  C  C1052  1  0.739240  0.865920  0.710630  1.0  -0.0239
  C  C1053  1  0.763200  0.875550  0.766400  1.0  -0.1145
  C  C1054  1  0.780500  0.872950  0.677400  1.0  -0.0926
  C  C1055  1  0.826400  0.893550  0.790000  1.0  -0.2174
  C  C1056  1  0.866900  0.901400  0.757500  1.0  0.2443
  C  C1057  1  0.844400  0.890600  0.700800  1.0  -0.1852
  C  C1058  1  0.517700  0.799980  0.609440  1.0  -0.0808
  C  C1059  1  0.525600  0.764590  0.624570  1.0  -0.057
  C  C1060  1  0.472100  0.740670  0.601100  1.0  -0.1896
  C  C1061  1  0.402000  0.786410  0.544200  1.0  -0.1745
  C  C1062  1  0.409800  0.751710  0.561200  1.0  0.2121
  C  C1063  1  0.570520  0.825780  0.641720  1.0  0.3055
  C  C1064  1  0.455500  0.810640  0.568400  1.0  -0.0792
  C  C1065  1  0.283510  0.293940  0.459610  1.0  0.3265
  C  C1066  1  0.357800  0.316470  0.554490  1.0  -0.1135
  C  C1067  1  0.385300  0.378530  0.568400  1.0  0.1999
  C  C1068  1  0.337800  0.385020  0.515700  1.0  -0.1888
  C  C1069  1  0.313270  0.322570  0.499620  1.0  -0.0538
  C  C1070  1  0.302900  0.357330  0.480940  1.0  -0.0549
  C  C1071  1  0.393100  0.344130  0.588700  1.0  -0.1883
  C  C1072  1  0.219020  0.265380  0.386930  1.0  0.3053
  C  C1073  1  0.164800  0.255020  0.333590  1.0  -0.0342
  C  C1074  1  0.124300  0.280200  0.295800  1.0  -0.0909
  C  C1075  1  0.077600  0.270250  0.243700  1.0  -0.1948
  C  C1076  1  0.156800  0.219850  0.316100  1.0  -0.0951
  C  C1077  1  0.070200  0.235320  0.226900  1.0  0.2102
  C  C1078  1  0.110400  0.210240  0.263600  1.0  -0.1818
  C  C1079  1  0.890040  0.595000  0.612520  1.0  0.3246
  C  C1080  1  0.826000  0.584610  0.624140  1.0  -0.0689
  C  C1081  1  0.798600  0.604080  0.658200  1.0  -0.0722
  C  C1082  1  0.735500  0.594360  0.666100  1.0  -0.1961
  C  C1083  1  0.788700  0.554830  0.597900  1.0  -0.0754
  C  C1084  1  0.698600  0.565550  0.639300  1.0  0.231
  C  C1085  1  0.725900  0.545460  0.605200  1.0  -0.208
  C  C1086  1  0.985070  0.592630  0.590780  1.0  0.294
  C  C1087  1  0.042600  0.543300  0.557400  1.0  -0.0975
  C  C1088  1  0.095200  0.529860  0.539800  1.0  -0.2173
  C  C1089  1  0.043400  0.578550  0.574260  1.0  -0.038
  C  C1090  1  0.098100  0.599200  0.569800  1.0  -0.0813
  C  C1091  1  0.150800  0.585770  0.552600  1.0  -0.2278
  C  C1092  1  0.151000  0.549910  0.538400  1.0  0.2625
  C  C1093  1  0.774760  0.356940  0.589390  1.0  -0.0534
  C  C1094  1  0.738800  0.344290  0.536000  1.0  -0.137
  C  C1095  1  0.768300  0.392140  0.599200  1.0  -0.1224
  C  C1096  1  0.818280  0.333150  0.634180  1.0  0.2953
  C  C1097  1  0.696700  0.366210  0.493800  1.0  -0.1879
  C  C1098  1  0.725100  0.413920  0.557100  1.0  -0.1637
  C  C1099  1  0.688900  0.400980  0.504500  1.0  0.2292
  C  C1100  1  0.851560  0.255800  0.721050  1.0  -0.0387
  C  C1101  1  0.800600  0.248780  0.745840  1.0  -0.0913
  C  C1102  1  0.805200  0.219220  0.778300  1.0  -0.1875
  C  C1103  1  0.906600  0.231760  0.729140  1.0  -0.1583
  C  C1104  1  0.850780  0.288690  0.690090  1.0  0.316
  C  C1105  1  0.861700  0.195910  0.788030  1.0  0.2278
  C  C1106  1  0.911300  0.202560  0.761810  1.0  -0.1955
  C  C1107  1  0.907010  0.470620  0.694530  1.0  0.2856
  C  C1108  1  0.866700  0.493380  0.720010  1.0  -0.0748
  C  C1109  1  0.893600  0.525360  0.745870  1.0  -0.0936
  C  C1110  1  0.794300  0.532120  0.778600  1.0  0.1915
  C  C1111  1  0.802100  0.481920  0.722900  1.0  -0.0708
  C  C1112  1  0.858000  0.544250  0.775000  1.0  -0.1846
  C  C1113  1  0.765900  0.500740  0.750800  1.0  -0.2213
  C  C1114  1  0.085600  0.461950  0.632000  1.0  -0.0859
  C  C1115  1  0.062000  0.405950  0.558020  1.0  -0.19
  C  C1116  1  0.022100  0.443850  0.618860  1.0  -0.0518
  C  C1117  1  0.972580  0.449370  0.649570  1.0  0.2956
  C  C1118  1  0.011000  0.415710  0.580430  1.0  -0.1396
  C  C1119  1  0.125500  0.423920  0.571200  1.0  0.2072
  C  C1120  1  0.136800  0.452340  0.609200  1.0  -0.1814
  C  C1121  1  0.538200  0.307560  0.540560  1.0  0.0096
  C  C1122  1  0.487500  0.316090  0.488850  1.0  -0.084
  C  C1123  1  0.573700  0.335330  0.574900  1.0  -0.0673
  C  C1124  1  0.558300  0.369890  0.558100  1.0  -0.1885
  C  C1125  1  0.553200  0.270880  0.558290  1.0  0.2828
  C  C1126  1  0.473000  0.350720  0.471860  1.0  -0.1863
  C  C1127  1  0.507800  0.378140  0.506500  1.0  0.2217
  C  C1128  1  0.608200  0.223580  0.596180  1.0  0.2965
  C  C1129  1  0.729500  0.199960  0.614630  1.0  -0.0725
  C  C1130  1  0.782000  0.175590  0.638300  1.0  -0.2165
  C  C1131  1  0.772000  0.149100  0.672900  1.0  0.2275
  C  C1132  1  0.709400  0.148270  0.684400  1.0  -0.1824
  C  C1133  1  0.656400  0.172540  0.660880  1.0  -0.0952
  C  C1134  1  0.665110  0.198700  0.624540  1.0  -0.0258
  C  C1135  1  0.166170  0.352940  0.686260  1.0  0.264
  C  C1136  1  0.239240  0.365920  0.710630  1.0  -0.0239
  C  C1137  1  0.263200  0.375550  0.766400  1.0  -0.1145
  C  C1138  1  0.280500  0.372950  0.677400  1.0  -0.0926
  C  C1139  1  0.326400  0.393550  0.790000  1.0  -0.2174
  C  C1140  1  0.366900  0.401400  0.757500  1.0  0.2443
  C  C1141  1  0.344400  0.390600  0.700800  1.0  -0.1852
  C  C1142  1  0.017700  0.299980  0.609440  1.0  -0.0808
  C  C1143  1  0.025600  0.264590  0.624570  1.0  -0.057
  C  C1144  1  0.972100  0.240670  0.601100  1.0  -0.1896
  C  C1145  1  0.902000  0.286410  0.544200  1.0  -0.1745
  C  C1146  1  0.909800  0.251710  0.561200  1.0  0.2121
  C  C1147  1  0.070520  0.325780  0.641720  1.0  0.3055
  C  C1148  1  0.955500  0.310640  0.568400  1.0  -0.0792
  C  C1149  1  0.216490  0.793940  0.040390  1.0  0.3258
  C  C1150  1  0.142200  0.816470  0.945510  1.0  -0.1128
  C  C1151  1  0.114700  0.878530  0.931600  1.0  0.2001
  C  C1152  1  0.162200  0.885020  0.984300  1.0  -0.1882
  C  C1153  1  0.186730  0.822570  0.000380  1.0  -0.0538
  C  C1154  1  0.197100  0.857330  0.019060  1.0  -0.0562
  C  C1155  1  0.106900  0.844130  0.911300  1.0  -0.1878
  C  C1156  1  0.280980  0.765380  0.113070  1.0  0.3052
  C  C1157  1  0.335200  0.755020  0.166410  1.0  -0.0321
  C  C1158  1  0.375700  0.780200  0.204200  1.0  -0.0915
  C  C1159  1  0.422400  0.770250  0.256300  1.0  -0.195
  C  C1160  1  0.343200  0.719850  0.183900  1.0  -0.0925
  C  C1161  1  0.429800  0.735320  0.273100  1.0  0.2101
  C  C1162  1  0.389600  0.710240  0.236400  1.0  -0.1819
  C  C1163  1  0.609960  0.095000  0.887480  1.0  0.323
  C  C1164  1  0.674000  0.084610  0.875860  1.0  -0.0708
  C  C1165  1  0.701400  0.104080  0.841800  1.0  -0.0698
  C  C1166  1  0.764500  0.094360  0.833900  1.0  -0.1957
  C  C1167  1  0.711300  0.054830  0.902100  1.0  -0.0759
  C  C1168  1  0.801400  0.065550  0.860700  1.0  0.2299
  C  C1169  1  0.774100  0.045460  0.894800  1.0  -0.2084
  C  C1170  1  0.514930  0.092630  0.909220  1.0  0.2948
  C  C1171  1  0.457400  0.043300  0.942600  1.0  -0.0986
  C  C1172  1  0.404800  0.029860  0.960200  1.0  -0.2171
  C  C1173  1  0.456600  0.078550  0.925740  1.0  -0.0363
  C  C1174  1  0.401900  0.099200  0.930200  1.0  -0.0809
  C  C1175  1  0.349200  0.085770  0.947400  1.0  -0.2278
  C  C1176  1  0.349000  0.049910  0.961600  1.0  0.2626
  C  C1177  1  0.725240  0.856940  0.910610  1.0  -0.0534
  C  C1178  1  0.761200  0.844290  0.964000  1.0  -0.1365
  C  C1179  1  0.731700  0.892140  0.900800  1.0  -0.1231
  C  C1180  1  0.681720  0.833150  0.865820  1.0  0.2955
  C  C1181  1  0.803300  0.866210  0.006200  1.0  -0.1888
  C  C1182  1  0.774900  0.913920  0.942900  1.0  -0.1639
  C  C1183  1  0.811100  0.900980  0.995500  1.0  0.228
  C  C1184  1  0.648440  0.755800  0.778950  1.0  -0.0396
  C  C1185  1  0.699400  0.748780  0.754160  1.0  -0.0927
  C  C1186  1  0.694800  0.719220  0.721700  1.0  -0.1869
  C  C1187  1  0.593400  0.731760  0.770860  1.0  -0.1581
  C  C1188  1  0.649220  0.788690  0.809910  1.0  0.3165
  C  C1189  1  0.638300  0.695910  0.711970  1.0  0.2277
  C  C1190  1  0.588700  0.702560  0.738190  1.0  -0.1951
  C  C1191  1  0.592990  0.970620  0.805470  1.0  0.2859
  C  C1192  1  0.633300  0.993380  0.779990  1.0  -0.0748
  C  C1193  1  0.606400  0.025360  0.754130  1.0  -0.0928
  C  C1194  1  0.705700  0.032120  0.721400  1.0  0.1918
  C  C1195  1  0.697900  0.981920  0.777100  1.0  -0.073
  C  C1196  1  0.642000  0.044250  0.725000  1.0  -0.1845
  C  C1197  1  0.734100  0.000740  0.749200  1.0  -0.2225
  C  C1198  1  0.414400  0.961950  0.868000  1.0  -0.0853
  C  C1199  1  0.438000  0.905950  0.941980  1.0  -0.1886
  C  C1200  1  0.477900  0.943850  0.881140  1.0  -0.052
  C  C1201  1  0.527420  0.949370  0.850430  1.0  0.2968
  C  C1202  1  0.489000  0.915710  0.919570  1.0  -0.1401
  C  C1203  1  0.374500  0.923920  0.928800  1.0  0.2077
  C  C1204  1  0.363200  0.952340  0.890800  1.0  -0.1808
  C  C1205  1  0.961800  0.807560  0.959440  1.0  0.0093
  C  C1206  1  0.012500  0.816090  0.011150  1.0  -0.0843
  C  C1207  1  0.926300  0.835330  0.925100  1.0  -0.0667
  C  C1208  1  0.941700  0.869890  0.941900  1.0  -0.1875
  C  C1209  1  0.946800  0.770880  0.941710  1.0  0.2825
  C  C1210  1  0.027000  0.850720  0.028140  1.0  -0.1867
  C  C1211  1  0.992200  0.878140  0.993500  1.0  0.2217
  C  C1212  1  0.891800  0.723580  0.903820  1.0  0.2977
  C  C1213  1  0.770500  0.699960  0.885370  1.0  -0.0748
  C  C1214  1  0.718000  0.675590  0.861700  1.0  -0.2166
  C  C1215  1  0.728000  0.649100  0.827100  1.0  0.2285
  C  C1216  1  0.790600  0.648270  0.815600  1.0  -0.1828
  C  C1217  1  0.843600  0.672540  0.839120  1.0  -0.0954
  C  C1218  1  0.834890  0.698700  0.875460  1.0  -0.0247
  C  C1219  1  0.333830  0.852940  0.813740  1.0  0.2648
  C  C1220  1  0.260760  0.865920  0.789370  1.0  -0.0247
  C  C1221  1  0.236800  0.875550  0.733600  1.0  -0.1151
  C  C1222  1  0.219500  0.872950  0.822600  1.0  -0.0929
  C  C1223  1  0.173600  0.893550  0.710000  1.0  -0.2187
  C  C1224  1  0.133100  0.901400  0.742500  1.0  0.2463
  C  C1225  1  0.155600  0.890600  0.799200  1.0  -0.1861
  C  C1226  1  0.482300  0.799980  0.890560  1.0  -0.0818
  C  C1227  1  0.474400  0.764590  0.875430  1.0  -0.0577
  C  C1228  1  0.527900  0.740670  0.898900  1.0  -0.1898
  C  C1229  1  0.598000  0.786410  0.955800  1.0  -0.1749
  C  C1230  1  0.590200  0.751710  0.938800  1.0  0.2102
  C  C1231  1  0.429480  0.825780  0.858280  1.0  0.305
  C  C1232  1  0.544500  0.810640  0.931600  1.0  -0.0791
  C  C1233  1  0.716490  0.293940  0.040390  1.0  0.3258
  C  C1234  1  0.642200  0.316470  0.945510  1.0  -0.1128
  C  C1235  1  0.614700  0.378530  0.931600  1.0  0.2001
  C  C1236  1  0.662200  0.385020  0.984300  1.0  -0.1883
  C  C1237  1  0.686730  0.322570  0.000380  1.0  -0.0538
  C  C1238  1  0.697100  0.357330  0.019060  1.0  -0.0562
  C  C1239  1  0.606900  0.344130  0.911300  1.0  -0.1878
  C  C1240  1  0.780980  0.265380  0.113070  1.0  0.3052
  C  C1241  1  0.835200  0.255020  0.166410  1.0  -0.0321
  C  C1242  1  0.875700  0.280200  0.204200  1.0  -0.0915
  C  C1243  1  0.922400  0.270250  0.256300  1.0  -0.195
  C  C1244  1  0.843200  0.219850  0.183900  1.0  -0.0925
  C  C1245  1  0.929800  0.235320  0.273100  1.0  0.2101
  C  C1246  1  0.889600  0.210240  0.236400  1.0  -0.1819
  C  C1247  1  0.109960  0.595000  0.887480  1.0  0.323
  C  C1248  1  0.174000  0.584610  0.875860  1.0  -0.0708
  C  C1249  1  0.201400  0.604080  0.841800  1.0  -0.0698
  C  C1250  1  0.264500  0.594360  0.833900  1.0  -0.1957
  C  C1251  1  0.211300  0.554830  0.902100  1.0  -0.076
  C  C1252  1  0.301400  0.565550  0.860700  1.0  0.2299
  C  C1253  1  0.274100  0.545460  0.894800  1.0  -0.2084
  C  C1254  1  0.014930  0.592630  0.909220  1.0  0.2947
  C  C1255  1  0.957400  0.543300  0.942600  1.0  -0.0986
  C  C1256  1  0.904800  0.529860  0.960200  1.0  -0.2171
  C  C1257  1  0.956600  0.578550  0.925740  1.0  -0.0363
  C  C1258  1  0.901900  0.599200  0.930200  1.0  -0.0809
  C  C1259  1  0.849200  0.585770  0.947400  1.0  -0.2278
  C  C1260  1  0.849000  0.549910  0.961600  1.0  0.2626
  C  C1261  1  0.225240  0.356940  0.910610  1.0  -0.0534
  C  C1262  1  0.261200  0.344290  0.964000  1.0  -0.1365
  C  C1263  1  0.231700  0.392140  0.900800  1.0  -0.1231
  C  C1264  1  0.181720  0.333150  0.865820  1.0  0.2955
  C  C1265  1  0.303300  0.366210  0.006200  1.0  -0.1888
  C  C1266  1  0.274900  0.413920  0.942900  1.0  -0.1639
  C  C1267  1  0.311100  0.400980  0.995500  1.0  0.228
  C  C1268  1  0.148440  0.255800  0.778950  1.0  -0.0396
  C  C1269  1  0.199400  0.248780  0.754160  1.0  -0.0927
  C  C1270  1  0.194800  0.219220  0.721700  1.0  -0.1869
  C  C1271  1  0.093400  0.231760  0.770860  1.0  -0.1581
  C  C1272  1  0.149220  0.288690  0.809910  1.0  0.3165
  C  C1273  1  0.138300  0.195910  0.711970  1.0  0.2277
  C  C1274  1  0.088700  0.202560  0.738190  1.0  -0.1951
  C  C1275  1  0.092990  0.470620  0.805470  1.0  0.2859
  C  C1276  1  0.133300  0.493380  0.779990  1.0  -0.0748
  C  C1277  1  0.106400  0.525360  0.754130  1.0  -0.0928
  C  C1278  1  0.205700  0.532120  0.721400  1.0  0.1918
  C  C1279  1  0.197900  0.481920  0.777100  1.0  -0.073
  C  C1280  1  0.142000  0.544250  0.725000  1.0  -0.1845
  C  C1281  1  0.234100  0.500740  0.749200  1.0  -0.2225
  C  C1282  1  0.914400  0.461950  0.868000  1.0  -0.0853
  C  C1283  1  0.938000  0.405950  0.941980  1.0  -0.1886
  C  C1284  1  0.977900  0.443850  0.881140  1.0  -0.052
  C  C1285  1  0.027420  0.449370  0.850430  1.0  0.2968
  C  C1286  1  0.989000  0.415710  0.919570  1.0  -0.1401
  C  C1287  1  0.874500  0.423920  0.928800  1.0  0.2077
  C  C1288  1  0.863200  0.452340  0.890800  1.0  -0.1808
  C  C1289  1  0.461800  0.307560  0.959440  1.0  0.0093
  C  C1290  1  0.512500  0.316090  0.011150  1.0  -0.0843
  C  C1291  1  0.426300  0.335330  0.925100  1.0  -0.0667
  C  C1292  1  0.441700  0.369890  0.941900  1.0  -0.1875
  C  C1293  1  0.446800  0.270880  0.941710  1.0  0.2825
  C  C1294  1  0.527000  0.350720  0.028140  1.0  -0.1867
  C  C1295  1  0.492200  0.378140  0.993500  1.0  0.2217
  C  C1296  1  0.391800  0.223580  0.903820  1.0  0.2977
  C  C1297  1  0.270500  0.199960  0.885370  1.0  -0.0748
  C  C1298  1  0.218000  0.175590  0.861700  1.0  -0.2166
  C  C1299  1  0.228000  0.149100  0.827100  1.0  0.2285
  C  C1300  1  0.290600  0.148270  0.815600  1.0  -0.1828
  C  C1301  1  0.343600  0.172540  0.839120  1.0  -0.0954
  C  C1302  1  0.334890  0.198700  0.875460  1.0  -0.0247
  C  C1303  1  0.833830  0.352940  0.813740  1.0  0.2648
  C  C1304  1  0.760760  0.365920  0.789370  1.0  -0.0247
  C  C1305  1  0.736800  0.375550  0.733600  1.0  -0.1151
  C  C1306  1  0.719500  0.372950  0.822600  1.0  -0.0929
  C  C1307  1  0.673600  0.393550  0.710000  1.0  -0.2187
  C  C1308  1  0.633100  0.401400  0.742500  1.0  0.2463
  C  C1309  1  0.655600  0.390600  0.799200  1.0  -0.186
  C  C1310  1  0.982300  0.299980  0.890560  1.0  -0.0818
  C  C1311  1  0.974400  0.264590  0.875430  1.0  -0.0577
  C  C1312  1  0.027900  0.240670  0.898900  1.0  -0.1898
  C  C1313  1  0.098000  0.286410  0.955800  1.0  -0.1749
  C  C1314  1  0.090200  0.251710  0.938800  1.0  0.2102
  C  C1315  1  0.929480  0.325780  0.858280  1.0  0.305
  C  C1316  1  0.044500  0.310640  0.931600  1.0  -0.0791
  N  N1317  1  0.550120  0.077550  0.327770  1.0  -0.2935
  N  N1318  1  0.553400  0.019560  0.338080  1.0  -0.432
  N  N1319  1  0.591460  0.063990  0.298420  1.0  -0.333
  N  N1320  1  0.278970  0.204380  0.583860  1.0  -0.4706
  N  N1321  1  0.223670  0.254270  0.588710  1.0  -0.3042
  N  N1322  1  0.182370  0.235890  0.541650  1.0  -0.3394
  N  N1323  1  0.994820  0.254650  0.452170  1.0  -0.3064
  N  N1324  1  0.959060  0.285230  0.427820  1.0  -0.2769
  N  N1325  1  0.881420  0.241690  0.411050  1.0  -0.4309
  N  N1326  1  0.533550  0.873670  0.411390  1.0  -0.334
  N  N1327  1  0.595140  0.872360  0.397740  1.0  -0.3115
  N  N1328  1  0.560710  0.927860  0.393130  1.0  -0.4717
  N  N1329  1  0.385680  0.130660  0.302250  1.0  -0.3144
  N  N1330  1  0.447530  0.148240  0.330910  1.0  -0.3026
  N  N1331  1  0.358860  0.174590  0.349360  1.0  -0.4533
  N  N1332  1  0.705910  0.197600  0.350840  1.0  -0.4145
  N  N1333  1  0.613980  0.161980  0.335710  1.0  -0.2936
  N  N1334  1  0.593190  0.190550  0.299980  1.0  -0.3381
  N  N1335  1  0.675600  0.375800  0.305100  1.0  -0.6682
  N  N1336  1  0.631700  0.332830  0.176600  1.0  -0.6893
  N  N1337  1  0.324800  0.085120  0.453800  1.0  -0.6933
  N  N1338  1  0.741500  0.948610  0.191700  1.0  -0.681
  N  N1339  1  0.645500  0.272490  0.461500  1.0  -0.6654
  N  N1340  1  0.076600  0.093690  0.398900  1.0  -0.6529
  N  N1341  1  0.009100  0.087040  0.509600  1.0  -0.7129
  N  N1342  1  0.478200  0.273970  0.825450  1.0  -0.6638
  N  N1343  1  0.851900  0.076880  0.538900  1.0  -0.6554
  N  N1344  1  0.866600  0.942910  0.355600  1.0  -0.7203
  N  N1345  1  0.294700  0.964670  0.476300  1.0  -0.6877
  N  N1346  1  0.067900  0.080700  0.218800  1.0  -0.6831
  N  N1347  1  0.050120  0.577550  0.327770  1.0  -0.2935
  N  N1348  1  0.053400  0.519560  0.338080  1.0  -0.432
  N  N1349  1  0.091460  0.563990  0.298420  1.0  -0.333
  N  N1350  1  0.778970  0.704380  0.583860  1.0  -0.4706
  N  N1351  1  0.723670  0.754270  0.588710  1.0  -0.3042
  N  N1352  1  0.682370  0.735890  0.541650  1.0  -0.3394
  N  N1353  1  0.494820  0.754650  0.452170  1.0  -0.3064
  N  N1354  1  0.459060  0.785230  0.427820  1.0  -0.2769
  N  N1355  1  0.381420  0.741690  0.411050  1.0  -0.4309
  N  N1356  1  0.033550  0.373670  0.411390  1.0  -0.334
  N  N1357  1  0.095140  0.372360  0.397740  1.0  -0.3115
  N  N1358  1  0.060710  0.427860  0.393130  1.0  -0.4717
  N  N1359  1  0.885680  0.630660  0.302250  1.0  -0.3144
  N  N1360  1  0.947530  0.648240  0.330910  1.0  -0.3026
  N  N1361  1  0.858860  0.674590  0.349360  1.0  -0.4533
  N  N1362  1  0.205910  0.697600  0.350840  1.0  -0.4145
  N  N1363  1  0.113980  0.661980  0.335710  1.0  -0.2936
  N  N1364  1  0.093190  0.690550  0.299980  1.0  -0.3381
  N  N1365  1  0.175600  0.875800  0.305100  1.0  -0.6682
  N  N1366  1  0.131700  0.832830  0.176600  1.0  -0.6893
  N  N1367  1  0.824800  0.585120  0.453800  1.0  -0.6933
  N  N1368  1  0.241500  0.448610  0.191700  1.0  -0.681
  N  N1369  1  0.145500  0.772490  0.461500  1.0  -0.6654
  N  N1370  1  0.576600  0.593690  0.398900  1.0  -0.6529
  N  N1371  1  0.509100  0.587040  0.509600  1.0  -0.7129
  N  N1372  1  0.978200  0.773970  0.825450  1.0  -0.6638
  N  N1373  1  0.351900  0.576880  0.538900  1.0  -0.6554
  N  N1374  1  0.366600  0.442910  0.355600  1.0  -0.7203
  N  N1375  1  0.794700  0.464670  0.476300  1.0  -0.6877
  N  N1376  1  0.567900  0.580700  0.218800  1.0  -0.6831
  N  N1377  1  0.449880  0.077550  0.172230  1.0  -0.2937
  N  N1378  1  0.446600  0.019560  0.161920  1.0  -0.4335
  N  N1379  1  0.408540  0.063990  0.201580  1.0  -0.3324
  N  N1380  1  0.721030  0.204380  0.916140  1.0  -0.4702
  N  N1381  1  0.776330  0.254270  0.911290  1.0  -0.3043
  N  N1382  1  0.817630  0.235890  0.958350  1.0  -0.3382
  N  N1383  1  0.005180  0.254650  0.047830  1.0  -0.3074
  N  N1384  1  0.040940  0.285230  0.072180  1.0  -0.2757
  N  N1385  1  0.118580  0.241690  0.088950  1.0  -0.4291
  N  N1386  1  0.466450  0.873670  0.088610  1.0  -0.3325
  N  N1387  1  0.404860  0.872360  0.102260  1.0  -0.3115
  N  N1388  1  0.439290  0.927860  0.106870  1.0  -0.4721
  N  N1389  1  0.614320  0.130660  0.197750  1.0  -0.3147
  N  N1390  1  0.552470  0.148240  0.169090  1.0  -0.3024
  N  N1391  1  0.641140  0.174590  0.150640  1.0  -0.4524
  N  N1392  1  0.294090  0.197600  0.149160  1.0  -0.415
  N  N1393  1  0.386020  0.161980  0.164290  1.0  -0.2927
  N  N1394  1  0.406810  0.190550  0.200020  1.0  -0.3392
  N  N1395  1  0.324400  0.375800  0.194900  1.0  -0.6698
  N  N1396  1  0.368300  0.332830  0.323400  1.0  -0.6895
  N  N1397  1  0.675200  0.085120  0.046200  1.0  -0.6932
  N  N1398  1  0.258500  0.948610  0.308300  1.0  -0.6782
  N  N1399  1  0.354500  0.272490  0.038500  1.0  -0.6667
  N  N1400  1  0.923400  0.093690  0.101100  1.0  -0.6532
  N  N1401  1  0.990900  0.087040  0.990400  1.0  -0.7143
  N  N1402  1  0.521800  0.273970  0.674550  1.0  -0.6641
  N  N1403  1  0.148100  0.076880  0.961100  1.0  -0.6545
  N  N1404  1  0.133400  0.942910  0.144400  1.0  -0.7187
  N  N1405  1  0.705300  0.964670  0.023700  1.0  -0.6867
  N  N1406  1  0.932100  0.080700  0.281200  1.0  -0.6818
  N  N1407  1  0.949880  0.577550  0.172230  1.0  -0.2937
  N  N1408  1  0.946600  0.519560  0.161920  1.0  -0.4335
  N  N1409  1  0.908540  0.563990  0.201580  1.0  -0.3324
  N  N1410  1  0.221030  0.704380  0.916140  1.0  -0.4702
  N  N1411  1  0.276330  0.754270  0.911290  1.0  -0.3043
  N  N1412  1  0.317630  0.735890  0.958350  1.0  -0.3382
  N  N1413  1  0.505180  0.754650  0.047830  1.0  -0.3074
  N  N1414  1  0.540940  0.785230  0.072180  1.0  -0.2757
  N  N1415  1  0.618580  0.741690  0.088950  1.0  -0.4291
  N  N1416  1  0.966450  0.373670  0.088610  1.0  -0.3325
  N  N1417  1  0.904860  0.372360  0.102260  1.0  -0.3114
  N  N1418  1  0.939290  0.427860  0.106870  1.0  -0.4721
  N  N1419  1  0.114320  0.630660  0.197750  1.0  -0.3147
  N  N1420  1  0.052470  0.648240  0.169090  1.0  -0.3024
  N  N1421  1  0.141140  0.674590  0.150640  1.0  -0.4524
  N  N1422  1  0.794090  0.697600  0.149160  1.0  -0.415
  N  N1423  1  0.886020  0.661980  0.164290  1.0  -0.2927
  N  N1424  1  0.906810  0.690550  0.200020  1.0  -0.3392
  N  N1425  1  0.824400  0.875800  0.194900  1.0  -0.6698
  N  N1426  1  0.868300  0.832830  0.323400  1.0  -0.6895
  N  N1427  1  0.175200  0.585120  0.046200  1.0  -0.6932
  N  N1428  1  0.758500  0.448610  0.308300  1.0  -0.6782
  N  N1429  1  0.854500  0.772490  0.038500  1.0  -0.6667
  N  N1430  1  0.423400  0.593690  0.101100  1.0  -0.6532
  N  N1431  1  0.490900  0.587040  0.990400  1.0  -0.7143
  N  N1432  1  0.021800  0.773970  0.674550  1.0  -0.6641
  N  N1433  1  0.648100  0.576880  0.961100  1.0  -0.6545
  N  N1434  1  0.633400  0.442910  0.144400  1.0  -0.7187
  N  N1435  1  0.205300  0.464670  0.023700  1.0  -0.6867
  N  N1436  1  0.432100  0.580700  0.281200  1.0  -0.6818
  N  N1437  1  0.449880  0.922450  0.672230  1.0  -0.2924
  N  N1438  1  0.446600  0.980440  0.661920  1.0  -0.4318
  N  N1439  1  0.408540  0.936010  0.701580  1.0  -0.332
  N  N1440  1  0.721030  0.795620  0.416140  1.0  -0.4695
  N  N1441  1  0.776330  0.745730  0.411290  1.0  -0.3024
  N  N1442  1  0.817630  0.764110  0.458350  1.0  -0.3378
  N  N1443  1  0.005180  0.745350  0.547830  1.0  -0.3079
  N  N1444  1  0.040940  0.714770  0.572180  1.0  -0.2766
  N  N1445  1  0.118580  0.758310  0.588950  1.0  -0.4289
  N  N1446  1  0.466450  0.126330  0.588610  1.0  -0.3332
  N  N1447  1  0.404860  0.127640  0.602260  1.0  -0.3117
  N  N1448  1  0.439290  0.072140  0.606870  1.0  -0.4717
  N  N1449  1  0.614320  0.869340  0.697750  1.0  -0.315
  N  N1450  1  0.552470  0.851760  0.669090  1.0  -0.3026
  N  N1451  1  0.641140  0.825410  0.650640  1.0  -0.4524
  N  N1452  1  0.294090  0.802400  0.649160  1.0  -0.4149
  N  N1453  1  0.386020  0.838020  0.664290  1.0  -0.2933
  N  N1454  1  0.406810  0.809450  0.700020  1.0  -0.34
  N  N1455  1  0.324400  0.624200  0.694900  1.0  -0.6695
  N  N1456  1  0.368300  0.667170  0.823400  1.0  -0.6888
  N  N1457  1  0.675200  0.914880  0.546200  1.0  -0.6934
  N  N1458  1  0.258500  0.051390  0.808300  1.0  -0.6796
  N  N1459  1  0.354500  0.727510  0.538500  1.0  -0.6662
  N  N1460  1  0.923400  0.906310  0.601100  1.0  -0.6505
  N  N1461  1  0.990900  0.912960  0.490400  1.0  -0.7146
  N  N1462  1  0.521800  0.726030  0.174550  1.0  -0.6645
  N  N1463  1  0.148100  0.923120  0.461100  1.0  -0.656
  N  N1464  1  0.133400  0.057090  0.644400  1.0  -0.7197
  N  N1465  1  0.705300  0.035330  0.523700  1.0  -0.6849
  N  N1466  1  0.932100  0.919300  0.781200  1.0  -0.6806
  N  N1467  1  0.949880  0.422450  0.672230  1.0  -0.2924
  N  N1468  1  0.946600  0.480440  0.661920  1.0  -0.4318
  N  N1469  1  0.908540  0.436010  0.701580  1.0  -0.332
  N  N1470  1  0.221030  0.295620  0.416140  1.0  -0.4695
  N  N1471  1  0.276330  0.245730  0.411290  1.0  -0.3024
  N  N1472  1  0.317630  0.264110  0.458350  1.0  -0.3378
  N  N1473  1  0.505180  0.245350  0.547830  1.0  -0.3079
  N  N1474  1  0.540940  0.214770  0.572180  1.0  -0.2766
  N  N1475  1  0.618580  0.258310  0.588950  1.0  -0.4289
  N  N1476  1  0.966450  0.626330  0.588610  1.0  -0.3332
  N  N1477  1  0.904860  0.627640  0.602260  1.0  -0.3116
  N  N1478  1  0.939290  0.572140  0.606870  1.0  -0.4717
  N  N1479  1  0.114320  0.369340  0.697750  1.0  -0.315
  N  N1480  1  0.052470  0.351760  0.669090  1.0  -0.3026
  N  N1481  1  0.141140  0.325410  0.650640  1.0  -0.4524
  N  N1482  1  0.794090  0.302400  0.649160  1.0  -0.4149
  N  N1483  1  0.886020  0.338020  0.664290  1.0  -0.2933
  N  N1484  1  0.906810  0.309450  0.700020  1.0  -0.34
  N  N1485  1  0.824400  0.124200  0.694900  1.0  -0.6695
  N  N1486  1  0.868300  0.167170  0.823400  1.0  -0.6888
  N  N1487  1  0.175200  0.414880  0.546200  1.0  -0.6934
  N  N1488  1  0.758500  0.551390  0.808300  1.0  -0.6796
  N  N1489  1  0.854500  0.227510  0.538500  1.0  -0.6662
  N  N1490  1  0.423400  0.406310  0.601100  1.0  -0.6505
  N  N1491  1  0.490900  0.412960  0.490400  1.0  -0.7146
  N  N1492  1  0.021800  0.226030  0.174550  1.0  -0.6645
  N  N1493  1  0.648100  0.423120  0.461100  1.0  -0.656
  N  N1494  1  0.633400  0.557090  0.644400  1.0  -0.7197
  N  N1495  1  0.205300  0.535330  0.523700  1.0  -0.6849
  N  N1496  1  0.432100  0.419300  0.781200  1.0  -0.6806
  N  N1497  1  0.550120  0.922450  0.827770  1.0  -0.2923
  N  N1498  1  0.553400  0.980440  0.838080  1.0  -0.4313
  N  N1499  1  0.591460  0.936010  0.798420  1.0  -0.3322
  N  N1500  1  0.278970  0.795620  0.083860  1.0  -0.4704
  N  N1501  1  0.223670  0.745730  0.088710  1.0  -0.3031
  N  N1502  1  0.182370  0.764110  0.041650  1.0  -0.3391
  N  N1503  1  0.994820  0.745350  0.952170  1.0  -0.3064
  N  N1504  1  0.959060  0.714770  0.927820  1.0  -0.2771
  N  N1505  1  0.881420  0.758310  0.911050  1.0  -0.4301
  N  N1506  1  0.533550  0.126330  0.911390  1.0  -0.3345
  N  N1507  1  0.595140  0.127640  0.897740  1.0  -0.3123
  N  N1508  1  0.560710  0.072140  0.893130  1.0  -0.472
  N  N1509  1  0.385680  0.869340  0.802250  1.0  -0.3144
  N  N1510  1  0.447530  0.851760  0.830910  1.0  -0.3025
  N  N1511  1  0.358860  0.825410  0.849360  1.0  -0.4531
  N  N1512  1  0.705910  0.802400  0.850840  1.0  -0.4139
  N  N1513  1  0.613980  0.838020  0.835710  1.0  -0.2934
  N  N1514  1  0.593190  0.809450  0.799980  1.0  -0.3384
  N  N1515  1  0.675600  0.624200  0.805100  1.0  -0.67
  N  N1516  1  0.631700  0.667170  0.676600  1.0  -0.689
  N  N1517  1  0.324800  0.914880  0.953800  1.0  -0.6934
  N  N1518  1  0.741500  0.051390  0.691700  1.0  -0.6802
  N  N1519  1  0.645500  0.727510  0.961500  1.0  -0.6643
  N  N1520  1  0.076600  0.906310  0.898900  1.0  -0.6513
  N  N1521  1  0.009100  0.912960  0.009600  1.0  -0.7128
  N  N1522  1  0.478200  0.726030  0.325450  1.0  -0.6641
  N  N1523  1  0.851900  0.923120  0.038900  1.0  -0.6584
  N  N1524  1  0.866600  0.057090  0.855600  1.0  -0.7201
  N  N1525  1  0.294700  0.035330  0.976300  1.0  -0.6847
  N  N1526  1  0.067900  0.919300  0.718800  1.0  -0.6832
  N  N1527  1  0.050120  0.422450  0.827770  1.0  -0.2923
  N  N1528  1  0.053400  0.480440  0.838080  1.0  -0.4313
  N  N1529  1  0.091460  0.436010  0.798420  1.0  -0.3322
  N  N1530  1  0.778970  0.295620  0.083860  1.0  -0.4704
  N  N1531  1  0.723670  0.245730  0.088710  1.0  -0.3031
  N  N1532  1  0.682370  0.264110  0.041650  1.0  -0.3391
  N  N1533  1  0.494820  0.245350  0.952170  1.0  -0.3064
  N  N1534  1  0.459060  0.214770  0.927820  1.0  -0.2771
  N  N1535  1  0.381420  0.258310  0.911050  1.0  -0.4301
  N  N1536  1  0.033550  0.626330  0.911390  1.0  -0.3345
  N  N1537  1  0.095140  0.627640  0.897740  1.0  -0.3123
  N  N1538  1  0.060710  0.572140  0.893130  1.0  -0.472
  N  N1539  1  0.885680  0.369340  0.802250  1.0  -0.3144
  N  N1540  1  0.947530  0.351760  0.830910  1.0  -0.3025
  N  N1541  1  0.858860  0.325410  0.849360  1.0  -0.4531
  N  N1542  1  0.205910  0.302400  0.850840  1.0  -0.4139
  N  N1543  1  0.113980  0.338020  0.835710  1.0  -0.2934
  N  N1544  1  0.093190  0.309450  0.799980  1.0  -0.3384
  N  N1545  1  0.175600  0.124200  0.805100  1.0  -0.67
  N  N1546  1  0.131700  0.167170  0.676600  1.0  -0.689
  N  N1547  1  0.824800  0.414880  0.953800  1.0  -0.6934
  N  N1548  1  0.241500  0.551390  0.691700  1.0  -0.6802
  N  N1549  1  0.145500  0.227510  0.961500  1.0  -0.6643
  N  N1550  1  0.576600  0.406310  0.898900  1.0  -0.6513
  N  N1551  1  0.509100  0.412960  0.009600  1.0  -0.7128
  N  N1552  1  0.978200  0.226030  0.325450  1.0  -0.6641
  N  N1553  1  0.351900  0.423120  0.038900  1.0  -0.6584
  N  N1554  1  0.366600  0.557090  0.855600  1.0  -0.7201
  N  N1555  1  0.794700  0.535330  0.976300  1.0  -0.6847
  N  N1556  1  0.567900  0.419300  0.718800  1.0  -0.6832
  Cl  Cl1557  1  0.125110  0.318780  0.507990  1.0  -0.1622
  Cl  Cl1558  1  0.625110  0.818780  0.507990  1.0  -0.1622
  Cl  Cl1559  1  0.874890  0.318780  0.992010  1.0  -0.1627
  Cl  Cl1560  1  0.374890  0.818780  0.992010  1.0  -0.1627
  Cl  Cl1561  1  0.874890  0.681220  0.492010  1.0  -0.1624
  Cl  Cl1562  1  0.374890  0.181220  0.492010  1.0  -0.1624
  Cl  Cl1563  1  0.125110  0.681220  0.007990  1.0  -0.1619
  Cl  Cl1564  1  0.625110  0.181220  0.007990  1.0  -0.1619
