# generated using pymatgen
data_Cu17H144C168(BrN30)2
_symmetry_space_group_name_H-M   'P 1'
_cell_length_a   20.01500000
_cell_length_b   38.06400000
_cell_length_c   25.19700000
_cell_angle_alpha   90.00000000
_cell_angle_beta   109.84600000
_cell_angle_gamma   90.00000000
_symmetry_Int_Tables_number   1
_chemical_formula_structural   Cu17H144C168(BrN30)2
_chemical_formula_sum   'Cu68 H576 C672 Br8 N240'
_cell_volume   18056.25828774
_cell_formula_units_Z   4
loop_
 _symmetry_equiv_pos_site_id
 _symmetry_equiv_pos_as_xyz
  1  'x, y, z'
loop_
 _atom_site_type_symbol
 _atom_site_label
 _atom_site_symmetry_multiplicity
 _atom_site_fract_x
 _atom_site_fract_y
 _atom_site_fract_z
 _atom_site_occupancy
 _atom_site_charge
  Cu  Cu1  1  0.039210  0.127440  0.831520  1.0  0.5251
  Cu  Cu2  1  0.593750  0.254580  0.000120  1.0  0.3856
  Cu  Cu3  1  0.295500  0.218030  0.882240  1.0  0.4365
  Cu  Cu4  1  0.506750  0.328760  0.932120  1.0  0.3429
  Cu  Cu5  1  0.816460  0.206950  0.882930  1.0  0.3885
  Cu  Cu6  1  0.052040  0.973940  0.865470  1.0  0.3064
  Cu  Cu7  1  0.849420  0.169040  0.091970  1.0  0.3844
  Cu  Cu8  1  0.109170  0.094080  0.746640  1.0  0.3272
  Cu  Cu9  1  0.539210  0.627440  0.831520  1.0  0.5251
  Cu  Cu10  1  0.093750  0.754580  0.000120  1.0  0.3856
  Cu  Cu11  1  0.795500  0.718030  0.882240  1.0  0.4365
  Cu  Cu12  1  0.006750  0.828760  0.932120  1.0  0.3429
  Cu  Cu13  1  0.316460  0.706950  0.882930  1.0  0.3885
  Cu  Cu14  1  0.552040  0.473940  0.865470  1.0  0.3064
  Cu  Cu15  1  0.349420  0.669040  0.091970  1.0  0.3844
  Cu  Cu16  1  0.609170  0.594080  0.746640  1.0  0.3272
  Cu  Cu17  1  0.960790  0.127440  0.668480  1.0  0.5247
  Cu  Cu18  1  0.406250  0.254580  0.499880  1.0  0.3845
  Cu  Cu19  1  0.704500  0.218030  0.617760  1.0  0.437
  Cu  Cu20  1  0.493250  0.328760  0.567880  1.0  0.3424
  Cu  Cu21  1  0.183540  0.206950  0.617070  1.0  0.3848
  Cu  Cu22  1  0.947960  0.973940  0.634530  1.0  0.3057
  Cu  Cu23  1  0.150580  0.169040  0.408030  1.0  0.385
  Cu  Cu24  1  0.890830  0.094080  0.753360  1.0  0.3273
  Cu  Cu25  1  0.460790  0.627440  0.668480  1.0  0.5247
  Cu  Cu26  1  0.906250  0.754580  0.499880  1.0  0.3845
  Cu  Cu27  1  0.204500  0.718030  0.617760  1.0  0.437
  Cu  Cu28  1  0.993250  0.828760  0.567880  1.0  0.3424
  Cu  Cu29  1  0.683540  0.706950  0.617070  1.0  0.3848
  Cu  Cu30  1  0.447960  0.473940  0.634530  1.0  0.3057
  Cu  Cu31  1  0.650580  0.669040  0.408030  1.0  0.385
  Cu  Cu32  1  0.390830  0.594080  0.753360  1.0  0.3273
  Cu  Cu33  1  0.960790  0.872560  0.168480  1.0  0.5246
  Cu  Cu34  1  0.406250  0.745420  0.999880  1.0  0.3866
  Cu  Cu35  1  0.704500  0.781970  0.117760  1.0  0.4376
  Cu  Cu36  1  0.493250  0.671240  0.067880  1.0  0.3425
  Cu  Cu37  1  0.183540  0.793050  0.117070  1.0  0.3857
  Cu  Cu38  1  0.947960  0.026060  0.134530  1.0  0.3051
  Cu  Cu39  1  0.150580  0.830960  0.908030  1.0  0.3849
  Cu  Cu40  1  0.890830  0.905920  0.253360  1.0  0.3271
  Cu  Cu41  1  0.460790  0.372560  0.168480  1.0  0.5246
  Cu  Cu42  1  0.906250  0.245420  0.999880  1.0  0.3866
  Cu  Cu43  1  0.204500  0.281970  0.117760  1.0  0.4376
  Cu  Cu44  1  0.993250  0.171240  0.067880  1.0  0.3425
  Cu  Cu45  1  0.683540  0.293050  0.117070  1.0  0.3857
  Cu  Cu46  1  0.447960  0.526060  0.134530  1.0  0.3051
  Cu  Cu47  1  0.650580  0.330960  0.908030  1.0  0.3849
  Cu  Cu48  1  0.390830  0.405920  0.253360  1.0  0.3271
  Cu  Cu49  1  0.039210  0.872560  0.331520  1.0  0.5251
  Cu  Cu50  1  0.593750  0.745420  0.500120  1.0  0.3871
  Cu  Cu51  1  0.295500  0.781970  0.382240  1.0  0.4373
  Cu  Cu52  1  0.506750  0.671240  0.432120  1.0  0.3429
  Cu  Cu53  1  0.816460  0.793050  0.382930  1.0  0.389
  Cu  Cu54  1  0.052040  0.026060  0.365470  1.0  0.3057
  Cu  Cu55  1  0.849420  0.830960  0.591970  1.0  0.3842
  Cu  Cu56  1  0.109170  0.905920  0.246640  1.0  0.3272
  Cu  Cu57  1  0.539210  0.372560  0.331520  1.0  0.5251
  Cu  Cu58  1  0.093750  0.245420  0.500120  1.0  0.3871
  Cu  Cu59  1  0.795500  0.281970  0.382240  1.0  0.4373
  Cu  Cu60  1  0.006750  0.171240  0.432120  1.0  0.3429
  Cu  Cu61  1  0.316460  0.293050  0.382930  1.0  0.389
  Cu  Cu62  1  0.552040  0.526060  0.365470  1.0  0.3057
  Cu  Cu63  1  0.349420  0.330960  0.591970  1.0  0.3842
  Cu  Cu64  1  0.609170  0.405920  0.246640  1.0  0.3272
  Cu  Cu65  1  0.000000  0.191230  0.750000  1.0  0.3806
  Cu  Cu66  1  0.500000  0.691230  0.750000  1.0  0.3806
  Cu  Cu67  1  0.000000  0.808770  0.250000  1.0  0.3814
  Cu  Cu68  1  0.500000  0.308770  0.250000  1.0  0.3814
  H  H69  1  0.185100  0.265000  0.987200  1.0  0.3312
  H  H70  1  0.141200  0.293600  0.952100  1.0  0.3341
  H  H71  1  0.889400  0.456900  0.868400  1.0  0.3262
  H  H72  1  0.881900  0.426100  0.830300  1.0  0.3586
  H  H73  1  0.267600  0.451000  0.985500  1.0  0.2932
  H  H74  1  0.304100  0.485600  0.991600  1.0  0.3373
  H  H75  1  0.356400  0.054500  0.032300  1.0  0.3311
  H  H76  1  0.374600  0.084900  0.071800  1.0  0.3526
  H  H77  1  0.163500  0.335400  0.662300  1.0  0.3445
  H  H78  1  0.096600  0.345700  0.671700  1.0  0.3401
  H  H79  1  0.220800  0.928400  0.674800  1.0  0.3084
  H  H80  1  0.277600  0.955600  0.687800  1.0  0.3435
  H  H81  1  0.835200  0.098900  0.977900  1.0  0.3206
  H  H82  1  0.787400  0.070600  0.945400  1.0  0.3428
  H  H83  1  0.540000  0.083000  0.043600  1.0  0.3251
  H  H84  1  0.487400  0.070900  0.989300  1.0  0.3423
  H  H85  1  0.137100  0.375100  0.811500  1.0  0.348
  H  H86  1  0.183200  0.392200  0.783400  1.0  0.3269
  H  H87  1  0.582700  0.073500  0.913000  1.0  0.3579
  H  H88  1  0.548800  0.099200  0.867200  1.0  0.3103
  H  H89  1  0.006600  0.258000  0.350900  1.0  0.3219
  H  H90  1  0.986500  0.295600  0.338800  1.0  0.3526
  H  H91  1  0.140100  0.206200  0.982600  1.0  0.092
  H  H92  1  0.051100  0.166100  0.941200  1.0  0.0989
  H  H93  1  0.932500  0.242800  0.847400  1.0  0.0892
  H  H94  1  0.022800  0.282300  0.886700  1.0  0.0976
  H  H95  1  0.628500  0.107500  0.822900  1.0  0.0893
  H  H96  1  0.654500  0.099500  0.674000  1.0  0.0815
  H  H97  1  0.760900  0.129100  0.709500  1.0  0.0782
  H  H98  1  0.737100  0.134700  0.859900  1.0  0.1018
  H  H99  1  0.314500  0.400000  0.950800  1.0  0.1021
  H  H100  1  0.402300  0.376400  0.922200  1.0  0.0873
  H  H101  1  0.495300  0.470500  0.939300  1.0  0.0806
  H  H102  1  0.410500  0.493200  0.971600  1.0  0.088
  H  H103  1  0.797400  0.472000  0.906600  1.0  0.1191
  H  H104  1  0.776700  0.389000  0.804700  1.0  0.0893
  H  H105  1  0.672500  0.374300  0.818700  1.0  0.0984
  H  H106  1  0.692700  0.457400  0.919700  1.0  0.1001
  H  H107  1  0.279900  0.061900  0.934700  1.0  0.1139
  H  H108  1  0.208500  0.098200  0.865000  1.0  0.0806
  H  H109  1  0.256800  0.178700  0.972400  1.0  0.0865
  H  H110  1  0.327100  0.142700  0.042100  1.0  0.1103
  H  H111  1  0.230900  0.285000  0.708300  1.0  0.0859
  H  H112  1  0.238500  0.235300  0.762100  1.0  0.0982
  H  H113  1  0.059500  0.263300  0.788800  1.0  0.0866
  H  H114  1  0.051700  0.312500  0.734200  1.0  0.0928
  H  H115  1  0.276200  0.006200  0.746600  1.0  0.1212
  H  H116  1  0.122200  0.934000  0.707900  1.0  0.0952
  H  H117  1  0.064000  0.965600  0.757500  1.0  0.0943
  H  H118  1  0.218000  0.038100  0.795000  1.0  0.1006
  H  H119  1  0.822200  0.033400  0.880200  1.0  0.1118
  H  H120  1  0.946300  0.110900  0.966200  1.0  0.0894
  H  H121  1  0.031800  0.095900  0.928600  1.0  0.1056
  H  H122  1  0.907600  0.018100  0.842300  1.0  0.0835
  H  H123  1  0.418200  0.112700  0.918800  1.0  0.0996
  H  H124  1  0.393000  0.169900  0.891600  1.0  0.0926
  H  H125  1  0.536200  0.201800  0.037200  1.0  0.0942
  H  H126  1  0.559200  0.144700  0.065300  1.0  0.0951
  H  H127  1  0.299000  0.368500  0.792500  1.0  0.0901
  H  H128  1  0.387000  0.328500  0.833000  1.0  0.1029
  H  H129  1  0.262600  0.282700  0.908800  1.0  0.0942
  H  H130  1  0.175800  0.323100  0.868500  1.0  0.0929
  H  H131  1  0.582100  0.160800  0.877700  1.0  0.0981
  H  H132  1  0.672100  0.092400  0.000700  1.0  0.1013
  H  H133  1  0.727400  0.137400  0.059100  1.0  0.0727
  H  H134  1  0.640500  0.206600  0.935600  1.0  0.0993
  H  H135  1  0.896300  0.313000  0.249600  1.0  0.1032
  H  H136  1  0.818400  0.296800  0.162900  1.0  0.0737
  H  H137  1  0.872600  0.196200  0.198400  1.0  0.0945
  H  H138  1  0.951700  0.212600  0.284900  1.0  0.1055
  H  H139  1  0.550100  0.075300  0.686100  1.0  0.3328
  H  H140  1  0.540900  0.077100  0.742200  1.0  0.3575
  H  H141  1  0.685100  0.765000  0.987200  1.0  0.3312
  H  H142  1  0.641200  0.793600  0.952100  1.0  0.3341
  H  H143  1  0.389400  0.956900  0.868400  1.0  0.3262
  H  H144  1  0.381900  0.926100  0.830300  1.0  0.3586
  H  H145  1  0.767600  0.951000  0.985500  1.0  0.2932
  H  H146  1  0.804100  0.985600  0.991600  1.0  0.3373
  H  H147  1  0.856400  0.554500  0.032300  1.0  0.3311
  H  H148  1  0.874600  0.584900  0.071800  1.0  0.3526
  H  H149  1  0.663500  0.835400  0.662300  1.0  0.3445
  H  H150  1  0.596600  0.845700  0.671700  1.0  0.3401
  H  H151  1  0.720800  0.428400  0.674800  1.0  0.3084
  H  H152  1  0.777600  0.455600  0.687800  1.0  0.3435
  H  H153  1  0.335200  0.598900  0.977900  1.0  0.3206
  H  H154  1  0.287400  0.570600  0.945400  1.0  0.3428
  H  H155  1  0.040000  0.583000  0.043600  1.0  0.3251
  H  H156  1  0.987400  0.570900  0.989300  1.0  0.3423
  H  H157  1  0.637100  0.875100  0.811500  1.0  0.348
  H  H158  1  0.683200  0.892200  0.783400  1.0  0.3269
  H  H159  1  0.082700  0.573500  0.913000  1.0  0.3579
  H  H160  1  0.048800  0.599200  0.867200  1.0  0.3103
  H  H161  1  0.506600  0.758000  0.350900  1.0  0.3219
  H  H162  1  0.486500  0.795600  0.338800  1.0  0.3526
  H  H163  1  0.640100  0.706200  0.982600  1.0  0.092
  H  H164  1  0.551100  0.666100  0.941200  1.0  0.0989
  H  H165  1  0.432500  0.742800  0.847400  1.0  0.0892
  H  H166  1  0.522800  0.782300  0.886700  1.0  0.0976
  H  H167  1  0.128500  0.607500  0.822900  1.0  0.0893
  H  H168  1  0.154500  0.599500  0.674000  1.0  0.0815
  H  H169  1  0.260900  0.629100  0.709500  1.0  0.0782
  H  H170  1  0.237100  0.634700  0.859900  1.0  0.1018
  H  H171  1  0.814500  0.900000  0.950800  1.0  0.1021
  H  H172  1  0.902300  0.876400  0.922200  1.0  0.0873
  H  H173  1  0.995300  0.970500  0.939300  1.0  0.0806
  H  H174  1  0.910500  0.993200  0.971600  1.0  0.088
  H  H175  1  0.297400  0.972000  0.906600  1.0  0.1191
  H  H176  1  0.276700  0.889000  0.804700  1.0  0.0893
  H  H177  1  0.172500  0.874300  0.818700  1.0  0.0984
  H  H178  1  0.192700  0.957400  0.919700  1.0  0.1001
  H  H179  1  0.779900  0.561900  0.934700  1.0  0.1139
  H  H180  1  0.708500  0.598200  0.865000  1.0  0.0806
  H  H181  1  0.756800  0.678700  0.972400  1.0  0.0865
  H  H182  1  0.827100  0.642700  0.042100  1.0  0.1103
  H  H183  1  0.730900  0.785000  0.708300  1.0  0.0859
  H  H184  1  0.738500  0.735300  0.762100  1.0  0.0982
  H  H185  1  0.559500  0.763300  0.788800  1.0  0.0866
  H  H186  1  0.551700  0.812500  0.734200  1.0  0.0928
  H  H187  1  0.776200  0.506200  0.746600  1.0  0.1212
  H  H188  1  0.622200  0.434000  0.707900  1.0  0.0952
  H  H189  1  0.564000  0.465600  0.757500  1.0  0.0943
  H  H190  1  0.718000  0.538100  0.795000  1.0  0.1006
  H  H191  1  0.322200  0.533400  0.880200  1.0  0.1118
  H  H192  1  0.446300  0.610900  0.966200  1.0  0.0894
  H  H193  1  0.531800  0.595900  0.928600  1.0  0.1056
  H  H194  1  0.407600  0.518100  0.842300  1.0  0.0835
  H  H195  1  0.918200  0.612700  0.918800  1.0  0.0996
  H  H196  1  0.893000  0.669900  0.891600  1.0  0.0926
  H  H197  1  0.036200  0.701800  0.037200  1.0  0.0942
  H  H198  1  0.059200  0.644700  0.065300  1.0  0.0951
  H  H199  1  0.799000  0.868500  0.792500  1.0  0.0901
  H  H200  1  0.887000  0.828500  0.833000  1.0  0.1029
  H  H201  1  0.762600  0.782700  0.908800  1.0  0.0942
  H  H202  1  0.675800  0.823100  0.868500  1.0  0.0929
  H  H203  1  0.082100  0.660800  0.877700  1.0  0.0981
  H  H204  1  0.172100  0.592400  0.000700  1.0  0.1013
  H  H205  1  0.227400  0.637400  0.059100  1.0  0.0727
  H  H206  1  0.140500  0.706600  0.935600  1.0  0.0993
  H  H207  1  0.396300  0.813000  0.249600  1.0  0.1032
  H  H208  1  0.318400  0.796800  0.162900  1.0  0.0737
  H  H209  1  0.372600  0.696200  0.198400  1.0  0.0945
  H  H210  1  0.451700  0.712600  0.284900  1.0  0.1055
  H  H211  1  0.050100  0.575300  0.686100  1.0  0.3328
  H  H212  1  0.040900  0.577100  0.742200  1.0  0.3575
  H  H213  1  0.814900  0.265000  0.512800  1.0  0.3274
  H  H214  1  0.858800  0.293600  0.547900  1.0  0.3339
  H  H215  1  0.110600  0.456900  0.631600  1.0  0.3261
  H  H216  1  0.118100  0.426100  0.669700  1.0  0.358
  H  H217  1  0.732400  0.451000  0.514500  1.0  0.2933
  H  H218  1  0.695900  0.485600  0.508400  1.0  0.3372
  H  H219  1  0.643600  0.054500  0.467700  1.0  0.3318
  H  H220  1  0.625400  0.084900  0.428200  1.0  0.3513
  H  H221  1  0.836500  0.335400  0.837700  1.0  0.3423
  H  H222  1  0.903400  0.345700  0.828300  1.0  0.3396
  H  H223  1  0.779200  0.928400  0.825200  1.0  0.3101
  H  H224  1  0.722400  0.955600  0.812200  1.0  0.3452
  H  H225  1  0.164800  0.098900  0.522100  1.0  0.3214
  H  H226  1  0.212600  0.070600  0.554600  1.0  0.3446
  H  H227  1  0.460000  0.083000  0.456400  1.0  0.3226
  H  H228  1  0.512600  0.070900  0.510700  1.0  0.3442
  H  H229  1  0.862900  0.375100  0.688500  1.0  0.3484
  H  H230  1  0.816800  0.392200  0.716600  1.0  0.3285
  H  H231  1  0.417300  0.073500  0.587000  1.0  0.357
  H  H232  1  0.451200  0.099200  0.632800  1.0  0.3124
  H  H233  1  0.993400  0.258000  0.149100  1.0  0.3212
  H  H234  1  0.013500  0.295600  0.161200  1.0  0.353
  H  H235  1  0.859900  0.206200  0.517400  1.0  0.0922
  H  H236  1  0.948900  0.166100  0.558800  1.0  0.0991
  H  H237  1  0.067500  0.242800  0.652600  1.0  0.0891
  H  H238  1  0.977200  0.282300  0.613300  1.0  0.0973
  H  H239  1  0.371500  0.107500  0.677100  1.0  0.0896
  H  H240  1  0.345500  0.099500  0.826000  1.0  0.0814
  H  H241  1  0.239100  0.129100  0.790500  1.0  0.0785
  H  H242  1  0.262900  0.134700  0.640100  1.0  0.1017
  H  H243  1  0.685500  0.400000  0.549200  1.0  0.1021
  H  H244  1  0.597700  0.376400  0.577800  1.0  0.0875
  H  H245  1  0.504700  0.470500  0.560700  1.0  0.0804
  H  H246  1  0.589500  0.493200  0.528400  1.0  0.0884
  H  H247  1  0.202600  0.472000  0.593400  1.0  0.1189
  H  H248  1  0.223300  0.389000  0.695300  1.0  0.0889
  H  H249  1  0.327500  0.374300  0.681300  1.0  0.0985
  H  H250  1  0.307300  0.457400  0.580300  1.0  0.101
  H  H251  1  0.720100  0.061900  0.565300  1.0  0.114
  H  H252  1  0.791500  0.098200  0.635000  1.0  0.0809
  H  H253  1  0.743200  0.178700  0.527600  1.0  0.0873
  H  H254  1  0.672900  0.142700  0.457900  1.0  0.1106
  H  H255  1  0.769100  0.285000  0.791700  1.0  0.0859
  H  H256  1  0.761500  0.235300  0.737900  1.0  0.0979
  H  H257  1  0.940500  0.263300  0.711200  1.0  0.0868
  H  H258  1  0.948300  0.312500  0.765800  1.0  0.0924
  H  H259  1  0.723800  0.006200  0.753400  1.0  0.1212
  H  H260  1  0.877800  0.934000  0.792100  1.0  0.0954
  H  H261  1  0.936000  0.965600  0.742500  1.0  0.0944
  H  H262  1  0.782000  0.038100  0.705000  1.0  0.1011
  H  H263  1  0.177800  0.033400  0.619800  1.0  0.1125
  H  H264  1  0.053700  0.110900  0.533800  1.0  0.0896
  H  H265  1  0.968200  0.095900  0.571400  1.0  0.1057
  H  H266  1  0.092400  0.018100  0.657700  1.0  0.0837
  H  H267  1  0.581800  0.112700  0.581200  1.0  0.0995
  H  H268  1  0.607000  0.169900  0.608400  1.0  0.0928
  H  H269  1  0.463800  0.201800  0.462800  1.0  0.0948
  H  H270  1  0.440800  0.144700  0.434700  1.0  0.0947
  H  H271  1  0.701000  0.368500  0.707500  1.0  0.0906
  H  H272  1  0.613000  0.328500  0.667000  1.0  0.1034
  H  H273  1  0.737400  0.282700  0.591200  1.0  0.0935
  H  H274  1  0.824200  0.323100  0.631500  1.0  0.0931
  H  H275  1  0.417900  0.160800  0.622300  1.0  0.0981
  H  H276  1  0.327900  0.092400  0.499300  1.0  0.1012
  H  H277  1  0.272600  0.137400  0.440900  1.0  0.0723
  H  H278  1  0.359500  0.206600  0.564400  1.0  0.0992
  H  H279  1  0.103700  0.313000  0.250400  1.0  0.1038
  H  H280  1  0.181600  0.296800  0.337100  1.0  0.0732
  H  H281  1  0.127400  0.196200  0.301600  1.0  0.0942
  H  H282  1  0.048300  0.212600  0.215100  1.0  0.1052
  H  H283  1  0.449900  0.075300  0.813900  1.0  0.3322
  H  H284  1  0.459100  0.077100  0.757800  1.0  0.3587
  H  H285  1  0.314900  0.765000  0.512800  1.0  0.3274
  H  H286  1  0.358800  0.793600  0.547900  1.0  0.3339
  H  H287  1  0.610600  0.956900  0.631600  1.0  0.3261
  H  H288  1  0.618100  0.926100  0.669700  1.0  0.358
  H  H289  1  0.232400  0.951000  0.514500  1.0  0.2933
  H  H290  1  0.195900  0.985600  0.508400  1.0  0.3372
  H  H291  1  0.143600  0.554500  0.467700  1.0  0.3318
  H  H292  1  0.125400  0.584900  0.428200  1.0  0.3513
  H  H293  1  0.336500  0.835400  0.837700  1.0  0.3423
  H  H294  1  0.403400  0.845700  0.828300  1.0  0.3396
  H  H295  1  0.279200  0.428400  0.825200  1.0  0.3101
  H  H296  1  0.222400  0.455600  0.812200  1.0  0.3452
  H  H297  1  0.664800  0.598900  0.522100  1.0  0.3214
  H  H298  1  0.712600  0.570600  0.554600  1.0  0.3446
  H  H299  1  0.960000  0.583000  0.456400  1.0  0.3226
  H  H300  1  0.012600  0.570900  0.510700  1.0  0.3442
  H  H301  1  0.362900  0.875100  0.688500  1.0  0.3484
  H  H302  1  0.316800  0.892200  0.716600  1.0  0.3285
  H  H303  1  0.917300  0.573500  0.587000  1.0  0.357
  H  H304  1  0.951200  0.599200  0.632800  1.0  0.3124
  H  H305  1  0.493400  0.758000  0.149100  1.0  0.3212
  H  H306  1  0.513500  0.795600  0.161200  1.0  0.353
  H  H307  1  0.359900  0.706200  0.517400  1.0  0.0922
  H  H308  1  0.448900  0.666100  0.558800  1.0  0.0991
  H  H309  1  0.567500  0.742800  0.652600  1.0  0.0891
  H  H310  1  0.477200  0.782300  0.613300  1.0  0.0973
  H  H311  1  0.871500  0.607500  0.677100  1.0  0.0896
  H  H312  1  0.845500  0.599500  0.826000  1.0  0.0814
  H  H313  1  0.739100  0.629100  0.790500  1.0  0.0785
  H  H314  1  0.762900  0.634700  0.640100  1.0  0.1017
  H  H315  1  0.185500  0.900000  0.549200  1.0  0.1021
  H  H316  1  0.097700  0.876400  0.577800  1.0  0.0875
  H  H317  1  0.004700  0.970500  0.560700  1.0  0.0804
  H  H318  1  0.089500  0.993200  0.528400  1.0  0.0884
  H  H319  1  0.702600  0.972000  0.593400  1.0  0.1189
  H  H320  1  0.723300  0.889000  0.695300  1.0  0.0889
  H  H321  1  0.827500  0.874300  0.681300  1.0  0.0985
  H  H322  1  0.807300  0.957400  0.580300  1.0  0.101
  H  H323  1  0.220100  0.561900  0.565300  1.0  0.114
  H  H324  1  0.291500  0.598200  0.635000  1.0  0.0809
  H  H325  1  0.243200  0.678700  0.527600  1.0  0.0873
  H  H326  1  0.172900  0.642700  0.457900  1.0  0.1106
  H  H327  1  0.269100  0.785000  0.791700  1.0  0.0859
  H  H328  1  0.261500  0.735300  0.737900  1.0  0.0979
  H  H329  1  0.440500  0.763300  0.711200  1.0  0.0868
  H  H330  1  0.448300  0.812500  0.765800  1.0  0.0924
  H  H331  1  0.223800  0.506200  0.753400  1.0  0.1212
  H  H332  1  0.377800  0.434000  0.792100  1.0  0.0954
  H  H333  1  0.436000  0.465600  0.742500  1.0  0.0944
  H  H334  1  0.282000  0.538100  0.705000  1.0  0.1011
  H  H335  1  0.677800  0.533400  0.619800  1.0  0.1125
  H  H336  1  0.553700  0.610900  0.533800  1.0  0.0896
  H  H337  1  0.468200  0.595900  0.571400  1.0  0.1057
  H  H338  1  0.592400  0.518100  0.657700  1.0  0.0837
  H  H339  1  0.081800  0.612700  0.581200  1.0  0.0995
  H  H340  1  0.107000  0.669900  0.608400  1.0  0.0928
  H  H341  1  0.963800  0.701800  0.462800  1.0  0.0948
  H  H342  1  0.940800  0.644700  0.434700  1.0  0.0947
  H  H343  1  0.201000  0.868500  0.707500  1.0  0.0906
  H  H344  1  0.113000  0.828500  0.667000  1.0  0.1034
  H  H345  1  0.237400  0.782700  0.591200  1.0  0.0935
  H  H346  1  0.324200  0.823100  0.631500  1.0  0.0931
  H  H347  1  0.917900  0.660800  0.622300  1.0  0.0981
  H  H348  1  0.827900  0.592400  0.499300  1.0  0.1012
  H  H349  1  0.772600  0.637400  0.440900  1.0  0.0723
  H  H350  1  0.859500  0.706600  0.564400  1.0  0.0992
  H  H351  1  0.603700  0.813000  0.250400  1.0  0.1038
  H  H352  1  0.681600  0.796800  0.337100  1.0  0.0732
  H  H353  1  0.627400  0.696200  0.301600  1.0  0.0942
  H  H354  1  0.548300  0.712600  0.215100  1.0  0.1052
  H  H355  1  0.949900  0.575300  0.813900  1.0  0.3322
  H  H356  1  0.959100  0.577100  0.757800  1.0  0.3587
  H  H357  1  0.814900  0.735000  0.012800  1.0  0.3278
  H  H358  1  0.858800  0.706400  0.047900  1.0  0.3338
  H  H359  1  0.110600  0.543100  0.131600  1.0  0.3268
  H  H360  1  0.118100  0.573900  0.169700  1.0  0.3576
  H  H361  1  0.732400  0.549000  0.014500  1.0  0.2938
  H  H362  1  0.695900  0.514400  0.008400  1.0  0.3364
  H  H363  1  0.643600  0.945500  0.967700  1.0  0.3351
  H  H364  1  0.625400  0.915100  0.928200  1.0  0.3512
  H  H365  1  0.836500  0.664600  0.337700  1.0  0.3423
  H  H366  1  0.903400  0.654300  0.328300  1.0  0.3403
  H  H367  1  0.779200  0.071600  0.325200  1.0  0.3122
  H  H368  1  0.722400  0.044400  0.312200  1.0  0.3431
  H  H369  1  0.164800  0.901100  0.022100  1.0  0.3205
  H  H370  1  0.212600  0.929400  0.054600  1.0  0.3438
  H  H371  1  0.460000  0.917000  0.956400  1.0  0.3218
  H  H372  1  0.512600  0.929100  0.010700  1.0  0.3437
  H  H373  1  0.862900  0.624900  0.188500  1.0  0.348
  H  H374  1  0.816800  0.607800  0.216600  1.0  0.3295
  H  H375  1  0.417300  0.926500  0.087000  1.0  0.3552
  H  H376  1  0.451200  0.900800  0.132800  1.0  0.3117
  H  H377  1  0.993400  0.742000  0.649100  1.0  0.3222
  H  H378  1  0.013500  0.704400  0.661200  1.0  0.3527
  H  H379  1  0.859900  0.793800  0.017400  1.0  0.0924
  H  H380  1  0.948900  0.833900  0.058800  1.0  0.0992
  H  H381  1  0.067500  0.757200  0.152600  1.0  0.0892
  H  H382  1  0.977200  0.717700  0.113300  1.0  0.0966
  H  H383  1  0.371500  0.892500  0.177100  1.0  0.0895
  H  H384  1  0.345500  0.900500  0.326000  1.0  0.0819
  H  H385  1  0.239100  0.870900  0.290500  1.0  0.0786
  H  H386  1  0.262900  0.865300  0.140100  1.0  0.1016
  H  H387  1  0.685500  0.600000  0.049200  1.0  0.1021
  H  H388  1  0.597700  0.623600  0.077800  1.0  0.0874
  H  H389  1  0.504700  0.529500  0.060700  1.0  0.0802
  H  H390  1  0.589500  0.506800  0.028400  1.0  0.0882
  H  H391  1  0.202600  0.528000  0.093400  1.0  0.1192
  H  H392  1  0.223300  0.611000  0.195300  1.0  0.0887
  H  H393  1  0.327500  0.625700  0.181300  1.0  0.0985
  H  H394  1  0.307300  0.542600  0.080300  1.0  0.1008
  H  H395  1  0.720100  0.938100  0.065300  1.0  0.1139
  H  H396  1  0.791500  0.901800  0.135000  1.0  0.0806
  H  H397  1  0.743200  0.821300  0.027600  1.0  0.0868
  H  H398  1  0.672900  0.857300  0.957900  1.0  0.1104
  H  H399  1  0.769100  0.715000  0.291700  1.0  0.0859
  H  H400  1  0.761500  0.764700  0.237900  1.0  0.0983
  H  H401  1  0.940500  0.736700  0.211200  1.0  0.0868
  H  H402  1  0.948300  0.687500  0.265800  1.0  0.0922
  H  H403  1  0.723800  0.993800  0.253400  1.0  0.1215
  H  H404  1  0.877800  0.066000  0.292100  1.0  0.0955
  H  H405  1  0.936000  0.034400  0.242500  1.0  0.0944
  H  H406  1  0.782000  0.961900  0.205000  1.0  0.1006
  H  H407  1  0.177800  0.966600  0.119800  1.0  0.1126
  H  H408  1  0.053700  0.889100  0.033800  1.0  0.0889
  H  H409  1  0.968200  0.904100  0.071400  1.0  0.1056
  H  H410  1  0.092400  0.981900  0.157700  1.0  0.0838
  H  H411  1  0.581800  0.887300  0.081200  1.0  0.0993
  H  H412  1  0.607000  0.830100  0.108400  1.0  0.0929
  H  H413  1  0.463800  0.798200  0.962800  1.0  0.0944
  H  H414  1  0.440800  0.855300  0.934700  1.0  0.095
  H  H415  1  0.701000  0.631500  0.207500  1.0  0.0911
  H  H416  1  0.613000  0.671500  0.167000  1.0  0.1035
  H  H417  1  0.737400  0.717300  0.091200  1.0  0.0933
  H  H418  1  0.824200  0.676900  0.131500  1.0  0.093
  H  H419  1  0.417900  0.839200  0.122300  1.0  0.0982
  H  H420  1  0.327900  0.907600  0.999300  1.0  0.1016
  H  H421  1  0.272600  0.862600  0.940900  1.0  0.0724
  H  H422  1  0.359500  0.793400  0.064400  1.0  0.0999
  H  H423  1  0.103700  0.687000  0.750400  1.0  0.1037
  H  H424  1  0.181600  0.703200  0.837100  1.0  0.0735
  H  H425  1  0.127400  0.803800  0.801600  1.0  0.0939
  H  H426  1  0.048300  0.787400  0.715100  1.0  0.1062
  H  H427  1  0.449900  0.924700  0.313900  1.0  0.3333
  H  H428  1  0.459100  0.922900  0.257800  1.0  0.3595
  H  H429  1  0.314900  0.235000  0.012800  1.0  0.3278
  H  H430  1  0.358800  0.206400  0.047900  1.0  0.3338
  H  H431  1  0.610600  0.043100  0.131600  1.0  0.3268
  H  H432  1  0.618100  0.073900  0.169700  1.0  0.3576
  H  H433  1  0.232400  0.049000  0.014500  1.0  0.2938
  H  H434  1  0.195900  0.014400  0.008400  1.0  0.3364
  H  H435  1  0.143600  0.445500  0.967700  1.0  0.3351
  H  H436  1  0.125400  0.415100  0.928200  1.0  0.3512
  H  H437  1  0.336500  0.164600  0.337700  1.0  0.3423
  H  H438  1  0.403400  0.154300  0.328300  1.0  0.3403
  H  H439  1  0.279200  0.571600  0.325200  1.0  0.3122
  H  H440  1  0.222400  0.544400  0.312200  1.0  0.3431
  H  H441  1  0.664800  0.401100  0.022100  1.0  0.3205
  H  H442  1  0.712600  0.429400  0.054600  1.0  0.3438
  H  H443  1  0.960000  0.417000  0.956400  1.0  0.3218
  H  H444  1  0.012600  0.429100  0.010700  1.0  0.3437
  H  H445  1  0.362900  0.124900  0.188500  1.0  0.348
  H  H446  1  0.316800  0.107800  0.216600  1.0  0.3295
  H  H447  1  0.917300  0.426500  0.087000  1.0  0.3552
  H  H448  1  0.951200  0.400800  0.132800  1.0  0.3117
  H  H449  1  0.493400  0.242000  0.649100  1.0  0.3222
  H  H450  1  0.513500  0.204400  0.661200  1.0  0.3527
  H  H451  1  0.359900  0.293800  0.017400  1.0  0.0924
  H  H452  1  0.448900  0.333900  0.058800  1.0  0.0992
  H  H453  1  0.567500  0.257200  0.152600  1.0  0.0892
  H  H454  1  0.477200  0.217700  0.113300  1.0  0.0966
  H  H455  1  0.871500  0.392500  0.177100  1.0  0.0895
  H  H456  1  0.845500  0.400500  0.326000  1.0  0.0819
  H  H457  1  0.739100  0.370900  0.290500  1.0  0.0786
  H  H458  1  0.762900  0.365300  0.140100  1.0  0.1016
  H  H459  1  0.185500  0.100000  0.049200  1.0  0.1021
  H  H460  1  0.097700  0.123600  0.077800  1.0  0.0874
  H  H461  1  0.004700  0.029500  0.060700  1.0  0.0802
  H  H462  1  0.089500  0.006800  0.028400  1.0  0.0882
  H  H463  1  0.702600  0.028000  0.093400  1.0  0.1192
  H  H464  1  0.723300  0.111000  0.195300  1.0  0.0887
  H  H465  1  0.827500  0.125700  0.181300  1.0  0.0985
  H  H466  1  0.807300  0.042600  0.080300  1.0  0.1008
  H  H467  1  0.220100  0.438100  0.065300  1.0  0.1139
  H  H468  1  0.291500  0.401800  0.135000  1.0  0.0806
  H  H469  1  0.243200  0.321300  0.027600  1.0  0.0868
  H  H470  1  0.172900  0.357300  0.957900  1.0  0.1104
  H  H471  1  0.269100  0.215000  0.291700  1.0  0.0859
  H  H472  1  0.261500  0.264700  0.237900  1.0  0.0983
  H  H473  1  0.440500  0.236700  0.211200  1.0  0.0868
  H  H474  1  0.448300  0.187500  0.265800  1.0  0.0922
  H  H475  1  0.223800  0.493800  0.253400  1.0  0.1215
  H  H476  1  0.377800  0.566000  0.292100  1.0  0.0955
  H  H477  1  0.436000  0.534400  0.242500  1.0  0.0944
  H  H478  1  0.282000  0.461900  0.205000  1.0  0.1006
  H  H479  1  0.677800  0.466600  0.119800  1.0  0.1126
  H  H480  1  0.553700  0.389100  0.033800  1.0  0.0889
  H  H481  1  0.468200  0.404100  0.071400  1.0  0.1056
  H  H482  1  0.592400  0.481900  0.157700  1.0  0.0838
  H  H483  1  0.081800  0.387300  0.081200  1.0  0.0993
  H  H484  1  0.107000  0.330100  0.108400  1.0  0.0929
  H  H485  1  0.963800  0.298200  0.962800  1.0  0.0944
  H  H486  1  0.940800  0.355300  0.934700  1.0  0.095
  H  H487  1  0.201000  0.131500  0.207500  1.0  0.0911
  H  H488  1  0.113000  0.171500  0.167000  1.0  0.1035
  H  H489  1  0.237400  0.217300  0.091200  1.0  0.0933
  H  H490  1  0.324200  0.176900  0.131500  1.0  0.093
  H  H491  1  0.917900  0.339200  0.122300  1.0  0.0982
  H  H492  1  0.827900  0.407600  0.999300  1.0  0.1016
  H  H493  1  0.772600  0.362600  0.940900  1.0  0.0724
  H  H494  1  0.859500  0.293400  0.064400  1.0  0.0999
  H  H495  1  0.603700  0.187000  0.750400  1.0  0.1037
  H  H496  1  0.681600  0.203200  0.837100  1.0  0.0735
  H  H497  1  0.627400  0.303800  0.801600  1.0  0.0939
  H  H498  1  0.548300  0.287400  0.715100  1.0  0.1062
  H  H499  1  0.949900  0.424700  0.313900  1.0  0.3333
  H  H500  1  0.959100  0.422900  0.257800  1.0  0.3595
  H  H501  1  0.185100  0.735000  0.487200  1.0  0.3311
  H  H502  1  0.141200  0.706400  0.452100  1.0  0.3328
  H  H503  1  0.889400  0.543100  0.368400  1.0  0.3263
  H  H504  1  0.881900  0.573900  0.330300  1.0  0.3581
  H  H505  1  0.267600  0.549000  0.485500  1.0  0.2932
  H  H506  1  0.304100  0.514400  0.491600  1.0  0.3362
  H  H507  1  0.356400  0.945500  0.532300  1.0  0.3343
  H  H508  1  0.374600  0.915100  0.571800  1.0  0.353
  H  H509  1  0.163500  0.664600  0.162300  1.0  0.3441
  H  H510  1  0.096600  0.654300  0.171700  1.0  0.3408
  H  H511  1  0.220800  0.071600  0.174800  1.0  0.3109
  H  H512  1  0.277600  0.044400  0.187800  1.0  0.3453
  H  H513  1  0.835200  0.901100  0.477900  1.0  0.3214
  H  H514  1  0.787400  0.929400  0.445400  1.0  0.3421
  H  H515  1  0.540000  0.917000  0.543600  1.0  0.3236
  H  H516  1  0.487400  0.929100  0.489300  1.0  0.3435
  H  H517  1  0.137100  0.624900  0.311500  1.0  0.3473
  H  H518  1  0.183200  0.607800  0.283400  1.0  0.3274
  H  H519  1  0.582700  0.926500  0.413000  1.0  0.3558
  H  H520  1  0.548800  0.900800  0.367200  1.0  0.3094
  H  H521  1  0.006600  0.742000  0.850900  1.0  0.321
  H  H522  1  0.986500  0.704400  0.838800  1.0  0.3523
  H  H523  1  0.140100  0.793800  0.482600  1.0  0.0919
  H  H524  1  0.051100  0.833900  0.441200  1.0  0.0986
  H  H525  1  0.932500  0.757200  0.347400  1.0  0.0889
  H  H526  1  0.022800  0.717700  0.386700  1.0  0.0967
  H  H527  1  0.628500  0.892500  0.322900  1.0  0.0891
  H  H528  1  0.654500  0.900500  0.174000  1.0  0.082
  H  H529  1  0.760900  0.870900  0.209500  1.0  0.0783
  H  H530  1  0.737100  0.865300  0.359900  1.0  0.1017
  H  H531  1  0.314500  0.600000  0.450800  1.0  0.102
  H  H532  1  0.402300  0.623600  0.422200  1.0  0.0872
  H  H533  1  0.495300  0.529500  0.439300  1.0  0.0805
  H  H534  1  0.410500  0.506800  0.471600  1.0  0.088
  H  H535  1  0.797400  0.528000  0.406600  1.0  0.1195
  H  H536  1  0.776700  0.611000  0.304700  1.0  0.0892
  H  H537  1  0.672500  0.625700  0.318700  1.0  0.099
  H  H538  1  0.692700  0.542600  0.419700  1.0  0.1003
  H  H539  1  0.279900  0.938100  0.434700  1.0  0.114
  H  H540  1  0.208500  0.901800  0.365000  1.0  0.0812
  H  H541  1  0.256800  0.821300  0.472400  1.0  0.0862
  H  H542  1  0.327100  0.857300  0.542100  1.0  0.1102
  H  H543  1  0.230900  0.715000  0.208300  1.0  0.0858
  H  H544  1  0.238500  0.764700  0.262100  1.0  0.0984
  H  H545  1  0.059500  0.736700  0.288800  1.0  0.0869
  H  H546  1  0.051700  0.687500  0.234200  1.0  0.0915
  H  H547  1  0.276200  0.993800  0.246600  1.0  0.1211
  H  H548  1  0.122200  0.066000  0.207900  1.0  0.0956
  H  H549  1  0.064000  0.034400  0.257500  1.0  0.0941
  H  H550  1  0.218000  0.961900  0.295000  1.0  0.1008
  H  H551  1  0.822200  0.966600  0.380200  1.0  0.1122
  H  H552  1  0.946300  0.889100  0.466200  1.0  0.0893
  H  H553  1  0.031800  0.904100  0.428600  1.0  0.1057
  H  H554  1  0.907600  0.981900  0.342300  1.0  0.0837
  H  H555  1  0.418200  0.887300  0.418800  1.0  0.0994
  H  H556  1  0.393000  0.830100  0.391600  1.0  0.0926
  H  H557  1  0.536200  0.798200  0.537200  1.0  0.0945
  H  H558  1  0.559200  0.855300  0.565300  1.0  0.095
  H  H559  1  0.299000  0.631500  0.292500  1.0  0.0902
  H  H560  1  0.387000  0.671500  0.333000  1.0  0.1029
  H  H561  1  0.262600  0.717300  0.408800  1.0  0.0935
  H  H562  1  0.175800  0.676900  0.368500  1.0  0.0932
  H  H563  1  0.582100  0.839200  0.377700  1.0  0.0982
  H  H564  1  0.672100  0.907600  0.500700  1.0  0.1012
  H  H565  1  0.727400  0.862600  0.559100  1.0  0.0726
  H  H566  1  0.640500  0.793400  0.435600  1.0  0.0999
  H  H567  1  0.896300  0.687000  0.749600  1.0  0.1036
  H  H568  1  0.818400  0.703200  0.662900  1.0  0.0733
  H  H569  1  0.872600  0.803800  0.698400  1.0  0.0942
  H  H570  1  0.951700  0.787400  0.784900  1.0  0.106
  H  H571  1  0.550100  0.924700  0.186100  1.0  0.3335
  H  H572  1  0.540900  0.922900  0.242200  1.0  0.3578
  H  H573  1  0.685100  0.235000  0.487200  1.0  0.3311
  H  H574  1  0.641200  0.206400  0.452100  1.0  0.3328
  H  H575  1  0.389400  0.043100  0.368400  1.0  0.3263
  H  H576  1  0.381900  0.073900  0.330300  1.0  0.3581
  H  H577  1  0.767600  0.049000  0.485500  1.0  0.2932
  H  H578  1  0.804100  0.014400  0.491600  1.0  0.3362
  H  H579  1  0.856400  0.445500  0.532300  1.0  0.3343
  H  H580  1  0.874600  0.415100  0.571800  1.0  0.353
  H  H581  1  0.663500  0.164600  0.162300  1.0  0.3441
  H  H582  1  0.596600  0.154300  0.171700  1.0  0.3408
  H  H583  1  0.720800  0.571600  0.174800  1.0  0.3109
  H  H584  1  0.777600  0.544400  0.187800  1.0  0.3453
  H  H585  1  0.335200  0.401100  0.477900  1.0  0.3214
  H  H586  1  0.287400  0.429400  0.445400  1.0  0.3421
  H  H587  1  0.040000  0.417000  0.543600  1.0  0.3236
  H  H588  1  0.987400  0.429100  0.489300  1.0  0.3435
  H  H589  1  0.637100  0.124900  0.311500  1.0  0.3473
  H  H590  1  0.683200  0.107800  0.283400  1.0  0.3274
  H  H591  1  0.082700  0.426500  0.413000  1.0  0.3558
  H  H592  1  0.048800  0.400800  0.367200  1.0  0.3094
  H  H593  1  0.506600  0.242000  0.850900  1.0  0.321
  H  H594  1  0.486500  0.204400  0.838800  1.0  0.3523
  H  H595  1  0.640100  0.293800  0.482600  1.0  0.0919
  H  H596  1  0.551100  0.333900  0.441200  1.0  0.0986
  H  H597  1  0.432500  0.257200  0.347400  1.0  0.0889
  H  H598  1  0.522800  0.217700  0.386700  1.0  0.0967
  H  H599  1  0.128500  0.392500  0.322900  1.0  0.0891
  H  H600  1  0.154500  0.400500  0.174000  1.0  0.082
  H  H601  1  0.260900  0.370900  0.209500  1.0  0.0783
  H  H602  1  0.237100  0.365300  0.359900  1.0  0.1017
  H  H603  1  0.814500  0.100000  0.450800  1.0  0.102
  H  H604  1  0.902300  0.123600  0.422200  1.0  0.0872
  H  H605  1  0.995300  0.029500  0.439300  1.0  0.0805
  H  H606  1  0.910500  0.006800  0.471600  1.0  0.088
  H  H607  1  0.297400  0.028000  0.406600  1.0  0.1195
  H  H608  1  0.276700  0.111000  0.304700  1.0  0.0892
  H  H609  1  0.172500  0.125700  0.318700  1.0  0.099
  H  H610  1  0.192700  0.042600  0.419700  1.0  0.1003
  H  H611  1  0.779900  0.438100  0.434700  1.0  0.114
  H  H612  1  0.708500  0.401800  0.365000  1.0  0.0812
  H  H613  1  0.756800  0.321300  0.472400  1.0  0.0862
  H  H614  1  0.827100  0.357300  0.542100  1.0  0.1102
  H  H615  1  0.730900  0.215000  0.208300  1.0  0.0858
  H  H616  1  0.738500  0.264700  0.262100  1.0  0.0984
  H  H617  1  0.559500  0.236700  0.288800  1.0  0.0869
  H  H618  1  0.551700  0.187500  0.234200  1.0  0.0915
  H  H619  1  0.776200  0.493800  0.246600  1.0  0.1211
  H  H620  1  0.622200  0.566000  0.207900  1.0  0.0956
  H  H621  1  0.564000  0.534400  0.257500  1.0  0.0941
  H  H622  1  0.718000  0.461900  0.295000  1.0  0.1008
  H  H623  1  0.322200  0.466600  0.380200  1.0  0.1122
  H  H624  1  0.446300  0.389100  0.466200  1.0  0.0893
  H  H625  1  0.531800  0.404100  0.428600  1.0  0.1057
  H  H626  1  0.407600  0.481900  0.342300  1.0  0.0837
  H  H627  1  0.918200  0.387300  0.418800  1.0  0.0994
  H  H628  1  0.893000  0.330100  0.391600  1.0  0.0926
  H  H629  1  0.036200  0.298200  0.537200  1.0  0.0945
  H  H630  1  0.059200  0.355300  0.565300  1.0  0.095
  H  H631  1  0.799000  0.131500  0.292500  1.0  0.0902
  H  H632  1  0.887000  0.171500  0.333000  1.0  0.1029
  H  H633  1  0.762600  0.217300  0.408800  1.0  0.0935
  H  H634  1  0.675800  0.176900  0.368500  1.0  0.0932
  H  H635  1  0.082100  0.339200  0.377700  1.0  0.0982
  H  H636  1  0.172100  0.407600  0.500700  1.0  0.1012
  H  H637  1  0.227400  0.362600  0.559100  1.0  0.0726
  H  H638  1  0.140500  0.293400  0.435600  1.0  0.0999
  H  H639  1  0.396300  0.187000  0.749600  1.0  0.1036
  H  H640  1  0.318400  0.203200  0.662900  1.0  0.0733
  H  H641  1  0.372600  0.303800  0.698400  1.0  0.0942
  H  H642  1  0.451700  0.287400  0.784900  1.0  0.106
  H  H643  1  0.050100  0.424700  0.186100  1.0  0.3335
  H  H644  1  0.040900  0.422900  0.242200  1.0  0.3578
  C  C645  1  0.091200  0.248200  0.938700  1.0  0.2181
  C  C646  1  0.098600  0.213630  0.954700  1.0  -0.1642
  C  C647  1  0.045100  0.189460  0.930000  1.0  -0.0908
  C  C648  1  0.982900  0.200140  0.888690  1.0  -0.0523
  C  C649  1  0.974800  0.235070  0.873900  1.0  -0.0988
  C  C650  1  0.028600  0.258860  0.898000  1.0  -0.1842
  C  C651  1  0.930000  0.174160  0.856170  1.0  0.3169
  C  C652  1  0.656300  0.111100  0.800400  1.0  -0.1765
  C  C653  1  0.632200  0.099400  0.743400  1.0  0.2035
  C  C654  1  0.670700  0.106500  0.711600  1.0  -0.1533
  C  C655  1  0.734900  0.124120  0.733000  1.0  -0.1428
  C  C656  1  0.760700  0.134340  0.788990  1.0  -0.005
  C  C657  1  0.720700  0.127820  0.822200  1.0  -0.0109
  C  C658  1  0.833600  0.147290  0.811670  1.0  0.2656
  C  C659  1  0.352600  0.449800  0.964000  1.0  0.254
  C  C660  1  0.351200  0.414300  0.948700  1.0  -0.1723
  C  C661  1  0.403200  0.400240  0.930700  1.0  -0.0758
  C  C662  1  0.456800  0.421140  0.925100  1.0  -0.1028
  C  C663  1  0.458800  0.456090  0.941400  1.0  -0.105
  C  C664  1  0.407600  0.469740  0.960600  1.0  -0.2048
  C  C665  1  0.513200  0.406850  0.906280  1.0  0.2952
  C  C666  1  0.772700  0.452060  0.889300  1.0  -0.1977
  C  C667  1  0.799300  0.431210  0.856200  1.0  0.207
  C  C668  1  0.760400  0.402510  0.828600  1.0  -0.219
  C  C669  1  0.697600  0.393970  0.836600  1.0  -0.066
  C  C670  1  0.671100  0.414000  0.870700  1.0  -0.0389
  C  C671  1  0.709700  0.443390  0.896800  1.0  -0.0693
  C  C672  1  0.606900  0.404190  0.882840  1.0  0.3224
  C  C673  1  0.311000  0.098370  0.995600  1.0  0.2129
  C  C674  1  0.275400  0.085500  0.942500  1.0  -0.1856
  C  C675  1  0.232800  0.107390  0.900600  1.0  -0.1108
  C  C676  1  0.225800  0.142470  0.910700  1.0  -0.0779
  C  C677  1  0.261400  0.155120  0.964400  1.0  -0.134
  C  C678  1  0.303500  0.133570  0.006400  1.0  -0.2115
  C  C679  1  0.182100  0.166370  0.866080  1.0  0.3109
  C  C680  1  0.195500  0.280340  0.723400  1.0  -0.1879
  C  C681  1  0.200400  0.250600  0.756100  1.0  -0.0855
  C  C682  1  0.148700  0.243520  0.779970  1.0  -0.0492
  C  C683  1  0.093500  0.267310  0.771910  1.0  -0.1441
  C  C684  1  0.088800  0.296740  0.739000  1.0  -0.1926
  C  C685  1  0.138600  0.303230  0.712900  1.0  0.2237
  C  C686  1  0.149500  0.210780  0.810760  1.0  0.3149
  C  C687  1  0.232900  0.998290  0.747900  1.0  -0.2109
  C  C688  1  0.203700  0.967170  0.720300  1.0  0.2069
  C  C689  1  0.141300  0.955100  0.724900  1.0  -0.171
  C  C690  1  0.106100  0.974110  0.754500  1.0  -0.0871
  C  C691  1  0.133800  0.005930  0.779770  1.0  -0.0709
  C  C692  1  0.198000  0.017330  0.777000  1.0  -0.1286
  C  C693  1  0.093400  0.028800  0.805070  1.0  0.2931
  C  C694  1  0.864400  0.045980  0.890200  1.0  -0.1871
  C  C695  1  0.875400  0.073690  0.928300  1.0  0.2755
  C  C696  1  0.938300  0.092010  0.941300  1.0  -0.1702
  C  C697  1  0.989500  0.083250  0.918470  1.0  -0.1439
  C  C698  1  0.978400  0.055350  0.880130  1.0  -0.0493
  C  C699  1  0.915700  0.037010  0.867200  1.0  -0.1058
  C  C700  1  0.028100  0.049880  0.849810  1.0  0.2931
  C  C701  1  0.492600  0.122170  0.995000  1.0  0.2265
  C  C702  1  0.442100  0.130600  0.942900  1.0  -0.1863
  C  C703  1  0.427100  0.164990  0.926500  1.0  -0.0937
  C  C704  1  0.462300  0.192650  0.961150  1.0  0.0126
  C  C705  1  0.512000  0.183950  0.013200  1.0  -0.089
  C  C706  1  0.526300  0.149630  0.029900  1.0  -0.1793
  C  C707  1  0.447500  0.229250  0.943430  1.0  0.2898
  C  C708  1  0.228200  0.350860  0.827600  1.0  0.2717
  C  C709  1  0.292000  0.351420  0.816600  1.0  -0.18
  C  C710  1  0.344700  0.327340  0.840600  1.0  -0.1058
  C  C711  1  0.335600  0.301090  0.876140  1.0  -0.0091
  C  C712  1  0.270600  0.300130  0.885700  1.0  -0.094
  C  C713  1  0.218600  0.324490  0.861600  1.0  -0.1898
  C  C714  1  0.392400  0.276170  0.904840  1.0  0.31
  C  C715  1  0.610400  0.156210  0.914800  1.0  -0.1854
  C  C716  1  0.617000  0.122120  0.934700  1.0  0.2279
  C  C717  1  0.663500  0.115420  0.988100  1.0  -0.1896
  C  C718  1  0.697400  0.142410  0.022700  1.0  -0.0781
  C  C719  1  0.687800  0.177310  0.004670  1.0  -0.0488
  C  C720  1  0.645600  0.183800  0.949600  1.0  -0.1119
  C  C721  1  0.717100  0.205730  0.044890  1.0  0.3177
  C  C722  1  0.932300  0.264400  0.276100  1.0  0.2068
  C  C723  1  0.891800  0.289400  0.239200  1.0  -0.165
  C  C724  1  0.844900  0.279640  0.187300  1.0  -0.0971
  C  C725  1  0.836500  0.244600  0.170650  1.0  -0.0115
  C  C726  1  0.877300  0.219820  0.208400  1.0  -0.0664
  C  C727  1  0.924800  0.229600  0.260400  1.0  -0.2249
  C  C728  1  0.781800  0.234170  0.117710  1.0  0.3056
  C  C729  1  0.591200  0.748200  0.938700  1.0  0.2181
  C  C730  1  0.598600  0.713630  0.954700  1.0  -0.1642
  C  C731  1  0.545100  0.689460  0.930000  1.0  -0.0908
  C  C732  1  0.482900  0.700140  0.888690  1.0  -0.0523
  C  C733  1  0.474800  0.735070  0.873900  1.0  -0.0988
  C  C734  1  0.528600  0.758860  0.898000  1.0  -0.1842
  C  C735  1  0.430000  0.674160  0.856170  1.0  0.3169
  C  C736  1  0.156300  0.611100  0.800400  1.0  -0.1765
  C  C737  1  0.132200  0.599400  0.743400  1.0  0.2035
  C  C738  1  0.170700  0.606500  0.711600  1.0  -0.1533
  C  C739  1  0.234900  0.624120  0.733000  1.0  -0.1428
  C  C740  1  0.260700  0.634340  0.788990  1.0  -0.005
  C  C741  1  0.220700  0.627820  0.822200  1.0  -0.0109
  C  C742  1  0.333600  0.647290  0.811670  1.0  0.2656
  C  C743  1  0.852600  0.949800  0.964000  1.0  0.254
  C  C744  1  0.851200  0.914300  0.948700  1.0  -0.1723
  C  C745  1  0.903200  0.900240  0.930700  1.0  -0.0758
  C  C746  1  0.956800  0.921140  0.925100  1.0  -0.1028
  C  C747  1  0.958800  0.956090  0.941400  1.0  -0.105
  C  C748  1  0.907600  0.969740  0.960600  1.0  -0.2048
  C  C749  1  0.013200  0.906850  0.906280  1.0  0.2952
  C  C750  1  0.272700  0.952060  0.889300  1.0  -0.1977
  C  C751  1  0.299300  0.931210  0.856200  1.0  0.207
  C  C752  1  0.260400  0.902510  0.828600  1.0  -0.219
  C  C753  1  0.197600  0.893970  0.836600  1.0  -0.066
  C  C754  1  0.171100  0.914000  0.870700  1.0  -0.0389
  C  C755  1  0.209700  0.943390  0.896800  1.0  -0.0693
  C  C756  1  0.106900  0.904190  0.882840  1.0  0.3224
  C  C757  1  0.811000  0.598370  0.995600  1.0  0.2129
  C  C758  1  0.775400  0.585500  0.942500  1.0  -0.1856
  C  C759  1  0.732800  0.607390  0.900600  1.0  -0.1108
  C  C760  1  0.725800  0.642470  0.910700  1.0  -0.0779
  C  C761  1  0.761400  0.655120  0.964400  1.0  -0.134
  C  C762  1  0.803500  0.633570  0.006400  1.0  -0.2115
  C  C763  1  0.682100  0.666370  0.866080  1.0  0.3109
  C  C764  1  0.695500  0.780340  0.723400  1.0  -0.1879
  C  C765  1  0.700400  0.750600  0.756100  1.0  -0.0855
  C  C766  1  0.648700  0.743520  0.779970  1.0  -0.0492
  C  C767  1  0.593500  0.767310  0.771910  1.0  -0.1441
  C  C768  1  0.588800  0.796740  0.739000  1.0  -0.1926
  C  C769  1  0.638600  0.803230  0.712900  1.0  0.2237
  C  C770  1  0.649500  0.710780  0.810760  1.0  0.3149
  C  C771  1  0.732900  0.498290  0.747900  1.0  -0.2109
  C  C772  1  0.703700  0.467170  0.720300  1.0  0.2069
  C  C773  1  0.641300  0.455100  0.724900  1.0  -0.171
  C  C774  1  0.606100  0.474110  0.754500  1.0  -0.0871
  C  C775  1  0.633800  0.505930  0.779770  1.0  -0.0709
  C  C776  1  0.698000  0.517330  0.777000  1.0  -0.1286
  C  C777  1  0.593400  0.528800  0.805070  1.0  0.2931
  C  C778  1  0.364400  0.545980  0.890200  1.0  -0.1871
  C  C779  1  0.375400  0.573690  0.928300  1.0  0.2755
  C  C780  1  0.438300  0.592010  0.941300  1.0  -0.1702
  C  C781  1  0.489500  0.583250  0.918470  1.0  -0.1439
  C  C782  1  0.478400  0.555350  0.880130  1.0  -0.0493
  C  C783  1  0.415700  0.537010  0.867200  1.0  -0.1058
  C  C784  1  0.528100  0.549880  0.849810  1.0  0.2931
  C  C785  1  0.992600  0.622170  0.995000  1.0  0.2265
  C  C786  1  0.942100  0.630600  0.942900  1.0  -0.1863
  C  C787  1  0.927100  0.664990  0.926500  1.0  -0.0937
  C  C788  1  0.962300  0.692650  0.961150  1.0  0.0126
  C  C789  1  0.012000  0.683950  0.013200  1.0  -0.089
  C  C790  1  0.026300  0.649630  0.029900  1.0  -0.1793
  C  C791  1  0.947500  0.729250  0.943430  1.0  0.2898
  C  C792  1  0.728200  0.850860  0.827600  1.0  0.2717
  C  C793  1  0.792000  0.851420  0.816600  1.0  -0.18
  C  C794  1  0.844700  0.827340  0.840600  1.0  -0.1058
  C  C795  1  0.835600  0.801090  0.876140  1.0  -0.0091
  C  C796  1  0.770600  0.800130  0.885700  1.0  -0.094
  C  C797  1  0.718600  0.824490  0.861600  1.0  -0.1898
  C  C798  1  0.892400  0.776170  0.904840  1.0  0.31
  C  C799  1  0.110400  0.656210  0.914800  1.0  -0.1854
  C  C800  1  0.117000  0.622120  0.934700  1.0  0.2279
  C  C801  1  0.163500  0.615420  0.988100  1.0  -0.1896
  C  C802  1  0.197400  0.642410  0.022700  1.0  -0.0781
  C  C803  1  0.187800  0.677310  0.004670  1.0  -0.0488
  C  C804  1  0.145600  0.683800  0.949600  1.0  -0.1119
  C  C805  1  0.217100  0.705730  0.044890  1.0  0.3177
  C  C806  1  0.432300  0.764400  0.276100  1.0  0.2068
  C  C807  1  0.391800  0.789400  0.239200  1.0  -0.165
  C  C808  1  0.344900  0.779640  0.187300  1.0  -0.0971
  C  C809  1  0.336500  0.744600  0.170650  1.0  -0.0115
  C  C810  1  0.377300  0.719820  0.208400  1.0  -0.0664
  C  C811  1  0.424800  0.729600  0.260400  1.0  -0.2249
  C  C812  1  0.281800  0.734170  0.117710  1.0  0.3056
  C  C813  1  0.908800  0.248200  0.561300  1.0  0.2193
  C  C814  1  0.901400  0.213630  0.545300  1.0  -0.1642
  C  C815  1  0.954900  0.189460  0.570000  1.0  -0.0915
  C  C816  1  0.017100  0.200140  0.611310  1.0  -0.0516
  C  C817  1  0.025200  0.235070  0.626100  1.0  -0.0991
  C  C818  1  0.971400  0.258860  0.602000  1.0  -0.1837
  C  C819  1  0.070000  0.174160  0.643830  1.0  0.3172
  C  C820  1  0.343700  0.111100  0.699600  1.0  -0.1757
  C  C821  1  0.367800  0.099400  0.756600  1.0  0.2029
  C  C822  1  0.329300  0.106500  0.788400  1.0  -0.1498
  C  C823  1  0.265100  0.124120  0.767000  1.0  -0.1429
  C  C824  1  0.239300  0.134340  0.711010  1.0  -0.0042
  C  C825  1  0.279300  0.127820  0.677800  1.0  -0.0124
  C  C826  1  0.166400  0.147290  0.688330  1.0  0.2657
  C  C827  1  0.647400  0.449800  0.536000  1.0  0.2535
  C  C828  1  0.648800  0.414300  0.551300  1.0  -0.1731
  C  C829  1  0.596800  0.400240  0.569300  1.0  -0.0759
  C  C830  1  0.543200  0.421140  0.574900  1.0  -0.1024
  C  C831  1  0.541200  0.456090  0.558600  1.0  -0.1043
  C  C832  1  0.592400  0.469740  0.539400  1.0  -0.2045
  C  C833  1  0.486800  0.406850  0.593720  1.0  0.2955
  C  C834  1  0.227300  0.452060  0.610700  1.0  -0.1982
  C  C835  1  0.200700  0.431210  0.643800  1.0  0.2093
  C  C836  1  0.239600  0.402510  0.671400  1.0  -0.2183
  C  C837  1  0.302400  0.393970  0.663400  1.0  -0.0682
  C  C838  1  0.328900  0.414000  0.629300  1.0  -0.0376
  C  C839  1  0.290300  0.443390  0.603200  1.0  -0.0697
  C  C840  1  0.393100  0.404190  0.617160  1.0  0.3237
  C  C841  1  0.689000  0.098370  0.504400  1.0  0.2135
  C  C842  1  0.724600  0.085500  0.557500  1.0  -0.1852
  C  C843  1  0.767200  0.107390  0.599400  1.0  -0.1117
  C  C844  1  0.774200  0.142470  0.589300  1.0  -0.0775
  C  C845  1  0.738600  0.155120  0.535600  1.0  -0.1336
  C  C846  1  0.696500  0.133570  0.493600  1.0  -0.2107
  C  C847  1  0.817900  0.166370  0.633920  1.0  0.311
  C  C848  1  0.804500  0.280340  0.776600  1.0  -0.1902
  C  C849  1  0.799600  0.250600  0.743900  1.0  -0.0836
  C  C850  1  0.851300  0.243520  0.720030  1.0  -0.0492
  C  C851  1  0.906500  0.267310  0.728090  1.0  -0.1464
  C  C852  1  0.911200  0.296740  0.761000  1.0  -0.1927
  C  C853  1  0.861400  0.303230  0.787100  1.0  0.224
  C  C854  1  0.850500  0.210780  0.689240  1.0  0.3142
  C  C855  1  0.767100  0.998290  0.752100  1.0  -0.2125
  C  C856  1  0.796300  0.967170  0.779700  1.0  0.206
  C  C857  1  0.858700  0.955100  0.775100  1.0  -0.1701
  C  C858  1  0.893900  0.974110  0.745500  1.0  -0.0885
  C  C859  1  0.866200  0.005930  0.720230  1.0  -0.0715
  C  C860  1  0.802000  0.017330  0.723000  1.0  -0.1248
  C  C861  1  0.906600  0.028800  0.694930  1.0  0.2922
  C  C862  1  0.135600  0.045980  0.609800  1.0  -0.1878
  C  C863  1  0.124600  0.073690  0.571700  1.0  0.2762
  C  C864  1  0.061700  0.092010  0.558700  1.0  -0.1699
  C  C865  1  0.010500  0.083250  0.581530  1.0  -0.1431
  C  C866  1  0.021600  0.055350  0.619870  1.0  -0.05
  C  C867  1  0.084300  0.037010  0.632800  1.0  -0.1065
  C  C868  1  0.971900  0.049880  0.650190  1.0  0.2924
  C  C869  1  0.507400  0.122170  0.505000  1.0  0.2262
  C  C870  1  0.557900  0.130600  0.557100  1.0  -0.1881
  C  C871  1  0.572900  0.164990  0.573500  1.0  -0.0959
  C  C872  1  0.537700  0.192650  0.538850  1.0  0.0121
  C  C873  1  0.488000  0.183950  0.486800  1.0  -0.0875
  C  C874  1  0.473700  0.149630  0.470100  1.0  -0.1794
  C  C875  1  0.552500  0.229250  0.556570  1.0  0.2905
  C  C876  1  0.771800  0.350860  0.672400  1.0  0.2715
  C  C877  1  0.708000  0.351420  0.683400  1.0  -0.1807
  C  C878  1  0.655300  0.327340  0.659400  1.0  -0.1052
  C  C879  1  0.664400  0.301090  0.623860  1.0  -0.01
  C  C880  1  0.729400  0.300130  0.614300  1.0  -0.0942
  C  C881  1  0.781400  0.324490  0.638400  1.0  -0.1894
  C  C882  1  0.607600  0.276170  0.595160  1.0  0.3093
  C  C883  1  0.389600  0.156210  0.585200  1.0  -0.1865
  C  C884  1  0.383000  0.122120  0.565300  1.0  0.2279
  C  C885  1  0.336500  0.115420  0.511900  1.0  -0.19
  C  C886  1  0.302600  0.142410  0.477300  1.0  -0.0762
  C  C887  1  0.312200  0.177310  0.495330  1.0  -0.0504
  C  C888  1  0.354400  0.183800  0.550400  1.0  -0.112
  C  C889  1  0.282900  0.205730  0.455110  1.0  0.3178
  C  C890  1  0.067700  0.264400  0.223900  1.0  0.2079
  C  C891  1  0.108200  0.289400  0.260800  1.0  -0.1643
  C  C892  1  0.155100  0.279640  0.312700  1.0  -0.0991
  C  C893  1  0.163500  0.244600  0.329350  1.0  -0.0137
  C  C894  1  0.122700  0.219820  0.291600  1.0  -0.0658
  C  C895  1  0.075200  0.229600  0.239600  1.0  -0.2247
  C  C896  1  0.218200  0.234170  0.382290  1.0  0.3054
  C  C897  1  0.408800  0.748200  0.561300  1.0  0.2193
  C  C898  1  0.401400  0.713630  0.545300  1.0  -0.1642
  C  C899  1  0.454900  0.689460  0.570000  1.0  -0.0915
  C  C900  1  0.517100  0.700140  0.611310  1.0  -0.0516
  C  C901  1  0.525200  0.735070  0.626100  1.0  -0.0991
  C  C902  1  0.471400  0.758860  0.602000  1.0  -0.1837
  C  C903  1  0.570000  0.674160  0.643830  1.0  0.3172
  C  C904  1  0.843700  0.611100  0.699600  1.0  -0.1757
  C  C905  1  0.867800  0.599400  0.756600  1.0  0.2029
  C  C906  1  0.829300  0.606500  0.788400  1.0  -0.1498
  C  C907  1  0.765100  0.624120  0.767000  1.0  -0.1429
  C  C908  1  0.739300  0.634340  0.711010  1.0  -0.0042
  C  C909  1  0.779300  0.627820  0.677800  1.0  -0.0124
  C  C910  1  0.666400  0.647290  0.688330  1.0  0.2657
  C  C911  1  0.147400  0.949800  0.536000  1.0  0.2535
  C  C912  1  0.148800  0.914300  0.551300  1.0  -0.1731
  C  C913  1  0.096800  0.900240  0.569300  1.0  -0.0759
  C  C914  1  0.043200  0.921140  0.574900  1.0  -0.1024
  C  C915  1  0.041200  0.956090  0.558600  1.0  -0.1043
  C  C916  1  0.092400  0.969740  0.539400  1.0  -0.2045
  C  C917  1  0.986800  0.906850  0.593720  1.0  0.2955
  C  C918  1  0.727300  0.952060  0.610700  1.0  -0.1982
  C  C919  1  0.700700  0.931210  0.643800  1.0  0.2093
  C  C920  1  0.739600  0.902510  0.671400  1.0  -0.2183
  C  C921  1  0.802400  0.893970  0.663400  1.0  -0.0682
  C  C922  1  0.828900  0.914000  0.629300  1.0  -0.0376
  C  C923  1  0.790300  0.943390  0.603200  1.0  -0.0697
  C  C924  1  0.893100  0.904190  0.617160  1.0  0.3237
  C  C925  1  0.189000  0.598370  0.504400  1.0  0.2135
  C  C926  1  0.224600  0.585500  0.557500  1.0  -0.1852
  C  C927  1  0.267200  0.607390  0.599400  1.0  -0.1117
  C  C928  1  0.274200  0.642470  0.589300  1.0  -0.0775
  C  C929  1  0.238600  0.655120  0.535600  1.0  -0.1336
  C  C930  1  0.196500  0.633570  0.493600  1.0  -0.2107
  C  C931  1  0.317900  0.666370  0.633920  1.0  0.311
  C  C932  1  0.304500  0.780340  0.776600  1.0  -0.1902
  C  C933  1  0.299600  0.750600  0.743900  1.0  -0.0836
  C  C934  1  0.351300  0.743520  0.720030  1.0  -0.0492
  C  C935  1  0.406500  0.767310  0.728090  1.0  -0.1464
  C  C936  1  0.411200  0.796740  0.761000  1.0  -0.1927
  C  C937  1  0.361400  0.803230  0.787100  1.0  0.224
  C  C938  1  0.350500  0.710780  0.689240  1.0  0.3142
  C  C939  1  0.267100  0.498290  0.752100  1.0  -0.2125
  C  C940  1  0.296300  0.467170  0.779700  1.0  0.206
  C  C941  1  0.358700  0.455100  0.775100  1.0  -0.1701
  C  C942  1  0.393900  0.474110  0.745500  1.0  -0.0885
  C  C943  1  0.366200  0.505930  0.720230  1.0  -0.0715
  C  C944  1  0.302000  0.517330  0.723000  1.0  -0.1248
  C  C945  1  0.406600  0.528800  0.694930  1.0  0.2922
  C  C946  1  0.635600  0.545980  0.609800  1.0  -0.1878
  C  C947  1  0.624600  0.573690  0.571700  1.0  0.2762
  C  C948  1  0.561700  0.592010  0.558700  1.0  -0.1699
  C  C949  1  0.510500  0.583250  0.581530  1.0  -0.1431
  C  C950  1  0.521600  0.555350  0.619870  1.0  -0.05
  C  C951  1  0.584300  0.537010  0.632800  1.0  -0.1065
  C  C952  1  0.471900  0.549880  0.650190  1.0  0.2924
  C  C953  1  0.007400  0.622170  0.505000  1.0  0.2262
  C  C954  1  0.057900  0.630600  0.557100  1.0  -0.1881
  C  C955  1  0.072900  0.664990  0.573500  1.0  -0.0959
  C  C956  1  0.037700  0.692650  0.538850  1.0  0.0121
  C  C957  1  0.988000  0.683950  0.486800  1.0  -0.0875
  C  C958  1  0.973700  0.649630  0.470100  1.0  -0.1794
  C  C959  1  0.052500  0.729250  0.556570  1.0  0.2905
  C  C960  1  0.271800  0.850860  0.672400  1.0  0.2715
  C  C961  1  0.208000  0.851420  0.683400  1.0  -0.1807
  C  C962  1  0.155300  0.827340  0.659400  1.0  -0.1052
  C  C963  1  0.164400  0.801090  0.623860  1.0  -0.01
  C  C964  1  0.229400  0.800130  0.614300  1.0  -0.0942
  C  C965  1  0.281400  0.824490  0.638400  1.0  -0.1894
  C  C966  1  0.107600  0.776170  0.595160  1.0  0.3093
  C  C967  1  0.889600  0.656210  0.585200  1.0  -0.1865
  C  C968  1  0.883000  0.622120  0.565300  1.0  0.2279
  C  C969  1  0.836500  0.615420  0.511900  1.0  -0.19
  C  C970  1  0.802600  0.642410  0.477300  1.0  -0.0762
  C  C971  1  0.812200  0.677310  0.495330  1.0  -0.0504
  C  C972  1  0.854400  0.683800  0.550400  1.0  -0.112
  C  C973  1  0.782900  0.705730  0.455110  1.0  0.3178
  C  C974  1  0.567700  0.764400  0.223900  1.0  0.2079
  C  C975  1  0.608200  0.789400  0.260800  1.0  -0.1643
  C  C976  1  0.655100  0.779640  0.312700  1.0  -0.0991
  C  C977  1  0.663500  0.744600  0.329350  1.0  -0.0137
  C  C978  1  0.622700  0.719820  0.291600  1.0  -0.0658
  C  C979  1  0.575200  0.729600  0.239600  1.0  -0.2247
  C  C980  1  0.718200  0.734170  0.382290  1.0  0.3054
  C  C981  1  0.908800  0.751800  0.061300  1.0  0.2194
  C  C982  1  0.901400  0.786370  0.045300  1.0  -0.1641
  C  C983  1  0.954900  0.810540  0.070000  1.0  -0.0908
  C  C984  1  0.017100  0.799860  0.111310  1.0  -0.0516
  C  C985  1  0.025200  0.764930  0.126100  1.0  -0.0988
  C  C986  1  0.971400  0.741140  0.102000  1.0  -0.1831
  C  C987  1  0.070000  0.825840  0.143830  1.0  0.317
  C  C988  1  0.343700  0.888900  0.199600  1.0  -0.1757
  C  C989  1  0.367800  0.900600  0.256600  1.0  0.2022
  C  C990  1  0.329300  0.893500  0.288400  1.0  -0.1503
  C  C991  1  0.265100  0.875880  0.267000  1.0  -0.1425
  C  C992  1  0.239300  0.865660  0.211010  1.0  -0.0043
  C  C993  1  0.279300  0.872180  0.177800  1.0  -0.0128
  C  C994  1  0.166400  0.852710  0.188330  1.0  0.2656
  C  C995  1  0.647400  0.550200  0.036000  1.0  0.2523
  C  C996  1  0.648800  0.585700  0.051300  1.0  -0.1731
  C  C997  1  0.596800  0.599760  0.069300  1.0  -0.078
  C  C998  1  0.543200  0.578860  0.074900  1.0  -0.1029
  C  C999  1  0.541200  0.543910  0.058600  1.0  -0.1038
  C  C1000  1  0.592400  0.530260  0.039400  1.0  -0.2047
  C  C1001  1  0.486800  0.593150  0.093720  1.0  0.2954
  C  C1002  1  0.227300  0.547940  0.110700  1.0  -0.1979
  C  C1003  1  0.200700  0.568790  0.143800  1.0  0.2099
  C  C1004  1  0.239600  0.597490  0.171400  1.0  -0.2184
  C  C1005  1  0.302400  0.606030  0.163400  1.0  -0.0688
  C  C1006  1  0.328900  0.586000  0.129300  1.0  -0.0375
  C  C1007  1  0.290300  0.556610  0.103200  1.0  -0.0689
  C  C1008  1  0.393100  0.595810  0.117160  1.0  0.3236
  C  C1009  1  0.689000  0.901630  0.004400  1.0  0.2136
  C  C1010  1  0.724600  0.914500  0.057500  1.0  -0.1872
  C  C1011  1  0.767200  0.892610  0.099400  1.0  -0.1122
  C  C1012  1  0.774200  0.857530  0.089300  1.0  -0.0774
  C  C1013  1  0.738600  0.844880  0.035600  1.0  -0.1344
  C  C1014  1  0.696500  0.866430  0.993600  1.0  -0.2108
  C  C1015  1  0.817900  0.833630  0.133920  1.0  0.3108
  C  C1016  1  0.804500  0.719660  0.276600  1.0  -0.1897
  C  C1017  1  0.799600  0.749400  0.243900  1.0  -0.0839
  C  C1018  1  0.851300  0.756480  0.220030  1.0  -0.0487
  C  C1019  1  0.906500  0.732690  0.228090  1.0  -0.1462
  C  C1020  1  0.911200  0.703260  0.261000  1.0  -0.1931
  C  C1021  1  0.861400  0.696770  0.287100  1.0  0.2233
  C  C1022  1  0.850500  0.789220  0.189240  1.0  0.3138
  C  C1023  1  0.767100  0.001710  0.252100  1.0  -0.211
  C  C1024  1  0.796300  0.032830  0.279700  1.0  0.2066
  C  C1025  1  0.858700  0.044900  0.275100  1.0  -0.1703
  C  C1026  1  0.893900  0.025890  0.245500  1.0  -0.0888
  C  C1027  1  0.866200  0.994070  0.220230  1.0  -0.072
  C  C1028  1  0.802000  0.982670  0.223000  1.0  -0.1243
  C  C1029  1  0.906600  0.971200  0.194930  1.0  0.2924
  C  C1030  1  0.135600  0.954020  0.109800  1.0  -0.1881
  C  C1031  1  0.124600  0.926310  0.071700  1.0  0.2763
  C  C1032  1  0.061700  0.907990  0.058700  1.0  -0.1701
  C  C1033  1  0.010500  0.916750  0.081530  1.0  -0.1435
  C  C1034  1  0.021600  0.944650  0.119870  1.0  -0.0498
  C  C1035  1  0.084300  0.962990  0.132800  1.0  -0.1058
  C  C1036  1  0.971900  0.950120  0.150190  1.0  0.2925
  C  C1037  1  0.507400  0.877830  0.005000  1.0  0.226
  C  C1038  1  0.557900  0.869400  0.057100  1.0  -0.1873
  C  C1039  1  0.572900  0.835010  0.073500  1.0  -0.0957
  C  C1040  1  0.537700  0.807350  0.038850  1.0  0.0117
  C  C1041  1  0.488000  0.816050  0.986800  1.0  -0.0879
  C  C1042  1  0.473700  0.850370  0.970100  1.0  -0.1798
  C  C1043  1  0.552500  0.770750  0.056570  1.0  0.2912
  C  C1044  1  0.771800  0.649140  0.172400  1.0  0.2712
  C  C1045  1  0.708000  0.648580  0.183400  1.0  -0.1803
  C  C1046  1  0.655300  0.672660  0.159400  1.0  -0.1052
  C  C1047  1  0.664400  0.698910  0.123860  1.0  -0.0096
  C  C1048  1  0.729400  0.699870  0.114300  1.0  -0.0938
  C  C1049  1  0.781400  0.675510  0.138400  1.0  -0.1892
  C  C1050  1  0.607600  0.723830  0.095160  1.0  0.3095
  C  C1051  1  0.389600  0.843790  0.085200  1.0  -0.1862
  C  C1052  1  0.383000  0.877880  0.065300  1.0  0.2281
  C  C1053  1  0.336500  0.884580  0.011900  1.0  -0.1906
  C  C1054  1  0.302600  0.857590  0.977300  1.0  -0.0758
  C  C1055  1  0.312200  0.822690  0.995330  1.0  -0.0502
  C  C1056  1  0.354400  0.816200  0.050400  1.0  -0.1121
  C  C1057  1  0.282900  0.794270  0.955110  1.0  0.3172
  C  C1058  1  0.067700  0.735600  0.723900  1.0  0.2081
  C  C1059  1  0.108200  0.710600  0.760800  1.0  -0.1641
  C  C1060  1  0.155100  0.720360  0.812700  1.0  -0.0981
  C  C1061  1  0.163500  0.755400  0.829350  1.0  -0.0144
  C  C1062  1  0.122700  0.780180  0.791600  1.0  -0.0662
  C  C1063  1  0.075200  0.770400  0.739600  1.0  -0.226
  C  C1064  1  0.218200  0.765830  0.882290  1.0  0.3054
  C  C1065  1  0.408800  0.251800  0.061300  1.0  0.2194
  C  C1066  1  0.401400  0.286370  0.045300  1.0  -0.1641
  C  C1067  1  0.454900  0.310540  0.070000  1.0  -0.0908
  C  C1068  1  0.517100  0.299860  0.111310  1.0  -0.0516
  C  C1069  1  0.525200  0.264930  0.126100  1.0  -0.0988
  C  C1070  1  0.471400  0.241140  0.102000  1.0  -0.1831
  C  C1071  1  0.570000  0.325840  0.143830  1.0  0.317
  C  C1072  1  0.843700  0.388900  0.199600  1.0  -0.1757
  C  C1073  1  0.867800  0.400600  0.256600  1.0  0.2022
  C  C1074  1  0.829300  0.393500  0.288400  1.0  -0.1503
  C  C1075  1  0.765100  0.375880  0.267000  1.0  -0.1425
  C  C1076  1  0.739300  0.365660  0.211010  1.0  -0.0043
  C  C1077  1  0.779300  0.372180  0.177800  1.0  -0.0128
  C  C1078  1  0.666400  0.352710  0.188330  1.0  0.2656
  C  C1079  1  0.147400  0.050200  0.036000  1.0  0.2523
  C  C1080  1  0.148800  0.085700  0.051300  1.0  -0.1731
  C  C1081  1  0.096800  0.099760  0.069300  1.0  -0.078
  C  C1082  1  0.043200  0.078860  0.074900  1.0  -0.1029
  C  C1083  1  0.041200  0.043910  0.058600  1.0  -0.1038
  C  C1084  1  0.092400  0.030260  0.039400  1.0  -0.2047
  C  C1085  1  0.986800  0.093150  0.093720  1.0  0.2954
  C  C1086  1  0.727300  0.047940  0.110700  1.0  -0.1979
  C  C1087  1  0.700700  0.068790  0.143800  1.0  0.2099
  C  C1088  1  0.739600  0.097490  0.171400  1.0  -0.2184
  C  C1089  1  0.802400  0.106030  0.163400  1.0  -0.0688
  C  C1090  1  0.828900  0.086000  0.129300  1.0  -0.0375
  C  C1091  1  0.790300  0.056610  0.103200  1.0  -0.0689
  C  C1092  1  0.893100  0.095810  0.117160  1.0  0.3236
  C  C1093  1  0.189000  0.401630  0.004400  1.0  0.2136
  C  C1094  1  0.224600  0.414500  0.057500  1.0  -0.1872
  C  C1095  1  0.267200  0.392610  0.099400  1.0  -0.1122
  C  C1096  1  0.274200  0.357530  0.089300  1.0  -0.0774
  C  C1097  1  0.238600  0.344880  0.035600  1.0  -0.1344
  C  C1098  1  0.196500  0.366430  0.993600  1.0  -0.2108
  C  C1099  1  0.317900  0.333630  0.133920  1.0  0.3108
  C  C1100  1  0.304500  0.219660  0.276600  1.0  -0.1897
  C  C1101  1  0.299600  0.249400  0.243900  1.0  -0.0839
  C  C1102  1  0.351300  0.256480  0.220030  1.0  -0.0487
  C  C1103  1  0.406500  0.232690  0.228090  1.0  -0.1462
  C  C1104  1  0.411200  0.203260  0.261000  1.0  -0.1931
  C  C1105  1  0.361400  0.196770  0.287100  1.0  0.2233
  C  C1106  1  0.350500  0.289220  0.189240  1.0  0.3138
  C  C1107  1  0.267100  0.501710  0.252100  1.0  -0.211
  C  C1108  1  0.296300  0.532830  0.279700  1.0  0.2066
  C  C1109  1  0.358700  0.544900  0.275100  1.0  -0.1703
  C  C1110  1  0.393900  0.525890  0.245500  1.0  -0.0888
  C  C1111  1  0.366200  0.494070  0.220230  1.0  -0.072
  C  C1112  1  0.302000  0.482670  0.223000  1.0  -0.1243
  C  C1113  1  0.406600  0.471200  0.194930  1.0  0.2924
  C  C1114  1  0.635600  0.454020  0.109800  1.0  -0.1881
  C  C1115  1  0.624600  0.426310  0.071700  1.0  0.2763
  C  C1116  1  0.561700  0.407990  0.058700  1.0  -0.1701
  C  C1117  1  0.510500  0.416750  0.081530  1.0  -0.1435
  C  C1118  1  0.521600  0.444650  0.119870  1.0  -0.0498
  C  C1119  1  0.584300  0.462990  0.132800  1.0  -0.1058
  C  C1120  1  0.471900  0.450120  0.150190  1.0  0.2925
  C  C1121  1  0.007400  0.377830  0.005000  1.0  0.226
  C  C1122  1  0.057900  0.369400  0.057100  1.0  -0.1873
  C  C1123  1  0.072900  0.335010  0.073500  1.0  -0.0957
  C  C1124  1  0.037700  0.307350  0.038850  1.0  0.0117
  C  C1125  1  0.988000  0.316050  0.986800  1.0  -0.0879
  C  C1126  1  0.973700  0.350370  0.970100  1.0  -0.1798
  C  C1127  1  0.052500  0.270750  0.056570  1.0  0.2912
  C  C1128  1  0.271800  0.149140  0.172400  1.0  0.2712
  C  C1129  1  0.208000  0.148580  0.183400  1.0  -0.1803
  C  C1130  1  0.155300  0.172660  0.159400  1.0  -0.1052
  C  C1131  1  0.164400  0.198910  0.123860  1.0  -0.0096
  C  C1132  1  0.229400  0.199870  0.114300  1.0  -0.0938
  C  C1133  1  0.281400  0.175510  0.138400  1.0  -0.1892
  C  C1134  1  0.107600  0.223830  0.095160  1.0  0.3095
  C  C1135  1  0.889600  0.343790  0.085200  1.0  -0.1862
  C  C1136  1  0.883000  0.377880  0.065300  1.0  0.2281
  C  C1137  1  0.836500  0.384580  0.011900  1.0  -0.1906
  C  C1138  1  0.802600  0.357590  0.977300  1.0  -0.0758
  C  C1139  1  0.812200  0.322690  0.995330  1.0  -0.0502
  C  C1140  1  0.854400  0.316200  0.050400  1.0  -0.1121
  C  C1141  1  0.782900  0.294270  0.955110  1.0  0.3172
  C  C1142  1  0.567700  0.235600  0.723900  1.0  0.2081
  C  C1143  1  0.608200  0.210600  0.760800  1.0  -0.1641
  C  C1144  1  0.655100  0.220360  0.812700  1.0  -0.0981
  C  C1145  1  0.663500  0.255400  0.829350  1.0  -0.0144
  C  C1146  1  0.622700  0.280180  0.791600  1.0  -0.0662
  C  C1147  1  0.575200  0.270400  0.739600  1.0  -0.226
  C  C1148  1  0.718200  0.265830  0.882290  1.0  0.3054
  C  C1149  1  0.091200  0.751800  0.438700  1.0  0.2181
  C  C1150  1  0.098600  0.786370  0.454700  1.0  -0.164
  C  C1151  1  0.045100  0.810540  0.430000  1.0  -0.0909
  C  C1152  1  0.982900  0.799860  0.388690  1.0  -0.0521
  C  C1153  1  0.974800  0.764930  0.373900  1.0  -0.0987
  C  C1154  1  0.028600  0.741140  0.398000  1.0  -0.1833
  C  C1155  1  0.930000  0.825840  0.356170  1.0  0.3169
  C  C1156  1  0.656300  0.888900  0.300400  1.0  -0.1766
  C  C1157  1  0.632200  0.900600  0.243400  1.0  0.2031
  C  C1158  1  0.670700  0.893500  0.211600  1.0  -0.153
  C  C1159  1  0.734900  0.875880  0.233000  1.0  -0.1426
  C  C1160  1  0.760700  0.865660  0.288990  1.0  -0.0052
  C  C1161  1  0.720700  0.872180  0.322200  1.0  -0.0113
  C  C1162  1  0.833600  0.852710  0.311670  1.0  0.2655
  C  C1163  1  0.352600  0.550200  0.464000  1.0  0.2537
  C  C1164  1  0.351200  0.585700  0.448700  1.0  -0.173
  C  C1165  1  0.403200  0.599760  0.430700  1.0  -0.0775
  C  C1166  1  0.456800  0.578860  0.425100  1.0  -0.1023
  C  C1167  1  0.458800  0.543910  0.441400  1.0  -0.1044
  C  C1168  1  0.407600  0.530260  0.460600  1.0  -0.205
  C  C1169  1  0.513200  0.593150  0.406280  1.0  0.2955
  C  C1170  1  0.772700  0.547940  0.389300  1.0  -0.1976
  C  C1171  1  0.799300  0.568790  0.356200  1.0  0.2072
  C  C1172  1  0.760400  0.597490  0.328600  1.0  -0.2192
  C  C1173  1  0.697600  0.606030  0.336600  1.0  -0.0661
  C  C1174  1  0.671100  0.586000  0.370700  1.0  -0.0388
  C  C1175  1  0.709700  0.556610  0.396800  1.0  -0.0687
  C  C1176  1  0.606900  0.595810  0.382840  1.0  0.3223
  C  C1177  1  0.311000  0.901630  0.495600  1.0  0.2125
  C  C1178  1  0.275400  0.914500  0.442500  1.0  -0.1874
  C  C1179  1  0.232800  0.892610  0.400600  1.0  -0.1111
  C  C1180  1  0.225800  0.857530  0.410700  1.0  -0.0779
  C  C1181  1  0.261400  0.844880  0.464400  1.0  -0.1344
  C  C1182  1  0.303500  0.866430  0.506400  1.0  -0.2116
  C  C1183  1  0.182100  0.833630  0.366080  1.0  0.3107
  C  C1184  1  0.195500  0.719660  0.223400  1.0  -0.1876
  C  C1185  1  0.200400  0.749400  0.256100  1.0  -0.0847
  C  C1186  1  0.148700  0.756480  0.279970  1.0  -0.0492
  C  C1187  1  0.093500  0.732690  0.271910  1.0  -0.144
  C  C1188  1  0.088800  0.703260  0.239000  1.0  -0.1929
  C  C1189  1  0.138600  0.696770  0.212900  1.0  0.2233
  C  C1190  1  0.149500  0.789220  0.310760  1.0  0.3145
  C  C1191  1  0.232900  0.001710  0.247900  1.0  -0.2104
  C  C1192  1  0.203700  0.032830  0.220300  1.0  0.2069
  C  C1193  1  0.141300  0.044900  0.224900  1.0  -0.171
  C  C1194  1  0.106100  0.025890  0.254500  1.0  -0.0875
  C  C1195  1  0.133800  0.994070  0.279770  1.0  -0.0707
  C  C1196  1  0.198000  0.982670  0.277000  1.0  -0.1272
  C  C1197  1  0.093400  0.971200  0.305070  1.0  0.2931
  C  C1198  1  0.864400  0.954020  0.390200  1.0  -0.1871
  C  C1199  1  0.875400  0.926310  0.428300  1.0  0.2755
  C  C1200  1  0.938300  0.907990  0.441300  1.0  -0.1697
  C  C1201  1  0.989500  0.916750  0.418470  1.0  -0.1443
  C  C1202  1  0.978400  0.944650  0.380130  1.0  -0.0492
  C  C1203  1  0.915700  0.962990  0.367200  1.0  -0.1053
  C  C1204  1  0.028100  0.950120  0.349810  1.0  0.2931
  C  C1205  1  0.492600  0.877830  0.495000  1.0  0.225
  C  C1206  1  0.442100  0.869400  0.442900  1.0  -0.1857
  C  C1207  1  0.427100  0.835010  0.426500  1.0  -0.0937
  C  C1208  1  0.462300  0.807350  0.461150  1.0  0.0121
  C  C1209  1  0.512000  0.816050  0.513200  1.0  -0.0898
  C  C1210  1  0.526300  0.850370  0.529900  1.0  -0.1804
  C  C1211  1  0.447500  0.770750  0.443430  1.0  0.2904
  C  C1212  1  0.228200  0.649140  0.327600  1.0  0.2715
  C  C1213  1  0.292000  0.648580  0.316600  1.0  -0.1797
  C  C1214  1  0.344700  0.672660  0.340600  1.0  -0.1053
  C  C1215  1  0.335600  0.698910  0.376140  1.0  -0.009
  C  C1216  1  0.270600  0.699870  0.385700  1.0  -0.0939
  C  C1217  1  0.218600  0.675510  0.361600  1.0  -0.1898
  C  C1218  1  0.392400  0.723830  0.404840  1.0  0.31
  C  C1219  1  0.610400  0.843790  0.414800  1.0  -0.185
  C  C1220  1  0.617000  0.877880  0.434700  1.0  0.2285
  C  C1221  1  0.663500  0.884580  0.488100  1.0  -0.1904
  C  C1222  1  0.697400  0.857590  0.522700  1.0  -0.0779
  C  C1223  1  0.687800  0.822690  0.504670  1.0  -0.0485
  C  C1224  1  0.645600  0.816200  0.449600  1.0  -0.1116
  C  C1225  1  0.717100  0.794270  0.544890  1.0  0.3172
  C  C1226  1  0.932300  0.735600  0.776100  1.0  0.2073
  C  C1227  1  0.891800  0.710600  0.739200  1.0  -0.1647
  C  C1228  1  0.844900  0.720360  0.687300  1.0  -0.0967
  C  C1229  1  0.836500  0.755400  0.670650  1.0  -0.0116
  C  C1230  1  0.877300  0.780180  0.708400  1.0  -0.0668
  C  C1231  1  0.924800  0.770400  0.760400  1.0  -0.2253
  C  C1232  1  0.781800  0.765830  0.617710  1.0  0.3056
  C  C1233  1  0.591200  0.251800  0.438700  1.0  0.2181
  C  C1234  1  0.598600  0.286370  0.454700  1.0  -0.164
  C  C1235  1  0.545100  0.310540  0.430000  1.0  -0.0909
  C  C1236  1  0.482900  0.299860  0.388690  1.0  -0.0521
  C  C1237  1  0.474800  0.264930  0.373900  1.0  -0.0987
  C  C1238  1  0.528600  0.241140  0.398000  1.0  -0.1833
  C  C1239  1  0.430000  0.325840  0.356170  1.0  0.3169
  C  C1240  1  0.156300  0.388900  0.300400  1.0  -0.1766
  C  C1241  1  0.132200  0.400600  0.243400  1.0  0.2031
  C  C1242  1  0.170700  0.393500  0.211600  1.0  -0.153
  C  C1243  1  0.234900  0.375880  0.233000  1.0  -0.1426
  C  C1244  1  0.260700  0.365660  0.288990  1.0  -0.0052
  C  C1245  1  0.220700  0.372180  0.322200  1.0  -0.0113
  C  C1246  1  0.333600  0.352710  0.311670  1.0  0.2655
  C  C1247  1  0.852600  0.050200  0.464000  1.0  0.2537
  C  C1248  1  0.851200  0.085700  0.448700  1.0  -0.173
  C  C1249  1  0.903200  0.099760  0.430700  1.0  -0.0775
  C  C1250  1  0.956800  0.078860  0.425100  1.0  -0.1023
  C  C1251  1  0.958800  0.043910  0.441400  1.0  -0.1044
  C  C1252  1  0.907600  0.030260  0.460600  1.0  -0.205
  C  C1253  1  0.013200  0.093150  0.406280  1.0  0.2955
  C  C1254  1  0.272700  0.047940  0.389300  1.0  -0.1976
  C  C1255  1  0.299300  0.068790  0.356200  1.0  0.2072
  C  C1256  1  0.260400  0.097490  0.328600  1.0  -0.2192
  C  C1257  1  0.197600  0.106030  0.336600  1.0  -0.0661
  C  C1258  1  0.171100  0.086000  0.370700  1.0  -0.0388
  C  C1259  1  0.209700  0.056610  0.396800  1.0  -0.0687
  C  C1260  1  0.106900  0.095810  0.382840  1.0  0.3223
  C  C1261  1  0.811000  0.401630  0.495600  1.0  0.2125
  C  C1262  1  0.775400  0.414500  0.442500  1.0  -0.1874
  C  C1263  1  0.732800  0.392610  0.400600  1.0  -0.1111
  C  C1264  1  0.725800  0.357530  0.410700  1.0  -0.0779
  C  C1265  1  0.761400  0.344880  0.464400  1.0  -0.1344
  C  C1266  1  0.803500  0.366430  0.506400  1.0  -0.2116
  C  C1267  1  0.682100  0.333630  0.366080  1.0  0.3107
  C  C1268  1  0.695500  0.219660  0.223400  1.0  -0.1876
  C  C1269  1  0.700400  0.249400  0.256100  1.0  -0.0847
  C  C1270  1  0.648700  0.256480  0.279970  1.0  -0.0492
  C  C1271  1  0.593500  0.232690  0.271910  1.0  -0.144
  C  C1272  1  0.588800  0.203260  0.239000  1.0  -0.1929
  C  C1273  1  0.638600  0.196770  0.212900  1.0  0.2233
  C  C1274  1  0.649500  0.289220  0.310760  1.0  0.3145
  C  C1275  1  0.732900  0.501710  0.247900  1.0  -0.2104
  C  C1276  1  0.703700  0.532830  0.220300  1.0  0.2069
  C  C1277  1  0.641300  0.544900  0.224900  1.0  -0.171
  C  C1278  1  0.606100  0.525890  0.254500  1.0  -0.0875
  C  C1279  1  0.633800  0.494070  0.279770  1.0  -0.0707
  C  C1280  1  0.698000  0.482670  0.277000  1.0  -0.1272
  C  C1281  1  0.593400  0.471200  0.305070  1.0  0.2931
  C  C1282  1  0.364400  0.454020  0.390200  1.0  -0.1871
  C  C1283  1  0.375400  0.426310  0.428300  1.0  0.2755
  C  C1284  1  0.438300  0.407990  0.441300  1.0  -0.1697
  C  C1285  1  0.489500  0.416750  0.418470  1.0  -0.1443
  C  C1286  1  0.478400  0.444650  0.380130  1.0  -0.0492
  C  C1287  1  0.415700  0.462990  0.367200  1.0  -0.1053
  C  C1288  1  0.528100  0.450120  0.349810  1.0  0.2931
  C  C1289  1  0.992600  0.377830  0.495000  1.0  0.225
  C  C1290  1  0.942100  0.369400  0.442900  1.0  -0.1857
  C  C1291  1  0.927100  0.335010  0.426500  1.0  -0.0937
  C  C1292  1  0.962300  0.307350  0.461150  1.0  0.0121
  C  C1293  1  0.012000  0.316050  0.513200  1.0  -0.0898
  C  C1294  1  0.026300  0.350370  0.529900  1.0  -0.1804
  C  C1295  1  0.947500  0.270750  0.443430  1.0  0.2904
  C  C1296  1  0.728200  0.149140  0.327600  1.0  0.2715
  C  C1297  1  0.792000  0.148580  0.316600  1.0  -0.1797
  C  C1298  1  0.844700  0.172660  0.340600  1.0  -0.1053
  C  C1299  1  0.835600  0.198910  0.376140  1.0  -0.009
  C  C1300  1  0.770600  0.199870  0.385700  1.0  -0.0939
  C  C1301  1  0.718600  0.175510  0.361600  1.0  -0.1898
  C  C1302  1  0.892400  0.223830  0.404840  1.0  0.31
  C  C1303  1  0.110400  0.343790  0.414800  1.0  -0.185
  C  C1304  1  0.117000  0.377880  0.434700  1.0  0.2285
  C  C1305  1  0.163500  0.384580  0.488100  1.0  -0.1904
  C  C1306  1  0.197400  0.357590  0.522700  1.0  -0.0779
  C  C1307  1  0.187800  0.322690  0.504670  1.0  -0.0485
  C  C1308  1  0.145600  0.316200  0.449600  1.0  -0.1116
  C  C1309  1  0.217100  0.294270  0.544890  1.0  0.3172
  C  C1310  1  0.432300  0.235600  0.776100  1.0  0.2073
  C  C1311  1  0.391800  0.210600  0.739200  1.0  -0.1647
  C  C1312  1  0.344900  0.220360  0.687300  1.0  -0.0967
  C  C1313  1  0.336500  0.255400  0.670650  1.0  -0.0116
  C  C1314  1  0.377300  0.280180  0.708400  1.0  -0.0668
  C  C1315  1  0.424800  0.270400  0.760400  1.0  -0.2253
  C  C1316  1  0.281800  0.265830  0.617710  1.0  0.3056
  Br  Br1317  1  0.630850  0.320940  0.010910  1.0  -0.2609
  Br  Br1318  1  0.130850  0.820940  0.010910  1.0  -0.2609
  Br  Br1319  1  0.369150  0.320940  0.489090  1.0  -0.2603
  Br  Br1320  1  0.869150  0.820940  0.489090  1.0  -0.2603
  Br  Br1321  1  0.369150  0.679060  0.989090  1.0  -0.2605
  Br  Br1322  1  0.869150  0.179060  0.989090  1.0  -0.2605
  Br  Br1323  1  0.630850  0.679060  0.510910  1.0  -0.2609
  Br  Br1324  1  0.130850  0.179060  0.510910  1.0  -0.2609
  N  N1325  1  0.948140  0.147660  0.829770  1.0  -0.3016
  N  N1326  1  0.859250  0.175050  0.846470  1.0  -0.4535
  N  N1327  1  0.885990  0.130220  0.801450  1.0  -0.3165
  N  N1328  1  0.146200  0.271960  0.962300  1.0  -0.6623
  N  N1329  1  0.591790  0.371440  0.892730  1.0  -0.3046
  N  N1330  1  0.558610  0.427140  0.889540  1.0  -0.4603
  N  N1331  1  0.531310  0.373200  0.907920  1.0  -0.3405
  N  N1332  1  0.865500  0.439100  0.851000  1.0  -0.7206
  N  N1333  1  0.114440  0.161170  0.835780  1.0  -0.3092
  N  N1334  1  0.093920  0.189890  0.800050  1.0  -0.3188
  N  N1335  1  0.206640  0.197230  0.851810  1.0  -0.4511
  N  N1336  1  0.352700  0.076420  0.038800  1.0  -0.6927
  N  N1337  1  0.132100  0.331680  0.677900  1.0  -0.6788
  N  N1338  1  0.092150  0.063320  0.798250  1.0  -0.337
  N  N1339  1  0.050730  0.076950  0.827530  1.0  -0.3048
  N  N1340  1  0.238500  0.947950  0.690500  1.0  -0.6771
  N  N1341  1  0.053850  0.019060  0.837130  1.0  -0.4163
  N  N1342  1  0.826600  0.082120  0.953700  1.0  -0.7028
  N  N1343  1  0.495750  0.254650  0.954330  1.0  -0.2957
  N  N1344  1  0.460080  0.285090  0.929570  1.0  -0.2758
  N  N1345  1  0.381580  0.241590  0.912370  1.0  -0.45
  N  N1346  1  0.508700  0.087660  0.011300  1.0  -0.699
  N  N1347  1  0.176300  0.375870  0.804600  1.0  -0.6823
  N  N1348  1  0.682630  0.235220  0.046700  1.0  -0.3222
  N  N1349  1  0.779960  0.204140  0.088330  1.0  -0.4667
  N  N1350  1  0.724130  0.253430  0.093800  1.0  -0.2877
  N  N1351  1  0.577700  0.094720  0.900500  1.0  -0.6936
  N  N1352  1  0.981500  0.273900  0.328700  1.0  -0.6614
  N  N1353  1  0.302500  0.464100  0.983100  1.0  -0.6818
  N  N1354  1  0.565500  0.081600  0.720900  1.0  -0.7003
  N  N1355  1  0.448140  0.647660  0.829770  1.0  -0.3016
  N  N1356  1  0.359250  0.675050  0.846470  1.0  -0.4535
  N  N1357  1  0.385990  0.630220  0.801450  1.0  -0.3165
  N  N1358  1  0.646200  0.771960  0.962300  1.0  -0.6623
  N  N1359  1  0.091790  0.871440  0.892730  1.0  -0.3046
  N  N1360  1  0.058610  0.927140  0.889540  1.0  -0.4603
  N  N1361  1  0.031310  0.873200  0.907920  1.0  -0.3405
  N  N1362  1  0.365500  0.939100  0.851000  1.0  -0.7206
  N  N1363  1  0.614440  0.661170  0.835780  1.0  -0.3092
  N  N1364  1  0.593920  0.689890  0.800050  1.0  -0.3188
  N  N1365  1  0.706640  0.697230  0.851810  1.0  -0.4511
  N  N1366  1  0.852700  0.576420  0.038800  1.0  -0.6927
  N  N1367  1  0.632100  0.831680  0.677900  1.0  -0.6788
  N  N1368  1  0.592150  0.563320  0.798250  1.0  -0.337
  N  N1369  1  0.550730  0.576950  0.827530  1.0  -0.3048
  N  N1370  1  0.738500  0.447950  0.690500  1.0  -0.6771
  N  N1371  1  0.553850  0.519060  0.837130  1.0  -0.4163
  N  N1372  1  0.326600  0.582120  0.953700  1.0  -0.7028
  N  N1373  1  0.995750  0.754650  0.954330  1.0  -0.2957
  N  N1374  1  0.960080  0.785090  0.929570  1.0  -0.2758
  N  N1375  1  0.881580  0.741590  0.912370  1.0  -0.45
  N  N1376  1  0.008700  0.587660  0.011300  1.0  -0.699
  N  N1377  1  0.676300  0.875870  0.804600  1.0  -0.6823
  N  N1378  1  0.182630  0.735220  0.046700  1.0  -0.3222
  N  N1379  1  0.279960  0.704140  0.088330  1.0  -0.4667
  N  N1380  1  0.224130  0.753430  0.093800  1.0  -0.2877
  N  N1381  1  0.077700  0.594720  0.900500  1.0  -0.6936
  N  N1382  1  0.481500  0.773900  0.328700  1.0  -0.6614
  N  N1383  1  0.802500  0.964100  0.983100  1.0  -0.6818
  N  N1384  1  0.065500  0.581600  0.720900  1.0  -0.7003
  N  N1385  1  0.051860  0.147660  0.670230  1.0  -0.3007
  N  N1386  1  0.140750  0.175050  0.653530  1.0  -0.453
  N  N1387  1  0.114010  0.130220  0.698550  1.0  -0.3167
  N  N1388  1  0.853800  0.271960  0.537700  1.0  -0.6636
  N  N1389  1  0.408210  0.371440  0.607270  1.0  -0.304
  N  N1390  1  0.441390  0.427140  0.610460  1.0  -0.4602
  N  N1391  1  0.468690  0.373200  0.592080  1.0  -0.3396
  N  N1392  1  0.134500  0.439100  0.649000  1.0  -0.7213
  N  N1393  1  0.885560  0.161170  0.664220  1.0  -0.3074
  N  N1394  1  0.906080  0.189890  0.699950  1.0  -0.3194
  N  N1395  1  0.793360  0.197230  0.648190  1.0  -0.4522
  N  N1396  1  0.647300  0.076420  0.461200  1.0  -0.692
  N  N1397  1  0.867900  0.331680  0.822100  1.0  -0.6788
  N  N1398  1  0.907850  0.063320  0.701750  1.0  -0.3372
  N  N1399  1  0.949270  0.076950  0.672470  1.0  -0.3063
  N  N1400  1  0.761500  0.947950  0.809500  1.0  -0.6748
  N  N1401  1  0.946150  0.019060  0.662870  1.0  -0.4176
  N  N1402  1  0.173400  0.082120  0.546300  1.0  -0.7024
  N  N1403  1  0.504250  0.254650  0.545670  1.0  -0.2971
  N  N1404  1  0.539920  0.285090  0.570430  1.0  -0.2753
  N  N1405  1  0.618420  0.241590  0.587630  1.0  -0.4483
  N  N1406  1  0.491300  0.087660  0.488700  1.0  -0.7005
  N  N1407  1  0.823700  0.375870  0.695400  1.0  -0.6843
  N  N1408  1  0.317370  0.235220  0.453300  1.0  -0.3219
  N  N1409  1  0.220040  0.204140  0.411670  1.0  -0.4665
  N  N1410  1  0.275870  0.253430  0.406200  1.0  -0.2876
  N  N1411  1  0.422300  0.094720  0.599500  1.0  -0.6945
  N  N1412  1  0.018500  0.273900  0.171300  1.0  -0.6616
  N  N1413  1  0.697500  0.464100  0.516900  1.0  -0.6822
  N  N1414  1  0.434500  0.081600  0.779100  1.0  -0.7017
  N  N1415  1  0.551860  0.647660  0.670230  1.0  -0.3007
  N  N1416  1  0.640750  0.675050  0.653530  1.0  -0.453
  N  N1417  1  0.614010  0.630220  0.698550  1.0  -0.3167
  N  N1418  1  0.353800  0.771960  0.537700  1.0  -0.6636
  N  N1419  1  0.908210  0.871440  0.607270  1.0  -0.304
  N  N1420  1  0.941390  0.927140  0.610460  1.0  -0.4602
  N  N1421  1  0.968690  0.873200  0.592080  1.0  -0.3396
  N  N1422  1  0.634500  0.939100  0.649000  1.0  -0.7213
  N  N1423  1  0.385560  0.661170  0.664220  1.0  -0.3074
  N  N1424  1  0.406080  0.689890  0.699950  1.0  -0.3194
  N  N1425  1  0.293360  0.697230  0.648190  1.0  -0.4522
  N  N1426  1  0.147300  0.576420  0.461200  1.0  -0.692
  N  N1427  1  0.367900  0.831680  0.822100  1.0  -0.6788
  N  N1428  1  0.407850  0.563320  0.701750  1.0  -0.3372
  N  N1429  1  0.449270  0.576950  0.672470  1.0  -0.3063
  N  N1430  1  0.261500  0.447950  0.809500  1.0  -0.6748
  N  N1431  1  0.446150  0.519060  0.662870  1.0  -0.4176
  N  N1432  1  0.673400  0.582120  0.546300  1.0  -0.7024
  N  N1433  1  0.004250  0.754650  0.545670  1.0  -0.2971
  N  N1434  1  0.039920  0.785090  0.570430  1.0  -0.2753
  N  N1435  1  0.118420  0.741590  0.587630  1.0  -0.4483
  N  N1436  1  0.991300  0.587660  0.488700  1.0  -0.7005
  N  N1437  1  0.323700  0.875870  0.695400  1.0  -0.6843
  N  N1438  1  0.817370  0.735220  0.453300  1.0  -0.3219
  N  N1439  1  0.720040  0.704140  0.411670  1.0  -0.4665
  N  N1440  1  0.775870  0.753430  0.406200  1.0  -0.2876
  N  N1441  1  0.922300  0.594720  0.599500  1.0  -0.6945
  N  N1442  1  0.518500  0.773900  0.171300  1.0  -0.6616
  N  N1443  1  0.197500  0.964100  0.516900  1.0  -0.6822
  N  N1444  1  0.934500  0.581600  0.779100  1.0  -0.7017
  N  N1445  1  0.051860  0.852340  0.170230  1.0  -0.3006
  N  N1446  1  0.140750  0.824950  0.153530  1.0  -0.4529
  N  N1447  1  0.114010  0.869780  0.198550  1.0  -0.3174
  N  N1448  1  0.853800  0.728040  0.037700  1.0  -0.6623
  N  N1449  1  0.408210  0.628560  0.107270  1.0  -0.3046
  N  N1450  1  0.441390  0.572860  0.110460  1.0  -0.46
  N  N1451  1  0.468690  0.626800  0.092080  1.0  -0.3408
  N  N1452  1  0.134500  0.560900  0.149000  1.0  -0.7232
  N  N1453  1  0.885560  0.838830  0.164220  1.0  -0.3081
  N  N1454  1  0.906080  0.810110  0.199950  1.0  -0.3198
  N  N1455  1  0.793360  0.802770  0.148190  1.0  -0.4522
  N  N1456  1  0.647300  0.923580  0.961200  1.0  -0.6907
  N  N1457  1  0.867900  0.668320  0.322100  1.0  -0.6801
  N  N1458  1  0.907850  0.936680  0.201750  1.0  -0.3366
  N  N1459  1  0.949270  0.923050  0.172470  1.0  -0.3054
  N  N1460  1  0.761500  0.052050  0.309500  1.0  -0.6757
  N  N1461  1  0.946150  0.980940  0.162870  1.0  -0.4164
  N  N1462  1  0.173400  0.917880  0.046300  1.0  -0.7024
  N  N1463  1  0.504250  0.745350  0.045670  1.0  -0.2971
  N  N1464  1  0.539920  0.714910  0.070430  1.0  -0.2766
  N  N1465  1  0.618420  0.758410  0.087630  1.0  -0.449
  N  N1466  1  0.491300  0.912340  0.988700  1.0  -0.7003
  N  N1467  1  0.823700  0.624130  0.195400  1.0  -0.6833
  N  N1468  1  0.317370  0.764780  0.953300  1.0  -0.3208
  N  N1469  1  0.220040  0.795860  0.911670  1.0  -0.4666
  N  N1470  1  0.275870  0.746570  0.906200  1.0  -0.2874
  N  N1471  1  0.422300  0.905280  0.099500  1.0  -0.6927
  N  N1472  1  0.018500  0.726100  0.671300  1.0  -0.6617
  N  N1473  1  0.697500  0.535900  0.016900  1.0  -0.6825
  N  N1474  1  0.434500  0.918400  0.279100  1.0  -0.7008
  N  N1475  1  0.551860  0.352340  0.170230  1.0  -0.3006
  N  N1476  1  0.640750  0.324950  0.153530  1.0  -0.4529
  N  N1477  1  0.614010  0.369780  0.198550  1.0  -0.3174
  N  N1478  1  0.353800  0.228040  0.037700  1.0  -0.6623
  N  N1479  1  0.908210  0.128560  0.107270  1.0  -0.3046
  N  N1480  1  0.941390  0.072860  0.110460  1.0  -0.46
  N  N1481  1  0.968690  0.126800  0.092080  1.0  -0.3408
  N  N1482  1  0.634500  0.060900  0.149000  1.0  -0.7232
  N  N1483  1  0.385560  0.338830  0.164220  1.0  -0.3081
  N  N1484  1  0.406080  0.310110  0.199950  1.0  -0.3198
  N  N1485  1  0.293360  0.302770  0.148190  1.0  -0.4522
  N  N1486  1  0.147300  0.423580  0.961200  1.0  -0.6907
  N  N1487  1  0.367900  0.168320  0.322100  1.0  -0.6801
  N  N1488  1  0.407850  0.436680  0.201750  1.0  -0.3366
  N  N1489  1  0.449270  0.423050  0.172470  1.0  -0.3054
  N  N1490  1  0.261500  0.552050  0.309500  1.0  -0.6757
  N  N1491  1  0.446150  0.480940  0.162870  1.0  -0.4164
  N  N1492  1  0.673400  0.417880  0.046300  1.0  -0.7024
  N  N1493  1  0.004250  0.245350  0.045670  1.0  -0.2971
  N  N1494  1  0.039920  0.214910  0.070430  1.0  -0.2766
  N  N1495  1  0.118420  0.258410  0.087630  1.0  -0.449
  N  N1496  1  0.991300  0.412340  0.988700  1.0  -0.7003
  N  N1497  1  0.323700  0.124130  0.195400  1.0  -0.6833
  N  N1498  1  0.817370  0.264780  0.953300  1.0  -0.3208
  N  N1499  1  0.720040  0.295860  0.911670  1.0  -0.4666
  N  N1500  1  0.775870  0.246570  0.906200  1.0  -0.2874
  N  N1501  1  0.922300  0.405280  0.099500  1.0  -0.6927
  N  N1502  1  0.518500  0.226100  0.671300  1.0  -0.6617
  N  N1503  1  0.197500  0.035900  0.016900  1.0  -0.6825
  N  N1504  1  0.934500  0.418400  0.279100  1.0  -0.7008
  N  N1505  1  0.948140  0.852340  0.329770  1.0  -0.3013
  N  N1506  1  0.859250  0.824950  0.346470  1.0  -0.4537
  N  N1507  1  0.885990  0.869780  0.301450  1.0  -0.317
  N  N1508  1  0.146200  0.728040  0.462300  1.0  -0.661
  N  N1509  1  0.591790  0.628560  0.392730  1.0  -0.3055
  N  N1510  1  0.558610  0.572860  0.389540  1.0  -0.4604
  N  N1511  1  0.531310  0.626800  0.407920  1.0  -0.3407
  N  N1512  1  0.865500  0.560900  0.351000  1.0  -0.722
  N  N1513  1  0.114440  0.838830  0.335780  1.0  -0.3093
  N  N1514  1  0.093920  0.810110  0.300050  1.0  -0.3186
  N  N1515  1  0.206640  0.802770  0.351810  1.0  -0.4506
  N  N1516  1  0.352700  0.923580  0.538800  1.0  -0.6944
  N  N1517  1  0.132100  0.668320  0.177900  1.0  -0.6784
  N  N1518  1  0.092150  0.936680  0.298250  1.0  -0.3361
  N  N1519  1  0.050730  0.923050  0.327530  1.0  -0.3039
  N  N1520  1  0.238500  0.052050  0.190500  1.0  -0.6772
  N  N1521  1  0.053850  0.980940  0.337130  1.0  -0.4156
  N  N1522  1  0.826600  0.917880  0.453700  1.0  -0.7029
  N  N1523  1  0.495750  0.745350  0.454330  1.0  -0.2955
  N  N1524  1  0.460080  0.714910  0.429570  1.0  -0.276
  N  N1525  1  0.381580  0.758410  0.412370  1.0  -0.45
  N  N1526  1  0.508700  0.912340  0.511300  1.0  -0.6989
  N  N1527  1  0.176300  0.624130  0.304600  1.0  -0.6845
  N  N1528  1  0.682630  0.764780  0.546700  1.0  -0.3211
  N  N1529  1  0.779960  0.795860  0.588330  1.0  -0.4671
  N  N1530  1  0.724130  0.746570  0.593800  1.0  -0.2881
  N  N1531  1  0.577700  0.905280  0.400500  1.0  -0.693
  N  N1532  1  0.981500  0.726100  0.828700  1.0  -0.6615
  N  N1533  1  0.302500  0.535900  0.483100  1.0  -0.6804
  N  N1534  1  0.565500  0.918400  0.220900  1.0  -0.7008
  N  N1535  1  0.448140  0.352340  0.329770  1.0  -0.3013
  N  N1536  1  0.359250  0.324950  0.346470  1.0  -0.4537
  N  N1537  1  0.385990  0.369780  0.301450  1.0  -0.317
  N  N1538  1  0.646200  0.228040  0.462300  1.0  -0.661
  N  N1539  1  0.091790  0.128560  0.392730  1.0  -0.3055
  N  N1540  1  0.058610  0.072860  0.389540  1.0  -0.4604
  N  N1541  1  0.031310  0.126800  0.407920  1.0  -0.3407
  N  N1542  1  0.365500  0.060900  0.351000  1.0  -0.722
  N  N1543  1  0.614440  0.338830  0.335780  1.0  -0.3093
  N  N1544  1  0.593920  0.310110  0.300050  1.0  -0.3186
  N  N1545  1  0.706640  0.302770  0.351810  1.0  -0.4506
  N  N1546  1  0.852700  0.423580  0.538800  1.0  -0.6944
  N  N1547  1  0.632100  0.168320  0.177900  1.0  -0.6784
  N  N1548  1  0.592150  0.436680  0.298250  1.0  -0.3361
  N  N1549  1  0.550730  0.423050  0.327530  1.0  -0.3039
  N  N1550  1  0.738500  0.552050  0.190500  1.0  -0.6772
  N  N1551  1  0.553850  0.480940  0.337130  1.0  -0.4156
  N  N1552  1  0.326600  0.417880  0.453700  1.0  -0.7029
  N  N1553  1  0.995750  0.245350  0.454330  1.0  -0.2955
  N  N1554  1  0.960080  0.214910  0.429570  1.0  -0.276
  N  N1555  1  0.881580  0.258410  0.412370  1.0  -0.45
  N  N1556  1  0.008700  0.412340  0.511300  1.0  -0.6989
  N  N1557  1  0.676300  0.124130  0.304600  1.0  -0.6845
  N  N1558  1  0.182630  0.264780  0.546700  1.0  -0.3211
  N  N1559  1  0.279960  0.295860  0.588330  1.0  -0.4671
  N  N1560  1  0.224130  0.246570  0.593800  1.0  -0.2881
  N  N1561  1  0.077700  0.405280  0.400500  1.0  -0.693
  N  N1562  1  0.481500  0.226100  0.828700  1.0  -0.6615
  N  N1563  1  0.802500  0.035900  0.483100  1.0  -0.6804
  N  N1564  1  0.065500  0.418400  0.220900  1.0  -0.7008
