# generated using pymatgen
data_Cu17H144C168(BrN30)2
_symmetry_space_group_name_H-M   'P 1'
_cell_length_a   20.01400000
_cell_length_b   37.95600000
_cell_length_c   25.08500000
_cell_angle_alpha   90.00000000
_cell_angle_beta   109.38400000
_cell_angle_gamma   90.00000000
_symmetry_Int_Tables_number   1
_chemical_formula_structural   Cu17H144C168(BrN30)2
_chemical_formula_sum   'Cu68 H576 C672 Br8 N240'
_cell_volume   17975.68103297
_cell_formula_units_Z   4
loop_
 _symmetry_equiv_pos_site_id
 _symmetry_equiv_pos_as_xyz
  1  'x, y, z'
loop_
 _atom_site_type_symbol
 _atom_site_label
 _atom_site_symmetry_multiplicity
 _atom_site_fract_x
 _atom_site_fract_y
 _atom_site_fract_z
 _atom_site_occupancy
 _atom_site_charge
  Cu  Cu1  1  0.539040  0.126610  0.332280  1.0  0.5159
  Cu  Cu2  1  0.551220  0.973680  0.366230  1.0  0.3051
  Cu  Cu3  1  0.094820  0.254860  0.500780  1.0  0.3647
  Cu  Cu4  1  0.795630  0.217640  0.383770  1.0  0.436
  Cu  Cu5  1  0.005910  0.328710  0.432570  1.0  0.3611
  Cu  Cu6  1  0.314450  0.206690  0.382000  1.0  0.4418
  Cu  Cu7  1  0.148950  0.330820  0.406530  1.0  0.3918
  Cu  Cu8  1  0.610180  0.093180  0.246630  1.0  0.3236
  Cu  Cu9  1  0.039040  0.626610  0.332280  1.0  0.5159
  Cu  Cu10  1  0.051220  0.473680  0.366230  1.0  0.3051
  Cu  Cu11  1  0.594820  0.754860  0.500780  1.0  0.3647
  Cu  Cu12  1  0.295630  0.717640  0.383770  1.0  0.436
  Cu  Cu13  1  0.505910  0.828710  0.432570  1.0  0.3606
  Cu  Cu14  1  0.814450  0.706690  0.382000  1.0  0.4418
  Cu  Cu15  1  0.648950  0.830820  0.406530  1.0  0.3918
  Cu  Cu16  1  0.110180  0.593180  0.246630  1.0  0.3236
  Cu  Cu17  1  0.460960  0.126610  0.167720  1.0  0.5153
  Cu  Cu18  1  0.448780  0.973680  0.133770  1.0  0.3032
  Cu  Cu19  1  0.905180  0.254860  0.999220  1.0  0.3642
  Cu  Cu20  1  0.204370  0.217640  0.116230  1.0  0.4364
  Cu  Cu21  1  0.994090  0.328710  0.067430  1.0  0.3608
  Cu  Cu22  1  0.685550  0.206690  0.118000  1.0  0.4384
  Cu  Cu23  1  0.851050  0.330820  0.093470  1.0  0.3909
  Cu  Cu24  1  0.389820  0.093180  0.253370  1.0  0.3235
  Cu  Cu25  1  0.960960  0.626610  0.167720  1.0  0.5153
  Cu  Cu26  1  0.948780  0.473680  0.133770  1.0  0.3032
  Cu  Cu27  1  0.405180  0.754860  0.999220  1.0  0.3642
  Cu  Cu28  1  0.704370  0.717640  0.116230  1.0  0.4364
  Cu  Cu29  1  0.494090  0.828710  0.067430  1.0  0.3604
  Cu  Cu30  1  0.185550  0.706690  0.118000  1.0  0.4384
  Cu  Cu31  1  0.351050  0.830820  0.093470  1.0  0.3909
  Cu  Cu32  1  0.889820  0.593180  0.253370  1.0  0.3235
  Cu  Cu33  1  0.460960  0.873390  0.667720  1.0  0.5153
  Cu  Cu34  1  0.448780  0.026320  0.633770  1.0  0.3033
  Cu  Cu35  1  0.905180  0.745140  0.499220  1.0  0.3664
  Cu  Cu36  1  0.204370  0.782360  0.616230  1.0  0.437
  Cu  Cu37  1  0.994090  0.671290  0.567430  1.0  0.3606
  Cu  Cu38  1  0.685550  0.793310  0.618000  1.0  0.4391
  Cu  Cu39  1  0.851050  0.669180  0.593470  1.0  0.3913
  Cu  Cu40  1  0.389820  0.906820  0.753370  1.0  0.3235
  Cu  Cu41  1  0.960960  0.373390  0.667720  1.0  0.5153
  Cu  Cu42  1  0.948780  0.526320  0.633770  1.0  0.3033
  Cu  Cu43  1  0.405180  0.245140  0.499220  1.0  0.3664
  Cu  Cu44  1  0.704370  0.282360  0.616230  1.0  0.437
  Cu  Cu45  1  0.494090  0.171290  0.567430  1.0  0.3602
  Cu  Cu46  1  0.185550  0.293310  0.618000  1.0  0.4391
  Cu  Cu47  1  0.351050  0.169180  0.593470  1.0  0.3913
  Cu  Cu48  1  0.889820  0.406820  0.753370  1.0  0.3235
  Cu  Cu49  1  0.539040  0.873390  0.832280  1.0  0.5159
  Cu  Cu50  1  0.551220  0.026320  0.866230  1.0  0.3052
  Cu  Cu51  1  0.094820  0.745140  0.000780  1.0  0.3669
  Cu  Cu52  1  0.795630  0.782360  0.883770  1.0  0.4368
  Cu  Cu53  1  0.005910  0.671290  0.932570  1.0  0.361
  Cu  Cu54  1  0.314450  0.793310  0.882000  1.0  0.4422
  Cu  Cu55  1  0.148950  0.669180  0.906530  1.0  0.3924
  Cu  Cu56  1  0.610180  0.906820  0.746630  1.0  0.3236
  Cu  Cu57  1  0.039040  0.373390  0.832280  1.0  0.5159
  Cu  Cu58  1  0.051220  0.526320  0.866230  1.0  0.3052
  Cu  Cu59  1  0.594820  0.245140  0.000780  1.0  0.3669
  Cu  Cu60  1  0.295630  0.282360  0.883770  1.0  0.4368
  Cu  Cu61  1  0.505910  0.171290  0.932570  1.0  0.3604
  Cu  Cu62  1  0.814450  0.293310  0.882000  1.0  0.4422
  Cu  Cu63  1  0.648950  0.169180  0.906530  1.0  0.3924
  Cu  Cu64  1  0.110180  0.406820  0.746630  1.0  0.3236
  Cu  Cu65  1  0.500000  0.190280  0.250000  1.0  0.373
  Cu  Cu66  1  0.000000  0.690280  0.250000  1.0  0.373
  Cu  Cu67  1  0.500000  0.809720  0.750000  1.0  0.3733
  Cu  Cu68  1  0.000000  0.309720  0.750000  1.0  0.3733
  H  H69  1  0.141100  0.206400  0.434800  1.0  0.0937
  H  H70  1  0.169600  0.092800  0.504400  1.0  0.1027
  H  H71  1  0.228400  0.137900  0.561100  1.0  0.0846
  H  H72  1  0.081400  0.160500  0.377900  1.0  0.1022
  H  H73  1  0.374600  0.196400  0.701100  1.0  0.0935
  H  H74  1  0.452600  0.213000  0.788200  1.0  0.114
  H  H75  1  0.321500  0.297400  0.664000  1.0  0.0767
  H  H76  1  0.398600  0.314000  0.751300  1.0  0.1032
  H  H77  1  0.671300  0.874500  0.316500  1.0  0.1019
  H  H78  1  0.777700  0.888800  0.304300  1.0  0.0865
  H  H79  1  0.692200  0.957000  0.420200  1.0  0.0993
  H  H80  1  0.797700  0.971400  0.408200  1.0  0.1178
  H  H81  1  0.495500  0.970500  0.440500  1.0  0.0802
  H  H82  1  0.411600  0.994000  0.473400  1.0  0.0908
  H  H83  1  0.400400  0.876600  0.423600  1.0  0.0926
  H  H84  1  0.309600  0.901400  0.449200  1.0  0.0924
  H  H85  1  0.758800  0.178500  0.474000  1.0  0.0829
  H  H86  1  0.708900  0.097200  0.367000  1.0  0.0837
  H  H87  1  0.827600  0.142600  0.545200  1.0  0.1057
  H  H88  1  0.781000  0.061300  0.437200  1.0  0.1031
  H  H89  1  0.739500  0.234800  0.262500  1.0  0.1053
  H  H90  1  0.731700  0.284900  0.208600  1.0  0.0875
  H  H91  1  0.558700  0.262100  0.289000  1.0  0.0853
  H  H92  1  0.550800  0.311700  0.234300  1.0  0.0958
  H  H93  1  0.564500  0.965000  0.257200  1.0  0.0946
  H  H94  1  0.719000  0.037900  0.295000  1.0  0.0976
  H  H95  1  0.623600  0.933400  0.207900  1.0  0.0953
  H  H96  1  0.779500  0.004900  0.248900  1.0  0.1098
  H  H97  1  0.404400  0.018000  0.341000  1.0  0.0785
  H  H98  1  0.444700  0.110500  0.467700  1.0  0.0902
  H  H99  1  0.529800  0.095200  0.429600  1.0  0.1022
  H  H100  1  0.317900  0.033600  0.379300  1.0  0.107
  H  H101  1  0.038900  0.202000  0.538900  1.0  0.0939
  H  H102  1  0.893100  0.170400  0.393300  1.0  0.0829
  H  H103  1  0.918600  0.112600  0.421100  1.0  0.0957
  H  H104  1  0.062900  0.144800  0.566700  1.0  0.1034
  H  H105  1  0.760900  0.281600  0.408200  1.0  0.0932
  H  H106  1  0.673400  0.322000  0.368000  1.0  0.108
  H  H107  1  0.799200  0.368500  0.292900  1.0  0.0931
  H  H108  1  0.887600  0.328400  0.334200  1.0  0.0958
  H  H109  1  0.259500  0.127600  0.208100  1.0  0.0806
  H  H110  1  0.234100  0.134900  0.359500  1.0  0.1015
  H  H111  1  0.154400  0.098600  0.171900  1.0  0.1043
  H  H112  1  0.122600  0.108900  0.320900  1.0  0.0838
  H  H113  1  0.429900  0.242200  0.346200  1.0  0.0922
  H  H114  1  0.519000  0.282600  0.385400  1.0  0.1018
  H  H115  1  0.640500  0.206100  0.481800  1.0  0.1102
  H  H116  1  0.551500  0.165900  0.440300  1.0  0.0877
  H  H117  1  0.635000  0.374400  0.309500  1.0  0.3557
  H  H118  1  0.682200  0.392000  0.282500  1.0  0.3252
  H  H119  1  0.663100  0.334800  0.162000  1.0  0.34
  H  H120  1  0.596200  0.344900  0.171900  1.0  0.3426
  H  H121  1  0.331600  0.098200  0.479200  1.0  0.3318
  H  H122  1  0.283600  0.070400  0.445300  1.0  0.3376
  H  H123  1  0.724500  0.927700  0.175400  1.0  0.3079
  H  H124  1  0.781100  0.955100  0.189100  1.0  0.3449
  H  H125  1  0.684200  0.265600  0.485100  1.0  0.327
  H  H126  1  0.640000  0.294300  0.450300  1.0  0.3378
  H  H127  1  0.048900  0.098300  0.369500  1.0  0.302
  H  H128  1  0.081400  0.073200  0.416700  1.0  0.3508
  H  H129  1  0.044100  0.083200  0.543700  1.0  0.3154
  H  H130  1  0.989200  0.071100  0.490700  1.0  0.3553
  H  H131  1  0.507500  0.259000  0.854200  1.0  0.3125
  H  H132  1  0.488000  0.296700  0.841500  1.0  0.3492
  H  H133  1  0.874000  0.084700  0.576500  1.0  0.3546
  H  H134  1  0.859500  0.054300  0.536800  1.0  0.3323
  H  H135  1  0.884700  0.925000  0.333333  1.0  0.3514
  H  H136  1  0.891000  0.955900  0.371200  1.0  0.338
  H  H137  1  0.299800  0.988800  0.487600  1.0  0.3379
  H  H138  1  0.261000  0.954700  0.479500  1.0  0.3112
  H  H139  1  0.047500  0.075400  0.184000  1.0  0.3303
  H  H140  1  0.036300  0.077700  0.239700  1.0  0.3246
  H  H141  1  0.641100  0.706400  0.434800  1.0  0.0937
  H  H142  1  0.669600  0.592800  0.504400  1.0  0.1027
  H  H143  1  0.728400  0.637900  0.561100  1.0  0.0846
  H  H144  1  0.581400  0.660500  0.377900  1.0  0.1022
  H  H145  1  0.874600  0.696400  0.701100  1.0  0.0935
  H  H146  1  0.952600  0.713000  0.788200  1.0  0.114
  H  H147  1  0.821500  0.797400  0.664000  1.0  0.0767
  H  H148  1  0.898600  0.814000  0.751300  1.0  0.1032
  H  H149  1  0.171300  0.374500  0.316500  1.0  0.1019
  H  H150  1  0.277700  0.388800  0.304300  1.0  0.0865
  H  H151  1  0.192200  0.457000  0.420200  1.0  0.0993
  H  H152  1  0.297700  0.471400  0.408200  1.0  0.1178
  H  H153  1  0.995500  0.470500  0.440500  1.0  0.0802
  H  H154  1  0.911600  0.494000  0.473400  1.0  0.0908
  H  H155  1  0.900400  0.376600  0.423600  1.0  0.0925
  H  H156  1  0.809600  0.401400  0.449200  1.0  0.0924
  H  H157  1  0.258800  0.678500  0.474000  1.0  0.0829
  H  H158  1  0.208900  0.597200  0.367000  1.0  0.0837
  H  H159  1  0.327600  0.642600  0.545200  1.0  0.1057
  H  H160  1  0.281000  0.561300  0.437200  1.0  0.1031
  H  H161  1  0.239500  0.734800  0.262500  1.0  0.1053
  H  H162  1  0.231700  0.784900  0.208600  1.0  0.0875
  H  H163  1  0.058700  0.762100  0.289000  1.0  0.0853
  H  H164  1  0.050800  0.811700  0.234300  1.0  0.0958
  H  H165  1  0.064500  0.465000  0.257200  1.0  0.0946
  H  H166  1  0.219000  0.537900  0.295000  1.0  0.0976
  H  H167  1  0.123600  0.433400  0.207900  1.0  0.0953
  H  H168  1  0.279500  0.504900  0.248900  1.0  0.1098
  H  H169  1  0.904400  0.518000  0.341000  1.0  0.0785
  H  H170  1  0.944700  0.610500  0.467700  1.0  0.0902
  H  H171  1  0.029800  0.595200  0.429600  1.0  0.1022
  H  H172  1  0.817900  0.533600  0.379300  1.0  0.107
  H  H173  1  0.538900  0.702000  0.538900  1.0  0.0939
  H  H174  1  0.393100  0.670400  0.393300  1.0  0.0829
  H  H175  1  0.418600  0.612600  0.421100  1.0  0.0957
  H  H176  1  0.562900  0.644800  0.566700  1.0  0.1034
  H  H177  1  0.260900  0.781600  0.408200  1.0  0.0932
  H  H178  1  0.173400  0.822000  0.368000  1.0  0.108
  H  H179  1  0.299200  0.868500  0.292900  1.0  0.0931
  H  H180  1  0.387600  0.828400  0.334200  1.0  0.0958
  H  H181  1  0.759500  0.627600  0.208100  1.0  0.0806
  H  H182  1  0.734100  0.634900  0.359500  1.0  0.1015
  H  H183  1  0.654400  0.598600  0.171900  1.0  0.1043
  H  H184  1  0.622600  0.608900  0.320900  1.0  0.0838
  H  H185  1  0.929900  0.742200  0.346200  1.0  0.0922
  H  H186  1  0.019000  0.782600  0.385400  1.0  0.1018
  H  H187  1  0.140500  0.706100  0.481800  1.0  0.1102
  H  H188  1  0.051500  0.665900  0.440300  1.0  0.0877
  H  H189  1  0.135000  0.874400  0.309500  1.0  0.3557
  H  H190  1  0.182200  0.892000  0.282500  1.0  0.3252
  H  H191  1  0.163100  0.834800  0.162000  1.0  0.34
  H  H192  1  0.096200  0.844900  0.171900  1.0  0.3426
  H  H193  1  0.831600  0.598200  0.479200  1.0  0.3318
  H  H194  1  0.783600  0.570400  0.445300  1.0  0.3376
  H  H195  1  0.224500  0.427700  0.175400  1.0  0.3079
  H  H196  1  0.281100  0.455100  0.189100  1.0  0.3449
  H  H197  1  0.184200  0.765600  0.485100  1.0  0.327
  H  H198  1  0.140000  0.794300  0.450300  1.0  0.3378
  H  H199  1  0.548900  0.598300  0.369500  1.0  0.302
  H  H200  1  0.581400  0.573200  0.416700  1.0  0.3508
  H  H201  1  0.544100  0.583200  0.543700  1.0  0.3154
  H  H202  1  0.489200  0.571100  0.490700  1.0  0.3553
  H  H203  1  0.007500  0.759000  0.854200  1.0  0.3125
  H  H204  1  0.988000  0.796700  0.841500  1.0  0.3492
  H  H205  1  0.374000  0.584700  0.576500  1.0  0.3546
  H  H206  1  0.359500  0.554300  0.536800  1.0  0.3323
  H  H207  1  0.384700  0.425000  0.333333  1.0  0.3514
  H  H208  1  0.391000  0.455900  0.371200  1.0  0.338
  H  H209  1  0.799800  0.488800  0.487600  1.0  0.3379
  H  H210  1  0.761000  0.454700  0.479500  1.0  0.3112
  H  H211  1  0.547500  0.575400  0.184000  1.0  0.3303
  H  H212  1  0.536300  0.577700  0.239700  1.0  0.3246
  H  H213  1  0.858900  0.206400  0.065200  1.0  0.0936
  H  H214  1  0.830400  0.092800  0.995600  1.0  0.1031
  H  H215  1  0.771600  0.137900  0.938900  1.0  0.085
  H  H216  1  0.918600  0.160500  0.122100  1.0  0.1027
  H  H217  1  0.625400  0.196400  0.798900  1.0  0.0932
  H  H218  1  0.547400  0.213000  0.711800  1.0  0.1137
  H  H219  1  0.678500  0.297400  0.836000  1.0  0.0764
  H  H220  1  0.601400  0.314000  0.748700  1.0  0.1035
  H  H221  1  0.328700  0.874500  0.183500  1.0  0.102
  H  H222  1  0.222300  0.888800  0.195700  1.0  0.0865
  H  H223  1  0.307800  0.957000  0.079800  1.0  0.0997
  H  H224  1  0.202300  0.971400  0.091800  1.0  0.1177
  H  H225  1  0.504500  0.970500  0.059500  1.0  0.0799
  H  H226  1  0.588400  0.994000  0.026600  1.0  0.0909
  H  H227  1  0.599600  0.876600  0.076400  1.0  0.0926
  H  H228  1  0.690400  0.901400  0.050800  1.0  0.0924
  H  H229  1  0.241200  0.178500  0.026000  1.0  0.0831
  H  H230  1  0.291100  0.097200  0.133000  1.0  0.0846
  H  H231  1  0.172400  0.142600  0.954800  1.0  0.1058
  H  H232  1  0.219000  0.061300  0.062800  1.0  0.1036
  H  H233  1  0.260500  0.234800  0.237500  1.0  0.105
  H  H234  1  0.268300  0.284900  0.291400  1.0  0.0874
  H  H235  1  0.441300  0.262100  0.211000  1.0  0.0858
  H  H236  1  0.449200  0.311700  0.265700  1.0  0.0957
  H  H237  1  0.435500  0.965000  0.242800  1.0  0.0946
  H  H238  1  0.281000  0.037900  0.205000  1.0  0.0979
  H  H239  1  0.376400  0.933400  0.292100  1.0  0.0952
  H  H240  1  0.220500  0.004900  0.251100  1.0  0.1091
  H  H241  1  0.595600  0.018000  0.159000  1.0  0.0785
  H  H242  1  0.555300  0.110500  0.032300  1.0  0.0905
  H  H243  1  0.470200  0.095200  0.070400  1.0  0.1027
  H  H244  1  0.682100  0.033600  0.120700  1.0  0.1066
  H  H245  1  0.961100  0.202000  0.961100  1.0  0.094
  H  H246  1  0.106900  0.170400  0.106700  1.0  0.0837
  H  H247  1  0.081400  0.112600  0.078900  1.0  0.0968
  H  H248  1  0.937100  0.144800  0.933300  1.0  0.1033
  H  H249  1  0.239100  0.281600  0.091800  1.0  0.0927
  H  H250  1  0.326600  0.322000  0.132000  1.0  0.1078
  H  H251  1  0.200800  0.368500  0.207100  1.0  0.0936
  H  H252  1  0.112400  0.328400  0.165800  1.0  0.0961
  H  H253  1  0.740500  0.127600  0.291900  1.0  0.081
  H  H254  1  0.765900  0.134900  0.140500  1.0  0.1014
  H  H255  1  0.845600  0.098600  0.328100  1.0  0.104
  H  H256  1  0.877400  0.108900  0.179100  1.0  0.0839
  H  H257  1  0.570100  0.242200  0.153800  1.0  0.0918
  H  H258  1  0.481000  0.282600  0.114600  1.0  0.1012
  H  H259  1  0.359500  0.206100  0.018200  1.0  0.1103
  H  H260  1  0.448500  0.165900  0.059700  1.0  0.0876
  H  H261  1  0.365000  0.374400  0.190500  1.0  0.3563
  H  H262  1  0.317800  0.392000  0.217500  1.0  0.3261
  H  H263  1  0.336900  0.334800  0.338000  1.0  0.3384
  H  H264  1  0.403800  0.344900  0.328100  1.0  0.3414
  H  H265  1  0.668400  0.098200  0.020800  1.0  0.3312
  H  H266  1  0.716400  0.070400  0.054700  1.0  0.341
  H  H267  1  0.275500  0.927700  0.324600  1.0  0.3102
  H  H268  1  0.218900  0.955100  0.310900  1.0  0.3436
  H  H269  1  0.315800  0.265600  0.014900  1.0  0.324
  H  H270  1  0.360000  0.294300  0.049700  1.0  0.3375
  H  H271  1  0.951100  0.098300  0.130500  1.0  0.3031
  H  H272  1  0.918600  0.073200  0.083300  1.0  0.3496
  H  H273  1  0.955900  0.083200  0.956300  1.0  0.3121
  H  H274  1  0.010800  0.071100  0.009300  1.0  0.357
  H  H275  1  0.492500  0.259000  0.645800  1.0  0.3108
  H  H276  1  0.512000  0.296700  0.658500  1.0  0.3494
  H  H277  1  0.126000  0.084700  0.923500  1.0  0.3534
  H  H278  1  0.140500  0.054300  0.963200  1.0  0.3325
  H  H279  1  0.115300  0.925000  0.166700  1.0  0.3517
  H  H280  1  0.109000  0.955900  0.128800  1.0  0.3375
  H  H281  1  0.700200  0.988800  0.012400  1.0  0.338
  H  H282  1  0.739000  0.954700  0.020500  1.0  0.3116
  H  H283  1  0.952500  0.075400  0.316000  1.0  0.3303
  H  H284  1  0.963700  0.077700  0.260300  1.0  0.3258
  H  H285  1  0.358900  0.706400  0.065200  1.0  0.0936
  H  H286  1  0.330400  0.592800  0.995600  1.0  0.1031
  H  H287  1  0.271600  0.637900  0.938900  1.0  0.085
  H  H288  1  0.418600  0.660500  0.122100  1.0  0.1027
  H  H289  1  0.125400  0.696400  0.798900  1.0  0.0932
  H  H290  1  0.047400  0.713000  0.711800  1.0  0.1137
  H  H291  1  0.178500  0.797400  0.836000  1.0  0.0764
  H  H292  1  0.101400  0.814000  0.748700  1.0  0.1035
  H  H293  1  0.828700  0.374500  0.183500  1.0  0.102
  H  H294  1  0.722300  0.388800  0.195700  1.0  0.0865
  H  H295  1  0.807800  0.457000  0.079800  1.0  0.0997
  H  H296  1  0.702300  0.471400  0.091800  1.0  0.1177
  H  H297  1  0.004500  0.470500  0.059500  1.0  0.0799
  H  H298  1  0.088400  0.494000  0.026600  1.0  0.0909
  H  H299  1  0.099600  0.376600  0.076400  1.0  0.0926
  H  H300  1  0.190400  0.401400  0.050800  1.0  0.0924
  H  H301  1  0.741200  0.678500  0.026000  1.0  0.0831
  H  H302  1  0.791100  0.597200  0.133000  1.0  0.0846
  H  H303  1  0.672400  0.642600  0.954800  1.0  0.1058
  H  H304  1  0.719000  0.561300  0.062800  1.0  0.1036
  H  H305  1  0.760500  0.734800  0.237500  1.0  0.105
  H  H306  1  0.768300  0.784900  0.291400  1.0  0.0874
  H  H307  1  0.941300  0.762100  0.211000  1.0  0.0858
  H  H308  1  0.949200  0.811700  0.265700  1.0  0.0957
  H  H309  1  0.935500  0.465000  0.242800  1.0  0.0946
  H  H310  1  0.781000  0.537900  0.205000  1.0  0.0979
  H  H311  1  0.876400  0.433400  0.292100  1.0  0.0952
  H  H312  1  0.720500  0.504900  0.251100  1.0  0.1091
  H  H313  1  0.095600  0.518000  0.159000  1.0  0.0785
  H  H314  1  0.055300  0.610500  0.032300  1.0  0.0905
  H  H315  1  0.970200  0.595200  0.070400  1.0  0.1027
  H  H316  1  0.182100  0.533600  0.120700  1.0  0.1066
  H  H317  1  0.461100  0.702000  0.961100  1.0  0.094
  H  H318  1  0.606900  0.670400  0.106700  1.0  0.0837
  H  H319  1  0.581400  0.612600  0.078900  1.0  0.0968
  H  H320  1  0.437100  0.644800  0.933300  1.0  0.1033
  H  H321  1  0.739100  0.781600  0.091800  1.0  0.0927
  H  H322  1  0.826600  0.822000  0.132000  1.0  0.1078
  H  H323  1  0.700800  0.868500  0.207100  1.0  0.0936
  H  H324  1  0.612400  0.828400  0.165800  1.0  0.0961
  H  H325  1  0.240500  0.627600  0.291900  1.0  0.081
  H  H326  1  0.265900  0.634900  0.140500  1.0  0.1014
  H  H327  1  0.345600  0.598600  0.328100  1.0  0.104
  H  H328  1  0.377400  0.608900  0.179100  1.0  0.0839
  H  H329  1  0.070100  0.742200  0.153800  1.0  0.0918
  H  H330  1  0.981000  0.782600  0.114600  1.0  0.1012
  H  H331  1  0.859500  0.706100  0.018200  1.0  0.1103
  H  H332  1  0.948500  0.665900  0.059700  1.0  0.0876
  H  H333  1  0.865000  0.874400  0.190500  1.0  0.3563
  H  H334  1  0.817800  0.892000  0.217500  1.0  0.3261
  H  H335  1  0.836900  0.834800  0.338000  1.0  0.3384
  H  H336  1  0.903800  0.844900  0.328100  1.0  0.3414
  H  H337  1  0.168400  0.598200  0.020800  1.0  0.3312
  H  H338  1  0.216400  0.570400  0.054700  1.0  0.341
  H  H339  1  0.775500  0.427700  0.324600  1.0  0.3102
  H  H340  1  0.718900  0.455100  0.310900  1.0  0.3436
  H  H341  1  0.815800  0.765600  0.014900  1.0  0.324
  H  H342  1  0.860000  0.794300  0.049700  1.0  0.3375
  H  H343  1  0.451100  0.598300  0.130500  1.0  0.3031
  H  H344  1  0.418600  0.573200  0.083300  1.0  0.3496
  H  H345  1  0.455900  0.583200  0.956300  1.0  0.3121
  H  H346  1  0.510800  0.571100  0.009300  1.0  0.357
  H  H347  1  0.992500  0.759000  0.645800  1.0  0.3108
  H  H348  1  0.012000  0.796700  0.658500  1.0  0.3494
  H  H349  1  0.626000  0.584700  0.923500  1.0  0.3534
  H  H350  1  0.640500  0.554300  0.963200  1.0  0.3325
  H  H351  1  0.615300  0.425000  0.166700  1.0  0.3517
  H  H352  1  0.609000  0.455900  0.128800  1.0  0.3375
  H  H353  1  0.200200  0.488800  0.012400  1.0  0.338
  H  H354  1  0.239000  0.454700  0.020500  1.0  0.3116
  H  H355  1  0.452500  0.575400  0.316000  1.0  0.3303
  H  H356  1  0.463700  0.577700  0.260300  1.0  0.3258
  H  H357  1  0.858900  0.793600  0.565200  1.0  0.0939
  H  H358  1  0.830400  0.907200  0.495600  1.0  0.1026
  H  H359  1  0.771600  0.862100  0.438900  1.0  0.0853
  H  H360  1  0.918600  0.839500  0.622100  1.0  0.103
  H  H361  1  0.625400  0.803600  0.298900  1.0  0.0928
  H  H362  1  0.547400  0.787000  0.211800  1.0  0.1141
  H  H363  1  0.678500  0.702600  0.336000  1.0  0.0769
  H  H364  1  0.601400  0.686000  0.248700  1.0  0.1035
  H  H365  1  0.328700  0.125500  0.683500  1.0  0.1019
  H  H366  1  0.222300  0.111200  0.695700  1.0  0.0866
  H  H367  1  0.307800  0.043000  0.579800  1.0  0.0995
  H  H368  1  0.202300  0.028600  0.591800  1.0  0.1176
  H  H369  1  0.504500  0.029500  0.559500  1.0  0.0801
  H  H370  1  0.588400  0.006000  0.526600  1.0  0.0904
  H  H371  1  0.599600  0.123400  0.576400  1.0  0.093
  H  H372  1  0.690400  0.098600  0.550800  1.0  0.0923
  H  H373  1  0.241200  0.821500  0.526000  1.0  0.0838
  H  H374  1  0.291100  0.902800  0.633000  1.0  0.0844
  H  H375  1  0.172400  0.857400  0.454800  1.0  0.1058
  H  H376  1  0.219000  0.938700  0.562800  1.0  0.1039
  H  H377  1  0.260500  0.765200  0.737500  1.0  0.1055
  H  H378  1  0.268300  0.715100  0.791400  1.0  0.0876
  H  H379  1  0.441300  0.737900  0.711000  1.0  0.0858
  H  H380  1  0.449200  0.688300  0.765700  1.0  0.0963
  H  H381  1  0.435500  0.035000  0.742800  1.0  0.0947
  H  H382  1  0.281000  0.962100  0.705000  1.0  0.0976
  H  H383  1  0.376400  0.066600  0.792100  1.0  0.0954
  H  H384  1  0.220500  0.995100  0.751100  1.0  0.1091
  H  H385  1  0.595600  0.982000  0.659000  1.0  0.0787
  H  H386  1  0.555300  0.889500  0.532300  1.0  0.0897
  H  H387  1  0.470200  0.904800  0.570400  1.0  0.1026
  H  H388  1  0.682100  0.966400  0.620700  1.0  0.1064
  H  H389  1  0.961100  0.798000  0.461100  1.0  0.0935
  H  H390  1  0.106900  0.829600  0.606700  1.0  0.0838
  H  H391  1  0.081400  0.887400  0.578900  1.0  0.0963
  H  H392  1  0.937100  0.855200  0.433300  1.0  0.1037
  H  H393  1  0.239100  0.718400  0.591800  1.0  0.0926
  H  H394  1  0.326600  0.678000  0.632000  1.0  0.1078
  H  H395  1  0.200800  0.631500  0.707100  1.0  0.0942
  H  H396  1  0.112400  0.671600  0.665800  1.0  0.0962
  H  H397  1  0.740500  0.872400  0.791900  1.0  0.0811
  H  H398  1  0.765900  0.865100  0.640500  1.0  0.1014
  H  H399  1  0.845600  0.901400  0.828100  1.0  0.1041
  H  H400  1  0.877400  0.891100  0.679100  1.0  0.0841
  H  H401  1  0.570100  0.757800  0.653800  1.0  0.0918
  H  H402  1  0.481000  0.717400  0.614600  1.0  0.1006
  H  H403  1  0.359500  0.793900  0.518200  1.0  0.1106
  H  H404  1  0.448500  0.834100  0.559700  1.0  0.0875
  H  H405  1  0.365000  0.625600  0.690500  1.0  0.357
  H  H406  1  0.317800  0.608000  0.717500  1.0  0.3273
  H  H407  1  0.336900  0.665200  0.838000  1.0  0.3383
  H  H408  1  0.403800  0.655100  0.828100  1.0  0.3424
  H  H409  1  0.668400  0.901800  0.520800  1.0  0.3303
  H  H410  1  0.716400  0.929600  0.554700  1.0  0.3402
  H  H411  1  0.275500  0.072300  0.824600  1.0  0.3121
  H  H412  1  0.218900  0.044900  0.810900  1.0  0.3428
  H  H413  1  0.315800  0.734400  0.514900  1.0  0.3248
  H  H414  1  0.360000  0.705700  0.549700  1.0  0.3367
  H  H415  1  0.951100  0.901700  0.630500  1.0  0.3016
  H  H416  1  0.918600  0.926800  0.583300  1.0  0.3527
  H  H417  1  0.955900  0.916800  0.456300  1.0  0.3118
  H  H418  1  0.010800  0.928900  0.509300  1.0  0.356
  H  H419  1  0.492500  0.741000  0.145800  1.0  0.3114
  H  H420  1  0.512000  0.703300  0.158500  1.0  0.3493
  H  H421  1  0.126000  0.915300  0.423500  1.0  0.3528
  H  H422  1  0.140500  0.945700  0.463200  1.0  0.3347
  H  H423  1  0.115300  0.075000  0.666667  1.0  0.3512
  H  H424  1  0.109000  0.044100  0.628800  1.0  0.3378
  H  H425  1  0.700200  0.011200  0.512400  1.0  0.3371
  H  H426  1  0.739000  0.045300  0.520500  1.0  0.3121
  H  H427  1  0.952500  0.924600  0.816000  1.0  0.3309
  H  H428  1  0.963700  0.922300  0.760300  1.0  0.3249
  H  H429  1  0.358900  0.293600  0.565200  1.0  0.0939
  H  H430  1  0.330400  0.407200  0.495600  1.0  0.1026
  H  H431  1  0.271600  0.362100  0.438900  1.0  0.0853
  H  H432  1  0.418600  0.339500  0.622100  1.0  0.103
  H  H433  1  0.125400  0.303600  0.298900  1.0  0.0928
  H  H434  1  0.047400  0.287000  0.211800  1.0  0.1141
  H  H435  1  0.178500  0.202600  0.336000  1.0  0.0769
  H  H436  1  0.101400  0.186000  0.248700  1.0  0.1035
  H  H437  1  0.828700  0.625500  0.683500  1.0  0.1019
  H  H438  1  0.722300  0.611200  0.695700  1.0  0.0866
  H  H439  1  0.807800  0.543000  0.579800  1.0  0.0995
  H  H440  1  0.702300  0.528600  0.591800  1.0  0.1176
  H  H441  1  0.004500  0.529500  0.559500  1.0  0.0801
  H  H442  1  0.088400  0.506000  0.526600  1.0  0.0904
  H  H443  1  0.099600  0.623400  0.576400  1.0  0.093
  H  H444  1  0.190400  0.598600  0.550800  1.0  0.0923
  H  H445  1  0.741200  0.321500  0.526000  1.0  0.0838
  H  H446  1  0.791100  0.402800  0.633000  1.0  0.0844
  H  H447  1  0.672400  0.357400  0.454800  1.0  0.1058
  H  H448  1  0.719000  0.438700  0.562800  1.0  0.1039
  H  H449  1  0.760500  0.265200  0.737500  1.0  0.1055
  H  H450  1  0.768300  0.215100  0.791400  1.0  0.0876
  H  H451  1  0.941300  0.237900  0.711000  1.0  0.0858
  H  H452  1  0.949200  0.188300  0.765700  1.0  0.0963
  H  H453  1  0.935500  0.535000  0.742800  1.0  0.0947
  H  H454  1  0.781000  0.462100  0.705000  1.0  0.0976
  H  H455  1  0.876400  0.566600  0.792100  1.0  0.0954
  H  H456  1  0.720500  0.495100  0.751100  1.0  0.1091
  H  H457  1  0.095600  0.482000  0.659000  1.0  0.0787
  H  H458  1  0.055300  0.389500  0.532300  1.0  0.0897
  H  H459  1  0.970200  0.404800  0.570400  1.0  0.1026
  H  H460  1  0.182100  0.466400  0.620700  1.0  0.1064
  H  H461  1  0.461100  0.298000  0.461100  1.0  0.0935
  H  H462  1  0.606900  0.329600  0.606700  1.0  0.0838
  H  H463  1  0.581400  0.387400  0.578900  1.0  0.0963
  H  H464  1  0.437100  0.355200  0.433300  1.0  0.1037
  H  H465  1  0.739100  0.218400  0.591800  1.0  0.0926
  H  H466  1  0.826600  0.178000  0.632000  1.0  0.1078
  H  H467  1  0.700800  0.131500  0.707100  1.0  0.0942
  H  H468  1  0.612400  0.171600  0.665800  1.0  0.0962
  H  H469  1  0.240500  0.372400  0.791900  1.0  0.0811
  H  H470  1  0.265900  0.365100  0.640500  1.0  0.1014
  H  H471  1  0.345600  0.401400  0.828100  1.0  0.1041
  H  H472  1  0.377400  0.391100  0.679100  1.0  0.0841
  H  H473  1  0.070100  0.257800  0.653800  1.0  0.0918
  H  H474  1  0.981000  0.217400  0.614600  1.0  0.1006
  H  H475  1  0.859500  0.293900  0.518200  1.0  0.1106
  H  H476  1  0.948500  0.334100  0.559700  1.0  0.0875
  H  H477  1  0.865000  0.125600  0.690500  1.0  0.357
  H  H478  1  0.817800  0.108000  0.717500  1.0  0.3273
  H  H479  1  0.836900  0.165200  0.838000  1.0  0.3383
  H  H480  1  0.903800  0.155100  0.828100  1.0  0.3424
  H  H481  1  0.168400  0.401800  0.520800  1.0  0.3303
  H  H482  1  0.216400  0.429600  0.554700  1.0  0.3402
  H  H483  1  0.775500  0.572300  0.824600  1.0  0.3121
  H  H484  1  0.718900  0.544900  0.810900  1.0  0.3428
  H  H485  1  0.815800  0.234400  0.514900  1.0  0.3248
  H  H486  1  0.860000  0.205700  0.549700  1.0  0.3367
  H  H487  1  0.451100  0.401700  0.630500  1.0  0.3016
  H  H488  1  0.418600  0.426800  0.583300  1.0  0.3527
  H  H489  1  0.455900  0.416800  0.456300  1.0  0.3118
  H  H490  1  0.510800  0.428900  0.509300  1.0  0.356
  H  H491  1  0.992500  0.241000  0.145800  1.0  0.3114
  H  H492  1  0.012000  0.203300  0.158500  1.0  0.3493
  H  H493  1  0.626000  0.415300  0.423500  1.0  0.3528
  H  H494  1  0.640500  0.445700  0.463200  1.0  0.3347
  H  H495  1  0.615300  0.575000  0.666667  1.0  0.3512
  H  H496  1  0.609000  0.544100  0.628800  1.0  0.3378
  H  H497  1  0.200200  0.511200  0.512400  1.0  0.3371
  H  H498  1  0.239000  0.545300  0.520500  1.0  0.3121
  H  H499  1  0.452500  0.424600  0.816000  1.0  0.3309
  H  H500  1  0.463700  0.422300  0.760300  1.0  0.3249
  H  H501  1  0.141100  0.793600  0.934800  1.0  0.0938
  H  H502  1  0.169600  0.907200  0.004400  1.0  0.1019
  H  H503  1  0.228400  0.862100  0.061100  1.0  0.0848
  H  H504  1  0.081400  0.839500  0.877900  1.0  0.1024
  H  H505  1  0.374600  0.803600  0.201100  1.0  0.0933
  H  H506  1  0.452600  0.787000  0.288200  1.0  0.114
  H  H507  1  0.321500  0.702600  0.164000  1.0  0.0766
  H  H508  1  0.398600  0.686000  0.251300  1.0  0.1033
  H  H509  1  0.671300  0.125500  0.816500  1.0  0.1023
  H  H510  1  0.777700  0.111200  0.804300  1.0  0.0866
  H  H511  1  0.692200  0.043000  0.920200  1.0  0.0992
  H  H512  1  0.797700  0.028600  0.908200  1.0  0.1178
  H  H513  1  0.495500  0.029500  0.940500  1.0  0.0802
  H  H514  1  0.411600  0.006000  0.973400  1.0  0.0906
  H  H515  1  0.400400  0.123400  0.923600  1.0  0.0929
  H  H516  1  0.309600  0.098600  0.949200  1.0  0.0925
  H  H517  1  0.758800  0.821500  0.974000  1.0  0.0834
  H  H518  1  0.708900  0.902800  0.867000  1.0  0.0843
  H  H519  1  0.827600  0.857400  0.045200  1.0  0.1056
  H  H520  1  0.781000  0.938700  0.937200  1.0  0.1037
  H  H521  1  0.739500  0.765200  0.762500  1.0  0.1055
  H  H522  1  0.731700  0.715100  0.708600  1.0  0.0876
  H  H523  1  0.558700  0.737900  0.789000  1.0  0.0854
  H  H524  1  0.550800  0.688300  0.734300  1.0  0.0955
  H  H525  1  0.564500  0.035000  0.757200  1.0  0.0945
  H  H526  1  0.719000  0.962100  0.795000  1.0  0.0979
  H  H527  1  0.623600  0.066600  0.707900  1.0  0.0955
  H  H528  1  0.779500  0.995100  0.748900  1.0  0.1094
  H  H529  1  0.404400  0.982000  0.841000  1.0  0.0787
  H  H530  1  0.444700  0.889500  0.967700  1.0  0.09
  H  H531  1  0.529800  0.904800  0.929600  1.0  0.1024
  H  H532  1  0.317900  0.966400  0.879300  1.0  0.107
  H  H533  1  0.038900  0.798000  0.038900  1.0  0.094
  H  H534  1  0.893100  0.829600  0.893300  1.0  0.0829
  H  H535  1  0.918600  0.887400  0.921100  1.0  0.0965
  H  H536  1  0.062900  0.855200  0.066700  1.0  0.1032
  H  H537  1  0.760900  0.718400  0.908200  1.0  0.0926
  H  H538  1  0.673400  0.678000  0.868000  1.0  0.1084
  H  H539  1  0.799200  0.631500  0.792900  1.0  0.0934
  H  H540  1  0.887600  0.671600  0.834200  1.0  0.0958
  H  H541  1  0.259500  0.872400  0.708100  1.0  0.0808
  H  H542  1  0.234100  0.865100  0.859500  1.0  0.1016
  H  H543  1  0.154400  0.901400  0.671900  1.0  0.1044
  H  H544  1  0.122600  0.891100  0.820900  1.0  0.0838
  H  H545  1  0.429900  0.757800  0.846200  1.0  0.092
  H  H546  1  0.519000  0.717400  0.885400  1.0  0.1007
  H  H547  1  0.640500  0.793900  0.981800  1.0  0.11
  H  H548  1  0.551500  0.834100  0.940300  1.0  0.0871
  H  H549  1  0.635000  0.625600  0.809500  1.0  0.3554
  H  H550  1  0.682200  0.608000  0.782500  1.0  0.3259
  H  H551  1  0.663100  0.665200  0.662000  1.0  0.3397
  H  H552  1  0.596200  0.655100  0.671900  1.0  0.3435
  H  H553  1  0.331600  0.901800  0.979200  1.0  0.3324
  H  H554  1  0.283600  0.929600  0.945300  1.0  0.3375
  H  H555  1  0.724500  0.072300  0.675400  1.0  0.3106
  H  H556  1  0.781100  0.044900  0.689100  1.0  0.3455
  H  H557  1  0.684200  0.734400  0.985100  1.0  0.3271
  H  H558  1  0.640000  0.705700  0.950300  1.0  0.3358
  H  H559  1  0.048900  0.901700  0.869500  1.0  0.3007
  H  H560  1  0.081400  0.926800  0.916700  1.0  0.3529
  H  H561  1  0.044100  0.916800  0.043700  1.0  0.3142
  H  H562  1  0.989200  0.928900  0.990700  1.0  0.3563
  H  H563  1  0.507500  0.741000  0.354200  1.0  0.3112
  H  H564  1  0.488000  0.703300  0.341500  1.0  0.3493
  H  H565  1  0.874000  0.915300  0.076500  1.0  0.355
  H  H566  1  0.859500  0.945700  0.036800  1.0  0.334
  H  H567  1  0.884700  0.075000  0.833300  1.0  0.3527
  H  H568  1  0.891000  0.044100  0.871200  1.0  0.3388
  H  H569  1  0.299800  0.011200  0.987600  1.0  0.336
  H  H570  1  0.261000  0.045300  0.979500  1.0  0.3114
  H  H571  1  0.047500  0.924600  0.684000  1.0  0.3309
  H  H572  1  0.036300  0.922300  0.739700  1.0  0.3248
  H  H573  1  0.641100  0.293600  0.934800  1.0  0.0938
  H  H574  1  0.669600  0.407200  0.004400  1.0  0.1019
  H  H575  1  0.728400  0.362100  0.061100  1.0  0.0848
  H  H576  1  0.581400  0.339500  0.877900  1.0  0.1024
  H  H577  1  0.874600  0.303600  0.201100  1.0  0.0933
  H  H578  1  0.952600  0.287000  0.288200  1.0  0.114
  H  H579  1  0.821500  0.202600  0.164000  1.0  0.0766
  H  H580  1  0.898600  0.186000  0.251300  1.0  0.1033
  H  H581  1  0.171300  0.625500  0.816500  1.0  0.1023
  H  H582  1  0.277700  0.611200  0.804300  1.0  0.0866
  H  H583  1  0.192200  0.543000  0.920200  1.0  0.0992
  H  H584  1  0.297700  0.528600  0.908200  1.0  0.1178
  H  H585  1  0.995500  0.529500  0.940500  1.0  0.0802
  H  H586  1  0.911600  0.506000  0.973400  1.0  0.0906
  H  H587  1  0.900400  0.623400  0.923600  1.0  0.0929
  H  H588  1  0.809600  0.598600  0.949200  1.0  0.0925
  H  H589  1  0.258800  0.321500  0.974000  1.0  0.0834
  H  H590  1  0.208900  0.402800  0.867000  1.0  0.0843
  H  H591  1  0.327600  0.357400  0.045200  1.0  0.1056
  H  H592  1  0.281000  0.438700  0.937200  1.0  0.1037
  H  H593  1  0.239500  0.265200  0.762500  1.0  0.1055
  H  H594  1  0.231700  0.215100  0.708600  1.0  0.0876
  H  H595  1  0.058700  0.237900  0.789000  1.0  0.0854
  H  H596  1  0.050800  0.188300  0.734300  1.0  0.0955
  H  H597  1  0.064500  0.535000  0.757200  1.0  0.0945
  H  H598  1  0.219000  0.462100  0.795000  1.0  0.0979
  H  H599  1  0.123600  0.566600  0.707900  1.0  0.0955
  H  H600  1  0.279500  0.495100  0.748900  1.0  0.1094
  H  H601  1  0.904400  0.482000  0.841000  1.0  0.0787
  H  H602  1  0.944700  0.389500  0.967700  1.0  0.09
  H  H603  1  0.029800  0.404800  0.929600  1.0  0.1024
  H  H604  1  0.817900  0.466400  0.879300  1.0  0.107
  H  H605  1  0.538900  0.298000  0.038900  1.0  0.094
  H  H606  1  0.393100  0.329600  0.893300  1.0  0.0829
  H  H607  1  0.418600  0.387400  0.921100  1.0  0.0965
  H  H608  1  0.562900  0.355200  0.066700  1.0  0.1032
  H  H609  1  0.260900  0.218400  0.908200  1.0  0.0926
  H  H610  1  0.173400  0.178000  0.868000  1.0  0.1084
  H  H611  1  0.299200  0.131500  0.792900  1.0  0.0934
  H  H612  1  0.387600  0.171600  0.834200  1.0  0.0958
  H  H613  1  0.759500  0.372400  0.708100  1.0  0.0808
  H  H614  1  0.734100  0.365100  0.859500  1.0  0.1016
  H  H615  1  0.654400  0.401400  0.671900  1.0  0.1044
  H  H616  1  0.622600  0.391100  0.820900  1.0  0.0838
  H  H617  1  0.929900  0.257800  0.846200  1.0  0.092
  H  H618  1  0.019000  0.217400  0.885400  1.0  0.1007
  H  H619  1  0.140500  0.293900  0.981800  1.0  0.11
  H  H620  1  0.051500  0.334100  0.940300  1.0  0.0871
  H  H621  1  0.135000  0.125600  0.809500  1.0  0.3554
  H  H622  1  0.182200  0.108000  0.782500  1.0  0.3259
  H  H623  1  0.163100  0.165200  0.662000  1.0  0.3397
  H  H624  1  0.096200  0.155100  0.671900  1.0  0.3435
  H  H625  1  0.831600  0.401800  0.979200  1.0  0.3324
  H  H626  1  0.783600  0.429600  0.945300  1.0  0.3375
  H  H627  1  0.224500  0.572300  0.675400  1.0  0.3106
  H  H628  1  0.281100  0.544900  0.689100  1.0  0.3455
  H  H629  1  0.184200  0.234400  0.985100  1.0  0.3271
  H  H630  1  0.140000  0.205700  0.950300  1.0  0.3358
  H  H631  1  0.548900  0.401700  0.869500  1.0  0.3007
  H  H632  1  0.581400  0.426800  0.916700  1.0  0.3529
  H  H633  1  0.544100  0.416800  0.043700  1.0  0.3142
  H  H634  1  0.489200  0.428900  0.990700  1.0  0.3563
  H  H635  1  0.007500  0.241000  0.354200  1.0  0.3112
  H  H636  1  0.988000  0.203300  0.341500  1.0  0.3493
  H  H637  1  0.374000  0.415300  0.076500  1.0  0.355
  H  H638  1  0.359500  0.445700  0.036800  1.0  0.334
  H  H639  1  0.384700  0.575000  0.833300  1.0  0.3527
  H  H640  1  0.391000  0.544100  0.871200  1.0  0.3388
  H  H641  1  0.799800  0.511200  0.987600  1.0  0.336
  H  H642  1  0.761000  0.545300  0.979500  1.0  0.3114
  H  H643  1  0.547500  0.424600  0.684000  1.0  0.3309
  H  H644  1  0.536300  0.422300  0.739700  1.0  0.3248
  C  C645  1  0.219000  0.205980  0.545530  1.0  0.3238
  C  C646  1  0.145700  0.183620  0.449290  1.0  -0.109
  C  C647  1  0.116200  0.122040  0.436300  1.0  0.1836
  C  C648  1  0.162600  0.115750  0.490800  1.0  -0.1776
  C  C649  1  0.188800  0.177600  0.505320  1.0  -0.0432
  C  C650  1  0.198000  0.142740  0.524800  1.0  -0.1376
  C  C651  1  0.109700  0.156060  0.415000  1.0  -0.1848
  C  C652  1  0.284100  0.234430  0.619030  1.0  0.267
  C  C653  1  0.338700  0.244870  0.672310  1.0  0.0257
  C  C654  1  0.379200  0.220160  0.710800  1.0  -0.0895
  C  C655  1  0.426500  0.230080  0.763500  1.0  -0.2125
  C  C656  1  0.347400  0.280190  0.688700  1.0  -0.1086
  C  C657  1  0.434600  0.265250  0.779300  1.0  0.1881
  C  C658  1  0.394200  0.290290  0.741400  1.0  -0.1747
  C  C659  1  0.605800  0.904020  0.381880  1.0  0.3236
  C  C660  1  0.670400  0.913880  0.369960  1.0  -0.0497
  C  C661  1  0.696900  0.893880  0.335300  1.0  -0.0746
  C  C662  1  0.761200  0.902300  0.328200  1.0  -0.2011
  C  C663  1  0.709400  0.943060  0.397100  1.0  -0.065
  C  C664  1  0.800700  0.930750  0.356600  1.0  0.2141
  C  C665  1  0.773000  0.951610  0.390300  1.0  -0.2003
  C  C666  1  0.512200  0.906540  0.406620  1.0  0.3001
  C  C667  1  0.458300  0.956420  0.442300  1.0  -0.1038
  C  C668  1  0.407100  0.970690  0.461300  1.0  -0.1983
  C  C669  1  0.455500  0.921260  0.425600  1.0  -0.1129
  C  C670  1  0.401100  0.900620  0.431100  1.0  -0.0603
  C  C671  1  0.347100  0.915460  0.447900  1.0  -0.1618
  C  C672  1  0.348900  0.951400  0.462900  1.0  0.2622
  C  C673  1  0.726500  0.141840  0.412840  1.0  -0.0509
  C  C674  1  0.762800  0.154770  0.466600  1.0  -0.1303
  C  C675  1  0.733200  0.106600  0.402400  1.0  -0.1124
  C  C676  1  0.682600  0.165560  0.367610  1.0  0.2878
  C  C677  1  0.804900  0.133320  0.509500  1.0  -0.2072
  C  C678  1  0.776400  0.084970  0.444800  1.0  -0.1361
  C  C679  1  0.813000  0.098250  0.498800  1.0  0.1911
  C  C680  1  0.648700  0.242660  0.280420  1.0  -0.0416
  C  C681  1  0.701300  0.249990  0.256450  1.0  -0.0845
  C  C682  1  0.696200  0.279930  0.223860  1.0  -0.1819
  C  C683  1  0.592900  0.266340  0.272180  1.0  -0.1202
  C  C684  1  0.649900  0.209880  0.311790  1.0  0.3276
  C  C685  1  0.639000  0.302540  0.213600  1.0  0.2215
  C  C686  1  0.588100  0.296040  0.239330  1.0  -0.2082
  C  C687  1  0.593200  0.028290  0.305470  1.0  0.2815
  C  C688  1  0.634200  0.005380  0.279780  1.0  -0.0884
  C  C689  1  0.606800  0.973530  0.254400  1.0  -0.0976
  C  C690  1  0.706000  0.966430  0.220800  1.0  0.2118
  C  C691  1  0.699600  0.016930  0.277400  1.0  -0.0644
  C  C692  1  0.642600  0.954560  0.225100  1.0  -0.1719
  C  C693  1  0.735300  0.997420  0.249100  1.0  -0.1937
  C  C694  1  0.412600  0.036690  0.366300  1.0  -0.0722
  C  C695  1  0.436400  0.091820  0.442260  1.0  -0.1775
  C  C696  1  0.476400  0.054940  0.380380  1.0  -0.0607
  C  C697  1  0.527000  0.049330  0.349970  1.0  0.296
  C  C698  1  0.487400  0.082790  0.419290  1.0  -0.121
  C  C699  1  0.372300  0.073650  0.428300  1.0  0.2378
  C  C700  1  0.360500  0.045940  0.389600  1.0  -0.1864
  C  C701  1  0.963200  0.192720  0.462970  1.0  -0.0264
  C  C702  1  0.014500  0.184060  0.515220  1.0  -0.081
  C  C703  1  0.927300  0.165370  0.427900  1.0  -0.0722
  C  C704  1  0.942600  0.130630  0.444700  1.0  -0.1777
  C  C705  1  0.947700  0.229430  0.445090  1.0  0.3143
  C  C706  1  0.029100  0.149820  0.531840  1.0  -0.2089
  C  C707  1  0.993700  0.122320  0.496900  1.0  0.2442
  C  C708  1  0.892100  0.276140  0.405750  1.0  0.306
  C  C709  1  0.769100  0.299320  0.385490  1.0  -0.087
  C  C710  1  0.716400  0.323610  0.361400  1.0  -0.2003
  C  C711  1  0.727300  0.350580  0.327420  1.0  0.1831
  C  C712  1  0.791900  0.351350  0.316800  1.0  -0.1947
  C  C713  1  0.844900  0.327070  0.341310  1.0  -0.0847
  C  C714  1  0.834800  0.300600  0.376620  1.0  -0.0343
  C  C715  1  0.332300  0.146710  0.311220  1.0  0.2876
  C  C716  1  0.258900  0.133980  0.287580  1.0  -0.0758
  C  C717  1  0.232900  0.123030  0.231500  1.0  -0.1221
  C  C718  1  0.217800  0.128050  0.321700  1.0  -0.072
  C  C719  1  0.169500  0.105800  0.209500  1.0  -0.2028
  C  C720  1  0.128400  0.099100  0.242000  1.0  0.2313
  C  C721  1  0.151600  0.111600  0.298900  1.0  -0.1109
  C  C722  1  0.482100  0.199760  0.388080  1.0  -0.0651
  C  C723  1  0.472400  0.234840  0.372650  1.0  -0.1388
  C  C724  1  0.525800  0.259080  0.396500  1.0  -0.1491
  C  C725  1  0.599000  0.213430  0.454100  1.0  -0.1875
  C  C726  1  0.590200  0.248590  0.437300  1.0  0.1712
  C  C727  1  0.429000  0.173670  0.355950  1.0  0.3159
  C  C728  1  0.545200  0.189410  0.429280  1.0  -0.0831
  C  C729  1  0.719000  0.705980  0.545530  1.0  0.3238
  C  C730  1  0.645700  0.683620  0.449290  1.0  -0.109
  C  C731  1  0.616200  0.622040  0.436300  1.0  0.1836
  C  C732  1  0.662600  0.615750  0.490800  1.0  -0.1776
  C  C733  1  0.688800  0.677600  0.505320  1.0  -0.0432
  C  C734  1  0.698000  0.642740  0.524800  1.0  -0.1376
  C  C735  1  0.609700  0.656060  0.415000  1.0  -0.1848
  C  C736  1  0.784100  0.734430  0.619030  1.0  0.267
  C  C737  1  0.838700  0.744870  0.672310  1.0  0.0257
  C  C738  1  0.879200  0.720160  0.710800  1.0  -0.0895
  C  C739  1  0.926500  0.730080  0.763500  1.0  -0.2125
  C  C740  1  0.847400  0.780190  0.688700  1.0  -0.1086
  C  C741  1  0.934600  0.765250  0.779300  1.0  0.1881
  C  C742  1  0.894200  0.790290  0.741400  1.0  -0.1747
  C  C743  1  0.105800  0.404020  0.381880  1.0  0.3236
  C  C744  1  0.170400  0.413880  0.369960  1.0  -0.0497
  C  C745  1  0.196900  0.393880  0.335300  1.0  -0.0746
  C  C746  1  0.261200  0.402300  0.328200  1.0  -0.2011
  C  C747  1  0.209400  0.443060  0.397100  1.0  -0.065
  C  C748  1  0.300700  0.430750  0.356600  1.0  0.2141
  C  C749  1  0.273000  0.451610  0.390300  1.0  -0.2003
  C  C750  1  0.012200  0.406540  0.406620  1.0  0.3001
  C  C751  1  0.958300  0.456420  0.442300  1.0  -0.1038
  C  C752  1  0.907100  0.470690  0.461300  1.0  -0.1983
  C  C753  1  0.955500  0.421260  0.425600  1.0  -0.1129
  C  C754  1  0.901100  0.400620  0.431100  1.0  -0.0603
  C  C755  1  0.847100  0.415460  0.447900  1.0  -0.1618
  C  C756  1  0.848900  0.451400  0.462900  1.0  0.2622
  C  C757  1  0.226500  0.641840  0.412840  1.0  -0.0509
  C  C758  1  0.262800  0.654770  0.466600  1.0  -0.1303
  C  C759  1  0.233200  0.606600  0.402400  1.0  -0.1124
  C  C760  1  0.182600  0.665560  0.367610  1.0  0.2878
  C  C761  1  0.304900  0.633320  0.509500  1.0  -0.2072
  C  C762  1  0.276400  0.584970  0.444800  1.0  -0.1361
  C  C763  1  0.313000  0.598250  0.498800  1.0  0.1911
  C  C764  1  0.148700  0.742660  0.280420  1.0  -0.0416
  C  C765  1  0.201300  0.749990  0.256450  1.0  -0.0845
  C  C766  1  0.196200  0.779930  0.223860  1.0  -0.1819
  C  C767  1  0.092900  0.766340  0.272180  1.0  -0.1202
  C  C768  1  0.149900  0.709880  0.311790  1.0  0.3276
  C  C769  1  0.139000  0.802540  0.213600  1.0  0.2215
  C  C770  1  0.088100  0.796040  0.239330  1.0  -0.2082
  C  C771  1  0.093200  0.528290  0.305470  1.0  0.2815
  C  C772  1  0.134200  0.505380  0.279780  1.0  -0.0884
  C  C773  1  0.106800  0.473530  0.254400  1.0  -0.0976
  C  C774  1  0.206000  0.466430  0.220800  1.0  0.2118
  C  C775  1  0.199600  0.516930  0.277400  1.0  -0.0644
  C  C776  1  0.142600  0.454560  0.225100  1.0  -0.1719
  C  C777  1  0.235300  0.497420  0.249100  1.0  -0.1937
  C  C778  1  0.912600  0.536690  0.366300  1.0  -0.0722
  C  C779  1  0.936400  0.591820  0.442260  1.0  -0.1775
  C  C780  1  0.976400  0.554940  0.380380  1.0  -0.0607
  C  C781  1  0.027000  0.549330  0.349970  1.0  0.296
  C  C782  1  0.987400  0.582790  0.419290  1.0  -0.121
  C  C783  1  0.872300  0.573650  0.428300  1.0  0.2378
  C  C784  1  0.860500  0.545940  0.389600  1.0  -0.1864
  C  C785  1  0.463200  0.692720  0.462970  1.0  -0.0264
  C  C786  1  0.514500  0.684060  0.515220  1.0  -0.081
  C  C787  1  0.427300  0.665370  0.427900  1.0  -0.0722
  C  C788  1  0.442600  0.630630  0.444700  1.0  -0.1777
  C  C789  1  0.447700  0.729430  0.445090  1.0  0.3143
  C  C790  1  0.529100  0.649820  0.531840  1.0  -0.2089
  C  C791  1  0.493700  0.622320  0.496900  1.0  0.2442
  C  C792  1  0.392100  0.776140  0.405750  1.0  0.306
  C  C793  1  0.269100  0.799320  0.385490  1.0  -0.087
  C  C794  1  0.216400  0.823610  0.361400  1.0  -0.2003
  C  C795  1  0.227300  0.850580  0.327420  1.0  0.1831
  C  C796  1  0.291900  0.851350  0.316800  1.0  -0.1947
  C  C797  1  0.344900  0.827070  0.341310  1.0  -0.0847
  C  C798  1  0.334800  0.800600  0.376620  1.0  -0.0343
  C  C799  1  0.832300  0.646710  0.311220  1.0  0.2876
  C  C800  1  0.758900  0.633980  0.287580  1.0  -0.0758
  C  C801  1  0.732900  0.623030  0.231500  1.0  -0.1221
  C  C802  1  0.717800  0.628050  0.321700  1.0  -0.072
  C  C803  1  0.669500  0.605800  0.209500  1.0  -0.2028
  C  C804  1  0.628400  0.599100  0.242000  1.0  0.2313
  C  C805  1  0.651600  0.611600  0.298900  1.0  -0.1109
  C  C806  1  0.982100  0.699760  0.388080  1.0  -0.0651
  C  C807  1  0.972400  0.734840  0.372650  1.0  -0.1388
  C  C808  1  0.025800  0.759080  0.396500  1.0  -0.1491
  C  C809  1  0.099000  0.713430  0.454100  1.0  -0.1875
  C  C810  1  0.090200  0.748590  0.437300  1.0  0.1712
  C  C811  1  0.929000  0.673670  0.355950  1.0  0.3159
  C  C812  1  0.045200  0.689410  0.429280  1.0  -0.0831
  C  C813  1  0.781000  0.205980  0.954470  1.0  0.3248
  C  C814  1  0.854300  0.183620  0.050710  1.0  -0.1082
  C  C815  1  0.883800  0.122040  0.063700  1.0  0.1831
  C  C816  1  0.837400  0.115750  0.009200  1.0  -0.1767
  C  C817  1  0.811200  0.177600  0.994680  1.0  -0.0434
  C  C818  1  0.802000  0.142740  0.975200  1.0  -0.138
  C  C819  1  0.890300  0.156060  0.085000  1.0  -0.1853
  C  C820  1  0.715900  0.234430  0.880970  1.0  0.2671
  C  C821  1  0.661300  0.244870  0.827690  1.0  0.0243
  C  C822  1  0.620800  0.220160  0.789200  1.0  -0.0894
  C  C823  1  0.573500  0.230080  0.736500  1.0  -0.2107
  C  C824  1  0.652600  0.280190  0.811300  1.0  -0.1104
  C  C825  1  0.565400  0.265250  0.720700  1.0  0.1884
  C  C826  1  0.605800  0.290290  0.758600  1.0  -0.174
  C  C827  1  0.394200  0.904020  0.118120  1.0  0.3247
  C  C828  1  0.329600  0.913880  0.130040  1.0  -0.0484
  C  C829  1  0.303100  0.893880  0.164700  1.0  -0.0756
  C  C830  1  0.238800  0.902300  0.171800  1.0  -0.2007
  C  C831  1  0.290600  0.943060  0.102900  1.0  -0.0651
  C  C832  1  0.199300  0.930750  0.143400  1.0  0.2166
  C  C833  1  0.227000  0.951610  0.109700  1.0  -0.2015
  C  C834  1  0.487800  0.906540  0.093380  1.0  0.3009
  C  C835  1  0.541700  0.956420  0.057700  1.0  -0.1027
  C  C836  1  0.592900  0.970690  0.038700  1.0  -0.1982
  C  C837  1  0.544500  0.921260  0.074400  1.0  -0.1128
  C  C838  1  0.598900  0.900620  0.068900  1.0  -0.0604
  C  C839  1  0.652900  0.915460  0.052100  1.0  -0.1627
  C  C840  1  0.651100  0.951400  0.037100  1.0  0.2618
  C  C841  1  0.273500  0.141840  0.087160  1.0  -0.0502
  C  C842  1  0.237200  0.154770  0.033400  1.0  -0.1308
  C  C843  1  0.266800  0.106600  0.097600  1.0  -0.1127
  C  C844  1  0.317400  0.165560  0.132390  1.0  0.2882
  C  C845  1  0.195100  0.133320  0.990500  1.0  -0.2065
  C  C846  1  0.223600  0.084970  0.055200  1.0  -0.1361
  C  C847  1  0.187000  0.098250  0.001200  1.0  0.1917
  C  C848  1  0.351300  0.242660  0.219580  1.0  -0.0418
  C  C849  1  0.298700  0.249990  0.243550  1.0  -0.083
  C  C850  1  0.303800  0.279930  0.276140  1.0  -0.1831
  C  C851  1  0.407100  0.266340  0.227820  1.0  -0.1221
  C  C852  1  0.350100  0.209880  0.188210  1.0  0.327
  C  C853  1  0.361000  0.302540  0.286400  1.0  0.221
  C  C854  1  0.411900  0.296040  0.260670  1.0  -0.2074
  C  C855  1  0.406800  0.028290  0.194530  1.0  0.2809
  C  C856  1  0.365800  0.005380  0.220220  1.0  -0.0895
  C  C857  1  0.393200  0.973530  0.245600  1.0  -0.0979
  C  C858  1  0.294000  0.966430  0.279200  1.0  0.2115
  C  C859  1  0.300400  0.016930  0.222600  1.0  -0.0606
  C  C860  1  0.357400  0.954560  0.274900  1.0  -0.1712
  C  C861  1  0.264700  0.997420  0.250900  1.0  -0.1943
  C  C862  1  0.587400  0.036690  0.133700  1.0  -0.0728
  C  C863  1  0.563600  0.091820  0.057740  1.0  -0.1787
  C  C864  1  0.523600  0.054940  0.119620  1.0  -0.0624
  C  C865  1  0.473000  0.049330  0.150030  1.0  0.2955
  C  C866  1  0.512600  0.082790  0.080710  1.0  -0.119
  C  C867  1  0.627700  0.073650  0.071700  1.0  0.2384
  C  C868  1  0.639500  0.045940  0.110400  1.0  -0.1867
  C  C869  1  0.036800  0.192720  0.037030  1.0  -0.0263
  C  C870  1  0.985500  0.184060  0.984780  1.0  -0.081
  C  C871  1  0.072700  0.165370  0.072100  1.0  -0.0727
  C  C872  1  0.057400  0.130630  0.055300  1.0  -0.179
  C  C873  1  0.052300  0.229430  0.054910  1.0  0.3142
  C  C874  1  0.970900  0.149820  0.968160  1.0  -0.2094
  C  C875  1  0.006300  0.122320  0.003100  1.0  0.2445
  C  C876  1  0.107900  0.276140  0.094250  1.0  0.3051
  C  C877  1  0.230900  0.299320  0.114510  1.0  -0.0871
  C  C878  1  0.283600  0.323610  0.138600  1.0  -0.1991
  C  C879  1  0.272700  0.350580  0.172580  1.0  0.182
  C  C880  1  0.208100  0.351350  0.183200  1.0  -0.1948
  C  C881  1  0.155100  0.327070  0.158690  1.0  -0.0842
  C  C882  1  0.165200  0.300600  0.123380  1.0  -0.0347
  C  C883  1  0.667700  0.146710  0.188780  1.0  0.2878
  C  C884  1  0.741100  0.133980  0.212420  1.0  -0.0751
  C  C885  1  0.767100  0.123030  0.268500  1.0  -0.1235
  C  C886  1  0.782200  0.128050  0.178300  1.0  -0.0725
  C  C887  1  0.830500  0.105800  0.290500  1.0  -0.2004
  C  C888  1  0.871600  0.099100  0.258000  1.0  0.2309
  C  C889  1  0.848400  0.111600  0.201100  1.0  -0.1117
  C  C890  1  0.517900  0.199760  0.111920  1.0  -0.0646
  C  C891  1  0.527600  0.234840  0.127350  1.0  -0.1389
  C  C892  1  0.474200  0.259080  0.103500  1.0  -0.1485
  C  C893  1  0.401000  0.213430  0.045900  1.0  -0.1871
  C  C894  1  0.409800  0.248590  0.062700  1.0  0.1731
  C  C895  1  0.571000  0.173670  0.144050  1.0  0.3163
  C  C896  1  0.454800  0.189410  0.070720  1.0  -0.0844
  C  C897  1  0.281000  0.705980  0.954470  1.0  0.3248
  C  C898  1  0.354300  0.683620  0.050710  1.0  -0.1082
  C  C899  1  0.383800  0.622040  0.063700  1.0  0.1831
  C  C900  1  0.337400  0.615750  0.009200  1.0  -0.1767
  C  C901  1  0.311200  0.677600  0.994680  1.0  -0.0434
  C  C902  1  0.302000  0.642740  0.975200  1.0  -0.138
  C  C903  1  0.390300  0.656060  0.085000  1.0  -0.1853
  C  C904  1  0.215900  0.734430  0.880970  1.0  0.2671
  C  C905  1  0.161300  0.744870  0.827690  1.0  0.0243
  C  C906  1  0.120800  0.720160  0.789200  1.0  -0.0894
  C  C907  1  0.073500  0.730080  0.736500  1.0  -0.2107
  C  C908  1  0.152600  0.780190  0.811300  1.0  -0.1104
  C  C909  1  0.065400  0.765250  0.720700  1.0  0.1884
  C  C910  1  0.105800  0.790290  0.758600  1.0  -0.174
  C  C911  1  0.894200  0.404020  0.118120  1.0  0.3247
  C  C912  1  0.829600  0.413880  0.130040  1.0  -0.0484
  C  C913  1  0.803100  0.393880  0.164700  1.0  -0.0756
  C  C914  1  0.738800  0.402300  0.171800  1.0  -0.2007
  C  C915  1  0.790600  0.443060  0.102900  1.0  -0.0651
  C  C916  1  0.699300  0.430750  0.143400  1.0  0.2166
  C  C917  1  0.727000  0.451610  0.109700  1.0  -0.2015
  C  C918  1  0.987800  0.406540  0.093380  1.0  0.3009
  C  C919  1  0.041700  0.456420  0.057700  1.0  -0.1027
  C  C920  1  0.092900  0.470690  0.038700  1.0  -0.1982
  C  C921  1  0.044500  0.421260  0.074400  1.0  -0.1128
  C  C922  1  0.098900  0.400620  0.068900  1.0  -0.0604
  C  C923  1  0.152900  0.415460  0.052100  1.0  -0.1627
  C  C924  1  0.151100  0.451400  0.037100  1.0  0.2618
  C  C925  1  0.773500  0.641840  0.087160  1.0  -0.0502
  C  C926  1  0.737200  0.654770  0.033400  1.0  -0.1308
  C  C927  1  0.766800  0.606600  0.097600  1.0  -0.1127
  C  C928  1  0.817400  0.665560  0.132390  1.0  0.2882
  C  C929  1  0.695100  0.633320  0.990500  1.0  -0.2065
  C  C930  1  0.723600  0.584970  0.055200  1.0  -0.1361
  C  C931  1  0.687000  0.598250  0.001200  1.0  0.1917
  C  C932  1  0.851300  0.742660  0.219580  1.0  -0.0418
  C  C933  1  0.798700  0.749990  0.243550  1.0  -0.083
  C  C934  1  0.803800  0.779930  0.276140  1.0  -0.1831
  C  C935  1  0.907100  0.766340  0.227820  1.0  -0.1221
  C  C936  1  0.850100  0.709880  0.188210  1.0  0.327
  C  C937  1  0.861000  0.802540  0.286400  1.0  0.221
  C  C938  1  0.911900  0.796040  0.260670  1.0  -0.2074
  C  C939  1  0.906800  0.528290  0.194530  1.0  0.2809
  C  C940  1  0.865800  0.505380  0.220220  1.0  -0.0895
  C  C941  1  0.893200  0.473530  0.245600  1.0  -0.0979
  C  C942  1  0.794000  0.466430  0.279200  1.0  0.2115
  C  C943  1  0.800400  0.516930  0.222600  1.0  -0.0606
  C  C944  1  0.857400  0.454560  0.274900  1.0  -0.1712
  C  C945  1  0.764700  0.497420  0.250900  1.0  -0.1943
  C  C946  1  0.087400  0.536690  0.133700  1.0  -0.0728
  C  C947  1  0.063600  0.591820  0.057740  1.0  -0.1787
  C  C948  1  0.023600  0.554940  0.119620  1.0  -0.0624
  C  C949  1  0.973000  0.549330  0.150030  1.0  0.2955
  C  C950  1  0.012600  0.582790  0.080710  1.0  -0.119
  C  C951  1  0.127700  0.573650  0.071700  1.0  0.2384
  C  C952  1  0.139500  0.545940  0.110400  1.0  -0.1867
  C  C953  1  0.536800  0.692720  0.037030  1.0  -0.0263
  C  C954  1  0.485500  0.684060  0.984780  1.0  -0.081
  C  C955  1  0.572700  0.665370  0.072100  1.0  -0.0727
  C  C956  1  0.557400  0.630630  0.055300  1.0  -0.179
  C  C957  1  0.552300  0.729430  0.054910  1.0  0.3142
  C  C958  1  0.470900  0.649820  0.968160  1.0  -0.2094
  C  C959  1  0.506300  0.622320  0.003100  1.0  0.2445
  C  C960  1  0.607900  0.776140  0.094250  1.0  0.3051
  C  C961  1  0.730900  0.799320  0.114510  1.0  -0.0871
  C  C962  1  0.783600  0.823610  0.138600  1.0  -0.1991
  C  C963  1  0.772700  0.850580  0.172580  1.0  0.182
  C  C964  1  0.708100  0.851350  0.183200  1.0  -0.1948
  C  C965  1  0.655100  0.827070  0.158690  1.0  -0.0842
  C  C966  1  0.665200  0.800600  0.123380  1.0  -0.0347
  C  C967  1  0.167700  0.646710  0.188780  1.0  0.2878
  C  C968  1  0.241100  0.633980  0.212420  1.0  -0.0751
  C  C969  1  0.267100  0.623030  0.268500  1.0  -0.1235
  C  C970  1  0.282200  0.628050  0.178300  1.0  -0.0725
  C  C971  1  0.330500  0.605800  0.290500  1.0  -0.2004
  C  C972  1  0.371600  0.599100  0.258000  1.0  0.2309
  C  C973  1  0.348400  0.611600  0.201100  1.0  -0.1117
  C  C974  1  0.017900  0.699760  0.111920  1.0  -0.0646
  C  C975  1  0.027600  0.734840  0.127350  1.0  -0.1389
  C  C976  1  0.974200  0.759080  0.103500  1.0  -0.1485
  C  C977  1  0.901000  0.713430  0.045900  1.0  -0.1871
  C  C978  1  0.909800  0.748590  0.062700  1.0  0.1731
  C  C979  1  0.071000  0.673670  0.144050  1.0  0.3163
  C  C980  1  0.954800  0.689410  0.070720  1.0  -0.0844
  C  C981  1  0.781000  0.794020  0.454470  1.0  0.3248
  C  C982  1  0.854300  0.816380  0.550710  1.0  -0.1081
  C  C983  1  0.883800  0.877960  0.563700  1.0  0.1833
  C  C984  1  0.837400  0.884250  0.509200  1.0  -0.1775
  C  C985  1  0.811200  0.822400  0.494680  1.0  -0.0439
  C  C986  1  0.802000  0.857260  0.475200  1.0  -0.138
  C  C987  1  0.890300  0.843940  0.585000  1.0  -0.1851
  C  C988  1  0.715900  0.765570  0.380970  1.0  0.2669
  C  C989  1  0.661300  0.755130  0.327690  1.0  0.024
  C  C990  1  0.620800  0.779840  0.289200  1.0  -0.0919
  C  C991  1  0.573500  0.769920  0.236500  1.0  -0.2117
  C  C992  1  0.652600  0.719810  0.311300  1.0  -0.1095
  C  C993  1  0.565400  0.734750  0.220700  1.0  0.1884
  C  C994  1  0.605800  0.709710  0.258600  1.0  -0.175
  C  C995  1  0.394200  0.095980  0.618120  1.0  0.3248
  C  C996  1  0.329600  0.086120  0.630040  1.0  -0.0484
  C  C997  1  0.303100  0.106120  0.664700  1.0  -0.076
  C  C998  1  0.238800  0.097700  0.671800  1.0  -0.2003
  C  C999  1  0.290600  0.056940  0.602900  1.0  -0.0638
  C  C1000  1  0.199300  0.069250  0.643400  1.0  0.2166
  C  C1001  1  0.227000  0.048390  0.609700  1.0  -0.2022
  C  C1002  1  0.487800  0.093460  0.593380  1.0  0.3008
  C  C1003  1  0.541700  0.043580  0.557700  1.0  -0.1024
  C  C1004  1  0.592900  0.029310  0.538700  1.0  -0.1969
  C  C1005  1  0.544500  0.078740  0.574400  1.0  -0.1138
  C  C1006  1  0.598900  0.099380  0.568900  1.0  -0.0625
  C  C1007  1  0.652900  0.084540  0.552100  1.0  -0.162
  C  C1008  1  0.651100  0.048600  0.537100  1.0  0.262
  C  C1009  1  0.273500  0.858160  0.587160  1.0  -0.0503
  C  C1010  1  0.237200  0.845230  0.533400  1.0  -0.1307
  C  C1011  1  0.266800  0.893400  0.597600  1.0  -0.1128
  C  C1012  1  0.317400  0.834440  0.632390  1.0  0.288
  C  C1013  1  0.195100  0.866680  0.490500  1.0  -0.2068
  C  C1014  1  0.223600  0.915030  0.555200  1.0  -0.1363
  C  C1015  1  0.187000  0.901750  0.501200  1.0  0.1924
  C  C1016  1  0.351300  0.757340  0.719580  1.0  -0.041
  C  C1017  1  0.298700  0.750010  0.743550  1.0  -0.0838
  C  C1018  1  0.303800  0.720070  0.776140  1.0  -0.1827
  C  C1019  1  0.407100  0.733660  0.727820  1.0  -0.1216
  C  C1020  1  0.350100  0.790120  0.688210  1.0  0.3268
  C  C1021  1  0.361000  0.697460  0.786400  1.0  0.2208
  C  C1022  1  0.411900  0.703960  0.760670  1.0  -0.208
  C  C1023  1  0.406800  0.971710  0.694530  1.0  0.2812
  C  C1024  1  0.365800  0.994620  0.720220  1.0  -0.0908
  C  C1025  1  0.393200  0.026470  0.745600  1.0  -0.098
  C  C1026  1  0.294000  0.033570  0.779200  1.0  0.2118
  C  C1027  1  0.300400  0.983070  0.722600  1.0  -0.061
  C  C1028  1  0.357400  0.045440  0.774900  1.0  -0.171
  C  C1029  1  0.264700  0.002580  0.750900  1.0  -0.1918
  C  C1030  1  0.587400  0.963310  0.633700  1.0  -0.0722
  C  C1031  1  0.563600  0.908180  0.557740  1.0  -0.1797
  C  C1032  1  0.523600  0.945060  0.619620  1.0  -0.0622
  C  C1033  1  0.473000  0.950670  0.650030  1.0  0.2955
  C  C1034  1  0.512600  0.917210  0.580710  1.0  -0.1193
  C  C1035  1  0.627700  0.926350  0.571700  1.0  0.2383
  C  C1036  1  0.639500  0.954060  0.610400  1.0  -0.1872
  C  C1037  1  0.036800  0.807280  0.537030  1.0  -0.0266
  C  C1038  1  0.985500  0.815940  0.484780  1.0  -0.0817
  C  C1039  1  0.072700  0.834630  0.572100  1.0  -0.0726
  C  C1040  1  0.057400  0.869370  0.555300  1.0  -0.179
  C  C1041  1  0.052300  0.770570  0.554910  1.0  0.3145
  C  C1042  1  0.970900  0.850180  0.468160  1.0  -0.2097
  C  C1043  1  0.006300  0.877680  0.503100  1.0  0.2455
  C  C1044  1  0.107900  0.723860  0.594250  1.0  0.3054
  C  C1045  1  0.230900  0.700680  0.614510  1.0  -0.0856
  C  C1046  1  0.283600  0.676390  0.638600  1.0  -0.1985
  C  C1047  1  0.272700  0.649420  0.672580  1.0  0.1818
  C  C1048  1  0.208100  0.648650  0.683200  1.0  -0.195
  C  C1049  1  0.155100  0.672930  0.658690  1.0  -0.0844
  C  C1050  1  0.165200  0.699400  0.623380  1.0  -0.0344
  C  C1051  1  0.667700  0.853290  0.688780  1.0  0.2877
  C  C1052  1  0.741100  0.866020  0.712420  1.0  -0.0751
  C  C1053  1  0.767100  0.876970  0.768500  1.0  -0.1233
  C  C1054  1  0.782200  0.871950  0.678300  1.0  -0.0724
  C  C1055  1  0.830500  0.894200  0.790500  1.0  -0.2013
  C  C1056  1  0.871600  0.900900  0.758000  1.0  0.2313
  C  C1057  1  0.848400  0.888400  0.701100  1.0  -0.1118
  C  C1058  1  0.517900  0.800240  0.611920  1.0  -0.0646
  C  C1059  1  0.527600  0.765160  0.627350  1.0  -0.139
  C  C1060  1  0.474200  0.740920  0.603500  1.0  -0.1495
  C  C1061  1  0.401000  0.786570  0.545900  1.0  -0.1874
  C  C1062  1  0.409800  0.751410  0.562700  1.0  0.1736
  C  C1063  1  0.571000  0.826330  0.644050  1.0  0.3162
  C  C1064  1  0.454800  0.810590  0.570720  1.0  -0.0838
  C  C1065  1  0.281000  0.294020  0.454470  1.0  0.3248
  C  C1066  1  0.354300  0.316380  0.550710  1.0  -0.1081
  C  C1067  1  0.383800  0.377960  0.563700  1.0  0.1833
  C  C1068  1  0.337400  0.384250  0.509200  1.0  -0.1775
  C  C1069  1  0.311200  0.322400  0.494680  1.0  -0.0439
  C  C1070  1  0.302000  0.357260  0.475200  1.0  -0.138
  C  C1071  1  0.390300  0.343940  0.585000  1.0  -0.1851
  C  C1072  1  0.215900  0.265570  0.380970  1.0  0.2669
  C  C1073  1  0.161300  0.255130  0.327690  1.0  0.024
  C  C1074  1  0.120800  0.279840  0.289200  1.0  -0.0919
  C  C1075  1  0.073500  0.269920  0.236500  1.0  -0.2117
  C  C1076  1  0.152600  0.219810  0.311300  1.0  -0.1095
  C  C1077  1  0.065400  0.234750  0.220700  1.0  0.1884
  C  C1078  1  0.105800  0.209710  0.258600  1.0  -0.175
  C  C1079  1  0.894200  0.595980  0.618120  1.0  0.3248
  C  C1080  1  0.829600  0.586120  0.630040  1.0  -0.0484
  C  C1081  1  0.803100  0.606120  0.664700  1.0  -0.076
  C  C1082  1  0.738800  0.597700  0.671800  1.0  -0.2003
  C  C1083  1  0.790600  0.556940  0.602900  1.0  -0.0638
  C  C1084  1  0.699300  0.569250  0.643400  1.0  0.2166
  C  C1085  1  0.727000  0.548390  0.609700  1.0  -0.2022
  C  C1086  1  0.987800  0.593460  0.593380  1.0  0.3008
  C  C1087  1  0.041700  0.543580  0.557700  1.0  -0.1024
  C  C1088  1  0.092900  0.529310  0.538700  1.0  -0.1969
  C  C1089  1  0.044500  0.578740  0.574400  1.0  -0.1138
  C  C1090  1  0.098900  0.599380  0.568900  1.0  -0.0625
  C  C1091  1  0.152900  0.584540  0.552100  1.0  -0.162
  C  C1092  1  0.151100  0.548600  0.537100  1.0  0.262
  C  C1093  1  0.773500  0.358160  0.587160  1.0  -0.0503
  C  C1094  1  0.737200  0.345230  0.533400  1.0  -0.1307
  C  C1095  1  0.766800  0.393400  0.597600  1.0  -0.1128
  C  C1096  1  0.817400  0.334440  0.632390  1.0  0.288
  C  C1097  1  0.695100  0.366680  0.490500  1.0  -0.2068
  C  C1098  1  0.723600  0.415030  0.555200  1.0  -0.1363
  C  C1099  1  0.687000  0.401750  0.501200  1.0  0.1924
  C  C1100  1  0.851300  0.257340  0.719580  1.0  -0.041
  C  C1101  1  0.798700  0.250010  0.743550  1.0  -0.0838
  C  C1102  1  0.803800  0.220070  0.776140  1.0  -0.1827
  C  C1103  1  0.907100  0.233660  0.727820  1.0  -0.1216
  C  C1104  1  0.850100  0.290120  0.688210  1.0  0.3268
  C  C1105  1  0.861000  0.197460  0.786400  1.0  0.2208
  C  C1106  1  0.911900  0.203960  0.760670  1.0  -0.208
  C  C1107  1  0.906800  0.471710  0.694530  1.0  0.2812
  C  C1108  1  0.865800  0.494620  0.720220  1.0  -0.0908
  C  C1109  1  0.893200  0.526470  0.745600  1.0  -0.098
  C  C1110  1  0.794000  0.533570  0.779200  1.0  0.2118
  C  C1111  1  0.800400  0.483070  0.722600  1.0  -0.061
  C  C1112  1  0.857400  0.545440  0.774900  1.0  -0.171
  C  C1113  1  0.764700  0.502580  0.750900  1.0  -0.1918
  C  C1114  1  0.087400  0.463310  0.633700  1.0  -0.0722
  C  C1115  1  0.063600  0.408180  0.557740  1.0  -0.1797
  C  C1116  1  0.023600  0.445060  0.619620  1.0  -0.0622
  C  C1117  1  0.973000  0.450670  0.650030  1.0  0.2955
  C  C1118  1  0.012600  0.417210  0.580710  1.0  -0.1193
  C  C1119  1  0.127700  0.426350  0.571700  1.0  0.2383
  C  C1120  1  0.139500  0.454060  0.610400  1.0  -0.1872
  C  C1121  1  0.536800  0.307280  0.537030  1.0  -0.0266
  C  C1122  1  0.485500  0.315940  0.484780  1.0  -0.0817
  C  C1123  1  0.572700  0.334630  0.572100  1.0  -0.0726
  C  C1124  1  0.557400  0.369370  0.555300  1.0  -0.179
  C  C1125  1  0.552300  0.270570  0.554910  1.0  0.3145
  C  C1126  1  0.470900  0.350180  0.468160  1.0  -0.2097
  C  C1127  1  0.506300  0.377680  0.503100  1.0  0.2455
  C  C1128  1  0.607900  0.223860  0.594250  1.0  0.3054
  C  C1129  1  0.730900  0.200680  0.614510  1.0  -0.0856
  C  C1130  1  0.783600  0.176390  0.638600  1.0  -0.1985
  C  C1131  1  0.772700  0.149420  0.672580  1.0  0.1818
  C  C1132  1  0.708100  0.148650  0.683200  1.0  -0.195
  C  C1133  1  0.655100  0.172930  0.658690  1.0  -0.0844
  C  C1134  1  0.665200  0.199400  0.623380  1.0  -0.0344
  C  C1135  1  0.167700  0.353290  0.688780  1.0  0.2877
  C  C1136  1  0.241100  0.366020  0.712420  1.0  -0.0751
  C  C1137  1  0.267100  0.376970  0.768500  1.0  -0.1233
  C  C1138  1  0.282200  0.371950  0.678300  1.0  -0.0724
  C  C1139  1  0.330500  0.394200  0.790500  1.0  -0.2013
  C  C1140  1  0.371600  0.400900  0.758000  1.0  0.2313
  C  C1141  1  0.348400  0.388400  0.701100  1.0  -0.1118
  C  C1142  1  0.017900  0.300240  0.611920  1.0  -0.0646
  C  C1143  1  0.027600  0.265160  0.627350  1.0  -0.139
  C  C1144  1  0.974200  0.240920  0.603500  1.0  -0.1495
  C  C1145  1  0.901000  0.286570  0.545900  1.0  -0.1874
  C  C1146  1  0.909800  0.251410  0.562700  1.0  0.1736
  C  C1147  1  0.071000  0.326330  0.644050  1.0  0.3162
  C  C1148  1  0.954800  0.310590  0.570720  1.0  -0.0838
  C  C1149  1  0.219000  0.794020  0.045530  1.0  0.3239
  C  C1150  1  0.145700  0.816380  0.949290  1.0  -0.1082
  C  C1151  1  0.116200  0.877960  0.936300  1.0  0.1842
  C  C1152  1  0.162600  0.884250  0.990800  1.0  -0.1778
  C  C1153  1  0.188800  0.822400  0.005320  1.0  -0.0433
  C  C1154  1  0.198000  0.857260  0.024800  1.0  -0.1377
  C  C1155  1  0.109700  0.843940  0.915000  1.0  -0.1844
  C  C1156  1  0.284100  0.765570  0.119030  1.0  0.2668
  C  C1157  1  0.338700  0.755130  0.172310  1.0  0.026
  C  C1158  1  0.379200  0.779840  0.210800  1.0  -0.0914
  C  C1159  1  0.426500  0.769920  0.263500  1.0  -0.2135
  C  C1160  1  0.347400  0.719810  0.188700  1.0  -0.1079
  C  C1161  1  0.434600  0.734750  0.279300  1.0  0.1883
  C  C1162  1  0.394200  0.709710  0.241400  1.0  -0.1752
  C  C1163  1  0.605800  0.095980  0.881880  1.0  0.3237
  C  C1164  1  0.670400  0.086120  0.869960  1.0  -0.0495
  C  C1165  1  0.696900  0.106120  0.835300  1.0  -0.0744
  C  C1166  1  0.761200  0.097700  0.828200  1.0  -0.2009
  C  C1167  1  0.709400  0.056940  0.897100  1.0  -0.0639
  C  C1168  1  0.800700  0.069250  0.856600  1.0  0.2135
  C  C1169  1  0.773000  0.048390  0.890300  1.0  -0.2013
  C  C1170  1  0.512200  0.093460  0.906620  1.0  0.3003
  C  C1171  1  0.458300  0.043580  0.942300  1.0  -0.1034
  C  C1172  1  0.407100  0.029310  0.961300  1.0  -0.1967
  C  C1173  1  0.455500  0.078740  0.925600  1.0  -0.1125
  C  C1174  1  0.401100  0.099380  0.931100  1.0  -0.0621
  C  C1175  1  0.347100  0.084540  0.947900  1.0  -0.1613
  C  C1176  1  0.348900  0.048600  0.962900  1.0  0.2632
  C  C1177  1  0.726500  0.858160  0.912840  1.0  -0.051
  C  C1178  1  0.762800  0.845230  0.966600  1.0  -0.1304
  C  C1179  1  0.733200  0.893400  0.902400  1.0  -0.1123
  C  C1180  1  0.682600  0.834440  0.867610  1.0  0.2876
  C  C1181  1  0.804900  0.866680  0.009500  1.0  -0.2077
  C  C1182  1  0.776400  0.915030  0.944800  1.0  -0.136
  C  C1183  1  0.813000  0.901750  0.998800  1.0  0.1913
  C  C1184  1  0.648700  0.757340  0.780420  1.0  -0.0414
  C  C1185  1  0.701300  0.750010  0.756450  1.0  -0.0844
  C  C1186  1  0.696200  0.720070  0.723860  1.0  -0.1815
  C  C1187  1  0.592900  0.733660  0.772180  1.0  -0.1201
  C  C1188  1  0.649900  0.790120  0.811790  1.0  0.3275
  C  C1189  1  0.639000  0.697460  0.713600  1.0  0.2212
  C  C1190  1  0.588100  0.703960  0.739330  1.0  -0.2085
  C  C1191  1  0.593200  0.971710  0.805470  1.0  0.2813
  C  C1192  1  0.634200  0.994620  0.779780  1.0  -0.0885
  C  C1193  1  0.606800  0.026470  0.754400  1.0  -0.0976
  C  C1194  1  0.706000  0.033570  0.720800  1.0  0.2116
  C  C1195  1  0.699600  0.983070  0.777400  1.0  -0.0634
  C  C1196  1  0.642600  0.045440  0.725100  1.0  -0.1718
  C  C1197  1  0.735300  0.002580  0.749100  1.0  -0.192
  C  C1198  1  0.412600  0.963310  0.866300  1.0  -0.0716
  C  C1199  1  0.436400  0.908180  0.942260  1.0  -0.1783
  C  C1200  1  0.476400  0.945060  0.880380  1.0  -0.0604
  C  C1201  1  0.527000  0.950670  0.849970  1.0  0.2961
  C  C1202  1  0.487400  0.917210  0.919290  1.0  -0.1213
  C  C1203  1  0.372300  0.926350  0.928300  1.0  0.2378
  C  C1204  1  0.360500  0.954060  0.889600  1.0  -0.1868
  C  C1205  1  0.963200  0.807280  0.962970  1.0  -0.0268
  C  C1206  1  0.014500  0.815940  0.015220  1.0  -0.0821
  C  C1207  1  0.927300  0.834630  0.927900  1.0  -0.0719
  C  C1208  1  0.942600  0.869370  0.944700  1.0  -0.1779
  C  C1209  1  0.947700  0.770570  0.945090  1.0  0.3149
  C  C1210  1  0.029100  0.850180  0.031840  1.0  -0.21
  C  C1211  1  0.993700  0.877680  0.996900  1.0  0.2449
  C  C1212  1  0.892100  0.723860  0.905750  1.0  0.3061
  C  C1213  1  0.769100  0.700680  0.885490  1.0  -0.0861
  C  C1214  1  0.716400  0.676390  0.861400  1.0  -0.1994
  C  C1215  1  0.727300  0.649420  0.827420  1.0  0.1828
  C  C1216  1  0.791900  0.648650  0.816800  1.0  -0.1946
  C  C1217  1  0.844900  0.672930  0.841310  1.0  -0.0845
  C  C1218  1  0.834800  0.699400  0.876620  1.0  -0.0342
  C  C1219  1  0.332300  0.853290  0.811220  1.0  0.2877
  C  C1220  1  0.258900  0.866020  0.787580  1.0  -0.0758
  C  C1221  1  0.232900  0.876970  0.731500  1.0  -0.1222
  C  C1222  1  0.217800  0.871950  0.821700  1.0  -0.0723
  C  C1223  1  0.169500  0.894200  0.709500  1.0  -0.2029
  C  C1224  1  0.128400  0.900900  0.742000  1.0  0.2319
  C  C1225  1  0.151600  0.888400  0.798900  1.0  -0.1114
  C  C1226  1  0.482100  0.800240  0.888080  1.0  -0.0652
  C  C1227  1  0.472400  0.765160  0.872650  1.0  -0.1389
  C  C1228  1  0.525800  0.740920  0.896500  1.0  -0.1502
  C  C1229  1  0.599000  0.786570  0.954100  1.0  -0.1877
  C  C1230  1  0.590200  0.751410  0.937300  1.0  0.1716
  C  C1231  1  0.429000  0.826330  0.855950  1.0  0.3157
  C  C1232  1  0.545200  0.810590  0.929280  1.0  -0.0835
  C  C1233  1  0.719000  0.294020  0.045530  1.0  0.3239
  C  C1234  1  0.645700  0.316380  0.949290  1.0  -0.1082
  C  C1235  1  0.616200  0.377960  0.936300  1.0  0.1842
  C  C1236  1  0.662600  0.384250  0.990800  1.0  -0.1778
  C  C1237  1  0.688800  0.322400  0.005320  1.0  -0.0433
  C  C1238  1  0.698000  0.357260  0.024800  1.0  -0.1377
  C  C1239  1  0.609700  0.343940  0.915000  1.0  -0.1844
  C  C1240  1  0.784100  0.265570  0.119030  1.0  0.2668
  C  C1241  1  0.838700  0.255130  0.172310  1.0  0.026
  C  C1242  1  0.879200  0.279840  0.210800  1.0  -0.0914
  C  C1243  1  0.926500  0.269920  0.263500  1.0  -0.2135
  C  C1244  1  0.847400  0.219810  0.188700  1.0  -0.1079
  C  C1245  1  0.934600  0.234750  0.279300  1.0  0.1883
  C  C1246  1  0.894200  0.209710  0.241400  1.0  -0.1752
  C  C1247  1  0.105800  0.595980  0.881880  1.0  0.3237
  C  C1248  1  0.170400  0.586120  0.869960  1.0  -0.0495
  C  C1249  1  0.196900  0.606120  0.835300  1.0  -0.0744
  C  C1250  1  0.261200  0.597700  0.828200  1.0  -0.2009
  C  C1251  1  0.209400  0.556940  0.897100  1.0  -0.0639
  C  C1252  1  0.300700  0.569250  0.856600  1.0  0.2135
  C  C1253  1  0.273000  0.548390  0.890300  1.0  -0.2013
  C  C1254  1  0.012200  0.593460  0.906620  1.0  0.3003
  C  C1255  1  0.958300  0.543580  0.942300  1.0  -0.1034
  C  C1256  1  0.907100  0.529310  0.961300  1.0  -0.1967
  C  C1257  1  0.955500  0.578740  0.925600  1.0  -0.1125
  C  C1258  1  0.901100  0.599380  0.931100  1.0  -0.0621
  C  C1259  1  0.847100  0.584540  0.947900  1.0  -0.1613
  C  C1260  1  0.848900  0.548600  0.962900  1.0  0.2632
  C  C1261  1  0.226500  0.358160  0.912840  1.0  -0.051
  C  C1262  1  0.262800  0.345230  0.966600  1.0  -0.1304
  C  C1263  1  0.233200  0.393400  0.902400  1.0  -0.1123
  C  C1264  1  0.182600  0.334440  0.867610  1.0  0.2876
  C  C1265  1  0.304900  0.366680  0.009500  1.0  -0.2077
  C  C1266  1  0.276400  0.415030  0.944800  1.0  -0.136
  C  C1267  1  0.313000  0.401750  0.998800  1.0  0.1913
  C  C1268  1  0.148700  0.257340  0.780420  1.0  -0.0414
  C  C1269  1  0.201300  0.250010  0.756450  1.0  -0.0844
  C  C1270  1  0.196200  0.220070  0.723860  1.0  -0.1815
  C  C1271  1  0.092900  0.233660  0.772180  1.0  -0.1201
  C  C1272  1  0.149900  0.290120  0.811790  1.0  0.3275
  C  C1273  1  0.139000  0.197460  0.713600  1.0  0.2212
  C  C1274  1  0.088100  0.203960  0.739330  1.0  -0.2085
  C  C1275  1  0.093200  0.471710  0.805470  1.0  0.2813
  C  C1276  1  0.134200  0.494620  0.779780  1.0  -0.0885
  C  C1277  1  0.106800  0.526470  0.754400  1.0  -0.0976
  C  C1278  1  0.206000  0.533570  0.720800  1.0  0.2116
  C  C1279  1  0.199600  0.483070  0.777400  1.0  -0.0634
  C  C1280  1  0.142600  0.545440  0.725100  1.0  -0.1718
  C  C1281  1  0.235300  0.502580  0.749100  1.0  -0.192
  C  C1282  1  0.912600  0.463310  0.866300  1.0  -0.0716
  C  C1283  1  0.936400  0.408180  0.942260  1.0  -0.1783
  C  C1284  1  0.976400  0.445060  0.880380  1.0  -0.0604
  C  C1285  1  0.027000  0.450670  0.849970  1.0  0.2961
  C  C1286  1  0.987400  0.417210  0.919290  1.0  -0.1213
  C  C1287  1  0.872300  0.426350  0.928300  1.0  0.2378
  C  C1288  1  0.860500  0.454060  0.889600  1.0  -0.1868
  C  C1289  1  0.463200  0.307280  0.962970  1.0  -0.0268
  C  C1290  1  0.514500  0.315940  0.015220  1.0  -0.0821
  C  C1291  1  0.427300  0.334630  0.927900  1.0  -0.0719
  C  C1292  1  0.442600  0.369370  0.944700  1.0  -0.1779
  C  C1293  1  0.447700  0.270570  0.945090  1.0  0.3149
  C  C1294  1  0.529100  0.350180  0.031840  1.0  -0.21
  C  C1295  1  0.493700  0.377680  0.996900  1.0  0.2449
  C  C1296  1  0.392100  0.223860  0.905750  1.0  0.3061
  C  C1297  1  0.269100  0.200680  0.885490  1.0  -0.0861
  C  C1298  1  0.216400  0.176390  0.861400  1.0  -0.1994
  C  C1299  1  0.227300  0.149420  0.827420  1.0  0.1828
  C  C1300  1  0.291900  0.148650  0.816800  1.0  -0.1946
  C  C1301  1  0.344900  0.172930  0.841310  1.0  -0.0845
  C  C1302  1  0.334800  0.199400  0.876620  1.0  -0.0342
  C  C1303  1  0.832300  0.353290  0.811220  1.0  0.2877
  C  C1304  1  0.758900  0.366020  0.787580  1.0  -0.0758
  C  C1305  1  0.732900  0.376970  0.731500  1.0  -0.1222
  C  C1306  1  0.717800  0.371950  0.821700  1.0  -0.0723
  C  C1307  1  0.669500  0.394200  0.709500  1.0  -0.2029
  C  C1308  1  0.628400  0.400900  0.742000  1.0  0.2319
  C  C1309  1  0.651600  0.388400  0.798900  1.0  -0.1114
  C  C1310  1  0.982100  0.300240  0.888080  1.0  -0.0652
  C  C1311  1  0.972400  0.265160  0.872650  1.0  -0.1389
  C  C1312  1  0.025800  0.240920  0.896500  1.0  -0.1502
  C  C1313  1  0.099000  0.286570  0.954100  1.0  -0.1877
  C  C1314  1  0.090200  0.251410  0.937300  1.0  0.1716
  C  C1315  1  0.929000  0.326330  0.855950  1.0  0.3157
  C  C1316  1  0.045200  0.310590  0.929280  1.0  -0.0835
  Br  Br1317  1  0.131210  0.321000  0.510960  1.0  -0.2723
  Br  Br1318  1  0.631210  0.821000  0.510960  1.0  -0.2723
  Br  Br1319  1  0.868790  0.321000  0.989040  1.0  -0.2717
  Br  Br1320  1  0.368790  0.821000  0.989040  1.0  -0.2717
  Br  Br1321  1  0.868790  0.679000  0.489040  1.0  -0.2718
  Br  Br1322  1  0.368790  0.179000  0.489040  1.0  -0.2718
  Br  Br1323  1  0.131210  0.679000  0.010960  1.0  -0.2724
  Br  Br1324  1  0.631210  0.179000  0.010960  1.0  -0.2724
  N  N1325  1  0.550480  0.076480  0.327840  1.0  -0.3183
  N  N1326  1  0.552900  0.018510  0.337510  1.0  -0.413
  N  N1327  1  0.592850  0.062700  0.298930  1.0  -0.332
  N  N1328  1  0.281770  0.204340  0.589560  1.0  -0.4461
  N  N1329  1  0.225910  0.254060  0.594330  1.0  -0.2932
  N  N1330  1  0.184410  0.235690  0.546940  1.0  -0.3288
  N  N1331  1  0.995960  0.254730  0.455860  1.0  -0.3107
  N  N1332  1  0.959780  0.285000  0.430830  1.0  -0.2482
  N  N1333  1  0.881780  0.241390  0.413930  1.0  -0.4544
  N  N1334  1  0.529240  0.873030  0.407460  1.0  -0.3229
  N  N1335  1  0.590370  0.871110  0.391720  1.0  -0.3138
  N  N1336  1  0.557520  0.926740  0.389350  1.0  -0.3925
  N  N1337  1  0.385130  0.129390  0.301880  1.0  -0.3166
  N  N1338  1  0.447170  0.146760  0.330060  1.0  -0.2987
  N  N1339  1  0.357380  0.174760  0.345450  1.0  -0.4509
  N  N1340  1  0.706850  0.196320  0.353010  1.0  -0.4368
  N  N1341  1  0.615020  0.160270  0.336500  1.0  -0.2845
  N  N1342  1  0.593850  0.188620  0.300810  1.0  -0.3595
  N  N1343  1  0.674800  0.375490  0.303400  1.0  -0.684
  N  N1344  1  0.631900  0.331000  0.178000  1.0  -0.6691
  N  N1345  1  0.322900  0.081790  0.454300  1.0  -0.7213
  N  N1346  1  0.741700  0.947300  0.191400  1.0  -0.6906
  N  N1347  1  0.645200  0.272550  0.460500  1.0  -0.6505
  N  N1348  1  0.077100  0.094270  0.403200  1.0  -0.6875
  N  N1349  1  0.011200  0.087930  0.512300  1.0  -0.6759
  N  N1350  1  0.482900  0.274870  0.831700  1.0  -0.6738
  N  N1351  1  0.854200  0.076190  0.543200  1.0  -0.6707
  N  N1352  1  0.867300  0.938180  0.353200  1.0  -0.7236
  N  N1353  1  0.296800  0.966900  0.478600  1.0  -0.6702
  N  N1354  1  0.062000  0.081800  0.218800  1.0  -0.6677
  N  N1355  1  0.050480  0.576480  0.327840  1.0  -0.3183
  N  N1356  1  0.052900  0.518510  0.337510  1.0  -0.413
  N  N1357  1  0.092850  0.562700  0.298930  1.0  -0.332
  N  N1358  1  0.781770  0.704340  0.589560  1.0  -0.4461
  N  N1359  1  0.725910  0.754060  0.594330  1.0  -0.2932
  N  N1360  1  0.684410  0.735690  0.546940  1.0  -0.3288
  N  N1361  1  0.495960  0.754730  0.455860  1.0  -0.3107
  N  N1362  1  0.459780  0.785000  0.430830  1.0  -0.2482
  N  N1363  1  0.381780  0.741390  0.413930  1.0  -0.4544
  N  N1364  1  0.029240  0.373030  0.407460  1.0  -0.3229
  N  N1365  1  0.090370  0.371110  0.391720  1.0  -0.3138
  N  N1366  1  0.057520  0.426740  0.389350  1.0  -0.3925
  N  N1367  1  0.885130  0.629390  0.301880  1.0  -0.3166
  N  N1368  1  0.947170  0.646760  0.330060  1.0  -0.2987
  N  N1369  1  0.857380  0.674760  0.345450  1.0  -0.4509
  N  N1370  1  0.206850  0.696320  0.353010  1.0  -0.4368
  N  N1371  1  0.115020  0.660270  0.336500  1.0  -0.2845
  N  N1372  1  0.093850  0.688620  0.300810  1.0  -0.3595
  N  N1373  1  0.174800  0.875490  0.303400  1.0  -0.684
  N  N1374  1  0.131900  0.831000  0.178000  1.0  -0.6691
  N  N1375  1  0.822900  0.581790  0.454300  1.0  -0.7213
  N  N1376  1  0.241700  0.447300  0.191400  1.0  -0.6906
  N  N1377  1  0.145200  0.772550  0.460500  1.0  -0.6505
  N  N1378  1  0.577100  0.594270  0.403200  1.0  -0.6875
  N  N1379  1  0.511200  0.587930  0.512300  1.0  -0.6759
  N  N1380  1  0.982900  0.774870  0.831700  1.0  -0.6738
  N  N1381  1  0.354200  0.576190  0.543200  1.0  -0.6707
  N  N1382  1  0.367300  0.438180  0.353200  1.0  -0.7236
  N  N1383  1  0.796800  0.466900  0.478600  1.0  -0.6702
  N  N1384  1  0.562000  0.581800  0.218800  1.0  -0.6677
  N  N1385  1  0.449520  0.076480  0.172160  1.0  -0.3193
  N  N1386  1  0.447100  0.018510  0.162490  1.0  -0.4144
  N  N1387  1  0.407150  0.062700  0.201070  1.0  -0.3322
  N  N1388  1  0.718230  0.204340  0.910440  1.0  -0.4467
  N  N1389  1  0.774090  0.254060  0.905670  1.0  -0.2927
  N  N1390  1  0.815590  0.235690  0.953060  1.0  -0.3283
  N  N1391  1  0.004040  0.254730  0.044140  1.0  -0.3124
  N  N1392  1  0.040220  0.285000  0.069170  1.0  -0.2484
  N  N1393  1  0.118220  0.241390  0.086070  1.0  -0.4534
  N  N1394  1  0.470760  0.873030  0.092540  1.0  -0.3209
  N  N1395  1  0.409630  0.871110  0.108280  1.0  -0.3144
  N  N1396  1  0.442480  0.926740  0.110650  1.0  -0.3924
  N  N1397  1  0.614870  0.129390  0.198120  1.0  -0.3169
  N  N1398  1  0.552830  0.146760  0.169940  1.0  -0.2991
  N  N1399  1  0.642620  0.174760  0.154550  1.0  -0.4509
  N  N1400  1  0.293150  0.196320  0.146990  1.0  -0.437
  N  N1401  1  0.384980  0.160270  0.163500  1.0  -0.283
  N  N1402  1  0.406150  0.188620  0.199190  1.0  -0.3588
  N  N1403  1  0.325200  0.375490  0.196600  1.0  -0.6895
  N  N1404  1  0.368100  0.331000  0.322000  1.0  -0.6706
  N  N1405  1  0.677100  0.081790  0.045700  1.0  -0.7211
  N  N1406  1  0.258300  0.947300  0.308600  1.0  -0.6865
  N  N1407  1  0.354800  0.272550  0.039500  1.0  -0.6496
  N  N1408  1  0.922900  0.094270  0.096800  1.0  -0.688
  N  N1409  1  0.988800  0.087930  0.987700  1.0  -0.6768
  N  N1410  1  0.517100  0.274870  0.668300  1.0  -0.6733
  N  N1411  1  0.145800  0.076190  0.956800  1.0  -0.667
  N  N1412  1  0.132700  0.938180  0.146800  1.0  -0.7266
  N  N1413  1  0.703200  0.966900  0.021400  1.0  -0.6706
  N  N1414  1  0.938000  0.081800  0.281200  1.0  -0.668
  N  N1415  1  0.949520  0.576480  0.172160  1.0  -0.3193
  N  N1416  1  0.947100  0.518510  0.162490  1.0  -0.4144
  N  N1417  1  0.907150  0.562700  0.201070  1.0  -0.3322
  N  N1418  1  0.218230  0.704340  0.910440  1.0  -0.4467
  N  N1419  1  0.274090  0.754060  0.905670  1.0  -0.2927
  N  N1420  1  0.315590  0.735690  0.953060  1.0  -0.3283
  N  N1421  1  0.504040  0.754730  0.044140  1.0  -0.3124
  N  N1422  1  0.540220  0.785000  0.069170  1.0  -0.2484
  N  N1423  1  0.618220  0.741390  0.086070  1.0  -0.4534
  N  N1424  1  0.970760  0.373030  0.092540  1.0  -0.3209
  N  N1425  1  0.909630  0.371110  0.108280  1.0  -0.3144
  N  N1426  1  0.942480  0.426740  0.110650  1.0  -0.3924
  N  N1427  1  0.114870  0.629390  0.198120  1.0  -0.3169
  N  N1428  1  0.052830  0.646760  0.169940  1.0  -0.2991
  N  N1429  1  0.142620  0.674760  0.154550  1.0  -0.4509
  N  N1430  1  0.793150  0.696320  0.146990  1.0  -0.437
  N  N1431  1  0.884980  0.660270  0.163500  1.0  -0.283
  N  N1432  1  0.906150  0.688620  0.199190  1.0  -0.3588
  N  N1433  1  0.825200  0.875490  0.196600  1.0  -0.6895
  N  N1434  1  0.868100  0.831000  0.322000  1.0  -0.6706
  N  N1435  1  0.177100  0.581790  0.045700  1.0  -0.7211
  N  N1436  1  0.758300  0.447300  0.308600  1.0  -0.6865
  N  N1437  1  0.854800  0.772550  0.039500  1.0  -0.6496
  N  N1438  1  0.422900  0.594270  0.096800  1.0  -0.688
  N  N1439  1  0.488800  0.587930  0.987700  1.0  -0.6768
  N  N1440  1  0.017100  0.774870  0.668300  1.0  -0.6733
  N  N1441  1  0.645800  0.576190  0.956800  1.0  -0.667
  N  N1442  1  0.632700  0.438180  0.146800  1.0  -0.7266
  N  N1443  1  0.203200  0.466900  0.021400  1.0  -0.6706
  N  N1444  1  0.438000  0.581800  0.281200  1.0  -0.668
  N  N1445  1  0.449520  0.923520  0.672160  1.0  -0.3184
  N  N1446  1  0.447100  0.981490  0.662490  1.0  -0.4135
  N  N1447  1  0.407150  0.937300  0.701070  1.0  -0.3314
  N  N1448  1  0.718230  0.795660  0.410440  1.0  -0.4464
  N  N1449  1  0.774090  0.745940  0.405670  1.0  -0.2906
  N  N1450  1  0.815590  0.764310  0.453060  1.0  -0.3262
  N  N1451  1  0.004040  0.745270  0.544140  1.0  -0.3115
  N  N1452  1  0.040220  0.715000  0.569170  1.0  -0.249
  N  N1453  1  0.118220  0.758610  0.586070  1.0  -0.4539
  N  N1454  1  0.470760  0.126970  0.592540  1.0  -0.3213
  N  N1455  1  0.409630  0.128890  0.608280  1.0  -0.3157
  N  N1456  1  0.442480  0.073260  0.610650  1.0  -0.392
  N  N1457  1  0.614870  0.870610  0.698120  1.0  -0.3174
  N  N1458  1  0.552830  0.853240  0.669940  1.0  -0.2987
  N  N1459  1  0.642620  0.825240  0.654550  1.0  -0.4509
  N  N1460  1  0.293150  0.803680  0.646990  1.0  -0.4371
  N  N1461  1  0.384980  0.839730  0.663500  1.0  -0.284
  N  N1462  1  0.406150  0.811380  0.699190  1.0  -0.3594
  N  N1463  1  0.325200  0.624510  0.696600  1.0  -0.6868
  N  N1464  1  0.368100  0.669000  0.822000  1.0  -0.6717
  N  N1465  1  0.677100  0.918210  0.545700  1.0  -0.7212
  N  N1466  1  0.258300  0.052700  0.808600  1.0  -0.689
  N  N1467  1  0.354800  0.727450  0.539500  1.0  -0.6514
  N  N1468  1  0.922900  0.905730  0.596800  1.0  -0.6863
  N  N1469  1  0.988800  0.912070  0.487700  1.0  -0.6759
  N  N1470  1  0.517100  0.725130  0.168300  1.0  -0.6732
  N  N1471  1  0.145800  0.923810  0.456800  1.0  -0.6697
  N  N1472  1  0.132700  0.061820  0.646800  1.0  -0.7269
  N  N1473  1  0.703200  0.033100  0.521400  1.0  -0.6693
  N  N1474  1  0.938000  0.918200  0.781200  1.0  -0.6686
  N  N1475  1  0.949520  0.423520  0.672160  1.0  -0.3184
  N  N1476  1  0.947100  0.481490  0.662490  1.0  -0.4135
  N  N1477  1  0.907150  0.437300  0.701070  1.0  -0.3314
  N  N1478  1  0.218230  0.295660  0.410440  1.0  -0.4464
  N  N1479  1  0.274090  0.245940  0.405670  1.0  -0.2906
  N  N1480  1  0.315590  0.264310  0.453060  1.0  -0.3262
  N  N1481  1  0.504040  0.245270  0.544140  1.0  -0.3115
  N  N1482  1  0.540220  0.215000  0.569170  1.0  -0.249
  N  N1483  1  0.618220  0.258610  0.586070  1.0  -0.4539
  N  N1484  1  0.970760  0.626970  0.592540  1.0  -0.3213
  N  N1485  1  0.909630  0.628890  0.608280  1.0  -0.3157
  N  N1486  1  0.942480  0.573260  0.610650  1.0  -0.392
  N  N1487  1  0.114870  0.370610  0.698120  1.0  -0.3174
  N  N1488  1  0.052830  0.353240  0.669940  1.0  -0.2987
  N  N1489  1  0.142620  0.325240  0.654550  1.0  -0.4509
  N  N1490  1  0.793150  0.303680  0.646990  1.0  -0.4371
  N  N1491  1  0.884980  0.339730  0.663500  1.0  -0.284
  N  N1492  1  0.906150  0.311380  0.699190  1.0  -0.3594
  N  N1493  1  0.825200  0.124510  0.696600  1.0  -0.6868
  N  N1494  1  0.868100  0.169000  0.822000  1.0  -0.6717
  N  N1495  1  0.177100  0.418210  0.545700  1.0  -0.7212
  N  N1496  1  0.758300  0.552700  0.808600  1.0  -0.689
  N  N1497  1  0.854800  0.227450  0.539500  1.0  -0.6514
  N  N1498  1  0.422900  0.405730  0.596800  1.0  -0.6863
  N  N1499  1  0.488800  0.412070  0.487700  1.0  -0.6759
  N  N1500  1  0.017100  0.225130  0.168300  1.0  -0.6732
  N  N1501  1  0.645800  0.423810  0.456800  1.0  -0.6697
  N  N1502  1  0.632700  0.561820  0.646800  1.0  -0.7269
  N  N1503  1  0.203200  0.533100  0.521400  1.0  -0.6693
  N  N1504  1  0.438000  0.418200  0.781200  1.0  -0.6686
  N  N1505  1  0.550480  0.923520  0.827840  1.0  -0.3174
  N  N1506  1  0.552900  0.981490  0.837510  1.0  -0.4132
  N  N1507  1  0.592850  0.937300  0.798930  1.0  -0.331
  N  N1508  1  0.281770  0.795660  0.089560  1.0  -0.4464
  N  N1509  1  0.225910  0.745940  0.094330  1.0  -0.292
  N  N1510  1  0.184410  0.764310  0.046940  1.0  -0.3276
  N  N1511  1  0.995960  0.745270  0.955860  1.0  -0.3099
  N  N1512  1  0.959780  0.715000  0.930830  1.0  -0.2481
  N  N1513  1  0.881780  0.758610  0.913930  1.0  -0.4542
  N  N1514  1  0.529240  0.126970  0.907460  1.0  -0.3227
  N  N1515  1  0.590370  0.128890  0.891720  1.0  -0.3142
  N  N1516  1  0.557520  0.073260  0.889350  1.0  -0.3922
  N  N1517  1  0.385130  0.870610  0.801880  1.0  -0.317
  N  N1518  1  0.447170  0.853240  0.830060  1.0  -0.2984
  N  N1519  1  0.357380  0.825240  0.845450  1.0  -0.4509
  N  N1520  1  0.706850  0.803680  0.853010  1.0  -0.4364
  N  N1521  1  0.615020  0.839730  0.836500  1.0  -0.285
  N  N1522  1  0.593850  0.811380  0.800810  1.0  -0.3595
  N  N1523  1  0.674800  0.624510  0.803400  1.0  -0.688
  N  N1524  1  0.631900  0.669000  0.678000  1.0  -0.6705
  N  N1525  1  0.322900  0.918210  0.954300  1.0  -0.7215
  N  N1526  1  0.741700  0.052700  0.691400  1.0  -0.6892
  N  N1527  1  0.645200  0.727450  0.960500  1.0  -0.6524
  N  N1528  1  0.077100  0.905730  0.903200  1.0  -0.6876
  N  N1529  1  0.011200  0.912070  0.012300  1.0  -0.6742
  N  N1530  1  0.482900  0.725130  0.331700  1.0  -0.6737
  N  N1531  1  0.854200  0.923810  0.043200  1.0  -0.6744
  N  N1532  1  0.867300  0.061820  0.853200  1.0  -0.7255
  N  N1533  1  0.296800  0.033100  0.978600  1.0  -0.6675
  N  N1534  1  0.062000  0.918200  0.718800  1.0  -0.6694
  N  N1535  1  0.050480  0.423520  0.827840  1.0  -0.3174
  N  N1536  1  0.052900  0.481490  0.837510  1.0  -0.4132
  N  N1537  1  0.092850  0.437300  0.798930  1.0  -0.331
  N  N1538  1  0.781770  0.295660  0.089560  1.0  -0.4464
  N  N1539  1  0.725910  0.245940  0.094330  1.0  -0.292
  N  N1540  1  0.684410  0.264310  0.046940  1.0  -0.3276
  N  N1541  1  0.495960  0.245270  0.955860  1.0  -0.3099
  N  N1542  1  0.459780  0.215000  0.930830  1.0  -0.2481
  N  N1543  1  0.381780  0.258610  0.913930  1.0  -0.4542
  N  N1544  1  0.029240  0.626970  0.907460  1.0  -0.3227
  N  N1545  1  0.090370  0.628890  0.891720  1.0  -0.3142
  N  N1546  1  0.057520  0.573260  0.889350  1.0  -0.3922
  N  N1547  1  0.885130  0.370610  0.801880  1.0  -0.317
  N  N1548  1  0.947170  0.353240  0.830060  1.0  -0.2984
  N  N1549  1  0.857380  0.325240  0.845450  1.0  -0.4509
  N  N1550  1  0.206850  0.303680  0.853010  1.0  -0.4364
  N  N1551  1  0.115020  0.339730  0.836500  1.0  -0.285
  N  N1552  1  0.093850  0.311380  0.800810  1.0  -0.3595
  N  N1553  1  0.174800  0.124510  0.803400  1.0  -0.688
  N  N1554  1  0.131900  0.169000  0.678000  1.0  -0.6705
  N  N1555  1  0.822900  0.418210  0.954300  1.0  -0.7215
  N  N1556  1  0.241700  0.552700  0.691400  1.0  -0.6892
  N  N1557  1  0.145200  0.227450  0.960500  1.0  -0.6524
  N  N1558  1  0.577100  0.405730  0.903200  1.0  -0.6876
  N  N1559  1  0.511200  0.412070  0.012300  1.0  -0.6742
  N  N1560  1  0.982900  0.225130  0.331700  1.0  -0.6737
  N  N1561  1  0.354200  0.423810  0.043200  1.0  -0.6744
  N  N1562  1  0.367300  0.561820  0.853200  1.0  -0.7255
  N  N1563  1  0.796800  0.533100  0.978600  1.0  -0.6675
  N  N1564  1  0.562000  0.418200  0.718800  1.0  -0.6694
