# generated using pymatgen
data_Cu17H144C168(N30Cl)2
_symmetry_space_group_name_H-M   'P 1'
_cell_length_a   20.01400000
_cell_length_b   37.95600000
_cell_length_c   25.08500000
_cell_angle_alpha   90.00000000
_cell_angle_beta   109.38400000
_cell_angle_gamma   90.00000000
_symmetry_Int_Tables_number   1
_chemical_formula_structural   Cu17H144C168(N30Cl)2
_chemical_formula_sum   'Cu68 H576 C672 N240 Cl8'
_cell_volume   17975.68103297
_cell_formula_units_Z   4
loop_
 _symmetry_equiv_pos_site_id
 _symmetry_equiv_pos_as_xyz
  1  'x, y, z'
loop_
 _atom_site_type_symbol
 _atom_site_label
 _atom_site_symmetry_multiplicity
 _atom_site_fract_x
 _atom_site_fract_y
 _atom_site_fract_z
 _atom_site_occupancy
 _atom_site_charge
  Cu  Cu1  1  0.538760  0.128350  0.331830  1.0  0.506
  Cu  Cu2  1  0.552570  0.974500  0.367370  1.0  0.3122
  Cu  Cu3  1  0.092970  0.254670  0.496840  1.0  0.4033
  Cu  Cu4  1  0.795080  0.218170  0.381010  1.0  0.4368
  Cu  Cu5  1  0.006440  0.328740  0.432460  1.0  0.4332
  Cu  Cu6  1  0.317290  0.206240  0.387650  1.0  0.3801
  Cu  Cu7  1  0.152220  0.331090  0.412600  1.0  0.437
  Cu  Cu8  1  0.608570  0.094660  0.246210  1.0  0.4045
  Cu  Cu9  1  0.038760  0.628350  0.331830  1.0  0.506
  Cu  Cu10  1  0.052570  0.474500  0.367370  1.0  0.3122
  Cu  Cu11  1  0.592970  0.754670  0.496840  1.0  0.4033
  Cu  Cu12  1  0.295080  0.718170  0.381010  1.0  0.4368
  Cu  Cu13  1  0.506440  0.828740  0.432460  1.0  0.4335
  Cu  Cu14  1  0.817290  0.706240  0.387650  1.0  0.3801
  Cu  Cu15  1  0.652220  0.831090  0.412600  1.0  0.437
  Cu  Cu16  1  0.108570  0.594660  0.246210  1.0  0.4045
  Cu  Cu17  1  0.461240  0.128350  0.168170  1.0  0.5063
  Cu  Cu18  1  0.447430  0.974500  0.132630  1.0  0.3116
  Cu  Cu19  1  0.907030  0.254670  0.003160  1.0  0.4023
  Cu  Cu20  1  0.204920  0.218170  0.118990  1.0  0.4373
  Cu  Cu21  1  0.993560  0.328740  0.067540  1.0  0.4323
  Cu  Cu22  1  0.682710  0.206240  0.112350  1.0  0.3773
  Cu  Cu23  1  0.847780  0.331090  0.087400  1.0  0.4368
  Cu  Cu24  1  0.391430  0.094660  0.253790  1.0  0.405
  Cu  Cu25  1  0.961240  0.628350  0.168170  1.0  0.5063
  Cu  Cu26  1  0.947430  0.474500  0.132630  1.0  0.3116
  Cu  Cu27  1  0.407030  0.754670  0.003160  1.0  0.4023
  Cu  Cu28  1  0.704920  0.718170  0.118990  1.0  0.4373
  Cu  Cu29  1  0.493560  0.828740  0.067540  1.0  0.4327
  Cu  Cu30  1  0.182710  0.706240  0.112350  1.0  0.3773
  Cu  Cu31  1  0.347780  0.831090  0.087400  1.0  0.4368
  Cu  Cu32  1  0.891430  0.594660  0.253790  1.0  0.405
  Cu  Cu33  1  0.461240  0.871650  0.668170  1.0  0.5062
  Cu  Cu34  1  0.447430  0.025500  0.632630  1.0  0.311
  Cu  Cu35  1  0.907030  0.745330  0.503160  1.0  0.4039
  Cu  Cu36  1  0.204920  0.781830  0.618990  1.0  0.4381
  Cu  Cu37  1  0.993560  0.671260  0.567540  1.0  0.4326
  Cu  Cu38  1  0.682710  0.793760  0.612350  1.0  0.3785
  Cu  Cu39  1  0.847780  0.668910  0.587400  1.0  0.4367
  Cu  Cu40  1  0.391430  0.905340  0.753790  1.0  0.4049
  Cu  Cu41  1  0.961240  0.371650  0.668170  1.0  0.5062
  Cu  Cu42  1  0.947430  0.525500  0.632630  1.0  0.311
  Cu  Cu43  1  0.407030  0.245330  0.503160  1.0  0.4039
  Cu  Cu44  1  0.704920  0.281830  0.618990  1.0  0.4381
  Cu  Cu45  1  0.493560  0.171260  0.567540  1.0  0.433
  Cu  Cu46  1  0.182710  0.293760  0.612350  1.0  0.3785
  Cu  Cu47  1  0.347780  0.168910  0.587400  1.0  0.4367
  Cu  Cu48  1  0.891430  0.405340  0.753790  1.0  0.4049
  Cu  Cu49  1  0.538760  0.871650  0.831830  1.0  0.506
  Cu  Cu50  1  0.552570  0.025500  0.867370  1.0  0.3115
  Cu  Cu51  1  0.092970  0.745330  0.996840  1.0  0.4047
  Cu  Cu52  1  0.795080  0.781830  0.881010  1.0  0.4377
  Cu  Cu53  1  0.006440  0.671260  0.932460  1.0  0.4332
  Cu  Cu54  1  0.317290  0.793760  0.887650  1.0  0.3811
  Cu  Cu55  1  0.152220  0.668910  0.912600  1.0  0.4372
  Cu  Cu56  1  0.608570  0.905340  0.746210  1.0  0.4045
  Cu  Cu57  1  0.038760  0.371650  0.831830  1.0  0.506
  Cu  Cu58  1  0.052570  0.525500  0.867370  1.0  0.3115
  Cu  Cu59  1  0.592970  0.245330  0.996840  1.0  0.4047
  Cu  Cu60  1  0.295080  0.281830  0.881010  1.0  0.4377
  Cu  Cu61  1  0.506440  0.171260  0.932460  1.0  0.4336
  Cu  Cu62  1  0.817290  0.293760  0.887650  1.0  0.3811
  Cu  Cu63  1  0.652220  0.168910  0.912600  1.0  0.4372
  Cu  Cu64  1  0.108570  0.405340  0.746210  1.0  0.4045
  Cu  Cu65  1  0.500000  0.192250  0.250000  1.0  0.3827
  Cu  Cu66  1  0.000000  0.692250  0.250000  1.0  0.3827
  Cu  Cu67  1  0.500000  0.807750  0.750000  1.0  0.3834
  Cu  Cu68  1  0.000000  0.307750  0.750000  1.0  0.3834
  H  H69  1  0.683800  0.392500  0.284200  1.0  0.3225
  H  H70  1  0.638100  0.375300  0.312900  1.0  0.3479
  H  H71  1  0.596400  0.347300  0.171200  1.0  0.3418
  H  H72  1  0.662900  0.337100  0.160900  1.0  0.3546
  H  H73  1  0.334400  0.102200  0.478100  1.0  0.3171
  H  H74  1  0.286800  0.073600  0.446300  1.0  0.333
  H  H75  1  0.721000  0.928700  0.174600  1.0  0.3055
  H  H76  1  0.778300  0.955700  0.188000  1.0  0.3459
  H  H77  1  0.684100  0.266700  0.485900  1.0  0.3463
  H  H78  1  0.639200  0.295100  0.450900  1.0  0.3327
  H  H79  1  0.082000  0.072400  0.411100  1.0  0.3539
  H  H80  1  0.046700  0.097900  0.365300  1.0  0.3094
  H  H81  1  0.988100  0.069800  0.487300  1.0  0.3559
  H  H82  1  0.040600  0.082000  0.541500  1.0  0.3293
  H  H83  1  0.503100  0.258100  0.847400  1.0  0.3171
  H  H84  1  0.482900  0.295800  0.835600  1.0  0.3395
  H  H85  1  0.871700  0.085000  0.571500  1.0  0.3509
  H  H86  1  0.856800  0.055000  0.530900  1.0  0.327
  H  H87  1  0.889100  0.960400  0.372800  1.0  0.3387
  H  H88  1  0.881900  0.930000  0.333700  1.0  0.3499
  H  H89  1  0.298100  0.985900  0.488100  1.0  0.3422
  H  H90  1  0.262500  0.950900  0.481000  1.0  0.3065
  H  H91  1  0.054200  0.075400  0.183700  1.0  0.3216
  H  H92  1  0.042400  0.076500  0.239200  1.0  0.327
  H  H93  1  0.136800  0.206200  0.431400  1.0  0.0964
  H  H94  1  0.172000  0.091800  0.497500  1.0  0.0949
  H  H95  1  0.227900  0.137700  0.555300  1.0  0.0634
  H  H96  1  0.078000  0.160400  0.375000  1.0  0.1011
  H  H97  1  0.371500  0.196200  0.693900  1.0  0.0984
  H  H98  1  0.449500  0.212800  0.781500  1.0  0.1008
  H  H99  1  0.316300  0.297300  0.660000  1.0  0.0721
  H  H100  1  0.393400  0.313300  0.747600  1.0  0.1001
  H  H101  1  0.675500  0.875800  0.322000  1.0  0.1042
  H  H102  1  0.780000  0.892200  0.308700  1.0  0.0902
  H  H103  1  0.692900  0.958500  0.424400  1.0  0.0958
  H  H104  1  0.797400  0.974100  0.412300  1.0  0.1086
  H  H105  1  0.494200  0.971000  0.441100  1.0  0.0755
  H  H106  1  0.408200  0.993600  0.471900  1.0  0.096
  H  H107  1  0.401800  0.876400  0.422500  1.0  0.0841
  H  H108  1  0.313500  0.899500  0.450700  1.0  0.1032
  H  H109  1  0.756100  0.179100  0.471900  1.0  0.0801
  H  H110  1  0.706100  0.098600  0.364700  1.0  0.0772
  H  H111  1  0.825600  0.142700  0.541900  1.0  0.0972
  H  H112  1  0.779300  0.062300  0.433200  1.0  0.108
  H  H113  1  0.737300  0.236200  0.259500  1.0  0.1035
  H  H114  1  0.729100  0.285200  0.205300  1.0  0.095
  H  H115  1  0.559100  0.264500  0.287800  1.0  0.0855
  H  H116  1  0.551300  0.313600  0.233300  1.0  0.0956
  H  H117  1  0.563700  0.966000  0.256900  1.0  0.0855
  H  H118  1  0.716500  0.038900  0.293900  1.0  0.0914
  H  H119  1  0.622100  0.934200  0.207700  1.0  0.1136
  H  H120  1  0.776000  0.006700  0.246600  1.0  0.12
  H  H121  1  0.407400  0.018700  0.343800  1.0  0.0897
  H  H122  1  0.446300  0.113300  0.466700  1.0  0.0953
  H  H123  1  0.531300  0.097000  0.428900  1.0  0.1
  H  H124  1  0.321500  0.035400  0.381700  1.0  0.1063
  H  H125  1  0.036400  0.201500  0.535100  1.0  0.0866
  H  H126  1  0.892400  0.169200  0.390500  1.0  0.0873
  H  H127  1  0.917600  0.111700  0.418500  1.0  0.0887
  H  H128  1  0.061000  0.144000  0.562800  1.0  0.0976
  H  H129  1  0.763500  0.282400  0.408900  1.0  0.0943
  H  H130  1  0.676400  0.323300  0.369600  1.0  0.0941
  H  H131  1  0.798300  0.369100  0.292000  1.0  0.0909
  H  H132  1  0.886100  0.328400  0.331200  1.0  0.0973
  H  H133  1  0.264500  0.129800  0.211400  1.0  0.0724
  H  H134  1  0.235600  0.133800  0.360900  1.0  0.109
  H  H135  1  0.159700  0.099900  0.173100  1.0  0.108
  H  H136  1  0.127700  0.105800  0.321200  1.0  0.079
  H  H137  1  0.432100  0.243100  0.348600  1.0  0.0822
  H  H138  1  0.520700  0.283100  0.387200  1.0  0.1059
  H  H139  1  0.639500  0.206700  0.482900  1.0  0.0965
  H  H140  1  0.550700  0.166400  0.442900  1.0  0.0989
  H  H141  1  0.183800  0.892500  0.284200  1.0  0.3225
  H  H142  1  0.138100  0.875300  0.312900  1.0  0.3479
  H  H143  1  0.096400  0.847300  0.171200  1.0  0.3418
  H  H144  1  0.162900  0.837100  0.160900  1.0  0.3546
  H  H145  1  0.834400  0.602200  0.478100  1.0  0.3171
  H  H146  1  0.786800  0.573600  0.446300  1.0  0.333
  H  H147  1  0.221000  0.428700  0.174600  1.0  0.3055
  H  H148  1  0.278300  0.455700  0.188000  1.0  0.3459
  H  H149  1  0.184100  0.766700  0.485900  1.0  0.3463
  H  H150  1  0.139200  0.795100  0.450900  1.0  0.3327
  H  H151  1  0.582000  0.572400  0.411100  1.0  0.3539
  H  H152  1  0.546700  0.597900  0.365300  1.0  0.3094
  H  H153  1  0.488100  0.569800  0.487300  1.0  0.3559
  H  H154  1  0.540600  0.582000  0.541500  1.0  0.3293
  H  H155  1  0.003100  0.758100  0.847400  1.0  0.3171
  H  H156  1  0.982900  0.795800  0.835600  1.0  0.3395
  H  H157  1  0.371700  0.585000  0.571500  1.0  0.3509
  H  H158  1  0.356800  0.555000  0.530900  1.0  0.327
  H  H159  1  0.389100  0.460400  0.372800  1.0  0.3387
  H  H160  1  0.381900  0.430000  0.333700  1.0  0.3499
  H  H161  1  0.798100  0.485900  0.488100  1.0  0.3422
  H  H162  1  0.762500  0.450900  0.481000  1.0  0.3065
  H  H163  1  0.554200  0.575400  0.183700  1.0  0.3216
  H  H164  1  0.542400  0.576500  0.239200  1.0  0.327
  H  H165  1  0.636800  0.706200  0.431400  1.0  0.0964
  H  H166  1  0.672000  0.591800  0.497500  1.0  0.0949
  H  H167  1  0.727900  0.637700  0.555300  1.0  0.0634
  H  H168  1  0.578000  0.660400  0.375000  1.0  0.1011
  H  H169  1  0.871500  0.696200  0.693900  1.0  0.0984
  H  H170  1  0.949500  0.712800  0.781500  1.0  0.1008
  H  H171  1  0.816300  0.797300  0.660000  1.0  0.0721
  H  H172  1  0.893400  0.813300  0.747600  1.0  0.1001
  H  H173  1  0.175500  0.375800  0.322000  1.0  0.1042
  H  H174  1  0.280000  0.392200  0.308700  1.0  0.0902
  H  H175  1  0.192900  0.458500  0.424400  1.0  0.0958
  H  H176  1  0.297400  0.474100  0.412300  1.0  0.1086
  H  H177  1  0.994200  0.471000  0.441100  1.0  0.0755
  H  H178  1  0.908200  0.493600  0.471900  1.0  0.096
  H  H179  1  0.901800  0.376400  0.422500  1.0  0.0842
  H  H180  1  0.813500  0.399500  0.450700  1.0  0.1032
  H  H181  1  0.256100  0.679100  0.471900  1.0  0.0801
  H  H182  1  0.206100  0.598600  0.364700  1.0  0.0772
  H  H183  1  0.325600  0.642700  0.541900  1.0  0.0972
  H  H184  1  0.279300  0.562300  0.433200  1.0  0.108
  H  H185  1  0.237300  0.736200  0.259500  1.0  0.1035
  H  H186  1  0.229100  0.785200  0.205300  1.0  0.095
  H  H187  1  0.059100  0.764500  0.287800  1.0  0.0855
  H  H188  1  0.051300  0.813600  0.233300  1.0  0.0956
  H  H189  1  0.063700  0.466000  0.256900  1.0  0.0855
  H  H190  1  0.216500  0.538900  0.293900  1.0  0.0914
  H  H191  1  0.122100  0.434200  0.207700  1.0  0.1136
  H  H192  1  0.276000  0.506700  0.246600  1.0  0.12
  H  H193  1  0.907400  0.518700  0.343800  1.0  0.0897
  H  H194  1  0.946300  0.613300  0.466700  1.0  0.0953
  H  H195  1  0.031300  0.597000  0.428900  1.0  0.1
  H  H196  1  0.821500  0.535400  0.381700  1.0  0.1063
  H  H197  1  0.536400  0.701500  0.535100  1.0  0.0866
  H  H198  1  0.392400  0.669200  0.390500  1.0  0.0873
  H  H199  1  0.417600  0.611700  0.418500  1.0  0.0887
  H  H200  1  0.561000  0.644000  0.562800  1.0  0.0976
  H  H201  1  0.263500  0.782400  0.408900  1.0  0.0943
  H  H202  1  0.176400  0.823300  0.369600  1.0  0.0941
  H  H203  1  0.298300  0.869100  0.292000  1.0  0.0909
  H  H204  1  0.386100  0.828400  0.331200  1.0  0.0973
  H  H205  1  0.764500  0.629800  0.211400  1.0  0.0724
  H  H206  1  0.735600  0.633800  0.360900  1.0  0.109
  H  H207  1  0.659700  0.599900  0.173100  1.0  0.108
  H  H208  1  0.627700  0.605800  0.321200  1.0  0.079
  H  H209  1  0.932100  0.743100  0.348600  1.0  0.0822
  H  H210  1  0.020700  0.783100  0.387200  1.0  0.1059
  H  H211  1  0.139500  0.706700  0.482900  1.0  0.0965
  H  H212  1  0.050700  0.666400  0.442900  1.0  0.0989
  H  H213  1  0.316200  0.392500  0.215800  1.0  0.3243
  H  H214  1  0.361900  0.375300  0.187100  1.0  0.3491
  H  H215  1  0.403600  0.347300  0.328800  1.0  0.3419
  H  H216  1  0.337100  0.337100  0.339100  1.0  0.3528
  H  H217  1  0.665600  0.102200  0.021900  1.0  0.317
  H  H218  1  0.713200  0.073600  0.053700  1.0  0.3351
  H  H219  1  0.279000  0.928700  0.325400  1.0  0.307
  H  H220  1  0.221700  0.955700  0.312000  1.0  0.3455
  H  H221  1  0.315900  0.266700  0.014100  1.0  0.344
  H  H222  1  0.360800  0.295100  0.049100  1.0  0.3321
  H  H223  1  0.918000  0.072400  0.088900  1.0  0.3528
  H  H224  1  0.953300  0.097900  0.134700  1.0  0.3118
  H  H225  1  0.011900  0.069800  0.012700  1.0  0.3575
  H  H226  1  0.959400  0.082000  0.958500  1.0  0.3278
  H  H227  1  0.496900  0.258100  0.652600  1.0  0.316
  H  H228  1  0.517100  0.295800  0.664400  1.0  0.3399
  H  H229  1  0.128300  0.085000  0.928500  1.0  0.349
  H  H230  1  0.143200  0.055000  0.969100  1.0  0.3266
  H  H231  1  0.110900  0.960400  0.127200  1.0  0.3384
  H  H232  1  0.118100  0.930000  0.166300  1.0  0.3499
  H  H233  1  0.701900  0.985900  0.011900  1.0  0.3417
  H  H234  1  0.737500  0.950900  0.019000  1.0  0.3081
  H  H235  1  0.945800  0.075400  0.316300  1.0  0.3215
  H  H236  1  0.957600  0.076500  0.260800  1.0  0.3271
  H  H237  1  0.863200  0.206200  0.068600  1.0  0.0961
  H  H238  1  0.828000  0.091800  0.002500  1.0  0.095
  H  H239  1  0.772100  0.137700  0.944700  1.0  0.0631
  H  H240  1  0.922000  0.160400  0.125000  1.0  0.1007
  H  H241  1  0.628500  0.196200  0.806100  1.0  0.0982
  H  H242  1  0.550500  0.212800  0.718500  1.0  0.1004
  H  H243  1  0.683700  0.297300  0.840000  1.0  0.0714
  H  H244  1  0.606600  0.313300  0.752400  1.0  0.1006
  H  H245  1  0.324500  0.875800  0.178000  1.0  0.104
  H  H246  1  0.220000  0.892200  0.191300  1.0  0.0902
  H  H247  1  0.307100  0.958500  0.075600  1.0  0.096
  H  H248  1  0.202600  0.974100  0.087700  1.0  0.1084
  H  H249  1  0.505800  0.971000  0.058900  1.0  0.0753
  H  H250  1  0.591800  0.993600  0.028100  1.0  0.0968
  H  H251  1  0.598200  0.876400  0.077500  1.0  0.0842
  H  H252  1  0.686500  0.899500  0.049300  1.0  0.1033
  H  H253  1  0.243900  0.179100  0.028100  1.0  0.0805
  H  H254  1  0.293900  0.098600  0.135300  1.0  0.0777
  H  H255  1  0.174400  0.142700  0.958100  1.0  0.0973
  H  H256  1  0.220700  0.062300  0.066800  1.0  0.1086
  H  H257  1  0.262700  0.236200  0.240500  1.0  0.1032
  H  H258  1  0.270900  0.285200  0.294700  1.0  0.0948
  H  H259  1  0.440900  0.264500  0.212200  1.0  0.0862
  H  H260  1  0.448700  0.313600  0.266700  1.0  0.0947
  H  H261  1  0.436300  0.966000  0.243100  1.0  0.0853
  H  H262  1  0.283500  0.038900  0.206100  1.0  0.0918
  H  H263  1  0.377900  0.934200  0.292300  1.0  0.1137
  H  H264  1  0.224000  0.006700  0.253400  1.0  0.1206
  H  H265  1  0.592600  0.018700  0.156200  1.0  0.0897
  H  H266  1  0.553700  0.113300  0.033300  1.0  0.0957
  H  H267  1  0.468700  0.097000  0.071100  1.0  0.0997
  H  H268  1  0.678500  0.035400  0.118300  1.0  0.1058
  H  H269  1  0.963600  0.201500  0.964900  1.0  0.0872
  H  H270  1  0.107600  0.169200  0.109500  1.0  0.0876
  H  H271  1  0.082400  0.111700  0.081500  1.0  0.0888
  H  H272  1  0.939000  0.144000  0.937200  1.0  0.0973
  H  H273  1  0.236500  0.282400  0.091100  1.0  0.094
  H  H274  1  0.323600  0.323300  0.130400  1.0  0.094
  H  H275  1  0.201700  0.369100  0.208000  1.0  0.0916
  H  H276  1  0.113900  0.328400  0.168800  1.0  0.0975
  H  H277  1  0.735500  0.129800  0.288600  1.0  0.0729
  H  H278  1  0.764400  0.133800  0.139100  1.0  0.1088
  H  H279  1  0.840300  0.099900  0.326900  1.0  0.1079
  H  H280  1  0.872300  0.105800  0.178800  1.0  0.0788
  H  H281  1  0.567900  0.243100  0.151400  1.0  0.0819
  H  H282  1  0.479300  0.283100  0.112800  1.0  0.1057
  H  H283  1  0.360500  0.206700  0.017100  1.0  0.0962
  H  H284  1  0.449300  0.166400  0.057100  1.0  0.0987
  H  H285  1  0.816200  0.892500  0.215800  1.0  0.3243
  H  H286  1  0.861900  0.875300  0.187100  1.0  0.3491
  H  H287  1  0.903600  0.847300  0.328800  1.0  0.3419
  H  H288  1  0.837100  0.837100  0.339100  1.0  0.3528
  H  H289  1  0.165600  0.602200  0.021900  1.0  0.317
  H  H290  1  0.213200  0.573600  0.053700  1.0  0.3351
  H  H291  1  0.779000  0.428700  0.325400  1.0  0.307
  H  H292  1  0.721700  0.455700  0.312000  1.0  0.3455
  H  H293  1  0.815900  0.766700  0.014100  1.0  0.344
  H  H294  1  0.860800  0.795100  0.049100  1.0  0.3321
  H  H295  1  0.418000  0.572400  0.088900  1.0  0.3528
  H  H296  1  0.453300  0.597900  0.134700  1.0  0.3118
  H  H297  1  0.511900  0.569800  0.012700  1.0  0.3575
  H  H298  1  0.459400  0.582000  0.958500  1.0  0.3278
  H  H299  1  0.996900  0.758100  0.652600  1.0  0.316
  H  H300  1  0.017100  0.795800  0.664400  1.0  0.3399
  H  H301  1  0.628300  0.585000  0.928500  1.0  0.349
  H  H302  1  0.643200  0.555000  0.969100  1.0  0.3266
  H  H303  1  0.610900  0.460400  0.127200  1.0  0.3384
  H  H304  1  0.618100  0.430000  0.166300  1.0  0.3499
  H  H305  1  0.201900  0.485900  0.011900  1.0  0.3417
  H  H306  1  0.237500  0.450900  0.019000  1.0  0.3081
  H  H307  1  0.445800  0.575400  0.316300  1.0  0.3215
  H  H308  1  0.457600  0.576500  0.260800  1.0  0.3271
  H  H309  1  0.363200  0.706200  0.068600  1.0  0.0961
  H  H310  1  0.328000  0.591800  0.002500  1.0  0.095
  H  H311  1  0.272100  0.637700  0.944700  1.0  0.0631
  H  H312  1  0.422000  0.660400  0.125000  1.0  0.1007
  H  H313  1  0.128500  0.696200  0.806100  1.0  0.0982
  H  H314  1  0.050500  0.712800  0.718500  1.0  0.1004
  H  H315  1  0.183700  0.797300  0.840000  1.0  0.0714
  H  H316  1  0.106600  0.813300  0.752400  1.0  0.1006
  H  H317  1  0.824500  0.375800  0.178000  1.0  0.104
  H  H318  1  0.720000  0.392200  0.191300  1.0  0.0902
  H  H319  1  0.807100  0.458500  0.075600  1.0  0.096
  H  H320  1  0.702600  0.474100  0.087700  1.0  0.1084
  H  H321  1  0.005800  0.471000  0.058900  1.0  0.0753
  H  H322  1  0.091800  0.493600  0.028100  1.0  0.0968
  H  H323  1  0.098200  0.376400  0.077500  1.0  0.0842
  H  H324  1  0.186500  0.399500  0.049300  1.0  0.1033
  H  H325  1  0.743900  0.679100  0.028100  1.0  0.0805
  H  H326  1  0.793900  0.598600  0.135300  1.0  0.0777
  H  H327  1  0.674400  0.642700  0.958100  1.0  0.0973
  H  H328  1  0.720700  0.562300  0.066800  1.0  0.1086
  H  H329  1  0.762700  0.736200  0.240500  1.0  0.1032
  H  H330  1  0.770900  0.785200  0.294700  1.0  0.0948
  H  H331  1  0.940900  0.764500  0.212200  1.0  0.0862
  H  H332  1  0.948700  0.813600  0.266700  1.0  0.0947
  H  H333  1  0.936300  0.466000  0.243100  1.0  0.0853
  H  H334  1  0.783500  0.538900  0.206100  1.0  0.0918
  H  H335  1  0.877900  0.434200  0.292300  1.0  0.1137
  H  H336  1  0.724000  0.506700  0.253400  1.0  0.1206
  H  H337  1  0.092600  0.518700  0.156200  1.0  0.0897
  H  H338  1  0.053700  0.613300  0.033300  1.0  0.0957
  H  H339  1  0.968700  0.597000  0.071100  1.0  0.0997
  H  H340  1  0.178500  0.535400  0.118300  1.0  0.1058
  H  H341  1  0.463600  0.701500  0.964900  1.0  0.0872
  H  H342  1  0.607600  0.669200  0.109500  1.0  0.0876
  H  H343  1  0.582400  0.611700  0.081500  1.0  0.0888
  H  H344  1  0.439000  0.644000  0.937200  1.0  0.0973
  H  H345  1  0.736500  0.782400  0.091100  1.0  0.094
  H  H346  1  0.823600  0.823300  0.130400  1.0  0.094
  H  H347  1  0.701700  0.869100  0.208000  1.0  0.0916
  H  H348  1  0.613900  0.828400  0.168800  1.0  0.0975
  H  H349  1  0.235500  0.629800  0.288600  1.0  0.0729
  H  H350  1  0.264400  0.633800  0.139100  1.0  0.1088
  H  H351  1  0.340300  0.599900  0.326900  1.0  0.1079
  H  H352  1  0.372300  0.605800  0.178800  1.0  0.0788
  H  H353  1  0.067900  0.743100  0.151400  1.0  0.0819
  H  H354  1  0.979300  0.783100  0.112800  1.0  0.1057
  H  H355  1  0.860500  0.706700  0.017100  1.0  0.0962
  H  H356  1  0.949300  0.666400  0.057100  1.0  0.0987
  H  H357  1  0.316200  0.607500  0.715800  1.0  0.3246
  H  H358  1  0.361900  0.624700  0.687100  1.0  0.3497
  H  H359  1  0.403600  0.652700  0.828800  1.0  0.3425
  H  H360  1  0.337100  0.662900  0.839100  1.0  0.3528
  H  H361  1  0.665600  0.897800  0.521900  1.0  0.3147
  H  H362  1  0.713200  0.926400  0.553700  1.0  0.3338
  H  H363  1  0.279000  0.071300  0.825400  1.0  0.3099
  H  H364  1  0.221700  0.044300  0.812000  1.0  0.3454
  H  H365  1  0.315900  0.733300  0.514100  1.0  0.3443
  H  H366  1  0.360800  0.704900  0.549100  1.0  0.3318
  H  H367  1  0.918000  0.927600  0.588900  1.0  0.3534
  H  H368  1  0.953300  0.902100  0.634700  1.0  0.3104
  H  H369  1  0.011900  0.930200  0.512700  1.0  0.356
  H  H370  1  0.959400  0.918000  0.458500  1.0  0.3274
  H  H371  1  0.496900  0.741900  0.152600  1.0  0.3166
  H  H372  1  0.517100  0.704200  0.164400  1.0  0.3408
  H  H373  1  0.128300  0.915000  0.428500  1.0  0.3484
  H  H374  1  0.143200  0.945000  0.469100  1.0  0.3262
  H  H375  1  0.110900  0.039600  0.627200  1.0  0.3375
  H  H376  1  0.118100  0.070000  0.666300  1.0  0.35
  H  H377  1  0.701900  0.014100  0.511900  1.0  0.3419
  H  H378  1  0.737500  0.049100  0.519000  1.0  0.3108
  H  H379  1  0.945800  0.924600  0.816300  1.0  0.3212
  H  H380  1  0.957600  0.923500  0.760800  1.0  0.3279
  H  H381  1  0.863200  0.793800  0.568600  1.0  0.0967
  H  H382  1  0.828000  0.908200  0.502500  1.0  0.0948
  H  H383  1  0.772100  0.862300  0.444700  1.0  0.0632
  H  H384  1  0.922000  0.839600  0.625000  1.0  0.1008
  H  H385  1  0.628500  0.803800  0.306100  1.0  0.0973
  H  H386  1  0.550500  0.787200  0.218500  1.0  0.1016
  H  H387  1  0.683700  0.702700  0.340000  1.0  0.0715
  H  H388  1  0.606600  0.686700  0.252400  1.0  0.1008
  H  H389  1  0.324500  0.124200  0.678000  1.0  0.104
  H  H390  1  0.220000  0.107800  0.691300  1.0  0.09
  H  H391  1  0.307100  0.041500  0.575600  1.0  0.0961
  H  H392  1  0.202600  0.025900  0.587700  1.0  0.1086
  H  H393  1  0.505800  0.029000  0.558900  1.0  0.0752
  H  H394  1  0.591800  0.006400  0.528100  1.0  0.0966
  H  H395  1  0.598200  0.123600  0.577500  1.0  0.0839
  H  H396  1  0.686500  0.100500  0.549300  1.0  0.1034
  H  H397  1  0.243900  0.820900  0.528100  1.0  0.0809
  H  H398  1  0.293900  0.901400  0.635300  1.0  0.0775
  H  H399  1  0.174400  0.857300  0.458100  1.0  0.0973
  H  H400  1  0.220700  0.937700  0.566800  1.0  0.1082
  H  H401  1  0.262700  0.763800  0.740500  1.0  0.1036
  H  H402  1  0.270900  0.714800  0.794700  1.0  0.0949
  H  H403  1  0.440900  0.735500  0.712200  1.0  0.0861
  H  H404  1  0.448700  0.686400  0.766700  1.0  0.0944
  H  H405  1  0.436300  0.034000  0.743100  1.0  0.0856
  H  H406  1  0.283500  0.961100  0.706100  1.0  0.0912
  H  H407  1  0.377900  0.065800  0.792300  1.0  0.1133
  H  H408  1  0.224000  0.993300  0.753400  1.0  0.1207
  H  H409  1  0.592600  0.981300  0.656200  1.0  0.0896
  H  H410  1  0.553700  0.886700  0.533300  1.0  0.0951
  H  H411  1  0.468700  0.903000  0.571100  1.0  0.0995
  H  H412  1  0.678500  0.964600  0.618300  1.0  0.106
  H  H413  1  0.963600  0.798500  0.464900  1.0  0.087
  H  H414  1  0.107600  0.830800  0.609500  1.0  0.0878
  H  H415  1  0.082400  0.888300  0.581500  1.0  0.0887
  H  H416  1  0.939000  0.856000  0.437200  1.0  0.0975
  H  H417  1  0.236500  0.717600  0.591100  1.0  0.0939
  H  H418  1  0.323600  0.676700  0.630400  1.0  0.094
  H  H419  1  0.201700  0.630900  0.708000  1.0  0.092
  H  H420  1  0.113900  0.671600  0.668800  1.0  0.0977
  H  H421  1  0.735500  0.870200  0.788600  1.0  0.0731
  H  H422  1  0.764400  0.866200  0.639100  1.0  0.1088
  H  H423  1  0.840300  0.900100  0.826900  1.0  0.108
  H  H424  1  0.872300  0.894200  0.678800  1.0  0.0793
  H  H425  1  0.567900  0.756900  0.651400  1.0  0.082
  H  H426  1  0.479300  0.716900  0.612800  1.0  0.1052
  H  H427  1  0.360500  0.793300  0.517100  1.0  0.0966
  H  H428  1  0.449300  0.833600  0.557100  1.0  0.0985
  H  H429  1  0.816200  0.107500  0.715800  1.0  0.3246
  H  H430  1  0.861900  0.124700  0.687100  1.0  0.3497
  H  H431  1  0.903600  0.152700  0.828800  1.0  0.3425
  H  H432  1  0.837100  0.162900  0.839100  1.0  0.3528
  H  H433  1  0.165600  0.397800  0.521900  1.0  0.3147
  H  H434  1  0.213200  0.426400  0.553700  1.0  0.3338
  H  H435  1  0.779000  0.571300  0.825400  1.0  0.3099
  H  H436  1  0.721700  0.544300  0.812000  1.0  0.3454
  H  H437  1  0.815900  0.233300  0.514100  1.0  0.3443
  H  H438  1  0.860800  0.204900  0.549100  1.0  0.3318
  H  H439  1  0.418000  0.427600  0.588900  1.0  0.3534
  H  H440  1  0.453300  0.402100  0.634700  1.0  0.3104
  H  H441  1  0.511900  0.430200  0.512700  1.0  0.356
  H  H442  1  0.459400  0.418000  0.458500  1.0  0.3274
  H  H443  1  0.996900  0.241900  0.152600  1.0  0.3166
  H  H444  1  0.017100  0.204200  0.164400  1.0  0.3408
  H  H445  1  0.628300  0.415000  0.428500  1.0  0.3484
  H  H446  1  0.643200  0.445000  0.469100  1.0  0.3262
  H  H447  1  0.610900  0.539600  0.627200  1.0  0.3375
  H  H448  1  0.618100  0.570000  0.666300  1.0  0.35
  H  H449  1  0.201900  0.514100  0.511900  1.0  0.3419
  H  H450  1  0.237500  0.549100  0.519000  1.0  0.3108
  H  H451  1  0.445800  0.424600  0.816300  1.0  0.3212
  H  H452  1  0.457600  0.423500  0.760800  1.0  0.3279
  H  H453  1  0.363200  0.293800  0.568600  1.0  0.0967
  H  H454  1  0.328000  0.408200  0.502500  1.0  0.0948
  H  H455  1  0.272100  0.362300  0.444700  1.0  0.0632
  H  H456  1  0.422000  0.339600  0.625000  1.0  0.1008
  H  H457  1  0.128500  0.303800  0.306100  1.0  0.0973
  H  H458  1  0.050500  0.287200  0.218500  1.0  0.1016
  H  H459  1  0.183700  0.202700  0.340000  1.0  0.0715
  H  H460  1  0.106600  0.186700  0.252400  1.0  0.1008
  H  H461  1  0.824500  0.624200  0.678000  1.0  0.104
  H  H462  1  0.720000  0.607800  0.691300  1.0  0.09
  H  H463  1  0.807100  0.541500  0.575600  1.0  0.0961
  H  H464  1  0.702600  0.525900  0.587700  1.0  0.1086
  H  H465  1  0.005800  0.529000  0.558900  1.0  0.0752
  H  H466  1  0.091800  0.506400  0.528100  1.0  0.0966
  H  H467  1  0.098200  0.623600  0.577500  1.0  0.084
  H  H468  1  0.186500  0.600500  0.549300  1.0  0.1034
  H  H469  1  0.743900  0.320900  0.528100  1.0  0.0809
  H  H470  1  0.793900  0.401400  0.635300  1.0  0.0775
  H  H471  1  0.674400  0.357300  0.458100  1.0  0.0973
  H  H472  1  0.720700  0.437700  0.566800  1.0  0.1082
  H  H473  1  0.762700  0.263800  0.740500  1.0  0.1036
  H  H474  1  0.770900  0.214800  0.794700  1.0  0.0949
  H  H475  1  0.940900  0.235500  0.712200  1.0  0.0861
  H  H476  1  0.948700  0.186400  0.766700  1.0  0.0944
  H  H477  1  0.936300  0.534000  0.743100  1.0  0.0856
  H  H478  1  0.783500  0.461100  0.706100  1.0  0.0912
  H  H479  1  0.877900  0.565800  0.792300  1.0  0.1133
  H  H480  1  0.724000  0.493300  0.753400  1.0  0.1207
  H  H481  1  0.092600  0.481300  0.656200  1.0  0.0896
  H  H482  1  0.053700  0.386700  0.533300  1.0  0.0951
  H  H483  1  0.968700  0.403000  0.571100  1.0  0.0995
  H  H484  1  0.178500  0.464600  0.618300  1.0  0.106
  H  H485  1  0.463600  0.298500  0.464900  1.0  0.087
  H  H486  1  0.607600  0.330800  0.609500  1.0  0.0878
  H  H487  1  0.582400  0.388300  0.581500  1.0  0.0887
  H  H488  1  0.439000  0.356000  0.437200  1.0  0.0975
  H  H489  1  0.736500  0.217600  0.591100  1.0  0.0939
  H  H490  1  0.823600  0.176700  0.630400  1.0  0.094
  H  H491  1  0.701700  0.130900  0.708000  1.0  0.092
  H  H492  1  0.613900  0.171600  0.668800  1.0  0.0977
  H  H493  1  0.235500  0.370200  0.788600  1.0  0.0731
  H  H494  1  0.264400  0.366200  0.639100  1.0  0.1088
  H  H495  1  0.340300  0.400100  0.826900  1.0  0.108
  H  H496  1  0.372300  0.394200  0.678800  1.0  0.0793
  H  H497  1  0.067900  0.256900  0.651400  1.0  0.082
  H  H498  1  0.979300  0.216900  0.612800  1.0  0.1052
  H  H499  1  0.860500  0.293300  0.517100  1.0  0.0966
  H  H500  1  0.949300  0.333600  0.557100  1.0  0.0985
  H  H501  1  0.683800  0.607500  0.784200  1.0  0.3224
  H  H502  1  0.638100  0.624700  0.812900  1.0  0.348
  H  H503  1  0.596400  0.652700  0.671200  1.0  0.3437
  H  H504  1  0.662900  0.662900  0.660900  1.0  0.3544
  H  H505  1  0.334400  0.897800  0.978100  1.0  0.3172
  H  H506  1  0.286800  0.926400  0.946300  1.0  0.3325
  H  H507  1  0.721000  0.071300  0.674600  1.0  0.3081
  H  H508  1  0.778300  0.044300  0.688000  1.0  0.3465
  H  H509  1  0.684100  0.733300  0.985900  1.0  0.3463
  H  H510  1  0.639200  0.704900  0.950900  1.0  0.3313
  H  H511  1  0.082000  0.927600  0.911100  1.0  0.3546
  H  H512  1  0.046700  0.902100  0.865300  1.0  0.3084
  H  H513  1  0.988100  0.930200  0.987300  1.0  0.3563
  H  H514  1  0.040600  0.918000  0.041500  1.0  0.328
  H  H515  1  0.503100  0.741900  0.347400  1.0  0.316
  H  H516  1  0.482900  0.704200  0.335600  1.0  0.3409
  H  H517  1  0.871700  0.915000  0.071500  1.0  0.3511
  H  H518  1  0.856800  0.945000  0.030900  1.0  0.3265
  H  H519  1  0.889100  0.039600  0.872800  1.0  0.3372
  H  H520  1  0.881900  0.070000  0.833700  1.0  0.3499
  H  H521  1  0.298100  0.014100  0.988100  1.0  0.3416
  H  H522  1  0.262500  0.049100  0.981000  1.0  0.3082
  H  H523  1  0.054200  0.924600  0.683700  1.0  0.3212
  H  H524  1  0.042400  0.923500  0.739200  1.0  0.3271
  H  H525  1  0.136800  0.793800  0.931400  1.0  0.0964
  H  H526  1  0.172000  0.908200  0.997500  1.0  0.0946
  H  H527  1  0.227900  0.862300  0.055300  1.0  0.0634
  H  H528  1  0.078000  0.839600  0.875000  1.0  0.1011
  H  H529  1  0.371500  0.803800  0.193900  1.0  0.0977
  H  H530  1  0.449500  0.787200  0.281500  1.0  0.1015
  H  H531  1  0.316300  0.702700  0.160000  1.0  0.0714
  H  H532  1  0.393400  0.686700  0.247600  1.0  0.1005
  H  H533  1  0.675500  0.124200  0.822000  1.0  0.1047
  H  H534  1  0.780000  0.107800  0.808700  1.0  0.0899
  H  H535  1  0.692900  0.041500  0.924400  1.0  0.0958
  H  H536  1  0.797400  0.025900  0.912300  1.0  0.1087
  H  H537  1  0.494200  0.029000  0.941100  1.0  0.0754
  H  H538  1  0.408200  0.006400  0.971900  1.0  0.0961
  H  H539  1  0.401800  0.123600  0.922500  1.0  0.084
  H  H540  1  0.313500  0.100500  0.950700  1.0  0.1032
  H  H541  1  0.756100  0.820900  0.971900  1.0  0.0802
  H  H542  1  0.706100  0.901400  0.864700  1.0  0.0777
  H  H543  1  0.825600  0.857300  0.041900  1.0  0.0975
  H  H544  1  0.779300  0.937700  0.933200  1.0  0.1076
  H  H545  1  0.737300  0.763800  0.759500  1.0  0.1039
  H  H546  1  0.729100  0.714800  0.705300  1.0  0.0951
  H  H547  1  0.559100  0.735500  0.787800  1.0  0.0856
  H  H548  1  0.551300  0.686400  0.733300  1.0  0.0945
  H  H549  1  0.563700  0.034000  0.756900  1.0  0.0855
  H  H550  1  0.716500  0.961100  0.793900  1.0  0.0916
  H  H551  1  0.622100  0.065800  0.707700  1.0  0.1134
  H  H552  1  0.776000  0.993300  0.746600  1.0  0.1198
  H  H553  1  0.407400  0.981300  0.843800  1.0  0.0897
  H  H554  1  0.446300  0.886700  0.966700  1.0  0.0952
  H  H555  1  0.531300  0.903000  0.928900  1.0  0.1
  H  H556  1  0.321500  0.964600  0.881700  1.0  0.1067
  H  H557  1  0.036400  0.798500  0.035100  1.0  0.0871
  H  H558  1  0.892400  0.830800  0.890500  1.0  0.0871
  H  H559  1  0.917600  0.888300  0.918500  1.0  0.089
  H  H560  1  0.061000  0.856000  0.062800  1.0  0.0974
  H  H561  1  0.763500  0.717600  0.908900  1.0  0.0937
  H  H562  1  0.676400  0.676700  0.869600  1.0  0.0943
  H  H563  1  0.798300  0.630900  0.792000  1.0  0.0909
  H  H564  1  0.886100  0.671600  0.831200  1.0  0.0974
  H  H565  1  0.264500  0.870200  0.711400  1.0  0.0726
  H  H566  1  0.235600  0.866200  0.860900  1.0  0.1091
  H  H567  1  0.159700  0.900100  0.673100  1.0  0.1083
  H  H568  1  0.127700  0.894200  0.821200  1.0  0.079
  H  H569  1  0.432100  0.756900  0.848600  1.0  0.0821
  H  H570  1  0.520700  0.716900  0.887200  1.0  0.1053
  H  H571  1  0.639500  0.793300  0.982900  1.0  0.0964
  H  H572  1  0.550700  0.833600  0.942900  1.0  0.0985
  H  H573  1  0.183800  0.107500  0.784200  1.0  0.3224
  H  H574  1  0.138100  0.124700  0.812900  1.0  0.348
  H  H575  1  0.096400  0.152700  0.671200  1.0  0.3437
  H  H576  1  0.162900  0.162900  0.660900  1.0  0.3544
  H  H577  1  0.834400  0.397800  0.978100  1.0  0.3172
  H  H578  1  0.786800  0.426400  0.946300  1.0  0.3325
  H  H579  1  0.221000  0.571300  0.674600  1.0  0.3081
  H  H580  1  0.278300  0.544300  0.688000  1.0  0.3465
  H  H581  1  0.184100  0.233300  0.985900  1.0  0.3463
  H  H582  1  0.139200  0.204900  0.950900  1.0  0.3313
  H  H583  1  0.582000  0.427600  0.911100  1.0  0.3546
  H  H584  1  0.546700  0.402100  0.865300  1.0  0.3084
  H  H585  1  0.488100  0.430200  0.987300  1.0  0.3563
  H  H586  1  0.540600  0.418000  0.041500  1.0  0.328
  H  H587  1  0.003100  0.241900  0.347400  1.0  0.316
  H  H588  1  0.982900  0.204200  0.335600  1.0  0.3409
  H  H589  1  0.371700  0.415000  0.071500  1.0  0.3511
  H  H590  1  0.356800  0.445000  0.030900  1.0  0.3265
  H  H591  1  0.389100  0.539600  0.872800  1.0  0.3372
  H  H592  1  0.381900  0.570000  0.833700  1.0  0.3499
  H  H593  1  0.798100  0.514100  0.988100  1.0  0.3416
  H  H594  1  0.762500  0.549100  0.981000  1.0  0.3082
  H  H595  1  0.554200  0.424600  0.683700  1.0  0.3212
  H  H596  1  0.542400  0.423500  0.739200  1.0  0.3271
  H  H597  1  0.636800  0.293800  0.931400  1.0  0.0964
  H  H598  1  0.672000  0.408200  0.997500  1.0  0.0946
  H  H599  1  0.727900  0.362300  0.055300  1.0  0.0634
  H  H600  1  0.578000  0.339600  0.875000  1.0  0.1011
  H  H601  1  0.871500  0.303800  0.193900  1.0  0.0977
  H  H602  1  0.949500  0.287200  0.281500  1.0  0.1015
  H  H603  1  0.816300  0.202700  0.160000  1.0  0.0714
  H  H604  1  0.893400  0.186700  0.247600  1.0  0.1005
  H  H605  1  0.175500  0.624200  0.822000  1.0  0.1047
  H  H606  1  0.280000  0.607800  0.808700  1.0  0.0899
  H  H607  1  0.192900  0.541500  0.924400  1.0  0.0958
  H  H608  1  0.297400  0.525900  0.912300  1.0  0.1087
  H  H609  1  0.994200  0.529000  0.941100  1.0  0.0754
  H  H610  1  0.908200  0.506400  0.971900  1.0  0.0961
  H  H611  1  0.901800  0.623600  0.922500  1.0  0.0841
  H  H612  1  0.813500  0.600500  0.950700  1.0  0.1032
  H  H613  1  0.256100  0.320900  0.971900  1.0  0.0802
  H  H614  1  0.206100  0.401400  0.864700  1.0  0.0777
  H  H615  1  0.325600  0.357300  0.041900  1.0  0.0975
  H  H616  1  0.279300  0.437700  0.933200  1.0  0.1076
  H  H617  1  0.237300  0.263800  0.759500  1.0  0.1039
  H  H618  1  0.229100  0.214800  0.705300  1.0  0.0951
  H  H619  1  0.059100  0.235500  0.787800  1.0  0.0856
  H  H620  1  0.051300  0.186400  0.733300  1.0  0.0945
  H  H621  1  0.063700  0.534000  0.756900  1.0  0.0855
  H  H622  1  0.216500  0.461100  0.793900  1.0  0.0916
  H  H623  1  0.122100  0.565800  0.707700  1.0  0.1134
  H  H624  1  0.276000  0.493300  0.746600  1.0  0.1198
  H  H625  1  0.907400  0.481300  0.843800  1.0  0.0897
  H  H626  1  0.946300  0.386700  0.966700  1.0  0.0952
  H  H627  1  0.031300  0.403000  0.928900  1.0  0.1
  H  H628  1  0.821500  0.464600  0.881700  1.0  0.1067
  H  H629  1  0.536400  0.298500  0.035100  1.0  0.0871
  H  H630  1  0.392400  0.330800  0.890500  1.0  0.0871
  H  H631  1  0.417600  0.388300  0.918500  1.0  0.089
  H  H632  1  0.561000  0.356000  0.062800  1.0  0.0974
  H  H633  1  0.263500  0.217600  0.908900  1.0  0.0937
  H  H634  1  0.176400  0.176700  0.869600  1.0  0.0943
  H  H635  1  0.298300  0.130900  0.792000  1.0  0.0909
  H  H636  1  0.386100  0.171600  0.831200  1.0  0.0974
  H  H637  1  0.764500  0.370200  0.711400  1.0  0.0726
  H  H638  1  0.735600  0.366200  0.860900  1.0  0.1091
  H  H639  1  0.659700  0.400100  0.673100  1.0  0.1083
  H  H640  1  0.627700  0.394200  0.821200  1.0  0.079
  H  H641  1  0.932100  0.256900  0.848600  1.0  0.0821
  H  H642  1  0.020700  0.216900  0.887200  1.0  0.1053
  H  H643  1  0.139500  0.293300  0.982900  1.0  0.0964
  H  H644  1  0.050700  0.333600  0.942900  1.0  0.0985
  C  C645  1  0.216380  0.205940  0.540650  1.0  0.3187
  C  C646  1  0.142700  0.183320  0.445620  1.0  -0.1234
  C  C647  1  0.115200  0.121260  0.431600  1.0  0.214
  C  C648  1  0.162800  0.114890  0.484600  1.0  -0.1836
  C  C649  1  0.186750  0.177300  0.500680  1.0  -0.0523
  C  C650  1  0.197200  0.142520  0.519120  1.0  -0.0617
  C  C651  1  0.107400  0.155780  0.411660  1.0  -0.1983
  C  C652  1  0.280640  0.234440  0.613460  1.0  0.3062
  C  C653  1  0.334800  0.244900  0.666667  1.0  -0.0421
  C  C654  1  0.375600  0.219840  0.704100  1.0  -0.0859
  C  C655  1  0.422800  0.229910  0.757000  1.0  -0.2015
  C  C656  1  0.342800  0.280000  0.684100  1.0  -0.106
  C  C657  1  0.430100  0.264780  0.773200  1.0  0.2366
  C  C658  1  0.389600  0.289760  0.736800  1.0  -0.1693
  C  C659  1  0.609240  0.904870  0.387170  1.0  0.3246
  C  C660  1  0.672900  0.915420  0.375080  1.0  -0.0468
  C  C661  1  0.699800  0.895620  0.340300  1.0  -0.0966
  C  C662  1  0.762800  0.905320  0.332700  1.0  -0.2022
  C  C663  1  0.710600  0.944810  0.401400  1.0  -0.1313
  C  C664  1  0.800500  0.934300  0.360300  1.0  0.2389
  C  C665  1  0.773200  0.954160  0.394200  1.0  -0.1944
  C  C666  1  0.514360  0.907190  0.409050  1.0  0.3014
  C  C667  1  0.457500  0.956480  0.442700  1.0  -0.0889
  C  C668  1  0.405900  0.970100  0.461000  1.0  -0.2135
  C  C669  1  0.456700  0.921200  0.426210  1.0  -0.0343
  C  C670  1  0.402600  0.900260  0.431200  1.0  -0.0778
  C  C671  1  0.350000  0.913950  0.448600  1.0  -0.208
  C  C672  1  0.350800  0.949510  0.463400  1.0  0.1863
  C  C673  1  0.725100  0.143100  0.410110  1.0  -0.0509
  C  C674  1  0.760600  0.155470  0.463760  1.0  -0.1245
  C  C675  1  0.731300  0.107930  0.400000  1.0  -0.1287
  C  C676  1  0.681430  0.166970  0.365410  1.0  0.2922
  C  C677  1  0.802800  0.133710  0.505900  1.0  -0.1908
  C  C678  1  0.774600  0.085900  0.441400  1.0  -0.2099
  C  C679  1  0.811000  0.099000  0.494900  1.0  0.238
  C  C680  1  0.648420  0.244310  0.278810  1.0  -0.0382
  C  C681  1  0.699300  0.251500  0.253940  1.0  -0.0951
  C  C682  1  0.694300  0.280810  0.221450  1.0  -0.1906
  C  C683  1  0.593180  0.268430  0.270740  1.0  -0.1456
  C  C684  1  0.649340  0.211510  0.309930  1.0  0.3176
  C  C685  1  0.638400  0.304270  0.212010  1.0  0.2282
  C  C686  1  0.588400  0.297790  0.238100  1.0  -0.1989
  C  C687  1  0.592770  0.029330  0.305310  1.0  0.2856
  C  C688  1  0.632700  0.006480  0.279770  1.0  -0.0772
  C  C689  1  0.606000  0.974570  0.254190  1.0  -0.0812
  C  C690  1  0.704100  0.967560  0.220700  1.0  0.2237
  C  C691  1  0.697000  0.017880  0.276500  1.0  -0.1352
  C  C692  1  0.641000  0.955340  0.224700  1.0  -0.2189
  C  C693  1  0.732600  0.998740  0.247800  1.0  -0.2078
  C  C694  1  0.415400  0.037850  0.368270  1.0  -0.1231
  C  C695  1  0.438200  0.094180  0.442140  1.0  -0.2044
  C  C696  1  0.477900  0.056270  0.381320  1.0  -0.0187
  C  C697  1  0.527470  0.050620  0.350440  1.0  0.2806
  C  C698  1  0.488900  0.084520  0.419160  1.0  -0.108
  C  C699  1  0.375500  0.075910  0.429200  1.0  0.2322
  C  C700  1  0.364000  0.047690  0.391500  1.0  -0.1687
  C  C701  1  0.961860  0.192250  0.459380  1.0  0.0215
  C  C702  1  0.012200  0.183550  0.511180  1.0  -0.0824
  C  C703  1  0.926700  0.164410  0.425300  1.0  -0.0713
  C  C704  1  0.941800  0.129780  0.442100  1.0  -0.2121
  C  C705  1  0.946920  0.228940  0.441710  1.0  0.2837
  C  C706  1  0.027100  0.148990  0.527930  1.0  -0.2059
  C  C707  1  0.992200  0.121540  0.493400  1.0  0.2227
  C  C708  1  0.891960  0.276140  0.403660  1.0  0.309
  C  C709  1  0.771200  0.300020  0.385750  1.0  -0.08
  C  C710  1  0.718900  0.324520  0.362100  1.0  -0.1933
  C  C711  1  0.728600  0.350970  0.327500  1.0  0.2609
  C  C712  1  0.791400  0.351850  0.315900  1.0  -0.1992
  C  C713  1  0.844200  0.327380  0.339460  1.0  -0.0913
  C  C714  1  0.835190  0.301170  0.375520  1.0  -0.0448
  C  C715  1  0.334120  0.147140  0.313980  1.0  0.2347
  C  C716  1  0.261510  0.134100  0.289720  1.0  -0.0146
  C  C717  1  0.237500  0.124380  0.234200  1.0  -0.1265
  C  C718  1  0.220400  0.127130  0.323100  1.0  -0.0849
  C  C719  1  0.174300  0.106640  0.210800  1.0  -0.2196
  C  C720  1  0.133600  0.099100  0.242700  1.0  0.2451
  C  C721  1  0.156300  0.110000  0.299300  1.0  -0.1595
  C  C722  1  0.482500  0.200400  0.390510  1.0  -0.0576
  C  C723  1  0.474200  0.235620  0.375230  1.0  -0.0626
  C  C724  1  0.527000  0.259660  0.398500  1.0  -0.2045
  C  C725  1  0.597900  0.214000  0.455400  1.0  -0.1781
  C  C726  1  0.589600  0.248990  0.438800  1.0  0.1961
  C  C727  1  0.430030  0.174380  0.358530  1.0  0.3037
  C  C728  1  0.544700  0.189830  0.431450  1.0  -0.0845
  C  C729  1  0.716380  0.705940  0.540650  1.0  0.3187
  C  C730  1  0.642700  0.683320  0.445620  1.0  -0.1234
  C  C731  1  0.615200  0.621260  0.431600  1.0  0.214
  C  C732  1  0.662800  0.614890  0.484600  1.0  -0.1836
  C  C733  1  0.686750  0.677300  0.500680  1.0  -0.0523
  C  C734  1  0.697200  0.642520  0.519120  1.0  -0.0617
  C  C735  1  0.607400  0.655780  0.411660  1.0  -0.1983
  C  C736  1  0.780640  0.734440  0.613460  1.0  0.3062
  C  C737  1  0.834800  0.744900  0.666667  1.0  -0.0421
  C  C738  1  0.875600  0.719840  0.704100  1.0  -0.0859
  C  C739  1  0.922800  0.729910  0.757000  1.0  -0.2015
  C  C740  1  0.842800  0.780000  0.684100  1.0  -0.106
  C  C741  1  0.930100  0.764780  0.773200  1.0  0.2366
  C  C742  1  0.889600  0.789760  0.736800  1.0  -0.1693
  C  C743  1  0.109240  0.404870  0.387170  1.0  0.3246
  C  C744  1  0.172900  0.415420  0.375080  1.0  -0.0468
  C  C745  1  0.199800  0.395620  0.340300  1.0  -0.0966
  C  C746  1  0.262800  0.405320  0.332700  1.0  -0.2022
  C  C747  1  0.210600  0.444810  0.401400  1.0  -0.1313
  C  C748  1  0.300500  0.434300  0.360300  1.0  0.2389
  C  C749  1  0.273200  0.454160  0.394200  1.0  -0.1944
  C  C750  1  0.014360  0.407190  0.409050  1.0  0.3014
  C  C751  1  0.957500  0.456480  0.442700  1.0  -0.0889
  C  C752  1  0.905900  0.470100  0.461000  1.0  -0.2135
  C  C753  1  0.956700  0.421200  0.426210  1.0  -0.0343
  C  C754  1  0.902600  0.400260  0.431200  1.0  -0.0778
  C  C755  1  0.850000  0.413950  0.448600  1.0  -0.208
  C  C756  1  0.850800  0.449510  0.463400  1.0  0.1863
  C  C757  1  0.225100  0.643100  0.410110  1.0  -0.0509
  C  C758  1  0.260600  0.655470  0.463760  1.0  -0.1245
  C  C759  1  0.231300  0.607930  0.400000  1.0  -0.1287
  C  C760  1  0.181430  0.666970  0.365410  1.0  0.2922
  C  C761  1  0.302800  0.633710  0.505900  1.0  -0.1908
  C  C762  1  0.274600  0.585900  0.441400  1.0  -0.2099
  C  C763  1  0.311000  0.599000  0.494900  1.0  0.238
  C  C764  1  0.148420  0.744310  0.278810  1.0  -0.0382
  C  C765  1  0.199300  0.751500  0.253940  1.0  -0.0951
  C  C766  1  0.194300  0.780810  0.221450  1.0  -0.1906
  C  C767  1  0.093180  0.768430  0.270740  1.0  -0.1456
  C  C768  1  0.149340  0.711510  0.309930  1.0  0.3176
  C  C769  1  0.138400  0.804270  0.212010  1.0  0.2282
  C  C770  1  0.088400  0.797790  0.238100  1.0  -0.1989
  C  C771  1  0.092770  0.529330  0.305310  1.0  0.2856
  C  C772  1  0.132700  0.506480  0.279770  1.0  -0.0772
  C  C773  1  0.106000  0.474570  0.254190  1.0  -0.0812
  C  C774  1  0.204100  0.467560  0.220700  1.0  0.2237
  C  C775  1  0.197000  0.517880  0.276500  1.0  -0.1352
  C  C776  1  0.141000  0.455340  0.224700  1.0  -0.2189
  C  C777  1  0.232600  0.498740  0.247800  1.0  -0.2078
  C  C778  1  0.915400  0.537850  0.368270  1.0  -0.1231
  C  C779  1  0.938200  0.594180  0.442140  1.0  -0.2044
  C  C780  1  0.977900  0.556270  0.381320  1.0  -0.0187
  C  C781  1  0.027470  0.550620  0.350440  1.0  0.2806
  C  C782  1  0.988900  0.584520  0.419160  1.0  -0.108
  C  C783  1  0.875500  0.575910  0.429200  1.0  0.2322
  C  C784  1  0.864000  0.547690  0.391500  1.0  -0.1687
  C  C785  1  0.461860  0.692250  0.459380  1.0  0.0215
  C  C786  1  0.512200  0.683550  0.511180  1.0  -0.0824
  C  C787  1  0.426700  0.664410  0.425300  1.0  -0.0713
  C  C788  1  0.441800  0.629780  0.442100  1.0  -0.2121
  C  C789  1  0.446920  0.728940  0.441710  1.0  0.2837
  C  C790  1  0.527100  0.648990  0.527930  1.0  -0.2059
  C  C791  1  0.492200  0.621540  0.493400  1.0  0.2227
  C  C792  1  0.391960  0.776140  0.403660  1.0  0.309
  C  C793  1  0.271200  0.800020  0.385750  1.0  -0.08
  C  C794  1  0.218900  0.824520  0.362100  1.0  -0.1933
  C  C795  1  0.228600  0.850970  0.327500  1.0  0.2609
  C  C796  1  0.291400  0.851850  0.315900  1.0  -0.1992
  C  C797  1  0.344200  0.827380  0.339460  1.0  -0.0913
  C  C798  1  0.335190  0.801170  0.375520  1.0  -0.0448
  C  C799  1  0.834120  0.647140  0.313980  1.0  0.2347
  C  C800  1  0.761510  0.634100  0.289720  1.0  -0.0146
  C  C801  1  0.737500  0.624380  0.234200  1.0  -0.1265
  C  C802  1  0.720400  0.627130  0.323100  1.0  -0.0849
  C  C803  1  0.674300  0.606640  0.210800  1.0  -0.2196
  C  C804  1  0.633600  0.599100  0.242700  1.0  0.2451
  C  C805  1  0.656300  0.610000  0.299300  1.0  -0.1595
  C  C806  1  0.982500  0.700400  0.390510  1.0  -0.0576
  C  C807  1  0.974200  0.735620  0.375230  1.0  -0.0626
  C  C808  1  0.027000  0.759660  0.398500  1.0  -0.2045
  C  C809  1  0.097900  0.714000  0.455400  1.0  -0.1781
  C  C810  1  0.089600  0.748990  0.438800  1.0  0.1961
  C  C811  1  0.930030  0.674380  0.358530  1.0  0.3037
  C  C812  1  0.044700  0.689830  0.431450  1.0  -0.0845
  C  C813  1  0.783620  0.205940  0.959350  1.0  0.3189
  C  C814  1  0.857300  0.183320  0.054380  1.0  -0.1233
  C  C815  1  0.884800  0.121260  0.068400  1.0  0.2139
  C  C816  1  0.837200  0.114890  0.015400  1.0  -0.1845
  C  C817  1  0.813250  0.177300  0.999320  1.0  -0.0531
  C  C818  1  0.802800  0.142520  0.980880  1.0  -0.0605
  C  C819  1  0.892600  0.155780  0.088340  1.0  -0.1996
  C  C820  1  0.719360  0.234440  0.886540  1.0  0.3074
  C  C821  1  0.665200  0.244900  0.833390  1.0  -0.0858
  C  C822  1  0.624400  0.219840  0.795900  1.0  -0.0862
  C  C823  1  0.577200  0.229910  0.743000  1.0  -0.2
  C  C824  1  0.657200  0.280000  0.815900  1.0  -0.1072
  C  C825  1  0.569900  0.264780  0.726800  1.0  0.2369
  C  C826  1  0.610400  0.289760  0.763200  1.0  -0.168
  C  C827  1  0.390760  0.904870  0.112830  1.0  0.3269
  C  C828  1  0.327100  0.915420  0.124920  1.0  -0.0455
  C  C829  1  0.300200  0.895620  0.159700  1.0  -0.0979
  C  C830  1  0.237200  0.905320  0.167300  1.0  -0.2022
  C  C831  1  0.289400  0.944810  0.098600  1.0  -0.131
  C  C832  1  0.199500  0.934300  0.139700  1.0  0.241
  C  C833  1  0.226800  0.954160  0.105800  1.0  -0.1952
  C  C834  1  0.485640  0.907190  0.090950  1.0  0.3015
  C  C835  1  0.542500  0.956480  0.057300  1.0  -0.0875
  C  C836  1  0.594100  0.970100  0.039000  1.0  -0.2135
  C  C837  1  0.543300  0.921200  0.073790  1.0  -0.0342
  C  C838  1  0.597400  0.900260  0.068800  1.0  -0.078
  C  C839  1  0.650000  0.913950  0.051400  1.0  -0.2101
  C  C840  1  0.649200  0.949510  0.036600  1.0  0.1862
  C  C841  1  0.274900  0.143100  0.089890  1.0  -0.051
  C  C842  1  0.239400  0.155470  0.036240  1.0  -0.1249
  C  C843  1  0.268700  0.107930  0.100000  1.0  -0.129
  C  C844  1  0.318570  0.166970  0.134590  1.0  0.2924
  C  C845  1  0.197200  0.133710  0.994100  1.0  -0.1905
  C  C846  1  0.225400  0.085900  0.058600  1.0  -0.2103
  C  C847  1  0.189000  0.099000  0.005100  1.0  0.2388
  C  C848  1  0.351580  0.244310  0.221190  1.0  -0.0388
  C  C849  1  0.300700  0.251500  0.246060  1.0  -0.0931
  C  C850  1  0.305700  0.280810  0.278550  1.0  -0.1928
  C  C851  1  0.406820  0.268430  0.229260  1.0  -0.1467
  C  C852  1  0.350660  0.211510  0.190070  1.0  0.3169
  C  C853  1  0.361600  0.304270  0.287990  1.0  0.2281
  C  C854  1  0.411600  0.297790  0.261900  1.0  -0.1993
  C  C855  1  0.407230  0.029330  0.194690  1.0  0.2851
  C  C856  1  0.367300  0.006480  0.220230  1.0  -0.0773
  C  C857  1  0.394000  0.974570  0.245810  1.0  -0.0833
  C  C858  1  0.295900  0.967560  0.279300  1.0  0.2231
  C  C859  1  0.303000  0.017880  0.223500  1.0  -0.1338
  C  C860  1  0.359000  0.955340  0.275300  1.0  -0.2179
  C  C861  1  0.267400  0.998740  0.252200  1.0  -0.2072
  C  C862  1  0.584600  0.037850  0.131730  1.0  -0.1215
  C  C863  1  0.561800  0.094180  0.057860  1.0  -0.205
  C  C864  1  0.522100  0.056270  0.118680  1.0  -0.0186
  C  C865  1  0.472530  0.050620  0.149560  1.0  0.2803
  C  C866  1  0.511100  0.084520  0.080840  1.0  -0.107
  C  C867  1  0.624500  0.075910  0.070800  1.0  0.2322
  C  C868  1  0.636000  0.047690  0.108500  1.0  -0.1699
  C  C869  1  0.038140  0.192250  0.040620  1.0  0.021
  C  C870  1  0.987800  0.183550  0.988820  1.0  -0.0816
  C  C871  1  0.073300  0.164410  0.074700  1.0  -0.0732
  C  C872  1  0.058200  0.129780  0.057900  1.0  -0.2129
  C  C873  1  0.053080  0.228940  0.058290  1.0  0.2839
  C  C874  1  0.972900  0.148990  0.972070  1.0  -0.206
  C  C875  1  0.007800  0.121540  0.006600  1.0  0.2214
  C  C876  1  0.108040  0.276140  0.096340  1.0  0.3083
  C  C877  1  0.228800  0.300020  0.114250  1.0  -0.0798
  C  C878  1  0.281100  0.324520  0.137900  1.0  -0.1934
  C  C879  1  0.271400  0.350970  0.172500  1.0  0.2603
  C  C880  1  0.208600  0.351850  0.184100  1.0  -0.1991
  C  C881  1  0.155800  0.327380  0.160540  1.0  -0.0901
  C  C882  1  0.164810  0.301170  0.124480  1.0  -0.0464
  C  C883  1  0.665880  0.147140  0.186020  1.0  0.2345
  C  C884  1  0.738490  0.134100  0.210280  1.0  -0.014
  C  C885  1  0.762500  0.124380  0.265800  1.0  -0.1262
  C  C886  1  0.779600  0.127130  0.176900  1.0  -0.0845
  C  C887  1  0.825700  0.106640  0.289200  1.0  -0.2198
  C  C888  1  0.866400  0.099100  0.257300  1.0  0.2445
  C  C889  1  0.843700  0.110000  0.200700  1.0  -0.1591
  C  C890  1  0.517500  0.200400  0.109490  1.0  -0.0574
  C  C891  1  0.525800  0.235620  0.124770  1.0  -0.0627
  C  C892  1  0.473000  0.259660  0.101500  1.0  -0.2045
  C  C893  1  0.402100  0.214000  0.044600  1.0  -0.1784
  C  C894  1  0.410400  0.248990  0.061200  1.0  0.1979
  C  C895  1  0.569970  0.174380  0.141470  1.0  0.3038
  C  C896  1  0.455300  0.189830  0.068550  1.0  -0.0848
  C  C897  1  0.283620  0.705940  0.959350  1.0  0.3189
  C  C898  1  0.357300  0.683320  0.054380  1.0  -0.1233
  C  C899  1  0.384800  0.621260  0.068400  1.0  0.2139
  C  C900  1  0.337200  0.614890  0.015400  1.0  -0.1845
  C  C901  1  0.313250  0.677300  0.999320  1.0  -0.0531
  C  C902  1  0.302800  0.642520  0.980880  1.0  -0.0605
  C  C903  1  0.392600  0.655780  0.088340  1.0  -0.1996
  C  C904  1  0.219360  0.734440  0.886540  1.0  0.3074
  C  C905  1  0.165200  0.744900  0.833390  1.0  -0.0858
  C  C906  1  0.124400  0.719840  0.795900  1.0  -0.0862
  C  C907  1  0.077200  0.729910  0.743000  1.0  -0.2
  C  C908  1  0.157200  0.780000  0.815900  1.0  -0.1072
  C  C909  1  0.069900  0.764780  0.726800  1.0  0.2369
  C  C910  1  0.110400  0.789760  0.763200  1.0  -0.168
  C  C911  1  0.890760  0.404870  0.112830  1.0  0.3269
  C  C912  1  0.827100  0.415420  0.124920  1.0  -0.0455
  C  C913  1  0.800200  0.395620  0.159700  1.0  -0.0979
  C  C914  1  0.737200  0.405320  0.167300  1.0  -0.2022
  C  C915  1  0.789400  0.444810  0.098600  1.0  -0.131
  C  C916  1  0.699500  0.434300  0.139700  1.0  0.241
  C  C917  1  0.726800  0.454160  0.105800  1.0  -0.1952
  C  C918  1  0.985640  0.407190  0.090950  1.0  0.3015
  C  C919  1  0.042500  0.456480  0.057300  1.0  -0.0875
  C  C920  1  0.094100  0.470100  0.039000  1.0  -0.2135
  C  C921  1  0.043300  0.421200  0.073790  1.0  -0.0342
  C  C922  1  0.097400  0.400260  0.068800  1.0  -0.078
  C  C923  1  0.150000  0.413950  0.051400  1.0  -0.2101
  C  C924  1  0.149200  0.449510  0.036600  1.0  0.1862
  C  C925  1  0.774900  0.643100  0.089890  1.0  -0.051
  C  C926  1  0.739400  0.655470  0.036240  1.0  -0.1249
  C  C927  1  0.768700  0.607930  0.100000  1.0  -0.129
  C  C928  1  0.818570  0.666970  0.134590  1.0  0.2924
  C  C929  1  0.697200  0.633710  0.994100  1.0  -0.1905
  C  C930  1  0.725400  0.585900  0.058600  1.0  -0.2103
  C  C931  1  0.689000  0.599000  0.005100  1.0  0.2388
  C  C932  1  0.851580  0.744310  0.221190  1.0  -0.0388
  C  C933  1  0.800700  0.751500  0.246060  1.0  -0.0931
  C  C934  1  0.805700  0.780810  0.278550  1.0  -0.1928
  C  C935  1  0.906820  0.768430  0.229260  1.0  -0.1467
  C  C936  1  0.850660  0.711510  0.190070  1.0  0.3169
  C  C937  1  0.861600  0.804270  0.287990  1.0  0.2281
  C  C938  1  0.911600  0.797790  0.261900  1.0  -0.1993
  C  C939  1  0.907230  0.529330  0.194690  1.0  0.2851
  C  C940  1  0.867300  0.506480  0.220230  1.0  -0.0773
  C  C941  1  0.894000  0.474570  0.245810  1.0  -0.0833
  C  C942  1  0.795900  0.467560  0.279300  1.0  0.2231
  C  C943  1  0.803000  0.517880  0.223500  1.0  -0.1338
  C  C944  1  0.859000  0.455340  0.275300  1.0  -0.2179
  C  C945  1  0.767400  0.498740  0.252200  1.0  -0.2072
  C  C946  1  0.084600  0.537850  0.131730  1.0  -0.1215
  C  C947  1  0.061800  0.594180  0.057860  1.0  -0.205
  C  C948  1  0.022100  0.556270  0.118680  1.0  -0.0186
  C  C949  1  0.972530  0.550620  0.149560  1.0  0.2803
  C  C950  1  0.011100  0.584520  0.080840  1.0  -0.107
  C  C951  1  0.124500  0.575910  0.070800  1.0  0.2322
  C  C952  1  0.136000  0.547690  0.108500  1.0  -0.1699
  C  C953  1  0.538140  0.692250  0.040620  1.0  0.021
  C  C954  1  0.487800  0.683550  0.988820  1.0  -0.0816
  C  C955  1  0.573300  0.664410  0.074700  1.0  -0.0732
  C  C956  1  0.558200  0.629780  0.057900  1.0  -0.2129
  C  C957  1  0.553080  0.728940  0.058290  1.0  0.2839
  C  C958  1  0.472900  0.648990  0.972070  1.0  -0.206
  C  C959  1  0.507800  0.621540  0.006600  1.0  0.2214
  C  C960  1  0.608040  0.776140  0.096340  1.0  0.3083
  C  C961  1  0.728800  0.800020  0.114250  1.0  -0.0798
  C  C962  1  0.781100  0.824520  0.137900  1.0  -0.1934
  C  C963  1  0.771400  0.850970  0.172500  1.0  0.2603
  C  C964  1  0.708600  0.851850  0.184100  1.0  -0.1991
  C  C965  1  0.655800  0.827380  0.160540  1.0  -0.0901
  C  C966  1  0.664810  0.801170  0.124480  1.0  -0.0464
  C  C967  1  0.165880  0.647140  0.186020  1.0  0.2345
  C  C968  1  0.238490  0.634100  0.210280  1.0  -0.014
  C  C969  1  0.262500  0.624380  0.265800  1.0  -0.1262
  C  C970  1  0.279600  0.627130  0.176900  1.0  -0.0845
  C  C971  1  0.325700  0.606640  0.289200  1.0  -0.2198
  C  C972  1  0.366400  0.599100  0.257300  1.0  0.2445
  C  C973  1  0.343700  0.610000  0.200700  1.0  -0.1591
  C  C974  1  0.017500  0.700400  0.109490  1.0  -0.0574
  C  C975  1  0.025800  0.735620  0.124770  1.0  -0.0627
  C  C976  1  0.973000  0.759660  0.101500  1.0  -0.2045
  C  C977  1  0.902100  0.714000  0.044600  1.0  -0.1784
  C  C978  1  0.910400  0.748990  0.061200  1.0  0.1979
  C  C979  1  0.069970  0.674380  0.141470  1.0  0.3038
  C  C980  1  0.955300  0.689830  0.068550  1.0  -0.0848
  C  C981  1  0.783620  0.794060  0.459350  1.0  0.3196
  C  C982  1  0.857300  0.816680  0.554380  1.0  -0.1232
  C  C983  1  0.884800  0.878740  0.568400  1.0  0.2145
  C  C984  1  0.837200  0.885110  0.515400  1.0  -0.1857
  C  C985  1  0.813250  0.822700  0.499320  1.0  -0.0534
  C  C986  1  0.802800  0.857480  0.480880  1.0  -0.0604
  C  C987  1  0.892600  0.844220  0.588340  1.0  -0.1997
  C  C988  1  0.719360  0.765560  0.386540  1.0  0.3074
  C  C989  1  0.665200  0.755100  0.333390  1.0  -0.0862
  C  C990  1  0.624400  0.780160  0.295900  1.0  -0.0864
  C  C991  1  0.577200  0.770090  0.243000  1.0  -0.2016
  C  C992  1  0.657200  0.720000  0.315900  1.0  -0.1058
  C  C993  1  0.569900  0.735220  0.226800  1.0  0.2369
  C  C994  1  0.610400  0.710240  0.263200  1.0  -0.1676
  C  C995  1  0.390760  0.095130  0.612830  1.0  0.3266
  C  C996  1  0.327100  0.084580  0.624920  1.0  -0.0453
  C  C997  1  0.300200  0.104380  0.659700  1.0  -0.0999
  C  C998  1  0.237200  0.094680  0.667300  1.0  -0.2025
  C  C999  1  0.289400  0.055190  0.598600  1.0  -0.1295
  C  C1000  1  0.199500  0.065700  0.639700  1.0  0.2414
  C  C1001  1  0.226800  0.045840  0.605800  1.0  -0.1934
  C  C1002  1  0.485640  0.092810  0.590950  1.0  0.3013
  C  C1003  1  0.542500  0.043520  0.557300  1.0  -0.0864
  C  C1004  1  0.594100  0.029900  0.539000  1.0  -0.2124
  C  C1005  1  0.543300  0.078800  0.573790  1.0  -0.035
  C  C1006  1  0.597400  0.099740  0.568800  1.0  -0.0786
  C  C1007  1  0.650000  0.086050  0.551400  1.0  -0.2095
  C  C1008  1  0.649200  0.050490  0.536600  1.0  0.1852
  C  C1009  1  0.274900  0.856900  0.589890  1.0  -0.051
  C  C1010  1  0.239400  0.844530  0.536240  1.0  -0.1257
  C  C1011  1  0.268700  0.892070  0.600000  1.0  -0.1296
  C  C1012  1  0.318570  0.833030  0.634590  1.0  0.2924
  C  C1013  1  0.197200  0.866290  0.494100  1.0  -0.1905
  C  C1014  1  0.225400  0.914100  0.558600  1.0  -0.2127
  C  C1015  1  0.189000  0.901000  0.505100  1.0  0.2396
  C  C1016  1  0.351580  0.755690  0.721190  1.0  -0.0377
  C  C1017  1  0.300700  0.748500  0.746060  1.0  -0.0951
  C  C1018  1  0.305700  0.719190  0.778550  1.0  -0.1923
  C  C1019  1  0.406820  0.731570  0.729260  1.0  -0.1461
  C  C1020  1  0.350660  0.788490  0.690070  1.0  0.3163
  C  C1021  1  0.361600  0.695730  0.787990  1.0  0.2284
  C  C1022  1  0.411600  0.702210  0.761900  1.0  -0.1995
  C  C1023  1  0.407230  0.970670  0.694690  1.0  0.2854
  C  C1024  1  0.367300  0.993520  0.720230  1.0  -0.0775
  C  C1025  1  0.394000  0.025430  0.745810  1.0  -0.0837
  C  C1026  1  0.295900  0.032440  0.779300  1.0  0.2239
  C  C1027  1  0.303000  0.982120  0.723500  1.0  -0.1339
  C  C1028  1  0.359000  0.044660  0.775300  1.0  -0.2181
  C  C1029  1  0.267400  0.001260  0.752200  1.0  -0.2055
  C  C1030  1  0.584600  0.962150  0.631730  1.0  -0.1207
  C  C1031  1  0.561800  0.905820  0.557860  1.0  -0.2049
  C  C1032  1  0.522100  0.943730  0.618680  1.0  -0.0186
  C  C1033  1  0.472530  0.949380  0.649560  1.0  0.2803
  C  C1034  1  0.511100  0.915480  0.580840  1.0  -0.1071
  C  C1035  1  0.624500  0.924090  0.570800  1.0  0.232
  C  C1036  1  0.636000  0.952310  0.608500  1.0  -0.17
  C  C1037  1  0.038140  0.807750  0.540620  1.0  0.0205
  C  C1038  1  0.987800  0.816450  0.488820  1.0  -0.0821
  C  C1039  1  0.073300  0.835590  0.574700  1.0  -0.0736
  C  C1040  1  0.058200  0.870220  0.557900  1.0  -0.2127
  C  C1041  1  0.053080  0.771060  0.558290  1.0  0.2845
  C  C1042  1  0.972900  0.851010  0.472070  1.0  -0.2064
  C  C1043  1  0.007800  0.878460  0.506600  1.0  0.2218
  C  C1044  1  0.108040  0.723860  0.596340  1.0  0.3082
  C  C1045  1  0.228800  0.699980  0.614250  1.0  -0.0795
  C  C1046  1  0.281100  0.675480  0.637900  1.0  -0.1932
  C  C1047  1  0.271400  0.649030  0.672500  1.0  0.2601
  C  C1048  1  0.208600  0.648150  0.684100  1.0  -0.1993
  C  C1049  1  0.155800  0.672620  0.660540  1.0  -0.09
  C  C1050  1  0.164810  0.698830  0.624480  1.0  -0.0463
  C  C1051  1  0.665880  0.852860  0.686020  1.0  0.234
  C  C1052  1  0.738490  0.865900  0.710280  1.0  -0.0146
  C  C1053  1  0.762500  0.875620  0.765800  1.0  -0.1258
  C  C1054  1  0.779600  0.872870  0.676900  1.0  -0.084
  C  C1055  1  0.825700  0.893360  0.789200  1.0  -0.2206
  C  C1056  1  0.866400  0.900900  0.757300  1.0  0.2444
  C  C1057  1  0.843700  0.890000  0.700700  1.0  -0.1584
  C  C1058  1  0.517500  0.799600  0.609490  1.0  -0.0572
  C  C1059  1  0.525800  0.764380  0.624770  1.0  -0.0626
  C  C1060  1  0.473000  0.740340  0.601500  1.0  -0.2041
  C  C1061  1  0.402100  0.786000  0.544600  1.0  -0.1779
  C  C1062  1  0.410400  0.751010  0.561200  1.0  0.1982
  C  C1063  1  0.569970  0.825620  0.641470  1.0  0.3036
  C  C1064  1  0.455300  0.810170  0.568550  1.0  -0.0848
  C  C1065  1  0.283620  0.294060  0.459350  1.0  0.3196
  C  C1066  1  0.357300  0.316680  0.554380  1.0  -0.1232
  C  C1067  1  0.384800  0.378740  0.568400  1.0  0.2145
  C  C1068  1  0.337200  0.385110  0.515400  1.0  -0.1857
  C  C1069  1  0.313250  0.322700  0.499320  1.0  -0.0534
  C  C1070  1  0.302800  0.357480  0.480880  1.0  -0.0604
  C  C1071  1  0.392600  0.344220  0.588340  1.0  -0.1997
  C  C1072  1  0.219360  0.265560  0.386540  1.0  0.3074
  C  C1073  1  0.165200  0.255100  0.333390  1.0  -0.0862
  C  C1074  1  0.124400  0.280160  0.295900  1.0  -0.0864
  C  C1075  1  0.077200  0.270090  0.243000  1.0  -0.2016
  C  C1076  1  0.157200  0.220000  0.315900  1.0  -0.1058
  C  C1077  1  0.069900  0.235220  0.226800  1.0  0.2369
  C  C1078  1  0.110400  0.210240  0.263200  1.0  -0.1676
  C  C1079  1  0.890760  0.595130  0.612830  1.0  0.3266
  C  C1080  1  0.827100  0.584580  0.624920  1.0  -0.0453
  C  C1081  1  0.800200  0.604380  0.659700  1.0  -0.0999
  C  C1082  1  0.737200  0.594680  0.667300  1.0  -0.2025
  C  C1083  1  0.789400  0.555190  0.598600  1.0  -0.1295
  C  C1084  1  0.699500  0.565700  0.639700  1.0  0.2414
  C  C1085  1  0.726800  0.545840  0.605800  1.0  -0.1934
  C  C1086  1  0.985640  0.592810  0.590950  1.0  0.3013
  C  C1087  1  0.042500  0.543520  0.557300  1.0  -0.0864
  C  C1088  1  0.094100  0.529900  0.539000  1.0  -0.2124
  C  C1089  1  0.043300  0.578800  0.573790  1.0  -0.035
  C  C1090  1  0.097400  0.599740  0.568800  1.0  -0.0786
  C  C1091  1  0.150000  0.586050  0.551400  1.0  -0.2095
  C  C1092  1  0.149200  0.550490  0.536600  1.0  0.1852
  C  C1093  1  0.774900  0.356900  0.589890  1.0  -0.051
  C  C1094  1  0.739400  0.344530  0.536240  1.0  -0.1257
  C  C1095  1  0.768700  0.392070  0.600000  1.0  -0.1296
  C  C1096  1  0.818570  0.333030  0.634590  1.0  0.2924
  C  C1097  1  0.697200  0.366290  0.494100  1.0  -0.1905
  C  C1098  1  0.725400  0.414100  0.558600  1.0  -0.2127
  C  C1099  1  0.689000  0.401000  0.505100  1.0  0.2396
  C  C1100  1  0.851580  0.255690  0.721190  1.0  -0.0377
  C  C1101  1  0.800700  0.248500  0.746060  1.0  -0.0951
  C  C1102  1  0.805700  0.219190  0.778550  1.0  -0.1923
  C  C1103  1  0.906820  0.231570  0.729260  1.0  -0.1461
  C  C1104  1  0.850660  0.288490  0.690070  1.0  0.3163
  C  C1105  1  0.861600  0.195730  0.787990  1.0  0.2284
  C  C1106  1  0.911600  0.202210  0.761900  1.0  -0.1995
  C  C1107  1  0.907230  0.470670  0.694690  1.0  0.2854
  C  C1108  1  0.867300  0.493520  0.720230  1.0  -0.0775
  C  C1109  1  0.894000  0.525430  0.745810  1.0  -0.0837
  C  C1110  1  0.795900  0.532440  0.779300  1.0  0.2239
  C  C1111  1  0.803000  0.482120  0.723500  1.0  -0.1339
  C  C1112  1  0.859000  0.544660  0.775300  1.0  -0.2181
  C  C1113  1  0.767400  0.501260  0.752200  1.0  -0.2055
  C  C1114  1  0.084600  0.462150  0.631730  1.0  -0.1207
  C  C1115  1  0.061800  0.405820  0.557860  1.0  -0.2049
  C  C1116  1  0.022100  0.443730  0.618680  1.0  -0.0186
  C  C1117  1  0.972530  0.449380  0.649560  1.0  0.2803
  C  C1118  1  0.011100  0.415480  0.580840  1.0  -0.1071
  C  C1119  1  0.124500  0.424090  0.570800  1.0  0.232
  C  C1120  1  0.136000  0.452310  0.608500  1.0  -0.17
  C  C1121  1  0.538140  0.307750  0.540620  1.0  0.0205
  C  C1122  1  0.487800  0.316450  0.488820  1.0  -0.0821
  C  C1123  1  0.573300  0.335590  0.574700  1.0  -0.0736
  C  C1124  1  0.558200  0.370220  0.557900  1.0  -0.2127
  C  C1125  1  0.553080  0.271060  0.558290  1.0  0.2845
  C  C1126  1  0.472900  0.351010  0.472070  1.0  -0.2064
  C  C1127  1  0.507800  0.378460  0.506600  1.0  0.2218
  C  C1128  1  0.608040  0.223860  0.596340  1.0  0.3082
  C  C1129  1  0.728800  0.199980  0.614250  1.0  -0.0795
  C  C1130  1  0.781100  0.175480  0.637900  1.0  -0.1932
  C  C1131  1  0.771400  0.149030  0.672500  1.0  0.2601
  C  C1132  1  0.708600  0.148150  0.684100  1.0  -0.1993
  C  C1133  1  0.655800  0.172620  0.660540  1.0  -0.09
  C  C1134  1  0.664810  0.198830  0.624480  1.0  -0.0463
  C  C1135  1  0.165880  0.352860  0.686020  1.0  0.234
  C  C1136  1  0.238490  0.365900  0.710280  1.0  -0.0146
  C  C1137  1  0.262500  0.375620  0.765800  1.0  -0.1258
  C  C1138  1  0.279600  0.372870  0.676900  1.0  -0.084
  C  C1139  1  0.325700  0.393360  0.789200  1.0  -0.2206
  C  C1140  1  0.366400  0.400900  0.757300  1.0  0.2444
  C  C1141  1  0.343700  0.390000  0.700700  1.0  -0.1584
  C  C1142  1  0.017500  0.299600  0.609490  1.0  -0.0572
  C  C1143  1  0.025800  0.264380  0.624770  1.0  -0.0626
  C  C1144  1  0.973000  0.240340  0.601500  1.0  -0.2041
  C  C1145  1  0.902100  0.286000  0.544600  1.0  -0.1779
  C  C1146  1  0.910400  0.251010  0.561200  1.0  0.1982
  C  C1147  1  0.069970  0.325620  0.641470  1.0  0.3036
  C  C1148  1  0.955300  0.310170  0.568550  1.0  -0.0848
  C  C1149  1  0.216380  0.794060  0.040650  1.0  0.3194
  C  C1150  1  0.142700  0.816680  0.945620  1.0  -0.1231
  C  C1151  1  0.115200  0.878740  0.931600  1.0  0.2148
  C  C1152  1  0.162800  0.885110  0.984600  1.0  -0.185
  C  C1153  1  0.186750  0.822700  0.000680  1.0  -0.0524
  C  C1154  1  0.197200  0.857480  0.019120  1.0  -0.0621
  C  C1155  1  0.107400  0.844220  0.911660  1.0  -0.1983
  C  C1156  1  0.280640  0.765560  0.113460  1.0  0.3077
  C  C1157  1  0.334800  0.755100  0.166610  1.0  -0.0845
  C  C1158  1  0.375600  0.780160  0.204100  1.0  -0.0862
  C  C1159  1  0.422800  0.770090  0.257000  1.0  -0.2021
  C  C1160  1  0.342800  0.720000  0.184100  1.0  -0.1044
  C  C1161  1  0.430100  0.735220  0.273200  1.0  0.2367
  C  C1162  1  0.389600  0.710240  0.236800  1.0  -0.1684
  C  C1163  1  0.609240  0.095130  0.887170  1.0  0.3244
  C  C1164  1  0.672900  0.084580  0.875080  1.0  -0.0466
  C  C1165  1  0.699800  0.104380  0.840300  1.0  -0.0975
  C  C1166  1  0.762800  0.094680  0.832700  1.0  -0.2024
  C  C1167  1  0.710600  0.055190  0.901400  1.0  -0.1302
  C  C1168  1  0.800500  0.065700  0.860300  1.0  0.2391
  C  C1169  1  0.773200  0.045840  0.894200  1.0  -0.194
  C  C1170  1  0.514360  0.092810  0.909050  1.0  0.3015
  C  C1171  1  0.457500  0.043520  0.942700  1.0  -0.0879
  C  C1172  1  0.405900  0.029900  0.961000  1.0  -0.2126
  C  C1173  1  0.456700  0.078800  0.926210  1.0  -0.0342
  C  C1174  1  0.402600  0.099740  0.931200  1.0  -0.0781
  C  C1175  1  0.350000  0.086050  0.948600  1.0  -0.2075
  C  C1176  1  0.350800  0.050490  0.963400  1.0  0.1866
  C  C1177  1  0.725100  0.856900  0.910110  1.0  -0.0509
  C  C1178  1  0.760600  0.844530  0.963760  1.0  -0.1252
  C  C1179  1  0.731300  0.892070  0.900000  1.0  -0.1289
  C  C1180  1  0.681430  0.833030  0.865410  1.0  0.2922
  C  C1181  1  0.802800  0.866290  0.005900  1.0  -0.1908
  C  C1182  1  0.774600  0.914100  0.941400  1.0  -0.2122
  C  C1183  1  0.811000  0.901000  0.994900  1.0  0.2381
  C  C1184  1  0.648420  0.755690  0.778810  1.0  -0.038
  C  C1185  1  0.699300  0.748500  0.753940  1.0  -0.0959
  C  C1186  1  0.694300  0.719190  0.721450  1.0  -0.1903
  C  C1187  1  0.593180  0.731570  0.770740  1.0  -0.1455
  C  C1188  1  0.649340  0.788490  0.809930  1.0  0.3169
  C  C1189  1  0.638400  0.695730  0.712010  1.0  0.2283
  C  C1190  1  0.588400  0.702210  0.738100  1.0  -0.1992
  C  C1191  1  0.592770  0.970670  0.805310  1.0  0.2855
  C  C1192  1  0.632700  0.993520  0.779770  1.0  -0.0772
  C  C1193  1  0.606000  0.025430  0.754190  1.0  -0.0819
  C  C1194  1  0.704100  0.032440  0.720700  1.0  0.2242
  C  C1195  1  0.697000  0.982120  0.776500  1.0  -0.1339
  C  C1196  1  0.641000  0.044660  0.724700  1.0  -0.2189
  C  C1197  1  0.732600  0.001260  0.747800  1.0  -0.2064
  C  C1198  1  0.415400  0.962150  0.868270  1.0  -0.1221
  C  C1199  1  0.438200  0.905820  0.942140  1.0  -0.2038
  C  C1200  1  0.477900  0.943730  0.881320  1.0  -0.0186
  C  C1201  1  0.527470  0.949380  0.850440  1.0  0.2807
  C  C1202  1  0.488900  0.915480  0.919160  1.0  -0.1081
  C  C1203  1  0.375500  0.924090  0.929200  1.0  0.232
  C  C1204  1  0.364000  0.952310  0.891500  1.0  -0.1682
  C  C1205  1  0.961860  0.807750  0.959380  1.0  0.0207
  C  C1206  1  0.012200  0.816450  0.011180  1.0  -0.0827
  C  C1207  1  0.926700  0.835590  0.925300  1.0  -0.0715
  C  C1208  1  0.941800  0.870220  0.942100  1.0  -0.212
  C  C1209  1  0.946920  0.771060  0.941710  1.0  0.2844
  C  C1210  1  0.027100  0.851010  0.027930  1.0  -0.2069
  C  C1211  1  0.992200  0.878460  0.993400  1.0  0.2219
  C  C1212  1  0.891960  0.723860  0.903660  1.0  0.3087
  C  C1213  1  0.771200  0.699980  0.885750  1.0  -0.0798
  C  C1214  1  0.718900  0.675480  0.862100  1.0  -0.1931
  C  C1215  1  0.728600  0.649030  0.827500  1.0  0.2611
  C  C1216  1  0.791400  0.648150  0.815900  1.0  -0.199
  C  C1217  1  0.844200  0.672620  0.839460  1.0  -0.0908
  C  C1218  1  0.835190  0.698830  0.875520  1.0  -0.0449
  C  C1219  1  0.334120  0.852860  0.813980  1.0  0.2342
  C  C1220  1  0.261510  0.865900  0.789720  1.0  -0.0151
  C  C1221  1  0.237500  0.875620  0.734200  1.0  -0.1263
  C  C1222  1  0.220400  0.872870  0.823100  1.0  -0.0846
  C  C1223  1  0.174300  0.893360  0.710800  1.0  -0.2199
  C  C1224  1  0.133600  0.900900  0.742700  1.0  0.2447
  C  C1225  1  0.156300  0.890000  0.799300  1.0  -0.1592
  C  C1226  1  0.482500  0.799600  0.890510  1.0  -0.0572
  C  C1227  1  0.474200  0.764380  0.875230  1.0  -0.0628
  C  C1228  1  0.527000  0.740340  0.898500  1.0  -0.2045
  C  C1229  1  0.597900  0.786000  0.955400  1.0  -0.1775
  C  C1230  1  0.589600  0.751010  0.938800  1.0  0.1966
  C  C1231  1  0.430030  0.825620  0.858530  1.0  0.3036
  C  C1232  1  0.544700  0.810170  0.931450  1.0  -0.0849
  C  C1233  1  0.716380  0.294060  0.040650  1.0  0.3194
  C  C1234  1  0.642700  0.316680  0.945620  1.0  -0.1231
  C  C1235  1  0.615200  0.378740  0.931600  1.0  0.2148
  C  C1236  1  0.662800  0.385110  0.984600  1.0  -0.185
  C  C1237  1  0.686750  0.322700  0.000680  1.0  -0.0524
  C  C1238  1  0.697200  0.357480  0.019120  1.0  -0.0621
  C  C1239  1  0.607400  0.344220  0.911660  1.0  -0.1983
  C  C1240  1  0.780640  0.265560  0.113460  1.0  0.3077
  C  C1241  1  0.834800  0.255100  0.166610  1.0  -0.0845
  C  C1242  1  0.875600  0.280160  0.204100  1.0  -0.0862
  C  C1243  1  0.922800  0.270090  0.257000  1.0  -0.2021
  C  C1244  1  0.842800  0.220000  0.184100  1.0  -0.1044
  C  C1245  1  0.930100  0.235220  0.273200  1.0  0.2367
  C  C1246  1  0.889600  0.210240  0.236800  1.0  -0.1684
  C  C1247  1  0.109240  0.595130  0.887170  1.0  0.3244
  C  C1248  1  0.172900  0.584580  0.875080  1.0  -0.0466
  C  C1249  1  0.199800  0.604380  0.840300  1.0  -0.0975
  C  C1250  1  0.262800  0.594680  0.832700  1.0  -0.2024
  C  C1251  1  0.210600  0.555190  0.901400  1.0  -0.1302
  C  C1252  1  0.300500  0.565700  0.860300  1.0  0.2391
  C  C1253  1  0.273200  0.545840  0.894200  1.0  -0.194
  C  C1254  1  0.014360  0.592810  0.909050  1.0  0.3015
  C  C1255  1  0.957500  0.543520  0.942700  1.0  -0.0879
  C  C1256  1  0.905900  0.529900  0.961000  1.0  -0.2126
  C  C1257  1  0.956700  0.578800  0.926210  1.0  -0.0342
  C  C1258  1  0.902600  0.599740  0.931200  1.0  -0.0781
  C  C1259  1  0.850000  0.586050  0.948600  1.0  -0.2075
  C  C1260  1  0.850800  0.550490  0.963400  1.0  0.1866
  C  C1261  1  0.225100  0.356900  0.910110  1.0  -0.0509
  C  C1262  1  0.260600  0.344530  0.963760  1.0  -0.1252
  C  C1263  1  0.231300  0.392070  0.900000  1.0  -0.1289
  C  C1264  1  0.181430  0.333030  0.865410  1.0  0.2922
  C  C1265  1  0.302800  0.366290  0.005900  1.0  -0.1908
  C  C1266  1  0.274600  0.414100  0.941400  1.0  -0.2122
  C  C1267  1  0.311000  0.401000  0.994900  1.0  0.2381
  C  C1268  1  0.148420  0.255690  0.778810  1.0  -0.038
  C  C1269  1  0.199300  0.248500  0.753940  1.0  -0.0959
  C  C1270  1  0.194300  0.219190  0.721450  1.0  -0.1903
  C  C1271  1  0.093180  0.231570  0.770740  1.0  -0.1455
  C  C1272  1  0.149340  0.288490  0.809930  1.0  0.3169
  C  C1273  1  0.138400  0.195730  0.712010  1.0  0.2283
  C  C1274  1  0.088400  0.202210  0.738100  1.0  -0.1992
  C  C1275  1  0.092770  0.470670  0.805310  1.0  0.2855
  C  C1276  1  0.132700  0.493520  0.779770  1.0  -0.0772
  C  C1277  1  0.106000  0.525430  0.754190  1.0  -0.0819
  C  C1278  1  0.204100  0.532440  0.720700  1.0  0.2242
  C  C1279  1  0.197000  0.482120  0.776500  1.0  -0.1339
  C  C1280  1  0.141000  0.544660  0.724700  1.0  -0.2189
  C  C1281  1  0.232600  0.501260  0.747800  1.0  -0.2064
  C  C1282  1  0.915400  0.462150  0.868270  1.0  -0.1221
  C  C1283  1  0.938200  0.405820  0.942140  1.0  -0.2038
  C  C1284  1  0.977900  0.443730  0.881320  1.0  -0.0186
  C  C1285  1  0.027470  0.449380  0.850440  1.0  0.2807
  C  C1286  1  0.988900  0.415480  0.919160  1.0  -0.1081
  C  C1287  1  0.875500  0.424090  0.929200  1.0  0.232
  C  C1288  1  0.864000  0.452310  0.891500  1.0  -0.1682
  C  C1289  1  0.461860  0.307750  0.959380  1.0  0.0207
  C  C1290  1  0.512200  0.316450  0.011180  1.0  -0.0827
  C  C1291  1  0.426700  0.335590  0.925300  1.0  -0.0715
  C  C1292  1  0.441800  0.370220  0.942100  1.0  -0.212
  C  C1293  1  0.446920  0.271060  0.941710  1.0  0.2844
  C  C1294  1  0.527100  0.351010  0.027930  1.0  -0.2069
  C  C1295  1  0.492200  0.378460  0.993400  1.0  0.2219
  C  C1296  1  0.391960  0.223860  0.903660  1.0  0.3087
  C  C1297  1  0.271200  0.199980  0.885750  1.0  -0.0798
  C  C1298  1  0.218900  0.175480  0.862100  1.0  -0.1931
  C  C1299  1  0.228600  0.149030  0.827500  1.0  0.2611
  C  C1300  1  0.291400  0.148150  0.815900  1.0  -0.199
  C  C1301  1  0.344200  0.172620  0.839460  1.0  -0.0908
  C  C1302  1  0.335190  0.198830  0.875520  1.0  -0.0449
  C  C1303  1  0.834120  0.352860  0.813980  1.0  0.2342
  C  C1304  1  0.761510  0.365900  0.789720  1.0  -0.0151
  C  C1305  1  0.737500  0.375620  0.734200  1.0  -0.1263
  C  C1306  1  0.720400  0.372870  0.823100  1.0  -0.0846
  C  C1307  1  0.674300  0.393360  0.710800  1.0  -0.2199
  C  C1308  1  0.633600  0.400900  0.742700  1.0  0.2447
  C  C1309  1  0.656300  0.390000  0.799300  1.0  -0.1592
  C  C1310  1  0.982500  0.299600  0.890510  1.0  -0.0572
  C  C1311  1  0.974200  0.264380  0.875230  1.0  -0.0628
  C  C1312  1  0.027000  0.240340  0.898500  1.0  -0.2045
  C  C1313  1  0.097900  0.286000  0.955400  1.0  -0.1775
  C  C1314  1  0.089600  0.251010  0.938800  1.0  0.1966
  C  C1315  1  0.930030  0.325620  0.858530  1.0  0.3036
  C  C1316  1  0.044700  0.310170  0.931450  1.0  -0.0849
  N  N1317  1  0.550080  0.077600  0.327770  1.0  -0.2982
  N  N1318  1  0.553360  0.019590  0.337850  1.0  -0.4202
  N  N1319  1  0.591450  0.063900  0.298290  1.0  -0.3343
  N  N1320  1  0.278890  0.204240  0.583950  1.0  -0.4765
  N  N1321  1  0.223580  0.254030  0.589020  1.0  -0.2914
  N  N1322  1  0.182400  0.235570  0.542210  1.0  -0.3039
  N  N1323  1  0.995000  0.254400  0.452550  1.0  -0.3033
  N  N1324  1  0.959330  0.284940  0.428230  1.0  -0.2802
  N  N1325  1  0.881630  0.241440  0.410970  1.0  -0.4303
  N  N1326  1  0.533230  0.873520  0.411270  1.0  -0.3392
  N  N1327  1  0.594530  0.872130  0.397160  1.0  -0.3098
  N  N1328  1  0.559820  0.927720  0.392710  1.0  -0.4676
  N  N1329  1  0.386070  0.130700  0.302520  1.0  -0.3144
  N  N1330  1  0.447860  0.148350  0.330800  1.0  -0.3026
  N  N1331  1  0.359340  0.174660  0.349360  1.0  -0.4468
  N  N1332  1  0.705850  0.197740  0.350500  1.0  -0.4133
  N  N1333  1  0.614000  0.162130  0.335430  1.0  -0.285
  N  N1334  1  0.593340  0.190760  0.299850  1.0  -0.3268
  N  N1335  1  0.677000  0.376070  0.305400  1.0  -0.6691
  N  N1336  1  0.631700  0.333240  0.176900  1.0  -0.6885
  N  N1337  1  0.326000  0.085050  0.454400  1.0  -0.6942
  N  N1338  1  0.738900  0.948190  0.190600  1.0  -0.6796
  N  N1339  1  0.644800  0.273420  0.461500  1.0  -0.6614
  N  N1340  1  0.076300  0.093640  0.398400  1.0  -0.6612
  N  N1341  1  0.009100  0.086680  0.509500  1.0  -0.7151
  N  N1342  1  0.478100  0.274100  0.825360  1.0  -0.6576
  N  N1343  1  0.851700  0.076790  0.538000  1.0  -0.6537
  N  N1344  1  0.865300  0.942630  0.354900  1.0  -0.7171
  N  N1345  1  0.297000  0.963930  0.479600  1.0  -0.701
  N  N1346  1  0.068200  0.081300  0.218700  1.0  -0.6888
  N  N1347  1  0.050080  0.577600  0.327770  1.0  -0.2982
  N  N1348  1  0.053360  0.519590  0.337850  1.0  -0.4202
  N  N1349  1  0.091450  0.563900  0.298290  1.0  -0.3343
  N  N1350  1  0.778890  0.704240  0.583950  1.0  -0.4765
  N  N1351  1  0.723580  0.754030  0.589020  1.0  -0.2914
  N  N1352  1  0.682400  0.735570  0.542210  1.0  -0.3039
  N  N1353  1  0.495000  0.754400  0.452550  1.0  -0.3033
  N  N1354  1  0.459330  0.784940  0.428230  1.0  -0.2802
  N  N1355  1  0.381630  0.741440  0.410970  1.0  -0.4303
  N  N1356  1  0.033230  0.373520  0.411270  1.0  -0.3392
  N  N1357  1  0.094530  0.372130  0.397160  1.0  -0.3098
  N  N1358  1  0.059820  0.427720  0.392710  1.0  -0.4676
  N  N1359  1  0.886070  0.630700  0.302520  1.0  -0.3144
  N  N1360  1  0.947860  0.648350  0.330800  1.0  -0.3026
  N  N1361  1  0.859340  0.674660  0.349360  1.0  -0.4468
  N  N1362  1  0.205850  0.697740  0.350500  1.0  -0.4133
  N  N1363  1  0.114000  0.662130  0.335430  1.0  -0.285
  N  N1364  1  0.093340  0.690760  0.299850  1.0  -0.3268
  N  N1365  1  0.177000  0.876070  0.305400  1.0  -0.6691
  N  N1366  1  0.131700  0.833240  0.176900  1.0  -0.6885
  N  N1367  1  0.826000  0.585050  0.454400  1.0  -0.6942
  N  N1368  1  0.238900  0.448190  0.190600  1.0  -0.6796
  N  N1369  1  0.144800  0.773420  0.461500  1.0  -0.6614
  N  N1370  1  0.576300  0.593640  0.398400  1.0  -0.6612
  N  N1371  1  0.509100  0.586680  0.509500  1.0  -0.7151
  N  N1372  1  0.978100  0.774100  0.825360  1.0  -0.6576
  N  N1373  1  0.351700  0.576790  0.538000  1.0  -0.6537
  N  N1374  1  0.365300  0.442630  0.354900  1.0  -0.7171
  N  N1375  1  0.797000  0.463930  0.479600  1.0  -0.701
  N  N1376  1  0.568200  0.581300  0.218700  1.0  -0.6888
  N  N1377  1  0.449920  0.077600  0.172230  1.0  -0.2979
  N  N1378  1  0.446640  0.019590  0.162150  1.0  -0.4217
  N  N1379  1  0.408550  0.063900  0.201710  1.0  -0.3334
  N  N1380  1  0.721110  0.204240  0.916050  1.0  -0.4767
  N  N1381  1  0.776420  0.254030  0.910980  1.0  -0.291
  N  N1382  1  0.817600  0.235570  0.957790  1.0  -0.3034
  N  N1383  1  0.005000  0.254400  0.047450  1.0  -0.3055
  N  N1384  1  0.040670  0.284940  0.071770  1.0  -0.2785
  N  N1385  1  0.118370  0.241440  0.089030  1.0  -0.4284
  N  N1386  1  0.466770  0.873520  0.088730  1.0  -0.3373
  N  N1387  1  0.405470  0.872130  0.102840  1.0  -0.3098
  N  N1388  1  0.440180  0.927720  0.107290  1.0  -0.4681
  N  N1389  1  0.613930  0.130700  0.197480  1.0  -0.3152
  N  N1390  1  0.552140  0.148350  0.169200  1.0  -0.3025
  N  N1391  1  0.640660  0.174660  0.150640  1.0  -0.4457
  N  N1392  1  0.294150  0.197740  0.149500  1.0  -0.4137
  N  N1393  1  0.386000  0.162130  0.164570  1.0  -0.2836
  N  N1394  1  0.406660  0.190760  0.200150  1.0  -0.3268
  N  N1395  1  0.323000  0.376070  0.194600  1.0  -0.6718
  N  N1396  1  0.368300  0.333240  0.323100  1.0  -0.6888
  N  N1397  1  0.674000  0.085050  0.045600  1.0  -0.6945
  N  N1398  1  0.261100  0.948190  0.309400  1.0  -0.675
  N  N1399  1  0.355200  0.273420  0.038500  1.0  -0.6632
  N  N1400  1  0.923700  0.093640  0.101600  1.0  -0.6614
  N  N1401  1  0.990900  0.086680  0.990500  1.0  -0.7163
  N  N1402  1  0.521900  0.274100  0.674640  1.0  -0.6574
  N  N1403  1  0.148300  0.076790  0.962000  1.0  -0.6536
  N  N1404  1  0.134700  0.942630  0.145100  1.0  -0.7177
  N  N1405  1  0.703000  0.963930  0.020400  1.0  -0.6997
  N  N1406  1  0.931800  0.081300  0.281300  1.0  -0.6856
  N  N1407  1  0.949920  0.577600  0.172230  1.0  -0.2979
  N  N1408  1  0.946640  0.519590  0.162150  1.0  -0.4217
  N  N1409  1  0.908550  0.563900  0.201710  1.0  -0.3334
  N  N1410  1  0.221110  0.704240  0.916050  1.0  -0.4767
  N  N1411  1  0.276420  0.754030  0.910980  1.0  -0.291
  N  N1412  1  0.317600  0.735570  0.957790  1.0  -0.3034
  N  N1413  1  0.505000  0.754400  0.047450  1.0  -0.3055
  N  N1414  1  0.540670  0.784940  0.071770  1.0  -0.2785
  N  N1415  1  0.618370  0.741440  0.089030  1.0  -0.4284
  N  N1416  1  0.966770  0.373520  0.088730  1.0  -0.3373
  N  N1417  1  0.905470  0.372130  0.102840  1.0  -0.3098
  N  N1418  1  0.940180  0.427720  0.107290  1.0  -0.4681
  N  N1419  1  0.113930  0.630700  0.197480  1.0  -0.3152
  N  N1420  1  0.052140  0.648350  0.169200  1.0  -0.3025
  N  N1421  1  0.140660  0.674660  0.150640  1.0  -0.4457
  N  N1422  1  0.794150  0.697740  0.149500  1.0  -0.4137
  N  N1423  1  0.886000  0.662130  0.164570  1.0  -0.2836
  N  N1424  1  0.906660  0.690760  0.200150  1.0  -0.3268
  N  N1425  1  0.823000  0.876070  0.194600  1.0  -0.6718
  N  N1426  1  0.868300  0.833240  0.323100  1.0  -0.6888
  N  N1427  1  0.174000  0.585050  0.045600  1.0  -0.6945
  N  N1428  1  0.761100  0.448190  0.309400  1.0  -0.675
  N  N1429  1  0.855200  0.773420  0.038500  1.0  -0.6632
  N  N1430  1  0.423700  0.593640  0.101600  1.0  -0.6614
  N  N1431  1  0.490900  0.586680  0.990500  1.0  -0.7163
  N  N1432  1  0.021900  0.774100  0.674640  1.0  -0.6574
  N  N1433  1  0.648300  0.576790  0.962000  1.0  -0.6536
  N  N1434  1  0.634700  0.442630  0.145100  1.0  -0.7177
  N  N1435  1  0.203000  0.463930  0.020400  1.0  -0.6997
  N  N1436  1  0.431800  0.581300  0.281300  1.0  -0.6856
  N  N1437  1  0.449920  0.922400  0.672230  1.0  -0.2967
  N  N1438  1  0.446640  0.980410  0.662150  1.0  -0.42
  N  N1439  1  0.408550  0.936100  0.701710  1.0  -0.3327
  N  N1440  1  0.721110  0.795760  0.416050  1.0  -0.4762
  N  N1441  1  0.776420  0.745970  0.410980  1.0  -0.2901
  N  N1442  1  0.817600  0.764430  0.457790  1.0  -0.3027
  N  N1443  1  0.005000  0.745600  0.547450  1.0  -0.3061
  N  N1444  1  0.040670  0.715060  0.571770  1.0  -0.2803
  N  N1445  1  0.118370  0.758560  0.589030  1.0  -0.4283
  N  N1446  1  0.466770  0.126480  0.588730  1.0  -0.338
  N  N1447  1  0.405470  0.127870  0.602840  1.0  -0.3115
  N  N1448  1  0.440180  0.072280  0.607290  1.0  -0.4669
  N  N1449  1  0.613930  0.869300  0.697480  1.0  -0.3153
  N  N1450  1  0.552140  0.851650  0.669200  1.0  -0.3027
  N  N1451  1  0.640660  0.825340  0.650640  1.0  -0.4456
  N  N1452  1  0.294150  0.802260  0.649500  1.0  -0.4138
  N  N1453  1  0.386000  0.837870  0.664570  1.0  -0.2844
  N  N1454  1  0.406660  0.809240  0.700150  1.0  -0.3273
  N  N1455  1  0.323000  0.623930  0.694600  1.0  -0.671
  N  N1456  1  0.368300  0.666760  0.823100  1.0  -0.688
  N  N1457  1  0.674000  0.914950  0.545600  1.0  -0.6946
  N  N1458  1  0.261100  0.051810  0.809400  1.0  -0.6763
  N  N1459  1  0.355200  0.726580  0.538500  1.0  -0.6629
  N  N1460  1  0.923700  0.906360  0.601600  1.0  -0.6591
  N  N1461  1  0.990900  0.913320  0.490500  1.0  -0.716
  N  N1462  1  0.521900  0.725900  0.174640  1.0  -0.6577
  N  N1463  1  0.148300  0.923210  0.462000  1.0  -0.6549
  N  N1464  1  0.134700  0.057370  0.645100  1.0  -0.7191
  N  N1465  1  0.703000  0.036070  0.520400  1.0  -0.6985
  N  N1466  1  0.931800  0.918700  0.781300  1.0  -0.6843
  N  N1467  1  0.949920  0.422400  0.672230  1.0  -0.2967
  N  N1468  1  0.946640  0.480410  0.662150  1.0  -0.42
  N  N1469  1  0.908550  0.436100  0.701710  1.0  -0.3327
  N  N1470  1  0.221110  0.295760  0.416050  1.0  -0.4762
  N  N1471  1  0.276420  0.245970  0.410980  1.0  -0.2901
  N  N1472  1  0.317600  0.264430  0.457790  1.0  -0.3027
  N  N1473  1  0.505000  0.245600  0.547450  1.0  -0.3061
  N  N1474  1  0.540670  0.215060  0.571770  1.0  -0.2803
  N  N1475  1  0.618370  0.258560  0.589030  1.0  -0.4283
  N  N1476  1  0.966770  0.626480  0.588730  1.0  -0.338
  N  N1477  1  0.905470  0.627870  0.602840  1.0  -0.3115
  N  N1478  1  0.940180  0.572280  0.607290  1.0  -0.4669
  N  N1479  1  0.113930  0.369300  0.697480  1.0  -0.3153
  N  N1480  1  0.052140  0.351650  0.669200  1.0  -0.3027
  N  N1481  1  0.140660  0.325340  0.650640  1.0  -0.4456
  N  N1482  1  0.794150  0.302260  0.649500  1.0  -0.4138
  N  N1483  1  0.886000  0.337870  0.664570  1.0  -0.2844
  N  N1484  1  0.906660  0.309240  0.700150  1.0  -0.3273
  N  N1485  1  0.823000  0.123930  0.694600  1.0  -0.671
  N  N1486  1  0.868300  0.166760  0.823100  1.0  -0.688
  N  N1487  1  0.174000  0.414950  0.545600  1.0  -0.6946
  N  N1488  1  0.761100  0.551810  0.809400  1.0  -0.6763
  N  N1489  1  0.855200  0.226580  0.538500  1.0  -0.6629
  N  N1490  1  0.423700  0.406360  0.601600  1.0  -0.6591
  N  N1491  1  0.490900  0.413320  0.490500  1.0  -0.716
  N  N1492  1  0.021900  0.225900  0.174640  1.0  -0.6577
  N  N1493  1  0.648300  0.423210  0.462000  1.0  -0.6549
  N  N1494  1  0.634700  0.557370  0.645100  1.0  -0.7191
  N  N1495  1  0.203000  0.536070  0.520400  1.0  -0.6985
  N  N1496  1  0.431800  0.418700  0.781300  1.0  -0.6843
  N  N1497  1  0.550080  0.922400  0.827770  1.0  -0.297
  N  N1498  1  0.553360  0.980410  0.837850  1.0  -0.4196
  N  N1499  1  0.591450  0.936100  0.798290  1.0  -0.3334
  N  N1500  1  0.278890  0.795760  0.083950  1.0  -0.4764
  N  N1501  1  0.223580  0.745970  0.089020  1.0  -0.2914
  N  N1502  1  0.182400  0.764430  0.042210  1.0  -0.3037
  N  N1503  1  0.995000  0.745600  0.952550  1.0  -0.3034
  N  N1504  1  0.959330  0.715060  0.928230  1.0  -0.2809
  N  N1505  1  0.881630  0.758560  0.910970  1.0  -0.4295
  N  N1506  1  0.533230  0.126480  0.911270  1.0  -0.3398
  N  N1507  1  0.594530  0.127870  0.897160  1.0  -0.3117
  N  N1508  1  0.559820  0.072280  0.892710  1.0  -0.4673
  N  N1509  1  0.386070  0.869300  0.802520  1.0  -0.3145
  N  N1510  1  0.447860  0.851650  0.830800  1.0  -0.3022
  N  N1511  1  0.359340  0.825340  0.849360  1.0  -0.4468
  N  N1512  1  0.705850  0.802260  0.850500  1.0  -0.4128
  N  N1513  1  0.614000  0.837870  0.835430  1.0  -0.2852
  N  N1514  1  0.593340  0.809240  0.799850  1.0  -0.3269
  N  N1515  1  0.677000  0.623930  0.805400  1.0  -0.6719
  N  N1516  1  0.631700  0.666760  0.676900  1.0  -0.6883
  N  N1517  1  0.326000  0.914950  0.954400  1.0  -0.6943
  N  N1518  1  0.738900  0.051810  0.690600  1.0  -0.6786
  N  N1519  1  0.644800  0.726580  0.961500  1.0  -0.6609
  N  N1520  1  0.076300  0.906360  0.898400  1.0  -0.6596
  N  N1521  1  0.009100  0.913320  0.009500  1.0  -0.7143
  N  N1522  1  0.478100  0.725900  0.325360  1.0  -0.658
  N  N1523  1  0.851700  0.923210  0.038000  1.0  -0.6564
  N  N1524  1  0.865300  0.057370  0.854900  1.0  -0.7175
  N  N1525  1  0.297000  0.036070  0.979600  1.0  -0.6979
  N  N1526  1  0.068200  0.918700  0.718700  1.0  -0.6876
  N  N1527  1  0.050080  0.422400  0.827770  1.0  -0.297
  N  N1528  1  0.053360  0.480410  0.837850  1.0  -0.4196
  N  N1529  1  0.091450  0.436100  0.798290  1.0  -0.3334
  N  N1530  1  0.778890  0.295760  0.083950  1.0  -0.4764
  N  N1531  1  0.723580  0.245970  0.089020  1.0  -0.2914
  N  N1532  1  0.682400  0.264430  0.042210  1.0  -0.3037
  N  N1533  1  0.495000  0.245600  0.952550  1.0  -0.3034
  N  N1534  1  0.459330  0.215060  0.928230  1.0  -0.2809
  N  N1535  1  0.381630  0.258560  0.910970  1.0  -0.4295
  N  N1536  1  0.033230  0.626480  0.911270  1.0  -0.3398
  N  N1537  1  0.094530  0.627870  0.897160  1.0  -0.3117
  N  N1538  1  0.059820  0.572280  0.892710  1.0  -0.4673
  N  N1539  1  0.886070  0.369300  0.802520  1.0  -0.3145
  N  N1540  1  0.947860  0.351650  0.830800  1.0  -0.3022
  N  N1541  1  0.859340  0.325340  0.849360  1.0  -0.4468
  N  N1542  1  0.205850  0.302260  0.850500  1.0  -0.4128
  N  N1543  1  0.114000  0.337870  0.835430  1.0  -0.2852
  N  N1544  1  0.093340  0.309240  0.799850  1.0  -0.3269
  N  N1545  1  0.177000  0.123930  0.805400  1.0  -0.6719
  N  N1546  1  0.131700  0.166760  0.676900  1.0  -0.6883
  N  N1547  1  0.826000  0.414950  0.954400  1.0  -0.6943
  N  N1548  1  0.238900  0.551810  0.690600  1.0  -0.6786
  N  N1549  1  0.144800  0.226580  0.961500  1.0  -0.6609
  N  N1550  1  0.576300  0.406360  0.898400  1.0  -0.6596
  N  N1551  1  0.509100  0.413320  0.009500  1.0  -0.7143
  N  N1552  1  0.978100  0.225900  0.325360  1.0  -0.658
  N  N1553  1  0.351700  0.423210  0.038000  1.0  -0.6564
  N  N1554  1  0.365300  0.557370  0.854900  1.0  -0.7175
  N  N1555  1  0.797000  0.536070  0.979600  1.0  -0.6979
  N  N1556  1  0.568200  0.418700  0.718700  1.0  -0.6876
  Cl  Cl1557  1  0.125150  0.318590  0.507860  1.0  -0.1763
  Cl  Cl1558  1  0.625150  0.818590  0.507860  1.0  -0.1763
  Cl  Cl1559  1  0.874850  0.318590  0.992140  1.0  -0.1771
  Cl  Cl1560  1  0.374850  0.818590  0.992140  1.0  -0.1771
  Cl  Cl1561  1  0.874850  0.681410  0.492140  1.0  -0.1768
  Cl  Cl1562  1  0.374850  0.181410  0.492140  1.0  -0.1768
  Cl  Cl1563  1  0.125150  0.681410  0.007860  1.0  -0.1762
  Cl  Cl1564  1  0.625150  0.181410  0.007860  1.0  -0.1762
