# generated using pymatgen
data_LaH20C24(NO2)4
_symmetry_space_group_name_H-M   'P 1'
_cell_length_a   15.42370000
_cell_length_b   25.42870000
_cell_length_c   30.78700000
_cell_angle_alpha   90.00000000
_cell_angle_beta   90.00000000
_cell_angle_gamma   90.00000000
_symmetry_Int_Tables_number   1
_chemical_formula_structural   LaH20C24(NO2)4
_chemical_formula_sum   'La16 H320 C384 N64 O128'
_cell_volume   12074.80425753
_cell_formula_units_Z   16
loop_
 _symmetry_equiv_pos_site_id
 _symmetry_equiv_pos_as_xyz
  1  'x, y, z'
loop_
 _atom_site_type_symbol
 _atom_site_label
 _atom_site_symmetry_multiplicity
 _atom_site_fract_x
 _atom_site_fract_y
 _atom_site_fract_z
 _atom_site_occupancy
 _atom_site_charge
  La  La1  1  0.474660  0.625000  0.625000  1.0  2.1989
  La  La2  1  0.974660  0.625000  0.125000  1.0  2.1989
  La  La3  1  0.275340  0.125000  0.625000  1.0  2.1958
  La  La4  1  0.775340  0.125000  0.125000  1.0  2.1958
  La  La5  1  0.775340  0.625000  0.625000  1.0  2.1958
  La  La6  1  0.275340  0.625000  0.125000  1.0  2.1958
  La  La7  1  0.474660  0.125000  0.125000  1.0  2.1989
  La  La8  1  0.974660  0.125000  0.625000  1.0  2.1989
  La  La9  1  0.525340  0.375000  0.375000  1.0  2.1958
  La  La10  1  0.025340  0.375000  0.875000  1.0  2.1958
  La  La11  1  0.724660  0.875000  0.375000  1.0  2.1989
  La  La12  1  0.224660  0.875000  0.875000  1.0  2.1989
  La  La13  1  0.724660  0.375000  0.875000  1.0  2.1989
  La  La14  1  0.224660  0.375000  0.375000  1.0  2.1989
  La  La15  1  0.525340  0.875000  0.875000  1.0  2.1958
  La  La16  1  0.025340  0.875000  0.375000  1.0  2.1958
  H  H17  1  0.300000  0.793900  0.734800  1.0  0.1109
  H  H18  1  0.307800  0.727800  0.683400  1.0  0.1086
  H  H19  1  0.338700  0.761500  0.482900  1.0  0.1027
  H  H20  1  0.330000  0.700400  0.536900  1.0  0.1017
  H  H21  1  0.461800  0.645200  0.758500  1.0  0.1138
  H  H22  1  0.462800  0.711800  0.809600  1.0  0.1036
  H  H23  1  0.477700  0.854000  0.561200  1.0  0.114
  H  H24  1  0.411200  0.836600  0.451800  1.0  0.0894
  H  H25  1  0.466100  0.874000  0.481300  1.0  0.097
  H  H26  1  0.463300  0.792300  0.614700  1.0  0.1053
  H  H27  1  0.300000  0.293900  0.234800  1.0  0.1109
  H  H28  1  0.307800  0.227800  0.183400  1.0  0.1086
  H  H29  1  0.338700  0.261500  0.982900  1.0  0.1027
  H  H30  1  0.330000  0.200400  0.036900  1.0  0.1017
  H  H31  1  0.461800  0.145200  0.258500  1.0  0.1138
  H  H32  1  0.462800  0.211800  0.309600  1.0  0.1036
  H  H33  1  0.477700  0.354000  0.061200  1.0  0.114
  H  H34  1  0.411200  0.336600  0.951800  1.0  0.0894
  H  H35  1  0.466100  0.374000  0.981300  1.0  0.097
  H  H36  1  0.463300  0.292300  0.114700  1.0  0.1053
  H  H37  1  0.800000  0.793900  0.234800  1.0  0.1109
  H  H38  1  0.807800  0.727800  0.183400  1.0  0.1086
  H  H39  1  0.838700  0.761500  0.982900  1.0  0.1027
  H  H40  1  0.830000  0.700400  0.036900  1.0  0.1017
  H  H41  1  0.961800  0.645200  0.258500  1.0  0.1138
  H  H42  1  0.962800  0.711800  0.309600  1.0  0.1036
  H  H43  1  0.977700  0.854000  0.061200  1.0  0.114
  H  H44  1  0.911200  0.836600  0.951800  1.0  0.0894
  H  H45  1  0.966100  0.874000  0.981300  1.0  0.097
  H  H46  1  0.963300  0.792300  0.114700  1.0  0.1053
  H  H47  1  0.800000  0.293900  0.734800  1.0  0.1109
  H  H48  1  0.807800  0.227800  0.683400  1.0  0.1086
  H  H49  1  0.838700  0.261500  0.482900  1.0  0.1027
  H  H50  1  0.830000  0.200400  0.536900  1.0  0.1017
  H  H51  1  0.961800  0.145200  0.758500  1.0  0.1138
  H  H52  1  0.962800  0.211800  0.809600  1.0  0.1036
  H  H53  1  0.977700  0.354000  0.561200  1.0  0.114
  H  H54  1  0.911200  0.336600  0.451800  1.0  0.0894
  H  H55  1  0.966100  0.374000  0.481300  1.0  0.097
  H  H56  1  0.963300  0.292300  0.614700  1.0  0.1053
  H  H57  1  0.450000  0.956100  0.734800  1.0  0.1108
  H  H58  1  0.442200  0.022200  0.683400  1.0  0.1088
  H  H59  1  0.411300  0.988500  0.482900  1.0  0.1032
  H  H60  1  0.420000  0.049600  0.536900  1.0  0.1012
  H  H61  1  0.288200  0.104800  0.758500  1.0  0.1137
  H  H62  1  0.287200  0.038200  0.809600  1.0  0.1035
  H  H63  1  0.272300  0.896000  0.561200  1.0  0.1138
  H  H64  1  0.338800  0.913400  0.451800  1.0  0.0892
  H  H65  1  0.283900  0.876000  0.481300  1.0  0.0959
  H  H66  1  0.286700  0.957700  0.614700  1.0  0.1054
  H  H67  1  0.450000  0.456100  0.234800  1.0  0.1108
  H  H68  1  0.442200  0.522200  0.183400  1.0  0.1088
  H  H69  1  0.411300  0.488500  0.982900  1.0  0.1032
  H  H70  1  0.420000  0.549600  0.036900  1.0  0.1012
  H  H71  1  0.288200  0.604800  0.258500  1.0  0.1137
  H  H72  1  0.287200  0.538200  0.309600  1.0  0.1035
  H  H73  1  0.272300  0.396000  0.061200  1.0  0.1138
  H  H74  1  0.338800  0.413400  0.951800  1.0  0.0892
  H  H75  1  0.283900  0.376000  0.981300  1.0  0.0959
  H  H76  1  0.286700  0.457700  0.114700  1.0  0.1054
  H  H77  1  0.950000  0.956100  0.234800  1.0  0.1108
  H  H78  1  0.942200  0.022200  0.183400  1.0  0.1088
  H  H79  1  0.911300  0.988500  0.982900  1.0  0.1032
  H  H80  1  0.920000  0.049600  0.036900  1.0  0.1012
  H  H81  1  0.788200  0.104800  0.258500  1.0  0.1137
  H  H82  1  0.787200  0.038200  0.309600  1.0  0.1035
  H  H83  1  0.772300  0.896000  0.061200  1.0  0.1138
  H  H84  1  0.838800  0.913400  0.951800  1.0  0.0892
  H  H85  1  0.783900  0.876000  0.981300  1.0  0.0959
  H  H86  1  0.786700  0.957700  0.114700  1.0  0.1054
  H  H87  1  0.950000  0.456100  0.734800  1.0  0.1108
  H  H88  1  0.942200  0.522200  0.683400  1.0  0.1088
  H  H89  1  0.911300  0.488500  0.482900  1.0  0.1032
  H  H90  1  0.920000  0.549600  0.536900  1.0  0.1012
  H  H91  1  0.788200  0.604800  0.758500  1.0  0.1137
  H  H92  1  0.787200  0.538200  0.809600  1.0  0.1035
  H  H93  1  0.772300  0.396000  0.561200  1.0  0.1138
  H  H94  1  0.838800  0.413400  0.451800  1.0  0.0892
  H  H95  1  0.783900  0.376000  0.481300  1.0  0.0959
  H  H96  1  0.786700  0.457700  0.614700  1.0  0.1054
  H  H97  1  0.450000  0.793900  0.015200  1.0  0.1107
  H  H98  1  0.442200  0.727800  0.066600  1.0  0.1078
  H  H99  1  0.411300  0.761500  0.267100  1.0  0.1018
  H  H100  1  0.420000  0.700400  0.213100  1.0  0.1015
  H  H101  1  0.288200  0.645200  0.991500  1.0  0.1142
  H  H102  1  0.287200  0.711800  0.940400  1.0  0.1029
  H  H103  1  0.272300  0.854000  0.188800  1.0  0.1148
  H  H104  1  0.338800  0.836600  0.298200  1.0  0.0905
  H  H105  1  0.283900  0.874000  0.268700  1.0  0.0951
  H  H106  1  0.286700  0.792300  0.135300  1.0  0.1057
  H  H107  1  0.450000  0.293900  0.515200  1.0  0.1107
  H  H108  1  0.442200  0.227800  0.566600  1.0  0.1078
  H  H109  1  0.411300  0.261500  0.767100  1.0  0.1018
  H  H110  1  0.420000  0.200400  0.713100  1.0  0.1015
  H  H111  1  0.288200  0.145200  0.491500  1.0  0.1138
  H  H112  1  0.287200  0.211800  0.440400  1.0  0.1029
  H  H113  1  0.272300  0.354000  0.688800  1.0  0.1148
  H  H114  1  0.338800  0.336600  0.798200  1.0  0.0905
  H  H115  1  0.283900  0.374000  0.768700  1.0  0.0951
  H  H116  1  0.286700  0.292300  0.635300  1.0  0.1057
  H  H117  1  0.950000  0.793900  0.515200  1.0  0.1107
  H  H118  1  0.942200  0.727800  0.566600  1.0  0.1078
  H  H119  1  0.911300  0.761500  0.767100  1.0  0.1018
  H  H120  1  0.920000  0.700400  0.713100  1.0  0.1015
  H  H121  1  0.788200  0.645200  0.491500  1.0  0.1138
  H  H122  1  0.787200  0.711800  0.440400  1.0  0.1029
  H  H123  1  0.772300  0.854000  0.688800  1.0  0.1148
  H  H124  1  0.838800  0.836600  0.798200  1.0  0.0905
  H  H125  1  0.783900  0.874000  0.768700  1.0  0.0951
  H  H126  1  0.786700  0.792300  0.635300  1.0  0.1057
  H  H127  1  0.950000  0.293900  0.015200  1.0  0.1107
  H  H128  1  0.942200  0.227800  0.066600  1.0  0.1078
  H  H129  1  0.911300  0.261500  0.267100  1.0  0.1018
  H  H130  1  0.920000  0.200400  0.213100  1.0  0.1015
  H  H131  1  0.788200  0.145200  0.991500  1.0  0.1142
  H  H132  1  0.787200  0.211800  0.940400  1.0  0.1029
  H  H133  1  0.772300  0.354000  0.188800  1.0  0.1148
  H  H134  1  0.838800  0.336600  0.298200  1.0  0.0905
  H  H135  1  0.783900  0.374000  0.268700  1.0  0.0951
  H  H136  1  0.786700  0.292300  0.135300  1.0  0.1057
  H  H137  1  0.300000  0.956100  0.015200  1.0  0.111
  H  H138  1  0.307800  0.022200  0.066600  1.0  0.1095
  H  H139  1  0.338700  0.988500  0.267100  1.0  0.1017
  H  H140  1  0.330000  0.049600  0.213100  1.0  0.1011
  H  H141  1  0.461800  0.104800  0.991500  1.0  0.1128
  H  H142  1  0.462800  0.038200  0.940400  1.0  0.1032
  H  H143  1  0.477700  0.896000  0.188800  1.0  0.1142
  H  H144  1  0.411200  0.913400  0.298200  1.0  0.0904
  H  H145  1  0.466100  0.876000  0.268700  1.0  0.096
  H  H146  1  0.463300  0.957700  0.135300  1.0  0.1055
  H  H147  1  0.300000  0.456100  0.515200  1.0  0.111
  H  H148  1  0.307800  0.522200  0.566600  1.0  0.1095
  H  H149  1  0.338700  0.488500  0.767100  1.0  0.1017
  H  H150  1  0.330000  0.549600  0.713100  1.0  0.1011
  H  H151  1  0.461800  0.604800  0.491500  1.0  0.1129
  H  H152  1  0.462800  0.538200  0.440400  1.0  0.1032
  H  H153  1  0.477700  0.396000  0.688800  1.0  0.1142
  H  H154  1  0.411200  0.413400  0.798200  1.0  0.0904
  H  H155  1  0.466100  0.376000  0.768700  1.0  0.096
  H  H156  1  0.463300  0.457700  0.635300  1.0  0.1055
  H  H157  1  0.800000  0.956100  0.515200  1.0  0.111
  H  H158  1  0.807800  0.022200  0.566600  1.0  0.1095
  H  H159  1  0.838700  0.988500  0.767100  1.0  0.1017
  H  H160  1  0.830000  0.049600  0.713100  1.0  0.1011
  H  H161  1  0.961800  0.104800  0.491500  1.0  0.1129
  H  H162  1  0.962800  0.038200  0.440400  1.0  0.1032
  H  H163  1  0.977700  0.896000  0.688800  1.0  0.1142
  H  H164  1  0.911200  0.913400  0.798200  1.0  0.0904
  H  H165  1  0.966100  0.876000  0.768700  1.0  0.096
  H  H166  1  0.963300  0.957700  0.635300  1.0  0.1055
  H  H167  1  0.800000  0.456100  0.015200  1.0  0.111
  H  H168  1  0.807800  0.522200  0.066600  1.0  0.1095
  H  H169  1  0.838700  0.488500  0.267100  1.0  0.1017
  H  H170  1  0.830000  0.549600  0.213100  1.0  0.1011
  H  H171  1  0.961800  0.604800  0.991500  1.0  0.1128
  H  H172  1  0.962800  0.538200  0.940400  1.0  0.1032
  H  H173  1  0.977700  0.396000  0.188800  1.0  0.1142
  H  H174  1  0.911200  0.413400  0.298200  1.0  0.0904
  H  H175  1  0.966100  0.376000  0.268700  1.0  0.096
  H  H176  1  0.963300  0.457700  0.135300  1.0  0.1055
  H  H177  1  0.700000  0.206100  0.265200  1.0  0.111
  H  H178  1  0.692200  0.272200  0.316600  1.0  0.1091
  H  H179  1  0.661300  0.238500  0.517100  1.0  0.1018
  H  H180  1  0.670000  0.299600  0.463100  1.0  0.1012
  H  H181  1  0.538200  0.354800  0.241500  1.0  0.1138
  H  H182  1  0.537200  0.288200  0.190400  1.0  0.1032
  H  H183  1  0.522300  0.146000  0.438800  1.0  0.1138
  H  H184  1  0.588800  0.163400  0.548200  1.0  0.0902
  H  H185  1  0.533900  0.126000  0.518700  1.0  0.0951
  H  H186  1  0.536700  0.207700  0.385300  1.0  0.1054
  H  H187  1  0.700000  0.706100  0.765200  1.0  0.111
  H  H188  1  0.692200  0.772200  0.816600  1.0  0.1091
  H  H189  1  0.661300  0.738500  0.017100  1.0  0.1018
  H  H190  1  0.670000  0.799600  0.963100  1.0  0.1017
  H  H191  1  0.538200  0.854800  0.741500  1.0  0.1138
  H  H192  1  0.537200  0.788200  0.690400  1.0  0.1032
  H  H193  1  0.522300  0.646000  0.938800  1.0  0.1138
  H  H194  1  0.588800  0.663400  0.048200  1.0  0.0902
  H  H195  1  0.533900  0.626000  0.018700  1.0  0.0951
  H  H196  1  0.536700  0.707700  0.885300  1.0  0.1054
  H  H197  1  0.200000  0.206100  0.765200  1.0  0.111
  H  H198  1  0.192200  0.272200  0.816600  1.0  0.1091
  H  H199  1  0.161300  0.238500  0.017100  1.0  0.1018
  H  H200  1  0.170000  0.299600  0.963100  1.0  0.1017
  H  H201  1  0.038200  0.354800  0.741500  1.0  0.1138
  H  H202  1  0.037200  0.288200  0.690400  1.0  0.1032
  H  H203  1  0.022300  0.146000  0.938800  1.0  0.1138
  H  H204  1  0.088800  0.163400  0.048200  1.0  0.0902
  H  H205  1  0.033900  0.126000  0.018700  1.0  0.0951
  H  H206  1  0.036700  0.207700  0.885300  1.0  0.1054
  H  H207  1  0.200000  0.706100  0.265200  1.0  0.111
  H  H208  1  0.192200  0.772200  0.316600  1.0  0.1091
  H  H209  1  0.161300  0.738500  0.517100  1.0  0.1018
  H  H210  1  0.170000  0.799600  0.463100  1.0  0.1012
  H  H211  1  0.038200  0.854800  0.241500  1.0  0.1138
  H  H212  1  0.037200  0.788200  0.190400  1.0  0.1032
  H  H213  1  0.022300  0.646000  0.438800  1.0  0.1138
  H  H214  1  0.088800  0.663400  0.548200  1.0  0.0902
  H  H215  1  0.033900  0.626000  0.518700  1.0  0.0951
  H  H216  1  0.036700  0.707700  0.385300  1.0  0.1054
  H  H217  1  0.550000  0.043900  0.265200  1.0  0.1111
  H  H218  1  0.557800  0.977800  0.316600  1.0  0.1079
  H  H219  1  0.588700  0.011500  0.517100  1.0  0.1017
  H  H220  1  0.580000  0.950400  0.463100  1.0  0.1015
  H  H221  1  0.711800  0.895200  0.241500  1.0  0.1135
  H  H222  1  0.712800  0.961800  0.190400  1.0  0.1032
  H  H223  1  0.727700  0.104000  0.438800  1.0  0.1144
  H  H224  1  0.661200  0.086600  0.548200  1.0  0.0907
  H  H225  1  0.716100  0.124000  0.518700  1.0  0.096
  H  H226  1  0.713300  0.042300  0.385300  1.0  0.1055
  H  H227  1  0.550000  0.543900  0.765200  1.0  0.1111
  H  H228  1  0.557800  0.477800  0.816600  1.0  0.1079
  H  H229  1  0.588700  0.511500  0.017100  1.0  0.1017
  H  H230  1  0.580000  0.450400  0.963100  1.0  0.1015
  H  H231  1  0.711800  0.395200  0.741500  1.0  0.1135
  H  H232  1  0.712800  0.461800  0.690400  1.0  0.1032
  H  H233  1  0.727700  0.604000  0.938800  1.0  0.1144
  H  H234  1  0.661200  0.586600  0.048200  1.0  0.0907
  H  H235  1  0.716100  0.624000  0.018700  1.0  0.096
  H  H236  1  0.713300  0.542300  0.885300  1.0  0.1055
  H  H237  1  0.050000  0.043900  0.765200  1.0  0.1111
  H  H238  1  0.057800  0.977800  0.816600  1.0  0.1079
  H  H239  1  0.088700  0.011500  0.017100  1.0  0.1017
  H  H240  1  0.080000  0.950400  0.963100  1.0  0.1015
  H  H241  1  0.211800  0.895200  0.741500  1.0  0.1135
  H  H242  1  0.212800  0.961800  0.690400  1.0  0.1032
  H  H243  1  0.227700  0.104000  0.938800  1.0  0.1144
  H  H244  1  0.161200  0.086600  0.048200  1.0  0.0907
  H  H245  1  0.216100  0.124000  0.018700  1.0  0.096
  H  H246  1  0.213300  0.042300  0.885300  1.0  0.1055
  H  H247  1  0.050000  0.543900  0.265200  1.0  0.1111
  H  H248  1  0.057800  0.477800  0.316600  1.0  0.1079
  H  H249  1  0.088700  0.511500  0.517100  1.0  0.1017
  H  H250  1  0.080000  0.450400  0.463100  1.0  0.1015
  H  H251  1  0.211800  0.395200  0.241500  1.0  0.1135
  H  H252  1  0.212800  0.461800  0.190400  1.0  0.1032
  H  H253  1  0.227700  0.604000  0.438800  1.0  0.1144
  H  H254  1  0.161200  0.586600  0.548200  1.0  0.0907
  H  H255  1  0.216100  0.624000  0.518700  1.0  0.096
  H  H256  1  0.213300  0.542300  0.385300  1.0  0.1055
  H  H257  1  0.550000  0.206100  0.984800  1.0  0.1106
  H  H258  1  0.557800  0.272200  0.933400  1.0  0.1087
  H  H259  1  0.588700  0.238500  0.732900  1.0  0.103
  H  H260  1  0.580000  0.299600  0.786900  1.0  0.1012
  H  H261  1  0.711800  0.354800  0.008500  1.0  0.113
  H  H262  1  0.712800  0.288200  0.059600  1.0  0.1032
  H  H263  1  0.727700  0.146000  0.811200  1.0  0.1138
  H  H264  1  0.661200  0.163400  0.701800  1.0  0.0891
  H  H265  1  0.716100  0.126000  0.731300  1.0  0.0967
  H  H266  1  0.713300  0.207700  0.864700  1.0  0.1054
  H  H267  1  0.550000  0.706100  0.484800  1.0  0.1106
  H  H268  1  0.557800  0.772200  0.433400  1.0  0.1087
  H  H269  1  0.588700  0.738500  0.232900  1.0  0.103
  H  H270  1  0.580000  0.799600  0.286900  1.0  0.1012
  H  H271  1  0.711800  0.854800  0.508500  1.0  0.1129
  H  H272  1  0.712800  0.788200  0.559600  1.0  0.1032
  H  H273  1  0.727700  0.646000  0.311200  1.0  0.1138
  H  H274  1  0.661200  0.663400  0.201800  1.0  0.0891
  H  H275  1  0.716100  0.626000  0.231300  1.0  0.0967
  H  H276  1  0.713300  0.707700  0.364700  1.0  0.1054
  H  H277  1  0.050000  0.206100  0.484800  1.0  0.1106
  H  H278  1  0.057800  0.272200  0.433400  1.0  0.1087
  H  H279  1  0.088700  0.238500  0.232900  1.0  0.103
  H  H280  1  0.080000  0.299600  0.286900  1.0  0.1012
  H  H281  1  0.211800  0.354800  0.508500  1.0  0.1129
  H  H282  1  0.212800  0.288200  0.559600  1.0  0.1032
  H  H283  1  0.227700  0.146000  0.311200  1.0  0.1138
  H  H284  1  0.161200  0.163400  0.201800  1.0  0.0891
  H  H285  1  0.216100  0.126000  0.231300  1.0  0.0967
  H  H286  1  0.213300  0.207700  0.364700  1.0  0.1054
  H  H287  1  0.050000  0.706100  0.984800  1.0  0.1106
  H  H288  1  0.057800  0.772200  0.933400  1.0  0.1087
  H  H289  1  0.088700  0.738500  0.732900  1.0  0.103
  H  H290  1  0.080000  0.799600  0.786900  1.0  0.1012
  H  H291  1  0.211800  0.854800  0.008500  1.0  0.113
  H  H292  1  0.212800  0.788200  0.059600  1.0  0.1032
  H  H293  1  0.227700  0.646000  0.811200  1.0  0.1138
  H  H294  1  0.161200  0.663400  0.701800  1.0  0.0891
  H  H295  1  0.216100  0.626000  0.731300  1.0  0.0967
  H  H296  1  0.213300  0.707700  0.864700  1.0  0.1054
  H  H297  1  0.700000  0.043900  0.984800  1.0  0.1106
  H  H298  1  0.692200  0.977800  0.933400  1.0  0.1079
  H  H299  1  0.661300  0.011500  0.732900  1.0  0.1031
  H  H300  1  0.670000  0.950400  0.786900  1.0  0.1016
  H  H301  1  0.538200  0.895200  0.008500  1.0  0.1139
  H  H302  1  0.537200  0.961800  0.059600  1.0  0.1038
  H  H303  1  0.522300  0.104000  0.811200  1.0  0.1147
  H  H304  1  0.588800  0.086600  0.701800  1.0  0.0893
  H  H305  1  0.533900  0.124000  0.731300  1.0  0.0963
  H  H306  1  0.536700  0.042300  0.864700  1.0  0.1055
  H  H307  1  0.700000  0.543900  0.484800  1.0  0.1106
  H  H308  1  0.692200  0.477800  0.433400  1.0  0.1087
  H  H309  1  0.661300  0.511500  0.232900  1.0  0.1031
  H  H310  1  0.670000  0.450400  0.286900  1.0  0.1016
  H  H311  1  0.538200  0.395200  0.508500  1.0  0.1141
  H  H312  1  0.537200  0.461800  0.559600  1.0  0.1038
  H  H313  1  0.522300  0.604000  0.311200  1.0  0.1147
  H  H314  1  0.588800  0.586600  0.201800  1.0  0.0893
  H  H315  1  0.533900  0.624000  0.231300  1.0  0.0963
  H  H316  1  0.536700  0.542300  0.364700  1.0  0.1055
  H  H317  1  0.200000  0.043900  0.484800  1.0  0.1106
  H  H318  1  0.192200  0.977800  0.433400  1.0  0.1087
  H  H319  1  0.161300  0.011500  0.232900  1.0  0.1031
  H  H320  1  0.170000  0.950400  0.286900  1.0  0.1016
  H  H321  1  0.038200  0.895200  0.508500  1.0  0.1141
  H  H322  1  0.037200  0.961800  0.559600  1.0  0.1038
  H  H323  1  0.022300  0.104000  0.311200  1.0  0.1147
  H  H324  1  0.088800  0.086600  0.201800  1.0  0.0893
  H  H325  1  0.033900  0.124000  0.231300  1.0  0.0963
  H  H326  1  0.036700  0.042300  0.364700  1.0  0.1055
  H  H327  1  0.200000  0.543900  0.984800  1.0  0.1106
  H  H328  1  0.192200  0.477800  0.933400  1.0  0.1079
  H  H329  1  0.161300  0.511500  0.732900  1.0  0.1031
  H  H330  1  0.170000  0.450400  0.786900  1.0  0.1016
  H  H331  1  0.038200  0.395200  0.008500  1.0  0.1139
  H  H332  1  0.037200  0.461800  0.059600  1.0  0.1038
  H  H333  1  0.022300  0.604000  0.811200  1.0  0.1147
  H  H334  1  0.088800  0.586600  0.701800  1.0  0.0893
  H  H335  1  0.033900  0.624000  0.731300  1.0  0.0963
  H  H336  1  0.036700  0.542300  0.864700  1.0  0.1055
  C  C337  1  0.378620  0.759420  0.778590  1.0  -0.0952
  C  C338  1  0.374220  0.801550  0.812880  1.0  0.7186
  C  C339  1  0.333140  0.764040  0.740140  1.0  -0.089
  C  C340  1  0.337010  0.724160  0.709650  1.0  -0.0238
  C  C341  1  0.364260  0.768560  0.509670  1.0  -0.1354
  C  C342  1  0.358630  0.732000  0.541940  1.0  -0.0221
  C  C343  1  0.429060  0.675440  0.753940  1.0  -0.062
  C  C344  1  0.428950  0.715020  0.784720  1.0  -0.0769
  C  C345  1  0.446000  0.823500  0.555920  1.0  -0.1806
  C  C346  1  0.406890  0.815810  0.515570  1.0  0.1389
  C  C347  1  0.411540  0.855250  0.479290  1.0  -0.2105
  C  C348  1  0.437960  0.786340  0.587790  1.0  -0.0539
  C  C349  1  0.378620  0.259420  0.278590  1.0  -0.0952
  C  C350  1  0.374220  0.301550  0.312880  1.0  0.7186
  C  C351  1  0.333140  0.264040  0.240140  1.0  -0.089
  C  C352  1  0.337010  0.224160  0.209650  1.0  -0.0238
  C  C353  1  0.364260  0.268560  0.009670  1.0  -0.1354
  C  C354  1  0.358630  0.232000  0.041940  1.0  -0.0221
  C  C355  1  0.429060  0.175440  0.253940  1.0  -0.062
  C  C356  1  0.428950  0.215020  0.284720  1.0  -0.0769
  C  C357  1  0.446000  0.323500  0.055920  1.0  -0.1806
  C  C358  1  0.406890  0.315810  0.015570  1.0  0.1389
  C  C359  1  0.411540  0.355250  0.979290  1.0  -0.2105
  C  C360  1  0.437960  0.286340  0.087790  1.0  -0.0539
  C  C361  1  0.878620  0.759420  0.278590  1.0  -0.0952
  C  C362  1  0.874220  0.801550  0.312880  1.0  0.7186
  C  C363  1  0.833140  0.764040  0.240140  1.0  -0.089
  C  C364  1  0.837010  0.724160  0.209650  1.0  -0.0238
  C  C365  1  0.864260  0.768560  0.009670  1.0  -0.1354
  C  C366  1  0.858630  0.732000  0.041940  1.0  -0.0221
  C  C367  1  0.929060  0.675440  0.253940  1.0  -0.062
  C  C368  1  0.928950  0.715020  0.284720  1.0  -0.0769
  C  C369  1  0.946000  0.823500  0.055920  1.0  -0.1806
  C  C370  1  0.906890  0.815810  0.015570  1.0  0.1389
  C  C371  1  0.911540  0.855250  0.979290  1.0  -0.2105
  C  C372  1  0.937960  0.786340  0.087790  1.0  -0.0539
  C  C373  1  0.878620  0.259420  0.778590  1.0  -0.0952
  C  C374  1  0.874220  0.301550  0.812880  1.0  0.7186
  C  C375  1  0.833140  0.264040  0.740140  1.0  -0.089
  C  C376  1  0.837010  0.224160  0.709650  1.0  -0.0238
  C  C377  1  0.864260  0.268560  0.509670  1.0  -0.1354
  C  C378  1  0.858630  0.232000  0.541940  1.0  -0.0221
  C  C379  1  0.929060  0.175440  0.753940  1.0  -0.062
  C  C380  1  0.928950  0.215020  0.784720  1.0  -0.0769
  C  C381  1  0.946000  0.323500  0.555920  1.0  -0.1806
  C  C382  1  0.906890  0.315810  0.515570  1.0  0.1389
  C  C383  1  0.911540  0.355250  0.479290  1.0  -0.2105
  C  C384  1  0.937960  0.286340  0.587790  1.0  -0.0539
  C  C385  1  0.371380  0.990580  0.778590  1.0  -0.095
  C  C386  1  0.375780  0.948450  0.812880  1.0  0.7199
  C  C387  1  0.416860  0.985960  0.740140  1.0  -0.0908
  C  C388  1  0.412990  0.025840  0.709650  1.0  -0.0254
  C  C389  1  0.385740  0.981440  0.509670  1.0  -0.1382
  C  C390  1  0.391370  0.018000  0.541940  1.0  -0.0238
  C  C391  1  0.320940  0.074560  0.753940  1.0  -0.0611
  C  C392  1  0.321050  0.034980  0.784720  1.0  -0.0756
  C  C393  1  0.304000  0.926500  0.555920  1.0  -0.1895
  C  C394  1  0.343110  0.934190  0.515570  1.0  0.1391
  C  C395  1  0.338460  0.894750  0.479290  1.0  -0.2109
  C  C396  1  0.312040  0.963660  0.587790  1.0  -0.0528
  C  C397  1  0.371380  0.490580  0.278590  1.0  -0.095
  C  C398  1  0.375780  0.448450  0.312880  1.0  0.7199
  C  C399  1  0.416860  0.485960  0.240140  1.0  -0.0908
  C  C400  1  0.412990  0.525840  0.209650  1.0  -0.0254
  C  C401  1  0.385740  0.481440  0.009670  1.0  -0.1382
  C  C402  1  0.391370  0.518000  0.041940  1.0  -0.0238
  C  C403  1  0.320940  0.574560  0.253940  1.0  -0.0611
  C  C404  1  0.321050  0.534980  0.284720  1.0  -0.0756
  C  C405  1  0.304000  0.426500  0.055920  1.0  -0.1895
  C  C406  1  0.343110  0.434190  0.015570  1.0  0.1391
  C  C407  1  0.338460  0.394750  0.979290  1.0  -0.2109
  C  C408  1  0.312040  0.463660  0.087790  1.0  -0.0528
  C  C409  1  0.871380  0.990580  0.278590  1.0  -0.095
  C  C410  1  0.875780  0.948450  0.312880  1.0  0.7199
  C  C411  1  0.916860  0.985960  0.240140  1.0  -0.0908
  C  C412  1  0.912990  0.025840  0.209650  1.0  -0.0254
  C  C413  1  0.885740  0.981440  0.009670  1.0  -0.1382
  C  C414  1  0.891370  0.018000  0.041940  1.0  -0.0238
  C  C415  1  0.820940  0.074560  0.253940  1.0  -0.0611
  C  C416  1  0.821050  0.034980  0.284720  1.0  -0.0756
  C  C417  1  0.804000  0.926500  0.055920  1.0  -0.1895
  C  C418  1  0.843110  0.934190  0.015570  1.0  0.1391
  C  C419  1  0.838460  0.894750  0.979290  1.0  -0.2109
  C  C420  1  0.812040  0.963660  0.087790  1.0  -0.0528
  C  C421  1  0.871380  0.490580  0.778590  1.0  -0.095
  C  C422  1  0.875780  0.448450  0.812880  1.0  0.7199
  C  C423  1  0.916860  0.485960  0.740140  1.0  -0.0908
  C  C424  1  0.912990  0.525840  0.709650  1.0  -0.0254
  C  C425  1  0.885740  0.481440  0.509670  1.0  -0.1382
  C  C426  1  0.891370  0.518000  0.541940  1.0  -0.0238
  C  C427  1  0.820940  0.574560  0.753940  1.0  -0.0611
  C  C428  1  0.821050  0.534980  0.784720  1.0  -0.0756
  C  C429  1  0.804000  0.426500  0.555920  1.0  -0.1895
  C  C430  1  0.843110  0.434190  0.515570  1.0  0.1391
  C  C431  1  0.838460  0.394750  0.479290  1.0  -0.2109
  C  C432  1  0.812040  0.463660  0.587790  1.0  -0.0528
  C  C433  1  0.371380  0.759420  0.971410  1.0  -0.094
  C  C434  1  0.375780  0.801550  0.937120  1.0  0.7193
  C  C435  1  0.416860  0.764040  0.009860  1.0  -0.0874
  C  C436  1  0.412990  0.724160  0.040350  1.0  -0.0244
  C  C437  1  0.385740  0.768560  0.240330  1.0  -0.135
  C  C438  1  0.391370  0.732000  0.208060  1.0  -0.0221
  C  C439  1  0.320940  0.675440  0.996060  1.0  -0.061
  C  C440  1  0.321050  0.715020  0.965280  1.0  -0.0754
  C  C441  1  0.304000  0.823500  0.194080  1.0  -0.1896
  C  C442  1  0.343110  0.815810  0.234430  1.0  0.1393
  C  C443  1  0.338460  0.855250  0.270710  1.0  -0.2122
  C  C444  1  0.312040  0.786340  0.162210  1.0  -0.0517
  C  C445  1  0.371380  0.259420  0.471410  1.0  -0.094
  C  C446  1  0.375780  0.301550  0.437120  1.0  0.7193
  C  C447  1  0.416860  0.264040  0.509860  1.0  -0.0874
  C  C448  1  0.412990  0.224160  0.540350  1.0  -0.0244
  C  C449  1  0.385740  0.268560  0.740330  1.0  -0.135
  C  C450  1  0.391370  0.232000  0.708060  1.0  -0.0221
  C  C451  1  0.320940  0.175440  0.496060  1.0  -0.061
  C  C452  1  0.321050  0.215020  0.465280  1.0  -0.0754
  C  C453  1  0.304000  0.323500  0.694080  1.0  -0.1896
  C  C454  1  0.343110  0.315810  0.734430  1.0  0.1393
  C  C455  1  0.338460  0.355250  0.770710  1.0  -0.2122
  C  C456  1  0.312040  0.286340  0.662210  1.0  -0.0517
  C  C457  1  0.871380  0.759420  0.471410  1.0  -0.094
  C  C458  1  0.875780  0.801550  0.437120  1.0  0.7193
  C  C459  1  0.916860  0.764040  0.509860  1.0  -0.0874
  C  C460  1  0.912990  0.724160  0.540350  1.0  -0.0244
  C  C461  1  0.885740  0.768560  0.740330  1.0  -0.135
  C  C462  1  0.891370  0.732000  0.708060  1.0  -0.0221
  C  C463  1  0.820940  0.675440  0.496060  1.0  -0.061
  C  C464  1  0.821050  0.715020  0.465280  1.0  -0.0754
  C  C465  1  0.804000  0.823500  0.694080  1.0  -0.1896
  C  C466  1  0.843110  0.815810  0.734430  1.0  0.1393
  C  C467  1  0.838460  0.855250  0.770710  1.0  -0.2122
  C  C468  1  0.812040  0.786340  0.662210  1.0  -0.0517
  C  C469  1  0.871380  0.259420  0.971410  1.0  -0.094
  C  C470  1  0.875780  0.301550  0.937120  1.0  0.7193
  C  C471  1  0.916860  0.264040  0.009860  1.0  -0.0874
  C  C472  1  0.912990  0.224160  0.040350  1.0  -0.0244
  C  C473  1  0.885740  0.268560  0.240330  1.0  -0.135
  C  C474  1  0.891370  0.232000  0.208060  1.0  -0.0221
  C  C475  1  0.820940  0.175440  0.996060  1.0  -0.061
  C  C476  1  0.821050  0.215020  0.965280  1.0  -0.0754
  C  C477  1  0.804000  0.323500  0.194080  1.0  -0.1896
  C  C478  1  0.843110  0.315810  0.234430  1.0  0.1393
  C  C479  1  0.838460  0.355250  0.270710  1.0  -0.2122
  C  C480  1  0.812040  0.286340  0.162210  1.0  -0.0517
  C  C481  1  0.378620  0.990580  0.971410  1.0  -0.0957
  C  C482  1  0.374220  0.948450  0.937120  1.0  0.7197
  C  C483  1  0.333140  0.985960  0.009860  1.0  -0.0976
  C  C484  1  0.337010  0.025840  0.040350  1.0  -0.0249
  C  C485  1  0.364260  0.981440  0.240330  1.0  -0.1378
  C  C486  1  0.358630  0.018000  0.208060  1.0  -0.0218
  C  C487  1  0.429060  0.074560  0.996060  1.0  -0.0609
  C  C488  1  0.428950  0.034980  0.965280  1.0  -0.084
  C  C489  1  0.446000  0.926500  0.194080  1.0  -0.1814
  C  C490  1  0.406890  0.934190  0.234430  1.0  0.139
  C  C491  1  0.411540  0.894750  0.270710  1.0  -0.21
  C  C492  1  0.437960  0.963660  0.162210  1.0  -0.0548
  C  C493  1  0.378620  0.490580  0.471410  1.0  -0.0957
  C  C494  1  0.374220  0.448450  0.437120  1.0  0.7197
  C  C495  1  0.333140  0.485960  0.509860  1.0  -0.0976
  C  C496  1  0.337010  0.525840  0.540350  1.0  -0.0249
  C  C497  1  0.364260  0.481440  0.740330  1.0  -0.1378
  C  C498  1  0.358630  0.518000  0.708060  1.0  -0.0218
  C  C499  1  0.429060  0.574560  0.496060  1.0  -0.0609
  C  C500  1  0.428950  0.534980  0.465280  1.0  -0.084
  C  C501  1  0.446000  0.426500  0.694080  1.0  -0.1814
  C  C502  1  0.406890  0.434190  0.734430  1.0  0.139
  C  C503  1  0.411540  0.394750  0.770710  1.0  -0.21
  C  C504  1  0.437960  0.463660  0.662210  1.0  -0.0548
  C  C505  1  0.878620  0.990580  0.471410  1.0  -0.0957
  C  C506  1  0.874220  0.948450  0.437120  1.0  0.7197
  C  C507  1  0.833140  0.985960  0.509860  1.0  -0.0976
  C  C508  1  0.837010  0.025840  0.540350  1.0  -0.0249
  C  C509  1  0.864260  0.981440  0.740330  1.0  -0.1378
  C  C510  1  0.858630  0.018000  0.708060  1.0  -0.0218
  C  C511  1  0.929060  0.074560  0.496060  1.0  -0.0609
  C  C512  1  0.928950  0.034980  0.465280  1.0  -0.084
  C  C513  1  0.946000  0.926500  0.694080  1.0  -0.1814
  C  C514  1  0.906890  0.934190  0.734430  1.0  0.139
  C  C515  1  0.911540  0.894750  0.770710  1.0  -0.21
  C  C516  1  0.937960  0.963660  0.662210  1.0  -0.0548
  C  C517  1  0.878620  0.490580  0.971410  1.0  -0.0957
  C  C518  1  0.874220  0.448450  0.937120  1.0  0.7197
  C  C519  1  0.833140  0.485960  0.009860  1.0  -0.0976
  C  C520  1  0.837010  0.525840  0.040350  1.0  -0.0249
  C  C521  1  0.864260  0.481440  0.240330  1.0  -0.1378
  C  C522  1  0.858630  0.518000  0.208060  1.0  -0.0218
  C  C523  1  0.929060  0.574560  0.996060  1.0  -0.0609
  C  C524  1  0.928950  0.534980  0.965280  1.0  -0.084
  C  C525  1  0.946000  0.426500  0.194080  1.0  -0.1814
  C  C526  1  0.906890  0.434190  0.234430  1.0  0.139
  C  C527  1  0.911540  0.394750  0.270710  1.0  -0.21
  C  C528  1  0.937960  0.463660  0.162210  1.0  -0.0548
  C  C529  1  0.621380  0.240580  0.221410  1.0  -0.0957
  C  C530  1  0.625780  0.198450  0.187120  1.0  0.7198
  C  C531  1  0.666860  0.235960  0.259860  1.0  -0.0973
  C  C532  1  0.662990  0.275840  0.290350  1.0  -0.0244
  C  C533  1  0.635740  0.231440  0.490330  1.0  -0.1381
  C  C534  1  0.641370  0.268000  0.458060  1.0  -0.0238
  C  C535  1  0.570940  0.324560  0.246060  1.0  -0.0615
  C  C536  1  0.571050  0.284980  0.215280  1.0  -0.0825
  C  C537  1  0.554000  0.176500  0.444080  1.0  -0.1898
  C  C538  1  0.593110  0.184190  0.484430  1.0  0.1392
  C  C539  1  0.588460  0.144750  0.520710  1.0  -0.2121
  C  C540  1  0.562040  0.213660  0.412210  1.0  -0.0523
  C  C541  1  0.621380  0.740580  0.721410  1.0  -0.0957
  C  C542  1  0.625780  0.698450  0.687120  1.0  0.7198
  C  C543  1  0.666860  0.735960  0.759860  1.0  -0.0973
  C  C544  1  0.662990  0.775840  0.790350  1.0  -0.0244
  C  C545  1  0.635740  0.731440  0.990330  1.0  -0.1381
  C  C546  1  0.641370  0.768000  0.958060  1.0  -0.0238
  C  C547  1  0.570940  0.824560  0.746060  1.0  -0.0615
  C  C548  1  0.571050  0.784980  0.715280  1.0  -0.0825
  C  C549  1  0.554000  0.676500  0.944080  1.0  -0.1898
  C  C550  1  0.593110  0.684190  0.984430  1.0  0.1392
  C  C551  1  0.588460  0.644750  0.020710  1.0  -0.2121
  C  C552  1  0.562040  0.713660  0.912210  1.0  -0.0523
  C  C553  1  0.121380  0.240580  0.721410  1.0  -0.0957
  C  C554  1  0.125780  0.198450  0.687120  1.0  0.7198
  C  C555  1  0.166860  0.235960  0.759860  1.0  -0.0973
  C  C556  1  0.162990  0.275840  0.790350  1.0  -0.0244
  C  C557  1  0.135740  0.231440  0.990330  1.0  -0.1381
  C  C558  1  0.141370  0.268000  0.958060  1.0  -0.0238
  C  C559  1  0.070940  0.324560  0.746060  1.0  -0.0615
  C  C560  1  0.071050  0.284980  0.715280  1.0  -0.0825
  C  C561  1  0.054000  0.176500  0.944080  1.0  -0.1898
  C  C562  1  0.093110  0.184190  0.984430  1.0  0.1392
  C  C563  1  0.088460  0.144750  0.020710  1.0  -0.2121
  C  C564  1  0.062040  0.213660  0.912210  1.0  -0.0523
  C  C565  1  0.121380  0.740580  0.221410  1.0  -0.0957
  C  C566  1  0.125780  0.698450  0.187120  1.0  0.7198
  C  C567  1  0.166860  0.735960  0.259860  1.0  -0.0973
  C  C568  1  0.162990  0.775840  0.290350  1.0  -0.0244
  C  C569  1  0.135740  0.731440  0.490330  1.0  -0.1381
  C  C570  1  0.141370  0.768000  0.458060  1.0  -0.0238
  C  C571  1  0.070940  0.824560  0.246060  1.0  -0.0615
  C  C572  1  0.071050  0.784980  0.215280  1.0  -0.0825
  C  C573  1  0.054000  0.676500  0.444080  1.0  -0.1898
  C  C574  1  0.093110  0.684190  0.484430  1.0  0.1392
  C  C575  1  0.088460  0.644750  0.520710  1.0  -0.2121
  C  C576  1  0.062040  0.713660  0.412210  1.0  -0.0523
  C  C577  1  0.628620  0.009420  0.221410  1.0  -0.0941
  C  C578  1  0.624220  0.051550  0.187120  1.0  0.7192
  C  C579  1  0.583140  0.014040  0.259860  1.0  -0.0879
  C  C580  1  0.587010  0.974160  0.290350  1.0  -0.024
  C  C581  1  0.614260  0.018560  0.490330  1.0  -0.1347
  C  C582  1  0.608630  0.982000  0.458060  1.0  -0.0219
  C  C583  1  0.679060  0.925440  0.246060  1.0  -0.0615
  C  C584  1  0.678950  0.965020  0.215280  1.0  -0.0767
  C  C585  1  0.696000  0.073500  0.444080  1.0  -0.1805
  C  C586  1  0.656890  0.065810  0.484430  1.0  0.1392
  C  C587  1  0.661540  0.105250  0.520710  1.0  -0.2102
  C  C588  1  0.687960  0.036340  0.412210  1.0  -0.0538
  C  C589  1  0.628620  0.509420  0.721410  1.0  -0.0941
  C  C590  1  0.624220  0.551550  0.687120  1.0  0.7192
  C  C591  1  0.583140  0.514040  0.759860  1.0  -0.0889
  C  C592  1  0.587010  0.474160  0.790350  1.0  -0.024
  C  C593  1  0.614260  0.518560  0.990330  1.0  -0.1347
  C  C594  1  0.608630  0.482000  0.958060  1.0  -0.0213
  C  C595  1  0.679060  0.425440  0.746060  1.0  -0.0636
  C  C596  1  0.678950  0.465020  0.715280  1.0  -0.0768
  C  C597  1  0.696000  0.573500  0.944080  1.0  -0.1809
  C  C598  1  0.656890  0.565810  0.984430  1.0  0.1392
  C  C599  1  0.661540  0.605250  0.020710  1.0  -0.2102
  C  C600  1  0.687960  0.536340  0.912210  1.0  -0.0548
  C  C601  1  0.128620  0.009420  0.721410  1.0  -0.0941
  C  C602  1  0.124220  0.051550  0.687120  1.0  0.7192
  C  C603  1  0.083140  0.014040  0.759860  1.0  -0.0879
  C  C604  1  0.087010  0.974160  0.790350  1.0  -0.024
  C  C605  1  0.114260  0.018560  0.990330  1.0  -0.1347
  C  C606  1  0.108630  0.982000  0.958060  1.0  -0.0219
  C  C607  1  0.179060  0.925440  0.746060  1.0  -0.0615
  C  C608  1  0.178950  0.965020  0.715280  1.0  -0.0767
  C  C609  1  0.196000  0.073500  0.944080  1.0  -0.1805
  C  C610  1  0.156890  0.065810  0.984430  1.0  0.1392
  C  C611  1  0.161540  0.105250  0.020710  1.0  -0.2102
  C  C612  1  0.187960  0.036340  0.912210  1.0  -0.0538
  C  C613  1  0.128620  0.509420  0.221410  1.0  -0.0941
  C  C614  1  0.124220  0.551550  0.187120  1.0  0.7192
  C  C615  1  0.083140  0.514040  0.259860  1.0  -0.0889
  C  C616  1  0.087010  0.474160  0.290350  1.0  -0.024
  C  C617  1  0.114260  0.518560  0.490330  1.0  -0.1347
  C  C618  1  0.108630  0.482000  0.458060  1.0  -0.0213
  C  C619  1  0.179060  0.425440  0.246060  1.0  -0.0636
  C  C620  1  0.178950  0.465020  0.215280  1.0  -0.0768
  C  C621  1  0.196000  0.573500  0.444080  1.0  -0.1809
  C  C622  1  0.156890  0.565810  0.484430  1.0  0.1392
  C  C623  1  0.161540  0.605250  0.520710  1.0  -0.2102
  C  C624  1  0.187960  0.536340  0.412210  1.0  -0.0548
  C  C625  1  0.628620  0.240580  0.028590  1.0  -0.0951
  C  C626  1  0.624220  0.198450  0.062880  1.0  0.7199
  C  C627  1  0.583140  0.235960  0.990140  1.0  -0.0885
  C  C628  1  0.587010  0.275840  0.959650  1.0  -0.0238
  C  C629  1  0.614260  0.231440  0.759670  1.0  -0.1378
  C  C630  1  0.608630  0.268000  0.791940  1.0  -0.0219
  C  C631  1  0.679060  0.324560  0.003940  1.0  -0.0572
  C  C632  1  0.678950  0.284980  0.034720  1.0  -0.0758
  C  C633  1  0.696000  0.176500  0.805920  1.0  -0.1804
  C  C634  1  0.656890  0.184190  0.765570  1.0  0.1388
  C  C635  1  0.661540  0.144750  0.729290  1.0  -0.2099
  C  C636  1  0.687960  0.213660  0.837790  1.0  -0.053
  C  C637  1  0.628620  0.740580  0.528590  1.0  -0.0951
  C  C638  1  0.624220  0.698450  0.562880  1.0  0.7199
  C  C639  1  0.583140  0.735960  0.490140  1.0  -0.0885
  C  C640  1  0.587010  0.775840  0.459650  1.0  -0.0243
  C  C641  1  0.614260  0.731440  0.259670  1.0  -0.1378
  C  C642  1  0.608630  0.768000  0.291940  1.0  -0.0219
  C  C643  1  0.679060  0.824560  0.503940  1.0  -0.0572
  C  C644  1  0.678950  0.784980  0.534720  1.0  -0.0765
  C  C645  1  0.696000  0.676500  0.305920  1.0  -0.1804
  C  C646  1  0.656890  0.684190  0.265570  1.0  0.1388
  C  C647  1  0.661540  0.644750  0.229290  1.0  -0.2099
  C  C648  1  0.687960  0.713660  0.337790  1.0  -0.053
  C  C649  1  0.128620  0.240580  0.528590  1.0  -0.0951
  C  C650  1  0.124220  0.198450  0.562880  1.0  0.7199
  C  C651  1  0.083140  0.235960  0.490140  1.0  -0.0885
  C  C652  1  0.087010  0.275840  0.459650  1.0  -0.0243
  C  C653  1  0.114260  0.231440  0.259670  1.0  -0.1378
  C  C654  1  0.108630  0.268000  0.291940  1.0  -0.0219
  C  C655  1  0.179060  0.324560  0.503940  1.0  -0.0572
  C  C656  1  0.178950  0.284980  0.534720  1.0  -0.0765
  C  C657  1  0.196000  0.176500  0.305920  1.0  -0.1804
  C  C658  1  0.156890  0.184190  0.265570  1.0  0.1388
  C  C659  1  0.161540  0.144750  0.229290  1.0  -0.2099
  C  C660  1  0.187960  0.213660  0.337790  1.0  -0.053
  C  C661  1  0.128620  0.740580  0.028590  1.0  -0.0951
  C  C662  1  0.124220  0.698450  0.062880  1.0  0.7199
  C  C663  1  0.083140  0.735960  0.990140  1.0  -0.0885
  C  C664  1  0.087010  0.775840  0.959650  1.0  -0.0238
  C  C665  1  0.114260  0.731440  0.759670  1.0  -0.1378
  C  C666  1  0.108630  0.768000  0.791940  1.0  -0.0219
  C  C667  1  0.179060  0.824560  0.003940  1.0  -0.0572
  C  C668  1  0.178950  0.784980  0.034720  1.0  -0.0758
  C  C669  1  0.196000  0.676500  0.805920  1.0  -0.1804
  C  C670  1  0.156890  0.684190  0.765570  1.0  0.1388
  C  C671  1  0.161540  0.644750  0.729290  1.0  -0.2099
  C  C672  1  0.187960  0.713660  0.837790  1.0  -0.053
  C  C673  1  0.621380  0.009420  0.028590  1.0  -0.0951
  C  C674  1  0.625780  0.051550  0.062880  1.0  0.7187
  C  C675  1  0.666860  0.014040  0.990140  1.0  -0.0886
  C  C676  1  0.662990  0.974160  0.959650  1.0  -0.026
  C  C677  1  0.635740  0.018560  0.759670  1.0  -0.1359
  C  C678  1  0.641370  0.982000  0.791940  1.0  -0.0222
  C  C679  1  0.570940  0.925440  0.003940  1.0  -0.0602
  C  C680  1  0.571050  0.965020  0.034720  1.0  -0.0751
  C  C681  1  0.554000  0.073500  0.805920  1.0  -0.189
  C  C682  1  0.593110  0.065810  0.765570  1.0  0.1391
  C  C683  1  0.588460  0.105250  0.729290  1.0  -0.2116
  C  C684  1  0.562040  0.036340  0.837790  1.0  -0.0507
  C  C685  1  0.621380  0.509420  0.528590  1.0  -0.0951
  C  C686  1  0.625780  0.551550  0.562880  1.0  0.7187
  C  C687  1  0.666860  0.514040  0.490140  1.0  -0.0884
  C  C688  1  0.662990  0.474160  0.459650  1.0  -0.0256
  C  C689  1  0.635740  0.518560  0.259670  1.0  -0.1359
  C  C690  1  0.641370  0.482000  0.291940  1.0  -0.0224
  C  C691  1  0.570940  0.425440  0.503940  1.0  -0.062
  C  C692  1  0.571050  0.465020  0.534720  1.0  -0.0755
  C  C693  1  0.554000  0.573500  0.305920  1.0  -0.1888
  C  C694  1  0.593110  0.565810  0.265570  1.0  0.1391
  C  C695  1  0.588460  0.605250  0.229290  1.0  -0.2116
  C  C696  1  0.562040  0.536340  0.337790  1.0  -0.0512
  C  C697  1  0.121380  0.009420  0.528590  1.0  -0.0951
  C  C698  1  0.125780  0.051550  0.562880  1.0  0.7187
  C  C699  1  0.166860  0.014040  0.490140  1.0  -0.0886
  C  C700  1  0.162990  0.974160  0.459650  1.0  -0.0256
  C  C701  1  0.135740  0.018560  0.259670  1.0  -0.1359
  C  C702  1  0.141370  0.982000  0.291940  1.0  -0.0222
  C  C703  1  0.070940  0.925440  0.503940  1.0  -0.0602
  C  C704  1  0.071050  0.965020  0.534720  1.0  -0.0749
  C  C705  1  0.054000  0.073500  0.305920  1.0  -0.189
  C  C706  1  0.093110  0.065810  0.265570  1.0  0.1391
  C  C707  1  0.088460  0.105250  0.229290  1.0  -0.2116
  C  C708  1  0.062040  0.036340  0.337790  1.0  -0.0507
  C  C709  1  0.121380  0.509420  0.028590  1.0  -0.0951
  C  C710  1  0.125780  0.551550  0.062880  1.0  0.7187
  C  C711  1  0.166860  0.514040  0.990140  1.0  -0.0884
  C  C712  1  0.162990  0.474160  0.959650  1.0  -0.026
  C  C713  1  0.135740  0.518560  0.759670  1.0  -0.1359
  C  C714  1  0.141370  0.482000  0.791940  1.0  -0.0224
  C  C715  1  0.070940  0.425440  0.003940  1.0  -0.062
  C  C716  1  0.071050  0.465020  0.034720  1.0  -0.0749
  C  C717  1  0.054000  0.573500  0.805920  1.0  -0.1888
  C  C718  1  0.093110  0.565810  0.765570  1.0  0.1391
  C  C719  1  0.088460  0.605250  0.729290  1.0  -0.2116
  C  C720  1  0.062040  0.536340  0.837790  1.0  -0.0512
  N  N721  1  0.382270  0.680440  0.717480  1.0  0.3616
  N  N722  1  0.394090  0.741270  0.580990  1.0  0.3321
  N  N723  1  0.382270  0.180440  0.217480  1.0  0.3616
  N  N724  1  0.394090  0.241270  0.080990  1.0  0.3321
  N  N725  1  0.882270  0.680440  0.217480  1.0  0.3616
  N  N726  1  0.894090  0.741270  0.080990  1.0  0.3321
  N  N727  1  0.882270  0.180440  0.717480  1.0  0.3616
  N  N728  1  0.894090  0.241270  0.580990  1.0  0.3321
  N  N729  1  0.367730  0.069560  0.717480  1.0  0.3539
  N  N730  1  0.355910  0.008730  0.580990  1.0  0.3138
  N  N731  1  0.367730  0.569560  0.217480  1.0  0.3539
  N  N732  1  0.355910  0.508730  0.080990  1.0  0.3138
  N  N733  1  0.867730  0.069560  0.217480  1.0  0.3539
  N  N734  1  0.855910  0.008730  0.080990  1.0  0.3138
  N  N735  1  0.867730  0.569560  0.717480  1.0  0.3539
  N  N736  1  0.855910  0.508730  0.580990  1.0  0.3138
  N  N737  1  0.367730  0.680440  0.032520  1.0  0.3602
  N  N738  1  0.355910  0.741270  0.169010  1.0  0.3166
  N  N739  1  0.367730  0.180440  0.532520  1.0  0.3602
  N  N740  1  0.355910  0.241270  0.669010  1.0  0.3166
  N  N741  1  0.867730  0.680440  0.532520  1.0  0.3602
  N  N742  1  0.855910  0.741270  0.669010  1.0  0.3166
  N  N743  1  0.867730  0.180440  0.032520  1.0  0.3602
  N  N744  1  0.855910  0.241270  0.169010  1.0  0.3166
  N  N745  1  0.382270  0.069560  0.032520  1.0  0.3611
  N  N746  1  0.394090  0.008730  0.169010  1.0  0.3332
  N  N747  1  0.382270  0.569560  0.532520  1.0  0.3611
  N  N748  1  0.394090  0.508730  0.669010  1.0  0.3332
  N  N749  1  0.882270  0.069560  0.532520  1.0  0.3611
  N  N750  1  0.894090  0.008730  0.669010  1.0  0.3332
  N  N751  1  0.882270  0.569560  0.032520  1.0  0.3611
  N  N752  1  0.894090  0.508730  0.169010  1.0  0.3332
  N  N753  1  0.617730  0.319560  0.282520  1.0  0.3616
  N  N754  1  0.605910  0.258730  0.419010  1.0  0.3153
  N  N755  1  0.617730  0.819560  0.782520  1.0  0.3616
  N  N756  1  0.605910  0.758730  0.919010  1.0  0.3153
  N  N757  1  0.117730  0.319560  0.782520  1.0  0.3616
  N  N758  1  0.105910  0.258730  0.919010  1.0  0.3153
  N  N759  1  0.117730  0.819560  0.282520  1.0  0.3616
  N  N760  1  0.105910  0.758730  0.419010  1.0  0.3153
  N  N761  1  0.632270  0.930440  0.282520  1.0  0.3608
  N  N762  1  0.644090  0.991270  0.419010  1.0  0.3326
  N  N763  1  0.632270  0.430440  0.782520  1.0  0.3608
  N  N764  1  0.644090  0.491270  0.919010  1.0  0.3326
  N  N765  1  0.132270  0.930440  0.782520  1.0  0.3608
  N  N766  1  0.144090  0.991270  0.919010  1.0  0.3326
  N  N767  1  0.132270  0.430440  0.282520  1.0  0.3608
  N  N768  1  0.144090  0.491270  0.419010  1.0  0.3326
  N  N769  1  0.632270  0.319560  0.967480  1.0  0.3638
  N  N770  1  0.644090  0.258730  0.830990  1.0  0.3318
  N  N771  1  0.632270  0.819560  0.467480  1.0  0.3643
  N  N772  1  0.644090  0.758730  0.330990  1.0  0.3318
  N  N773  1  0.132270  0.319560  0.467480  1.0  0.3643
  N  N774  1  0.144090  0.258730  0.330990  1.0  0.3318
  N  N775  1  0.132270  0.819560  0.967480  1.0  0.3638
  N  N776  1  0.144090  0.758730  0.830990  1.0  0.3318
  N  N777  1  0.617730  0.930440  0.967480  1.0  0.3613
  N  N778  1  0.605910  0.991270  0.830990  1.0  0.3145
  N  N779  1  0.617730  0.430440  0.467480  1.0  0.3626
  N  N780  1  0.605910  0.491270  0.330990  1.0  0.3145
  N  N781  1  0.117730  0.930440  0.467480  1.0  0.3626
  N  N782  1  0.105910  0.991270  0.330990  1.0  0.3145
  N  N783  1  0.117730  0.430440  0.967480  1.0  0.3613
  N  N784  1  0.105910  0.491270  0.830990  1.0  0.3145
  O  O785  1  0.380270  0.640800  0.689570  1.0  -0.6615
  O  O786  1  0.387540  0.706250  0.612310  1.0  -0.6641
  O  O787  1  0.305680  0.827150  0.815610  1.0  -0.6938
  O  O788  1  0.440570  0.806830  0.835950  1.0  -0.712
  O  O789  1  0.380270  0.140800  0.189570  1.0  -0.6615
  O  O790  1  0.387540  0.206250  0.112310  1.0  -0.6641
  O  O791  1  0.305680  0.327150  0.315610  1.0  -0.6938
  O  O792  1  0.440570  0.306830  0.335950  1.0  -0.712
  O  O793  1  0.880270  0.640800  0.189570  1.0  -0.6615
  O  O794  1  0.887540  0.706250  0.112310  1.0  -0.6641
  O  O795  1  0.805680  0.827150  0.315610  1.0  -0.6938
  O  O796  1  0.940570  0.806830  0.335950  1.0  -0.7122
  O  O797  1  0.880270  0.140800  0.689570  1.0  -0.6615
  O  O798  1  0.887540  0.206250  0.612310  1.0  -0.6641
  O  O799  1  0.805680  0.327150  0.815610  1.0  -0.6938
  O  O800  1  0.940570  0.306830  0.835950  1.0  -0.7122
  O  O801  1  0.369730  0.109200  0.689570  1.0  -0.6598
  O  O802  1  0.362460  0.043750  0.612310  1.0  -0.6649
  O  O803  1  0.444320  0.922850  0.815610  1.0  -0.6947
  O  O804  1  0.309430  0.943170  0.835950  1.0  -0.7084
  O  O805  1  0.369730  0.609200  0.189570  1.0  -0.6598
  O  O806  1  0.362460  0.543750  0.112310  1.0  -0.6649
  O  O807  1  0.444320  0.422850  0.315610  1.0  -0.6947
  O  O808  1  0.309430  0.443170  0.335950  1.0  -0.7084
  O  O809  1  0.869730  0.109200  0.189570  1.0  -0.6598
  O  O810  1  0.862460  0.043750  0.112310  1.0  -0.6649
  O  O811  1  0.944320  0.922850  0.315610  1.0  -0.6947
  O  O812  1  0.809430  0.943170  0.335950  1.0  -0.7084
  O  O813  1  0.869730  0.609200  0.689570  1.0  -0.6598
  O  O814  1  0.862460  0.543750  0.612310  1.0  -0.6649
  O  O815  1  0.944320  0.422850  0.815610  1.0  -0.6947
  O  O816  1  0.809430  0.443170  0.835950  1.0  -0.7084
  O  O817  1  0.369730  0.640800  0.060430  1.0  -0.6612
  O  O818  1  0.362460  0.706250  0.137690  1.0  -0.6633
  O  O819  1  0.444320  0.827150  0.934390  1.0  -0.6947
  O  O820  1  0.309430  0.806830  0.914050  1.0  -0.7081
  O  O821  1  0.369730  0.140800  0.560430  1.0  -0.6612
  O  O822  1  0.362460  0.206250  0.637690  1.0  -0.6633
  O  O823  1  0.444320  0.327150  0.434390  1.0  -0.6947
  O  O824  1  0.309430  0.306830  0.414050  1.0  -0.7081
  O  O825  1  0.869730  0.640800  0.560430  1.0  -0.6612
  O  O826  1  0.862460  0.706250  0.637690  1.0  -0.6633
  O  O827  1  0.944320  0.827150  0.434390  1.0  -0.6947
  O  O828  1  0.809430  0.806830  0.414050  1.0  -0.7081
  O  O829  1  0.869730  0.140800  0.060430  1.0  -0.6612
  O  O830  1  0.862460  0.206250  0.137690  1.0  -0.6633
  O  O831  1  0.944320  0.327150  0.934390  1.0  -0.6947
  O  O832  1  0.809430  0.306830  0.914050  1.0  -0.7081
  O  O833  1  0.380270  0.109200  0.060430  1.0  -0.6615
  O  O834  1  0.387540  0.043750  0.137690  1.0  -0.6648
  O  O835  1  0.305680  0.922850  0.934390  1.0  -0.6943
  O  O836  1  0.440570  0.943170  0.914050  1.0  -0.7125
  O  O837  1  0.380270  0.609200  0.560430  1.0  -0.6615
  O  O838  1  0.387540  0.543750  0.637690  1.0  -0.6648
  O  O839  1  0.305680  0.422850  0.434390  1.0  -0.6943
  O  O840  1  0.440570  0.443170  0.414050  1.0  -0.7125
  O  O841  1  0.880270  0.109200  0.560430  1.0  -0.6615
  O  O842  1  0.887540  0.043750  0.637690  1.0  -0.6648
  O  O843  1  0.805680  0.922850  0.434390  1.0  -0.6943
  O  O844  1  0.940570  0.943170  0.414050  1.0  -0.7118
  O  O845  1  0.880270  0.609200  0.060430  1.0  -0.6615
  O  O846  1  0.887540  0.543750  0.137690  1.0  -0.6648
  O  O847  1  0.805680  0.422850  0.934390  1.0  -0.6943
  O  O848  1  0.940570  0.443170  0.914050  1.0  -0.7118
  O  O849  1  0.619730  0.359200  0.310430  1.0  -0.6604
  O  O850  1  0.612460  0.293750  0.387690  1.0  -0.6643
  O  O851  1  0.694320  0.172850  0.184390  1.0  -0.6946
  O  O852  1  0.559430  0.193170  0.164050  1.0  -0.7084
  O  O853  1  0.619730  0.859200  0.810430  1.0  -0.6604
  O  O854  1  0.612460  0.793750  0.887690  1.0  -0.6643
  O  O855  1  0.694320  0.672850  0.684390  1.0  -0.6946
  O  O856  1  0.559430  0.693170  0.664050  1.0  -0.7084
  O  O857  1  0.119730  0.359200  0.810430  1.0  -0.6604
  O  O858  1  0.112460  0.293750  0.887690  1.0  -0.6643
  O  O859  1  0.194320  0.172850  0.684390  1.0  -0.6946
  O  O860  1  0.059430  0.193170  0.664050  1.0  -0.7084
  O  O861  1  0.119730  0.859200  0.310430  1.0  -0.6604
  O  O862  1  0.112460  0.793750  0.387690  1.0  -0.6643
  O  O863  1  0.194320  0.672850  0.184390  1.0  -0.6946
  O  O864  1  0.059430  0.693170  0.164050  1.0  -0.7084
  O  O865  1  0.630270  0.890800  0.310430  1.0  -0.6618
  O  O866  1  0.637540  0.956250  0.387690  1.0  -0.6637
  O  O867  1  0.555680  0.077150  0.184390  1.0  -0.6939
  O  O868  1  0.690570  0.056830  0.164050  1.0  -0.7116
  O  O869  1  0.630270  0.390800  0.810430  1.0  -0.6618
  O  O870  1  0.637540  0.456250  0.887690  1.0  -0.6637
  O  O871  1  0.555680  0.577150  0.684390  1.0  -0.6939
  O  O872  1  0.690570  0.556830  0.664050  1.0  -0.7118
  O  O873  1  0.130270  0.890800  0.810430  1.0  -0.6618
  O  O874  1  0.137540  0.956250  0.887690  1.0  -0.6637
  O  O875  1  0.055680  0.077150  0.684390  1.0  -0.6939
  O  O876  1  0.190570  0.056830  0.664050  1.0  -0.7116
  O  O877  1  0.130270  0.390800  0.310430  1.0  -0.6618
  O  O878  1  0.137540  0.456250  0.387690  1.0  -0.6637
  O  O879  1  0.055680  0.577150  0.184390  1.0  -0.6939
  O  O880  1  0.190570  0.556830  0.164050  1.0  -0.7118
  O  O881  1  0.630270  0.359200  0.939570  1.0  -0.6607
  O  O882  1  0.637540  0.293750  0.862310  1.0  -0.6652
  O  O883  1  0.555680  0.172850  0.065610  1.0  -0.6944
  O  O884  1  0.690570  0.193170  0.085950  1.0  -0.7124
  O  O885  1  0.630270  0.859200  0.439570  1.0  -0.6607
  O  O886  1  0.637540  0.793750  0.362310  1.0  -0.6652
  O  O887  1  0.555680  0.672850  0.565610  1.0  -0.6944
  O  O888  1  0.690570  0.693170  0.585950  1.0  -0.7124
  O  O889  1  0.130270  0.359200  0.439570  1.0  -0.6607
  O  O890  1  0.137540  0.293750  0.362310  1.0  -0.6652
  O  O891  1  0.055680  0.172850  0.565610  1.0  -0.6944
  O  O892  1  0.190570  0.193170  0.585950  1.0  -0.7124
  O  O893  1  0.130270  0.859200  0.939570  1.0  -0.6607
  O  O894  1  0.137540  0.793750  0.862310  1.0  -0.6652
  O  O895  1  0.055680  0.672850  0.065610  1.0  -0.6944
  O  O896  1  0.190570  0.693170  0.085950  1.0  -0.7124
  O  O897  1  0.619730  0.890800  0.939570  1.0  -0.661
  O  O898  1  0.612460  0.956250  0.862310  1.0  -0.6642
  O  O899  1  0.694320  0.077150  0.065610  1.0  -0.6947
  O  O900  1  0.559430  0.056830  0.085950  1.0  -0.7079
  O  O901  1  0.619730  0.390800  0.439570  1.0  -0.661
  O  O902  1  0.612460  0.456250  0.362310  1.0  -0.6642
  O  O903  1  0.694320  0.577150  0.565610  1.0  -0.6947
  O  O904  1  0.559430  0.556830  0.585950  1.0  -0.7078
  O  O905  1  0.119730  0.890800  0.439570  1.0  -0.661
  O  O906  1  0.112460  0.956250  0.362310  1.0  -0.6642
  O  O907  1  0.194320  0.077150  0.565610  1.0  -0.6947
  O  O908  1  0.059430  0.056830  0.585950  1.0  -0.7079
  O  O909  1  0.119730  0.390800  0.939570  1.0  -0.661
  O  O910  1  0.112460  0.456250  0.862310  1.0  -0.6642
  O  O911  1  0.194320  0.577150  0.065610  1.0  -0.6947
  O  O912  1  0.059430  0.556830  0.085950  1.0  -0.7078
