# generated using pymatgen
data_FeH10Au2(C9N4)2
_symmetry_space_group_name_H-M   'P 1'
_cell_length_a   43.10760000
_cell_length_b   14.63160000
_cell_length_c   32.32100000
_cell_angle_alpha   90.00000000
_cell_angle_beta   109.49000000
_cell_angle_gamma   90.00000000
_symmetry_Int_Tables_number   1
_chemical_formula_structural   FeH10Au2(C9N4)2
_chemical_formula_sum   'Fe24 H240 Au48 C432 N192'
_cell_volume   19217.80752178
_cell_formula_units_Z   24
loop_
 _symmetry_equiv_pos_site_id
 _symmetry_equiv_pos_as_xyz
  1  'x, y, z'
loop_
 _atom_site_type_symbol
 _atom_site_label
 _atom_site_symmetry_multiplicity
 _atom_site_fract_x
 _atom_site_fract_y
 _atom_site_fract_z
 _atom_site_occupancy
 _atom_site_charge
  Fe  Fe1  1  0.001110  0.730910  0.050900  1.0  0.7652
  Fe  Fe2  1  0.164550  0.231310  0.048740  1.0  0.843
  Fe  Fe3  1  0.501110  0.230910  0.050900  1.0  0.7652
  Fe  Fe4  1  0.664550  0.731310  0.048740  1.0  0.843
  Fe  Fe5  1  0.832760  0.769140  0.549850  1.0  0.8005
  Fe  Fe6  1  0.332760  0.269140  0.549850  1.0  0.8005
  Fe  Fe7  1  0.832760  0.230860  0.049850  1.0  0.801
  Fe  Fe8  1  0.332760  0.730860  0.049850  1.0  0.801
  Fe  Fe9  1  0.001110  0.269090  0.550900  1.0  0.7657
  Fe  Fe10  1  0.164550  0.768690  0.548740  1.0  0.8435
  Fe  Fe11  1  0.501110  0.769090  0.550900  1.0  0.7657
  Fe  Fe12  1  0.664550  0.268690  0.548740  1.0  0.8435
  Fe  Fe13  1  0.167240  0.769140  0.950150  1.0  0.8112
  Fe  Fe14  1  0.667240  0.269140  0.950150  1.0  0.8112
  Fe  Fe15  1  0.998890  0.730910  0.449100  1.0  0.7733
  Fe  Fe16  1  0.835450  0.231310  0.451260  1.0  0.8493
  Fe  Fe17  1  0.498890  0.230910  0.449100  1.0  0.7733
  Fe  Fe18  1  0.335450  0.731310  0.451260  1.0  0.8493
  Fe  Fe19  1  0.998890  0.269090  0.949100  1.0  0.7736
  Fe  Fe20  1  0.835450  0.768690  0.951260  1.0  0.8499
  Fe  Fe21  1  0.498890  0.769090  0.949100  1.0  0.7736
  Fe  Fe22  1  0.335450  0.268690  0.951260  1.0  0.8499
  Fe  Fe23  1  0.167240  0.230860  0.450150  1.0  0.8117
  Fe  Fe24  1  0.667240  0.730860  0.450150  1.0  0.8117
  H  H25  1  0.981300  0.735100  0.131300  1.0  0.0792
  H  H26  1  0.067900  0.735300  0.116400  1.0  0.0926
  H  H27  1  0.005200  0.744700  0.207300  1.0  0.1173
  H  H28  1  0.094300  0.749800  0.191000  1.0  0.1259
  H  H29  1  0.108100  0.841700  0.252700  1.0  0.1256
  H  H30  1  0.132200  0.855700  0.328900  1.0  0.1246
  H  H31  1  0.097200  0.653800  0.400500  1.0  0.1124
  H  H32  1  0.130500  0.909400  0.398900  1.0  0.1084
  H  H33  1  0.124200  0.649900  0.475700  1.0  0.0792
  H  H34  1  0.154500  0.902500  0.474700  1.0  0.0857
  H  H35  1  0.145500  0.232200  0.130000  1.0  0.0803
  H  H36  1  0.231900  0.236500  0.114300  1.0  0.089
  H  H37  1  0.169700  0.248500  0.205400  1.0  0.1256
  H  H38  1  0.258800  0.252200  0.188300  1.0  0.1296
  H  H39  1  0.273500  0.338000  0.249800  1.0  0.1292
  H  H40  1  0.298600  0.353100  0.325700  1.0  0.1253
  H  H41  1  0.258200  0.162800  0.399100  1.0  0.1161
  H  H42  1  0.299100  0.408400  0.396000  1.0  0.1216
  H  H43  1  0.285500  0.158600  0.473400  1.0  0.0712
  H  H44  1  0.323900  0.399800  0.470800  1.0  0.0808
  H  H45  1  0.481300  0.235100  0.131300  1.0  0.0792
  H  H46  1  0.567900  0.235300  0.116400  1.0  0.0926
  H  H47  1  0.505200  0.244700  0.207300  1.0  0.1173
  H  H48  1  0.594300  0.249800  0.191000  1.0  0.1259
  H  H49  1  0.608100  0.341700  0.252700  1.0  0.1256
  H  H50  1  0.632200  0.355700  0.328900  1.0  0.1246
  H  H51  1  0.597200  0.153800  0.400500  1.0  0.1124
  H  H52  1  0.630500  0.409400  0.398900  1.0  0.1084
  H  H53  1  0.624200  0.149900  0.475700  1.0  0.0792
  H  H54  1  0.654500  0.402500  0.474700  1.0  0.0857
  H  H55  1  0.645500  0.732200  0.130000  1.0  0.0803
  H  H56  1  0.731900  0.736500  0.114300  1.0  0.089
  H  H57  1  0.669700  0.748500  0.205400  1.0  0.1256
  H  H58  1  0.758800  0.752200  0.188300  1.0  0.1296
  H  H59  1  0.773500  0.838000  0.249800  1.0  0.1292
  H  H60  1  0.798600  0.853100  0.325700  1.0  0.1253
  H  H61  1  0.758200  0.662800  0.399100  1.0  0.1161
  H  H62  1  0.799100  0.908400  0.396000  1.0  0.1216
  H  H63  1  0.785500  0.658600  0.473400  1.0  0.0712
  H  H64  1  0.823900  0.899800  0.470800  1.0  0.0808
  H  H65  1  0.901700  0.766600  0.619000  1.0  0.089
  H  H66  1  0.815600  0.762100  0.634900  1.0  0.0751
  H  H67  1  0.928100  0.749300  0.693100  1.0  0.1259
  H  H68  1  0.839300  0.748600  0.710000  1.0  0.1257
  H  H69  1  0.942600  0.656100  0.754400  1.0  0.1287
  H  H70  1  0.967100  0.641400  0.830200  1.0  0.1234
  H  H71  1  0.965900  0.588900  0.901000  1.0  0.1207
  H  H72  1  0.933600  0.847600  0.903300  1.0  0.124
  H  H73  1  0.989900  0.596400  0.976200  1.0  0.0819
  H  H74  1  0.962100  0.850500  0.977800  1.0  0.0736
  H  H75  1  0.401700  0.266600  0.619000  1.0  0.089
  H  H76  1  0.315600  0.262100  0.634900  1.0  0.0751
  H  H77  1  0.428100  0.249300  0.693100  1.0  0.1259
  H  H78  1  0.339300  0.248600  0.710000  1.0  0.1257
  H  H79  1  0.442600  0.156100  0.754400  1.0  0.1287
  H  H80  1  0.467100  0.141400  0.830200  1.0  0.1234
  H  H81  1  0.465900  0.088900  0.901000  1.0  0.1207
  H  H82  1  0.433600  0.347600  0.903300  1.0  0.124
  H  H83  1  0.489900  0.096400  0.976200  1.0  0.0819
  H  H84  1  0.462100  0.350500  0.977800  1.0  0.0736
  H  H85  1  0.901700  0.233400  0.119000  1.0  0.0891
  H  H86  1  0.815600  0.237900  0.134900  1.0  0.075
  H  H87  1  0.928100  0.250700  0.193100  1.0  0.126
  H  H88  1  0.839300  0.251400  0.210000  1.0  0.1257
  H  H89  1  0.942600  0.343900  0.254400  1.0  0.1288
  H  H90  1  0.967100  0.358600  0.330200  1.0  0.1238
  H  H91  1  0.965900  0.411100  0.401000  1.0  0.1204
  H  H92  1  0.933600  0.152400  0.403300  1.0  0.1238
  H  H93  1  0.989900  0.403600  0.476200  1.0  0.0823
  H  H94  1  0.962100  0.149500  0.477800  1.0  0.0737
  H  H95  1  0.401700  0.733400  0.119000  1.0  0.0891
  H  H96  1  0.315600  0.737900  0.134900  1.0  0.075
  H  H97  1  0.428100  0.750700  0.193100  1.0  0.126
  H  H98  1  0.339300  0.751400  0.210000  1.0  0.1257
  H  H99  1  0.442600  0.843900  0.254400  1.0  0.1288
  H  H100  1  0.467100  0.858600  0.330200  1.0  0.1238
  H  H101  1  0.465900  0.911100  0.401000  1.0  0.1204
  H  H102  1  0.433600  0.652400  0.403300  1.0  0.1238
  H  H103  1  0.489900  0.903600  0.476200  1.0  0.0823
  H  H104  1  0.462100  0.649500  0.477800  1.0  0.0737
  H  H105  1  0.981300  0.264900  0.631300  1.0  0.0792
  H  H106  1  0.067900  0.264700  0.616400  1.0  0.0927
  H  H107  1  0.005200  0.255300  0.707300  1.0  0.1173
  H  H108  1  0.094300  0.250200  0.691000  1.0  0.1258
  H  H109  1  0.108100  0.158300  0.752700  1.0  0.1256
  H  H110  1  0.132200  0.144300  0.828900  1.0  0.1244
  H  H111  1  0.097200  0.346200  0.900500  1.0  0.1128
  H  H112  1  0.130500  0.090600  0.898900  1.0  0.1084
  H  H113  1  0.124200  0.350100  0.975700  1.0  0.0788
  H  H114  1  0.154500  0.097500  0.974700  1.0  0.0852
  H  H115  1  0.145500  0.767800  0.630000  1.0  0.0802
  H  H116  1  0.231900  0.763500  0.614300  1.0  0.0889
  H  H117  1  0.169700  0.751500  0.705400  1.0  0.1255
  H  H118  1  0.258800  0.747800  0.688300  1.0  0.1296
  H  H119  1  0.273500  0.662000  0.749800  1.0  0.1291
  H  H120  1  0.298600  0.646900  0.825700  1.0  0.125
  H  H121  1  0.258200  0.837200  0.899100  1.0  0.1166
  H  H122  1  0.299100  0.591600  0.896000  1.0  0.1223
  H  H123  1  0.285500  0.841400  0.973400  1.0  0.0715
  H  H124  1  0.323900  0.600200  0.970800  1.0  0.0805
  H  H125  1  0.481300  0.764900  0.631300  1.0  0.0792
  H  H126  1  0.567900  0.764700  0.616400  1.0  0.0927
  H  H127  1  0.505200  0.755300  0.707300  1.0  0.1173
  H  H128  1  0.594300  0.750200  0.691000  1.0  0.1258
  H  H129  1  0.608100  0.658300  0.752700  1.0  0.1256
  H  H130  1  0.632200  0.644300  0.828900  1.0  0.1244
  H  H131  1  0.597200  0.846200  0.900500  1.0  0.1128
  H  H132  1  0.630500  0.590600  0.898900  1.0  0.1084
  H  H133  1  0.624200  0.850100  0.975700  1.0  0.0788
  H  H134  1  0.654500  0.597500  0.974700  1.0  0.0852
  H  H135  1  0.645500  0.267800  0.630000  1.0  0.0802
  H  H136  1  0.731900  0.263500  0.614300  1.0  0.0889
  H  H137  1  0.669700  0.251500  0.705400  1.0  0.1255
  H  H138  1  0.758800  0.247800  0.688300  1.0  0.1296
  H  H139  1  0.773500  0.162000  0.749800  1.0  0.1291
  H  H140  1  0.798600  0.146900  0.825700  1.0  0.125
  H  H141  1  0.758200  0.337200  0.899100  1.0  0.1166
  H  H142  1  0.799100  0.091600  0.896000  1.0  0.1223
  H  H143  1  0.785500  0.341400  0.973400  1.0  0.0715
  H  H144  1  0.823900  0.100200  0.970800  1.0  0.0805
  H  H145  1  0.098300  0.766600  0.881000  1.0  0.089
  H  H146  1  0.184400  0.762100  0.865100  1.0  0.0747
  H  H147  1  0.071900  0.749300  0.806900  1.0  0.126
  H  H148  1  0.160700  0.748600  0.790000  1.0  0.1251
  H  H149  1  0.057400  0.656100  0.745600  1.0  0.1292
  H  H150  1  0.032900  0.641400  0.669800  1.0  0.1234
  H  H151  1  0.034100  0.588900  0.599000  1.0  0.1209
  H  H152  1  0.066400  0.847600  0.596700  1.0  0.1238
  H  H153  1  0.010100  0.596400  0.523800  1.0  0.0832
  H  H154  1  0.037900  0.850500  0.522200  1.0  0.0731
  H  H155  1  0.598300  0.266600  0.881000  1.0  0.089
  H  H156  1  0.684400  0.262100  0.865100  1.0  0.0747
  H  H157  1  0.571900  0.249300  0.806900  1.0  0.126
  H  H158  1  0.660700  0.248600  0.790000  1.0  0.1251
  H  H159  1  0.557400  0.156100  0.745600  1.0  0.1292
  H  H160  1  0.532900  0.141400  0.669800  1.0  0.1234
  H  H161  1  0.534100  0.088900  0.599000  1.0  0.1209
  H  H162  1  0.566400  0.347600  0.596700  1.0  0.1238
  H  H163  1  0.510100  0.096400  0.523800  1.0  0.0832
  H  H164  1  0.537900  0.350500  0.522200  1.0  0.0731
  H  H165  1  0.018700  0.735100  0.368700  1.0  0.0779
  H  H166  1  0.932100  0.735300  0.383600  1.0  0.0927
  H  H167  1  0.994800  0.744700  0.292700  1.0  0.1174
  H  H168  1  0.905700  0.749800  0.309000  1.0  0.125
  H  H169  1  0.891900  0.841700  0.247300  1.0  0.126
  H  H170  1  0.867800  0.855700  0.171100  1.0  0.1243
  H  H171  1  0.902800  0.653800  0.099500  1.0  0.1126
  H  H172  1  0.869500  0.909400  0.101100  1.0  0.1084
  H  H173  1  0.875800  0.649900  0.024300  1.0  0.079
  H  H174  1  0.845500  0.902500  0.025300  1.0  0.0865
  H  H175  1  0.854500  0.232200  0.370000  1.0  0.0799
  H  H176  1  0.768100  0.236500  0.385700  1.0  0.089
  H  H177  1  0.830300  0.248500  0.294600  1.0  0.1258
  H  H178  1  0.741200  0.252200  0.311700  1.0  0.1296
  H  H179  1  0.726500  0.338000  0.250200  1.0  0.1298
  H  H180  1  0.701400  0.353100  0.174300  1.0  0.1248
  H  H181  1  0.741800  0.162800  0.100900  1.0  0.1163
  H  H182  1  0.700900  0.408400  0.104000  1.0  0.1215
  H  H183  1  0.714500  0.158600  0.026600  1.0  0.0724
  H  H184  1  0.676100  0.399800  0.029200  1.0  0.0806
  H  H185  1  0.518700  0.235100  0.368700  1.0  0.0779
  H  H186  1  0.432100  0.235300  0.383600  1.0  0.0927
  H  H187  1  0.494800  0.244700  0.292700  1.0  0.1174
  H  H188  1  0.405700  0.249800  0.309000  1.0  0.125
  H  H189  1  0.391900  0.341700  0.247300  1.0  0.126
  H  H190  1  0.367800  0.355700  0.171100  1.0  0.1243
  H  H191  1  0.402800  0.153800  0.099500  1.0  0.1126
  H  H192  1  0.369500  0.409400  0.101100  1.0  0.1084
  H  H193  1  0.375800  0.149900  0.024300  1.0  0.079
  H  H194  1  0.345500  0.402500  0.025300  1.0  0.0865
  H  H195  1  0.354500  0.732200  0.370000  1.0  0.0799
  H  H196  1  0.268100  0.736500  0.385700  1.0  0.089
  H  H197  1  0.330300  0.748500  0.294600  1.0  0.1258
  H  H198  1  0.241200  0.752200  0.311700  1.0  0.1296
  H  H199  1  0.226500  0.838000  0.250200  1.0  0.1298
  H  H200  1  0.201400  0.853100  0.174300  1.0  0.1248
  H  H201  1  0.241800  0.662800  0.100900  1.0  0.1163
  H  H202  1  0.200900  0.908400  0.104000  1.0  0.1215
  H  H203  1  0.214500  0.658600  0.026600  1.0  0.0724
  H  H204  1  0.176100  0.899800  0.029200  1.0  0.0806
  H  H205  1  0.018700  0.264900  0.868700  1.0  0.0777
  H  H206  1  0.932100  0.264700  0.883600  1.0  0.0928
  H  H207  1  0.994800  0.255300  0.792700  1.0  0.1174
  H  H208  1  0.905700  0.250200  0.809000  1.0  0.1248
  H  H209  1  0.891900  0.158300  0.747300  1.0  0.1264
  H  H210  1  0.867800  0.144300  0.671100  1.0  0.1246
  H  H211  1  0.902800  0.346200  0.599500  1.0  0.1125
  H  H212  1  0.869500  0.090600  0.601100  1.0  0.1083
  H  H213  1  0.875800  0.350100  0.524300  1.0  0.0782
  H  H214  1  0.845500  0.097500  0.525300  1.0  0.0863
  H  H215  1  0.854500  0.767800  0.870000  1.0  0.0798
  H  H216  1  0.768100  0.763500  0.885700  1.0  0.0891
  H  H217  1  0.830300  0.751500  0.794600  1.0  0.1259
  H  H218  1  0.741200  0.747800  0.811700  1.0  0.1295
  H  H219  1  0.726500  0.662000  0.750200  1.0  0.13
  H  H220  1  0.701400  0.646900  0.674300  1.0  0.1251
  H  H221  1  0.741800  0.837200  0.600900  1.0  0.1164
  H  H222  1  0.700900  0.591600  0.604000  1.0  0.1219
  H  H223  1  0.714500  0.841400  0.526600  1.0  0.0725
  H  H224  1  0.676100  0.600200  0.529200  1.0  0.0809
  H  H225  1  0.518700  0.764900  0.868700  1.0  0.0777
  H  H226  1  0.432100  0.764700  0.883600  1.0  0.0928
  H  H227  1  0.494800  0.755300  0.792700  1.0  0.1174
  H  H228  1  0.405700  0.750200  0.809000  1.0  0.1248
  H  H229  1  0.391900  0.658300  0.747300  1.0  0.1264
  H  H230  1  0.367800  0.644300  0.671100  1.0  0.1246
  H  H231  1  0.402800  0.846200  0.599500  1.0  0.1125
  H  H232  1  0.369500  0.590600  0.601100  1.0  0.1083
  H  H233  1  0.375800  0.850100  0.524300  1.0  0.0782
  H  H234  1  0.345500  0.597500  0.525300  1.0  0.0863
  H  H235  1  0.354500  0.267800  0.870000  1.0  0.0798
  H  H236  1  0.268100  0.263500  0.885700  1.0  0.0891
  H  H237  1  0.330300  0.251500  0.794600  1.0  0.1259
  H  H238  1  0.241200  0.247800  0.811700  1.0  0.1295
  H  H239  1  0.226500  0.162000  0.750200  1.0  0.13
  H  H240  1  0.201400  0.146900  0.674300  1.0  0.1251
  H  H241  1  0.241800  0.337200  0.600900  1.0  0.1164
  H  H242  1  0.200900  0.091600  0.604000  1.0  0.1219
  H  H243  1  0.214500  0.341400  0.526600  1.0  0.0725
  H  H244  1  0.176100  0.100200  0.529200  1.0  0.0809
  H  H245  1  0.098300  0.233400  0.381000  1.0  0.0892
  H  H246  1  0.184400  0.237900  0.365100  1.0  0.0746
  H  H247  1  0.071900  0.250700  0.306900  1.0  0.1259
  H  H248  1  0.160700  0.251400  0.290000  1.0  0.1252
  H  H249  1  0.057400  0.343900  0.245600  1.0  0.1289
  H  H250  1  0.032900  0.358600  0.169800  1.0  0.1233
  H  H251  1  0.034100  0.411100  0.099000  1.0  0.1208
  H  H252  1  0.066400  0.152400  0.096700  1.0  0.1239
  H  H253  1  0.010100  0.403600  0.023800  1.0  0.0825
  H  H254  1  0.037900  0.149500  0.022200  1.0  0.0731
  H  H255  1  0.598300  0.733400  0.381000  1.0  0.0892
  H  H256  1  0.684400  0.737900  0.365100  1.0  0.0746
  H  H257  1  0.571900  0.750700  0.306900  1.0  0.1259
  H  H258  1  0.660700  0.751400  0.290000  1.0  0.1252
  H  H259  1  0.557400  0.843900  0.245600  1.0  0.1289
  H  H260  1  0.532900  0.858600  0.169800  1.0  0.1233
  H  H261  1  0.534100  0.911100  0.099000  1.0  0.1208
  H  H262  1  0.566400  0.652400  0.096700  1.0  0.1239
  H  H263  1  0.510100  0.903600  0.023800  1.0  0.0825
  H  H264  1  0.537900  0.649500  0.022200  1.0  0.0731
  Au  Au265  1  0.081170  0.982470  0.044530  1.0  0.0906
  Au  Au266  1  0.085850  0.487080  0.052570  1.0  0.1462
  Au  Au267  1  0.246390  0.477700  0.043470  1.0  0.1217
  Au  Au268  1  0.581170  0.482470  0.044530  1.0  0.0906
  Au  Au269  1  0.585850  0.987080  0.052570  1.0  0.1462
  Au  Au270  1  0.746390  0.977700  0.043470  1.0  0.1217
  Au  Au271  1  0.921140  0.015810  0.553070  1.0  0.1461
  Au  Au272  1  0.916720  0.515680  0.544560  1.0  0.1224
  Au  Au273  1  0.750910  0.508880  0.552230  1.0  0.1497
  Au  Au274  1  0.421140  0.515810  0.553070  1.0  0.1461
  Au  Au275  1  0.416720  0.015680  0.544570  1.0  0.1224
  Au  Au276  1  0.250910  0.008880  0.552230  1.0  0.1497
  Au  Au277  1  0.921140  0.984190  0.053070  1.0  0.1457
  Au  Au278  1  0.916720  0.484320  0.044560  1.0  0.1245
  Au  Au279  1  0.750910  0.491120  0.052230  1.0  0.1452
  Au  Au280  1  0.421140  0.484190  0.053070  1.0  0.1457
  Au  Au281  1  0.416720  0.984320  0.044570  1.0  0.1245
  Au  Au282  1  0.250910  0.991120  0.052230  1.0  0.1452
  Au  Au283  1  0.081170  0.017530  0.544530  1.0  0.0889
  Au  Au284  1  0.085850  0.512920  0.552580  1.0  0.1483
  Au  Au285  1  0.246390  0.522300  0.543470  1.0  0.1198
  Au  Au286  1  0.581170  0.517530  0.544530  1.0  0.0889
  Au  Au287  1  0.585850  0.012920  0.552580  1.0  0.1483
  Au  Au288  1  0.746390  0.022300  0.543470  1.0  0.1198
  Au  Au289  1  0.078860  0.015810  0.946930  1.0  0.1447
  Au  Au290  1  0.083280  0.515680  0.955440  1.0  0.1191
  Au  Au291  1  0.249090  0.508880  0.947770  1.0  0.15
  Au  Au292  1  0.578860  0.515810  0.946930  1.0  0.1447
  Au  Au293  1  0.583280  0.015680  0.955430  1.0  0.1189
  Au  Au294  1  0.749090  0.008880  0.947770  1.0  0.15
  Au  Au295  1  0.918830  0.982470  0.455470  1.0  0.0903
  Au  Au296  1  0.914150  0.487080  0.447420  1.0  0.1472
  Au  Au297  1  0.753610  0.477700  0.456530  1.0  0.1228
  Au  Au298  1  0.418830  0.482470  0.455470  1.0  0.0903
  Au  Au299  1  0.414150  0.987080  0.447430  1.0  0.1467
  Au  Au300  1  0.253610  0.977700  0.456530  1.0  0.1228
  Au  Au301  1  0.918830  0.017530  0.955470  1.0  0.0889
  Au  Au302  1  0.914150  0.512920  0.947420  1.0  0.148
  Au  Au303  1  0.753610  0.522300  0.956530  1.0  0.1209
  Au  Au304  1  0.418830  0.517530  0.955470  1.0  0.0889
  Au  Au305  1  0.414150  0.012920  0.947430  1.0  0.1475
  Au  Au306  1  0.253610  0.022300  0.956530  1.0  0.1209
  Au  Au307  1  0.078860  0.984190  0.446930  1.0  0.1441
  Au  Au308  1  0.083280  0.484320  0.455430  1.0  0.1205
  Au  Au309  1  0.249090  0.491120  0.447770  1.0  0.1461
  Au  Au310  1  0.578860  0.484190  0.446930  1.0  0.1441
  Au  Au311  1  0.583280  0.984320  0.455430  1.0  0.1205
  Au  Au312  1  0.749090  0.991120  0.447770  1.0  0.1461
  C  C313  1  0.047600  0.886300  0.042100  1.0  -0.0065
  C  C314  1  0.953600  0.882000  0.057100  1.0  0.0109
  C  C315  1  0.952300  0.578900  0.052900  1.0  0.084
  C  C316  1  0.053500  0.584500  0.050600  1.0  0.1163
  C  C317  1  0.116800  0.384900  0.055300  1.0  0.0466
  C  C318  1  0.211400  0.381600  0.039500  1.0  -0.0165
  C  C319  1  0.217000  0.088300  0.048700  1.0  0.0885
  C  C320  1  0.115500  0.077200  0.051100  1.0  0.1066
  C  C321  1  0.004500  0.738200  0.143700  1.0  0.17
  C  C322  1  0.055000  0.739100  0.135100  1.0  0.1783
  C  C323  1  0.018600  0.745300  0.189200  1.0  -0.1573
  C  C324  1  0.070900  0.747600  0.179500  1.0  -0.2064
  C  C325  1  0.052400  0.753100  0.207600  1.0  0.0108
  C  C326  1  0.068800  0.764900  0.255500  1.0  0.2141
  C  C327  1  0.098300  0.814500  0.271900  1.0  -0.1142
  C  C328  1  0.112300  0.822500  0.316200  1.0  -0.1294
  C  C329  1  0.096500  0.780500  0.342500  1.0  0.2222
  C  C330  1  0.111500  0.781200  0.390900  1.0  0.0394
  C  C331  1  0.109500  0.705400  0.414800  1.0  -0.1562
  C  C332  1  0.128700  0.855200  0.414000  1.0  -0.2204
  C  C333  1  0.125400  0.704000  0.460100  1.0  0.1607
  C  C334  1  0.143300  0.850300  0.459400  1.0  0.1579
  C  C335  1  0.168800  0.238100  0.142100  1.0  0.1707
  C  C336  1  0.219100  0.240600  0.133200  1.0  0.1861
  C  C337  1  0.183000  0.247200  0.187200  1.0  -0.1581
  C  C338  1  0.235500  0.249500  0.177200  1.0  -0.2143
  C  C339  1  0.217100  0.254500  0.205500  1.0  -0.0371
  C  C340  1  0.234200  0.266800  0.253500  1.0  0.2493
  C  C341  1  0.263600  0.312900  0.269400  1.0  -0.0979
  C  C342  1  0.278200  0.321900  0.313400  1.0  -0.1131
  C  C343  1  0.261700  0.282700  0.340200  1.0  0.2177
  C  C344  1  0.276900  0.284000  0.388500  1.0  0.0675
  C  C345  1  0.272400  0.211800  0.412900  1.0  -0.1719
  C  C346  1  0.296100  0.355500  0.411300  1.0  -0.225
  C  C347  1  0.288500  0.210600  0.457600  1.0  0.1662
  C  C348  1  0.310900  0.349700  0.455900  1.0  0.1588
  C  C349  1  0.547600  0.386300  0.042100  1.0  -0.0065
  C  C350  1  0.453600  0.382000  0.057100  1.0  0.0109
  C  C351  1  0.452300  0.078900  0.052900  1.0  0.084
  C  C352  1  0.553500  0.084500  0.050600  1.0  0.1163
  C  C353  1  0.616800  0.884900  0.055300  1.0  0.0466
  C  C354  1  0.711400  0.881600  0.039500  1.0  -0.0165
  C  C355  1  0.717000  0.588300  0.048700  1.0  0.0885
  C  C356  1  0.615500  0.577200  0.051100  1.0  0.1066
  C  C357  1  0.504500  0.238200  0.143700  1.0  0.17
  C  C358  1  0.555000  0.239100  0.135100  1.0  0.1783
  C  C359  1  0.518600  0.245300  0.189200  1.0  -0.1573
  C  C360  1  0.570900  0.247600  0.179500  1.0  -0.2064
  C  C361  1  0.552400  0.253100  0.207600  1.0  0.0108
  C  C362  1  0.568800  0.264900  0.255500  1.0  0.2141
  C  C363  1  0.598300  0.314500  0.271900  1.0  -0.1142
  C  C364  1  0.612300  0.322500  0.316200  1.0  -0.1294
  C  C365  1  0.596500  0.280500  0.342500  1.0  0.2222
  C  C366  1  0.611500  0.281200  0.390900  1.0  0.0394
  C  C367  1  0.609500  0.205400  0.414800  1.0  -0.1562
  C  C368  1  0.628700  0.355200  0.414000  1.0  -0.2204
  C  C369  1  0.625400  0.204000  0.460100  1.0  0.1607
  C  C370  1  0.643300  0.350300  0.459400  1.0  0.1579
  C  C371  1  0.668800  0.738100  0.142100  1.0  0.1707
  C  C372  1  0.719100  0.740600  0.133200  1.0  0.1861
  C  C373  1  0.683000  0.747200  0.187200  1.0  -0.1581
  C  C374  1  0.735500  0.749500  0.177200  1.0  -0.2143
  C  C375  1  0.717100  0.754500  0.205500  1.0  -0.0371
  C  C376  1  0.734200  0.766800  0.253500  1.0  0.2493
  C  C377  1  0.763600  0.812900  0.269400  1.0  -0.0979
  C  C378  1  0.778200  0.821900  0.313400  1.0  -0.1131
  C  C379  1  0.761700  0.782700  0.340200  1.0  0.2177
  C  C380  1  0.776900  0.784000  0.388500  1.0  0.0675
  C  C381  1  0.772400  0.711800  0.412900  1.0  -0.1719
  C  C382  1  0.796100  0.855500  0.411300  1.0  -0.225
  C  C383  1  0.788500  0.710600  0.457600  1.0  0.1662
  C  C384  1  0.810900  0.849700  0.455900  1.0  0.1588
  C  C385  1  0.888700  0.921300  0.549100  1.0  0.0604
  C  C386  1  0.882800  0.606900  0.541000  1.0  0.0104
  C  C387  1  0.782200  0.607000  0.556300  1.0  0.0704
  C  C388  1  0.780600  0.931900  0.552100  1.0  0.0621
  C  C389  1  0.888800  0.761400  0.637700  1.0  0.1703
  C  C390  1  0.839000  0.759300  0.647100  1.0  0.1779
  C  C391  1  0.904800  0.751600  0.681800  1.0  -0.2328
  C  C392  1  0.852800  0.750700  0.692000  1.0  -0.1713
  C  C393  1  0.886600  0.745200  0.710100  1.0  0.0107
  C  C394  1  0.903800  0.731800  0.757800  1.0  0.2437
  C  C395  1  0.932900  0.683200  0.773800  1.0  -0.1163
  C  C396  1  0.947300  0.675000  0.818000  1.0  -0.1453
  C  C397  1  0.932000  0.717500  0.845000  1.0  0.228
  C  C398  1  0.947100  0.717800  0.893400  1.0  0.0268
  C  C399  1  0.964300  0.643400  0.916100  1.0  -0.2349
  C  C400  1  0.945700  0.795600  0.917400  1.0  -0.1756
  C  C401  1  0.979000  0.649000  0.961000  1.0  0.1607
  C  C402  1  0.962500  0.795700  0.962200  1.0  0.1723
  C  C403  1  0.388700  0.421300  0.549100  1.0  0.0604
  C  C404  1  0.382800  0.106900  0.541000  1.0  0.0104
  C  C405  1  0.282200  0.107000  0.556300  1.0  0.0704
  C  C406  1  0.280600  0.431900  0.552100  1.0  0.0621
  C  C407  1  0.388800  0.261400  0.637700  1.0  0.1703
  C  C408  1  0.339000  0.259300  0.647100  1.0  0.1779
  C  C409  1  0.404800  0.251600  0.681800  1.0  -0.2328
  C  C410  1  0.352800  0.250700  0.692000  1.0  -0.1713
  C  C411  1  0.386600  0.245200  0.710100  1.0  0.0107
  C  C412  1  0.403800  0.231800  0.757800  1.0  0.2437
  C  C413  1  0.432900  0.183200  0.773800  1.0  -0.1163
  C  C414  1  0.447300  0.175000  0.818000  1.0  -0.1453
  C  C415  1  0.432000  0.217500  0.845000  1.0  0.228
  C  C416  1  0.447100  0.217800  0.893400  1.0  0.0268
  C  C417  1  0.464300  0.143400  0.916100  1.0  -0.2349
  C  C418  1  0.445700  0.295600  0.917400  1.0  -0.1756
  C  C419  1  0.479000  0.149000  0.961000  1.0  0.1607
  C  C420  1  0.462500  0.295700  0.962200  1.0  0.1723
  C  C421  1  0.888700  0.078700  0.049100  1.0  0.0604
  C  C422  1  0.882800  0.393100  0.041000  1.0  0.01
  C  C423  1  0.782200  0.393000  0.056300  1.0  0.07
  C  C424  1  0.780600  0.068100  0.052100  1.0  0.0611
  C  C425  1  0.888800  0.238600  0.137700  1.0  0.1705
  C  C426  1  0.839000  0.240700  0.147100  1.0  0.1778
  C  C427  1  0.904800  0.248400  0.181800  1.0  -0.2329
  C  C428  1  0.852800  0.249300  0.192000  1.0  -0.1713
  C  C429  1  0.886600  0.254800  0.210100  1.0  0.0108
  C  C430  1  0.903800  0.268200  0.257800  1.0  0.2435
  C  C431  1  0.932900  0.316800  0.273800  1.0  -0.1164
  C  C432  1  0.947300  0.325000  0.318000  1.0  -0.1449
  C  C433  1  0.932000  0.282500  0.345000  1.0  0.2278
  C  C434  1  0.947100  0.282200  0.393400  1.0  0.0267
  C  C435  1  0.964300  0.356600  0.416100  1.0  -0.2353
  C  C436  1  0.945700  0.204400  0.417400  1.0  -0.1758
  C  C437  1  0.979000  0.351000  0.461000  1.0  0.1604
  C  C438  1  0.962500  0.204300  0.462200  1.0  0.1725
  C  C439  1  0.388700  0.578700  0.049100  1.0  0.0604
  C  C440  1  0.382800  0.893100  0.041000  1.0  0.01
  C  C441  1  0.282200  0.893000  0.056300  1.0  0.07
  C  C442  1  0.280600  0.568100  0.052100  1.0  0.0611
  C  C443  1  0.388800  0.738600  0.137700  1.0  0.1705
  C  C444  1  0.339000  0.740700  0.147100  1.0  0.1778
  C  C445  1  0.404800  0.748400  0.181800  1.0  -0.2329
  C  C446  1  0.352800  0.749300  0.192000  1.0  -0.1713
  C  C447  1  0.386600  0.754800  0.210100  1.0  0.0108
  C  C448  1  0.403800  0.768200  0.257800  1.0  0.2435
  C  C449  1  0.432900  0.816800  0.273800  1.0  -0.1164
  C  C450  1  0.447300  0.825000  0.318000  1.0  -0.1449
  C  C451  1  0.432000  0.782500  0.345000  1.0  0.2278
  C  C452  1  0.447100  0.782200  0.393400  1.0  0.0267
  C  C453  1  0.464300  0.856600  0.416100  1.0  -0.2353
  C  C454  1  0.445700  0.704400  0.417400  1.0  -0.1758
  C  C455  1  0.479000  0.851000  0.461000  1.0  0.1604
  C  C456  1  0.462500  0.704300  0.462200  1.0  0.1725
  C  C457  1  0.047600  0.113700  0.542100  1.0  -0.0061
  C  C458  1  0.953600  0.118000  0.557100  1.0  0.0097
  C  C459  1  0.952300  0.421100  0.552900  1.0  0.0822
  C  C460  1  0.053500  0.415500  0.550600  1.0  0.1161
  C  C461  1  0.116800  0.615100  0.555300  1.0  0.0478
  C  C462  1  0.211400  0.618400  0.539500  1.0  -0.0178
  C  C463  1  0.217000  0.911700  0.548700  1.0  0.0882
  C  C464  1  0.115500  0.922800  0.551100  1.0  0.1042
  C  C465  1  0.004500  0.261800  0.643700  1.0  0.1699
  C  C466  1  0.055000  0.260900  0.635100  1.0  0.1782
  C  C467  1  0.018600  0.254700  0.689200  1.0  -0.1572
  C  C468  1  0.070900  0.252400  0.679500  1.0  -0.2064
  C  C469  1  0.052400  0.246900  0.707600  1.0  0.0108
  C  C470  1  0.068800  0.235100  0.755500  1.0  0.2144
  C  C471  1  0.098300  0.185500  0.771900  1.0  -0.1145
  C  C472  1  0.112300  0.177500  0.816200  1.0  -0.1294
  C  C473  1  0.096500  0.219500  0.842500  1.0  0.2221
  C  C474  1  0.111500  0.218800  0.890900  1.0  0.0396
  C  C475  1  0.109500  0.294600  0.914800  1.0  -0.1561
  C  C476  1  0.128700  0.144800  0.914000  1.0  -0.2191
  C  C477  1  0.125400  0.296000  0.960100  1.0  0.1602
  C  C478  1  0.143300  0.149700  0.959400  1.0  0.1585
  C  C479  1  0.168800  0.761900  0.642100  1.0  0.1707
  C  C480  1  0.219100  0.759400  0.633200  1.0  0.1859
  C  C481  1  0.183000  0.752800  0.687200  1.0  -0.1582
  C  C482  1  0.235500  0.750500  0.677200  1.0  -0.2143
  C  C483  1  0.217100  0.745500  0.705500  1.0  -0.0371
  C  C484  1  0.234200  0.733200  0.753500  1.0  0.2494
  C  C485  1  0.263600  0.687100  0.769400  1.0  -0.0969
  C  C486  1  0.278200  0.678100  0.813400  1.0  -0.1133
  C  C487  1  0.261700  0.717300  0.840200  1.0  0.2177
  C  C488  1  0.276900  0.716000  0.888500  1.0  0.0678
  C  C489  1  0.272400  0.788200  0.912900  1.0  -0.1714
  C  C490  1  0.296100  0.644500  0.911300  1.0  -0.2239
  C  C491  1  0.288500  0.789400  0.957600  1.0  0.165
  C  C492  1  0.310900  0.650300  0.955900  1.0  0.1598
  C  C493  1  0.547600  0.613700  0.542100  1.0  -0.0061
  C  C494  1  0.453600  0.618000  0.557100  1.0  0.0097
  C  C495  1  0.452300  0.921100  0.552900  1.0  0.0822
  C  C496  1  0.553500  0.915500  0.550600  1.0  0.1161
  C  C497  1  0.616800  0.115100  0.555300  1.0  0.0478
  C  C498  1  0.711400  0.118400  0.539500  1.0  -0.0178
  C  C499  1  0.717000  0.411700  0.548700  1.0  0.0882
  C  C500  1  0.615500  0.422800  0.551100  1.0  0.1042
  C  C501  1  0.504500  0.761800  0.643700  1.0  0.1699
  C  C502  1  0.555000  0.760900  0.635100  1.0  0.1782
  C  C503  1  0.518600  0.754700  0.689200  1.0  -0.1572
  C  C504  1  0.570900  0.752400  0.679500  1.0  -0.2064
  C  C505  1  0.552400  0.746900  0.707600  1.0  0.0108
  C  C506  1  0.568800  0.735100  0.755500  1.0  0.2144
  C  C507  1  0.598300  0.685500  0.771900  1.0  -0.1145
  C  C508  1  0.612300  0.677500  0.816200  1.0  -0.1294
  C  C509  1  0.596500  0.719500  0.842500  1.0  0.2221
  C  C510  1  0.611500  0.718800  0.890900  1.0  0.0395
  C  C511  1  0.609500  0.794600  0.914800  1.0  -0.1561
  C  C512  1  0.628700  0.644800  0.914000  1.0  -0.2191
  C  C513  1  0.625400  0.796000  0.960100  1.0  0.1602
  C  C514  1  0.643300  0.649700  0.959400  1.0  0.1585
  C  C515  1  0.668800  0.261900  0.642100  1.0  0.1707
  C  C516  1  0.719100  0.259400  0.633200  1.0  0.1859
  C  C517  1  0.683000  0.252800  0.687200  1.0  -0.1582
  C  C518  1  0.735500  0.250500  0.677200  1.0  -0.2143
  C  C519  1  0.717100  0.245500  0.705500  1.0  -0.0371
  C  C520  1  0.734200  0.233200  0.753500  1.0  0.2494
  C  C521  1  0.763600  0.187100  0.769400  1.0  -0.0969
  C  C522  1  0.778200  0.178100  0.813400  1.0  -0.1133
  C  C523  1  0.761700  0.217300  0.840200  1.0  0.2177
  C  C524  1  0.776900  0.216000  0.888500  1.0  0.0678
  C  C525  1  0.772400  0.288200  0.912900  1.0  -0.1714
  C  C526  1  0.796100  0.144500  0.911300  1.0  -0.2239
  C  C527  1  0.788500  0.289400  0.957600  1.0  0.165
  C  C528  1  0.810900  0.150300  0.955900  1.0  0.1598
  C  C529  1  0.111300  0.921300  0.950900  1.0  0.0597
  C  C530  1  0.117200  0.606900  0.959000  1.0  0.0121
  C  C531  1  0.217800  0.607000  0.943700  1.0  0.0687
  C  C532  1  0.219400  0.931900  0.947900  1.0  0.0599
  C  C533  1  0.111200  0.761400  0.862300  1.0  0.1731
  C  C534  1  0.161000  0.759300  0.852900  1.0  0.1791
  C  C535  1  0.095200  0.751600  0.818200  1.0  -0.2336
  C  C536  1  0.147200  0.750700  0.808000  1.0  -0.1704
  C  C537  1  0.113400  0.745200  0.789900  1.0  0.0125
  C  C538  1  0.096200  0.731800  0.742200  1.0  0.2435
  C  C539  1  0.067100  0.683200  0.726200  1.0  -0.1178
  C  C540  1  0.052700  0.675000  0.682000  1.0  -0.1471
  C  C541  1  0.068000  0.717500  0.655000  1.0  0.2282
  C  C542  1  0.052900  0.717800  0.606600  1.0  0.0265
  C  C543  1  0.035700  0.643400  0.583900  1.0  -0.2352
  C  C544  1  0.054300  0.795600  0.582600  1.0  -0.1753
  C  C545  1  0.021000  0.649000  0.539000  1.0  0.1613
  C  C546  1  0.037500  0.795700  0.537800  1.0  0.1726
  C  C547  1  0.611300  0.421300  0.950900  1.0  0.0597
  C  C548  1  0.617200  0.106900  0.959000  1.0  0.0121
  C  C549  1  0.717800  0.107000  0.943700  1.0  0.0687
  C  C550  1  0.719400  0.431900  0.947900  1.0  0.0599
  C  C551  1  0.611200  0.261400  0.862300  1.0  0.1731
  C  C552  1  0.661000  0.259300  0.852900  1.0  0.1791
  C  C553  1  0.595200  0.251600  0.818200  1.0  -0.2336
  C  C554  1  0.647200  0.250700  0.808000  1.0  -0.1704
  C  C555  1  0.613400  0.245200  0.789900  1.0  0.0125
  C  C556  1  0.596200  0.231800  0.742200  1.0  0.2435
  C  C557  1  0.567100  0.183200  0.726200  1.0  -0.1178
  C  C558  1  0.552700  0.175000  0.682000  1.0  -0.1471
  C  C559  1  0.568000  0.217500  0.655000  1.0  0.2282
  C  C560  1  0.552900  0.217800  0.606600  1.0  0.0265
  C  C561  1  0.535700  0.143400  0.583900  1.0  -0.2352
  C  C562  1  0.554300  0.295600  0.582600  1.0  -0.1753
  C  C563  1  0.521000  0.149000  0.539000  1.0  0.1613
  C  C564  1  0.537500  0.295700  0.537800  1.0  0.1726
  C  C565  1  0.952400  0.886300  0.457900  1.0  -0.0047
  C  C566  1  0.046400  0.882000  0.442900  1.0  0.011
  C  C567  1  0.047700  0.578900  0.447100  1.0  0.0837
  C  C568  1  0.946500  0.584500  0.449400  1.0  0.1266
  C  C569  1  0.883200  0.384900  0.444700  1.0  0.0456
  C  C570  1  0.788600  0.381600  0.460500  1.0  -0.0164
  C  C571  1  0.783000  0.088300  0.451300  1.0  0.0952
  C  C572  1  0.884500  0.077200  0.448900  1.0  0.1054
  C  C573  1  0.995500  0.738200  0.356300  1.0  0.17
  C  C574  1  0.945000  0.739100  0.364900  1.0  0.1783
  C  C575  1  0.981400  0.745300  0.310800  1.0  -0.1556
  C  C576  1  0.929100  0.747600  0.320500  1.0  -0.2097
  C  C577  1  0.947600  0.753100  0.292400  1.0  0.0132
  C  C578  1  0.931200  0.764900  0.244500  1.0  0.2146
  C  C579  1  0.901700  0.814500  0.228100  1.0  -0.1153
  C  C580  1  0.887700  0.822500  0.183800  1.0  -0.1325
  C  C581  1  0.903500  0.780500  0.157500  1.0  0.2218
  C  C582  1  0.888500  0.781200  0.109100  1.0  0.0399
  C  C583  1  0.890500  0.705400  0.085200  1.0  -0.1564
  C  C584  1  0.871300  0.855200  0.086000  1.0  -0.2214
  C  C585  1  0.874600  0.704000  0.039900  1.0  0.1613
  C  C586  1  0.856700  0.850300  0.040600  1.0  0.1588
  C  C587  1  0.831200  0.238100  0.357900  1.0  0.1713
  C  C588  1  0.780900  0.240600  0.366800  1.0  0.1858
  C  C589  1  0.817000  0.247200  0.312800  1.0  -0.1574
  C  C590  1  0.764500  0.249500  0.322800  1.0  -0.2155
  C  C591  1  0.782900  0.254500  0.294500  1.0  -0.0346
  C  C592  1  0.765800  0.266800  0.246500  1.0  0.2499
  C  C593  1  0.736400  0.312900  0.230600  1.0  -0.0985
  C  C594  1  0.721800  0.321900  0.186600  1.0  -0.1159
  C  C595  1  0.738300  0.282700  0.159800  1.0  0.2185
  C  C596  1  0.723100  0.284000  0.111500  1.0  0.0659
  C  C597  1  0.727600  0.211800  0.087100  1.0  -0.1718
  C  C598  1  0.703900  0.355500  0.088700  1.0  -0.2265
  C  C599  1  0.711500  0.210600  0.042400  1.0  0.1663
  C  C600  1  0.689100  0.349700  0.044100  1.0  0.1594
  C  C601  1  0.452400  0.386300  0.457900  1.0  -0.0047
  C  C602  1  0.546400  0.382000  0.442900  1.0  0.011
  C  C603  1  0.547700  0.078900  0.447100  1.0  0.0837
  C  C604  1  0.446500  0.084500  0.449400  1.0  0.1266
  C  C605  1  0.383200  0.884900  0.444700  1.0  0.0456
  C  C606  1  0.288600  0.881600  0.460500  1.0  -0.0164
  C  C607  1  0.283000  0.588300  0.451300  1.0  0.0952
  C  C608  1  0.384500  0.577200  0.448900  1.0  0.1054
  C  C609  1  0.495500  0.238200  0.356300  1.0  0.17
  C  C610  1  0.445000  0.239100  0.364900  1.0  0.1783
  C  C611  1  0.481400  0.245300  0.310800  1.0  -0.1556
  C  C612  1  0.429100  0.247600  0.320500  1.0  -0.2097
  C  C613  1  0.447600  0.253100  0.292400  1.0  0.0132
  C  C614  1  0.431200  0.264900  0.244500  1.0  0.2146
  C  C615  1  0.401700  0.314500  0.228100  1.0  -0.1153
  C  C616  1  0.387700  0.322500  0.183800  1.0  -0.1325
  C  C617  1  0.403500  0.280500  0.157500  1.0  0.2218
  C  C618  1  0.388500  0.281200  0.109100  1.0  0.0399
  C  C619  1  0.390500  0.205400  0.085200  1.0  -0.1564
  C  C620  1  0.371300  0.355200  0.086000  1.0  -0.2214
  C  C621  1  0.374600  0.204000  0.039900  1.0  0.1613
  C  C622  1  0.356700  0.350300  0.040600  1.0  0.1588
  C  C623  1  0.331200  0.738100  0.357900  1.0  0.1713
  C  C624  1  0.280900  0.740600  0.366800  1.0  0.1858
  C  C625  1  0.317000  0.747200  0.312800  1.0  -0.1574
  C  C626  1  0.264500  0.749500  0.322800  1.0  -0.2155
  C  C627  1  0.282900  0.754500  0.294500  1.0  -0.0346
  C  C628  1  0.265800  0.766800  0.246500  1.0  0.2499
  C  C629  1  0.236400  0.812900  0.230600  1.0  -0.0985
  C  C630  1  0.221800  0.821900  0.186600  1.0  -0.1159
  C  C631  1  0.238300  0.782700  0.159800  1.0  0.2185
  C  C632  1  0.223100  0.784000  0.111500  1.0  0.0659
  C  C633  1  0.227600  0.711800  0.087100  1.0  -0.1718
  C  C634  1  0.203900  0.855500  0.088700  1.0  -0.2265
  C  C635  1  0.211500  0.710600  0.042400  1.0  0.1663
  C  C636  1  0.189100  0.849700  0.044100  1.0  0.1594
  C  C637  1  0.952400  0.113700  0.957900  1.0  -0.0038
  C  C638  1  0.046400  0.118000  0.942900  1.0  0.0114
  C  C639  1  0.047700  0.421100  0.947100  1.0  0.0815
  C  C640  1  0.946500  0.415500  0.949400  1.0  0.1261
  C  C641  1  0.883200  0.615100  0.944700  1.0  0.0474
  C  C642  1  0.788600  0.618400  0.960500  1.0  -0.016
  C  C643  1  0.783000  0.911700  0.951300  1.0  0.0948
  C  C644  1  0.884500  0.922800  0.948900  1.0  0.1025
  C  C645  1  0.995500  0.261800  0.856300  1.0  0.1701
  C  C646  1  0.945000  0.260900  0.864900  1.0  0.1784
  C  C647  1  0.981400  0.254700  0.810800  1.0  -0.1555
  C  C648  1  0.929100  0.252400  0.820500  1.0  -0.2096
  C  C649  1  0.947600  0.246900  0.792400  1.0  0.0133
  C  C650  1  0.931200  0.235100  0.744500  1.0  0.2149
  C  C651  1  0.901700  0.185500  0.728100  1.0  -0.1147
  C  C652  1  0.887700  0.177500  0.683800  1.0  -0.1325
  C  C653  1  0.903500  0.219500  0.657500  1.0  0.2216
  C  C654  1  0.888500  0.218800  0.609100  1.0  0.0404
  C  C655  1  0.890500  0.294600  0.585200  1.0  -0.1563
  C  C656  1  0.871300  0.144800  0.586000  1.0  -0.2198
  C  C657  1  0.874600  0.296000  0.539900  1.0  0.1612
  C  C658  1  0.856700  0.149700  0.540600  1.0  0.1591
  C  C659  1  0.831200  0.761900  0.857900  1.0  0.1715
  C  C660  1  0.780900  0.759400  0.866800  1.0  0.1859
  C  C661  1  0.817000  0.752800  0.812800  1.0  -0.1576
  C  C662  1  0.764500  0.750500  0.822800  1.0  -0.2156
  C  C663  1  0.782900  0.745500  0.794500  1.0  -0.0347
  C  C664  1  0.765800  0.733200  0.746500  1.0  0.25
  C  C665  1  0.736400  0.687100  0.730600  1.0  -0.0969
  C  C666  1  0.721800  0.678100  0.686600  1.0  -0.1158
  C  C667  1  0.738300  0.717300  0.659800  1.0  0.2183
  C  C668  1  0.723100  0.716000  0.611500  1.0  0.0661
  C  C669  1  0.727600  0.788200  0.587100  1.0  -0.1719
  C  C670  1  0.703900  0.644500  0.588700  1.0  -0.2241
  C  C671  1  0.711500  0.789400  0.542400  1.0  0.1656
  C  C672  1  0.689100  0.650300  0.544100  1.0  0.1598
  C  C673  1  0.452400  0.613700  0.957900  1.0  -0.0038
  C  C674  1  0.546400  0.618000  0.942900  1.0  0.0114
  C  C675  1  0.547700  0.921100  0.947100  1.0  0.0815
  C  C676  1  0.446500  0.915500  0.949400  1.0  0.1261
  C  C677  1  0.383200  0.115100  0.944700  1.0  0.0474
  C  C678  1  0.288600  0.118400  0.960500  1.0  -0.016
  C  C679  1  0.283000  0.411700  0.951300  1.0  0.0948
  C  C680  1  0.384500  0.422800  0.948900  1.0  0.1025
  C  C681  1  0.495500  0.761800  0.856300  1.0  0.1701
  C  C682  1  0.445000  0.760900  0.864900  1.0  0.1784
  C  C683  1  0.481400  0.754700  0.810800  1.0  -0.1555
  C  C684  1  0.429100  0.752400  0.820500  1.0  -0.2096
  C  C685  1  0.447600  0.746900  0.792400  1.0  0.0133
  C  C686  1  0.431200  0.735100  0.744500  1.0  0.2149
  C  C687  1  0.401700  0.685500  0.728100  1.0  -0.1147
  C  C688  1  0.387700  0.677500  0.683800  1.0  -0.1325
  C  C689  1  0.403500  0.719500  0.657500  1.0  0.2216
  C  C690  1  0.388500  0.718800  0.609100  1.0  0.0403
  C  C691  1  0.390500  0.794600  0.585200  1.0  -0.1563
  C  C692  1  0.371300  0.644800  0.586000  1.0  -0.2198
  C  C693  1  0.374600  0.796000  0.539900  1.0  0.1612
  C  C694  1  0.356700  0.649700  0.540600  1.0  0.1591
  C  C695  1  0.331200  0.261900  0.857900  1.0  0.1715
  C  C696  1  0.280900  0.259400  0.866800  1.0  0.1859
  C  C697  1  0.317000  0.252800  0.812800  1.0  -0.1576
  C  C698  1  0.264500  0.250500  0.822800  1.0  -0.2156
  C  C699  1  0.282900  0.245500  0.794500  1.0  -0.0347
  C  C700  1  0.265800  0.233200  0.746500  1.0  0.25
  C  C701  1  0.236400  0.187100  0.730600  1.0  -0.0969
  C  C702  1  0.221800  0.178100  0.686600  1.0  -0.1158
  C  C703  1  0.238300  0.217300  0.659800  1.0  0.2183
  C  C704  1  0.223100  0.216000  0.611500  1.0  0.0661
  C  C705  1  0.227600  0.288200  0.587100  1.0  -0.1719
  C  C706  1  0.203900  0.144500  0.588700  1.0  -0.2241
  C  C707  1  0.211500  0.289400  0.542400  1.0  0.1656
  C  C708  1  0.189100  0.150300  0.544100  1.0  0.1598
  C  C709  1  0.111300  0.078700  0.450900  1.0  0.0596
  C  C710  1  0.117200  0.393100  0.459000  1.0  0.012
  C  C711  1  0.217800  0.393000  0.443700  1.0  0.0684
  C  C712  1  0.219400  0.068100  0.447900  1.0  0.0607
  C  C713  1  0.111200  0.238600  0.362300  1.0  0.1732
  C  C714  1  0.161000  0.240700  0.352900  1.0  0.1789
  C  C715  1  0.095200  0.248400  0.318200  1.0  -0.2336
  C  C716  1  0.147200  0.249300  0.308000  1.0  -0.1703
  C  C717  1  0.113400  0.254800  0.289900  1.0  0.0126
  C  C718  1  0.096200  0.268200  0.242200  1.0  0.2435
  C  C719  1  0.067100  0.316800  0.226200  1.0  -0.1184
  C  C720  1  0.052700  0.325000  0.182000  1.0  -0.1472
  C  C721  1  0.068000  0.282500  0.155000  1.0  0.2281
  C  C722  1  0.052900  0.282200  0.106600  1.0  0.0266
  C  C723  1  0.035700  0.356600  0.083900  1.0  -0.2367
  C  C724  1  0.054300  0.204400  0.082600  1.0  -0.1759
  C  C725  1  0.021000  0.351000  0.039000  1.0  0.1611
  C  C726  1  0.037500  0.204300  0.037800  1.0  0.1725
  C  C727  1  0.611300  0.578700  0.450900  1.0  0.0596
  C  C728  1  0.617200  0.893100  0.459000  1.0  0.012
  C  C729  1  0.717800  0.893000  0.443700  1.0  0.0684
  C  C730  1  0.719400  0.568100  0.447900  1.0  0.0607
  C  C731  1  0.611200  0.738600  0.362300  1.0  0.1732
  C  C732  1  0.661000  0.740700  0.352900  1.0  0.1789
  C  C733  1  0.595200  0.748400  0.318200  1.0  -0.2336
  C  C734  1  0.647200  0.749300  0.308000  1.0  -0.1703
  C  C735  1  0.613400  0.754800  0.289900  1.0  0.0126
  C  C736  1  0.596200  0.768200  0.242200  1.0  0.2435
  C  C737  1  0.567100  0.816800  0.226200  1.0  -0.1184
  C  C738  1  0.552700  0.825000  0.182000  1.0  -0.1472
  C  C739  1  0.568000  0.782500  0.155000  1.0  0.2281
  C  C740  1  0.552900  0.782200  0.106600  1.0  0.0266
  C  C741  1  0.535700  0.856600  0.083900  1.0  -0.2367
  C  C742  1  0.554300  0.704400  0.082600  1.0  -0.1759
  C  C743  1  0.521000  0.851000  0.039000  1.0  0.1611
  C  C744  1  0.537500  0.704300  0.037800  1.0  0.1725
  N  N745  1  0.030100  0.829500  0.044100  1.0  -0.324
  N  N746  1  0.970030  0.824300  0.055300  1.0  -0.3003
  N  N747  1  0.971420  0.633400  0.054900  1.0  -0.3558
  N  N748  1  0.033910  0.638400  0.048900  1.0  -0.3217
  N  N749  1  0.133530  0.325600  0.053600  1.0  -0.3171
  N  N750  1  0.193450  0.328300  0.041700  1.0  -0.3203
  N  N751  1  0.197030  0.140200  0.046700  1.0  -0.3313
  N  N752  1  0.134600  0.132600  0.053700  1.0  -0.3608
  N  N753  1  0.022240  0.735800  0.117000  1.0  -0.2928
  N  N754  1  0.054200  0.729800  0.282000  1.0  -0.2138
  N  N755  1  0.068600  0.736200  0.326100  1.0  -0.2249
  N  N756  1  0.142180  0.774200  0.482300  1.0  -0.3011
  N  N757  1  0.186160  0.237100  0.114700  1.0  -0.3081
  N  N758  1  0.219000  0.233400  0.279800  1.0  -0.226
  N  N759  1  0.233300  0.240300  0.323800  1.0  -0.2273
  N  N760  1  0.307900  0.276600  0.480100  1.0  -0.3398
  N  N761  1  0.530100  0.329500  0.044100  1.0  -0.324
  N  N762  1  0.470030  0.324300  0.055300  1.0  -0.3003
  N  N763  1  0.471420  0.133400  0.054900  1.0  -0.3558
  N  N764  1  0.533910  0.138400  0.048900  1.0  -0.3217
  N  N765  1  0.633530  0.825600  0.053600  1.0  -0.3171
  N  N766  1  0.693450  0.828300  0.041700  1.0  -0.3203
  N  N767  1  0.697030  0.640200  0.046700  1.0  -0.3313
  N  N768  1  0.634600  0.632600  0.053700  1.0  -0.3608
  N  N769  1  0.522240  0.235800  0.117000  1.0  -0.2928
  N  N770  1  0.554200  0.229800  0.282000  1.0  -0.2138
  N  N771  1  0.568600  0.236200  0.326100  1.0  -0.2249
  N  N772  1  0.642180  0.274200  0.482300  1.0  -0.3011
  N  N773  1  0.686160  0.737100  0.114700  1.0  -0.3081
  N  N774  1  0.719000  0.733400  0.279800  1.0  -0.226
  N  N775  1  0.733300  0.740300  0.323800  1.0  -0.2273
  N  N776  1  0.807900  0.776600  0.480100  1.0  -0.3398
  N  N777  1  0.868100  0.866500  0.547600  1.0  -0.392
  N  N778  1  0.863800  0.664600  0.541300  1.0  -0.3956
  N  N779  1  0.799800  0.668500  0.556100  1.0  -0.415
  N  N780  1  0.800900  0.875800  0.555700  1.0  -0.4392
  N  N781  1  0.856180  0.764000  0.619600  1.0  -0.3187
  N  N782  1  0.889100  0.768700  0.784500  1.0  -0.2355
  N  N783  1  0.903800  0.761300  0.828400  1.0  -0.2364
  N  N784  1  0.978800  0.725800  0.984800  1.0  -0.3045
  N  N785  1  0.368100  0.366500  0.547600  1.0  -0.392
  N  N786  1  0.363800  0.164600  0.541300  1.0  -0.3956
  N  N787  1  0.299800  0.168500  0.556100  1.0  -0.415
  N  N788  1  0.300900  0.375800  0.555700  1.0  -0.4392
  N  N789  1  0.356180  0.264000  0.619600  1.0  -0.3187
  N  N790  1  0.389100  0.268700  0.784500  1.0  -0.2355
  N  N791  1  0.403800  0.261300  0.828400  1.0  -0.2364
  N  N792  1  0.478800  0.225800  0.984800  1.0  -0.3045
  N  N793  1  0.868100  0.133500  0.047600  1.0  -0.3913
  N  N794  1  0.863800  0.335400  0.041300  1.0  -0.3953
  N  N795  1  0.799800  0.331500  0.056100  1.0  -0.4157
  N  N796  1  0.800900  0.124200  0.055700  1.0  -0.4392
  N  N797  1  0.856180  0.236000  0.119600  1.0  -0.319
  N  N798  1  0.889100  0.231300  0.284500  1.0  -0.2349
  N  N799  1  0.903800  0.238700  0.328400  1.0  -0.2357
  N  N800  1  0.978800  0.274200  0.484800  1.0  -0.3042
  N  N801  1  0.368100  0.633500  0.047600  1.0  -0.3913
  N  N802  1  0.363800  0.835400  0.041300  1.0  -0.3953
  N  N803  1  0.299800  0.831500  0.056100  1.0  -0.4157
  N  N804  1  0.300900  0.624200  0.055700  1.0  -0.4392
  N  N805  1  0.356180  0.736000  0.119600  1.0  -0.319
  N  N806  1  0.389100  0.731300  0.284500  1.0  -0.2349
  N  N807  1  0.403800  0.738700  0.328400  1.0  -0.2357
  N  N808  1  0.478800  0.774200  0.484800  1.0  -0.3042
  N  N809  1  0.030100  0.170500  0.544100  1.0  -0.3212
  N  N810  1  0.970030  0.175700  0.555300  1.0  -0.2983
  N  N811  1  0.971420  0.366600  0.554900  1.0  -0.3565
  N  N812  1  0.033910  0.361600  0.548900  1.0  -0.3227
  N  N813  1  0.133530  0.674400  0.553600  1.0  -0.3143
  N  N814  1  0.193450  0.671700  0.541700  1.0  -0.3176
  N  N815  1  0.197030  0.859800  0.546700  1.0  -0.3317
  N  N816  1  0.134600  0.867400  0.553700  1.0  -0.3623
  N  N817  1  0.022240  0.264200  0.617000  1.0  -0.2928
  N  N818  1  0.054200  0.270200  0.782000  1.0  -0.2132
  N  N819  1  0.068600  0.263800  0.826100  1.0  -0.2251
  N  N820  1  0.142180  0.225800  0.982300  1.0  -0.3019
  N  N821  1  0.186160  0.762900  0.614700  1.0  -0.3079
  N  N822  1  0.219000  0.766600  0.779800  1.0  -0.2259
  N  N823  1  0.233300  0.759700  0.823800  1.0  -0.2282
  N  N824  1  0.307900  0.723400  0.980100  1.0  -0.3399
  N  N825  1  0.530100  0.670500  0.544100  1.0  -0.3212
  N  N826  1  0.470030  0.675700  0.555300  1.0  -0.2983
  N  N827  1  0.471420  0.866600  0.554900  1.0  -0.3565
  N  N828  1  0.533910  0.861600  0.548900  1.0  -0.3227
  N  N829  1  0.633530  0.174400  0.553600  1.0  -0.3143
  N  N830  1  0.693450  0.171700  0.541700  1.0  -0.3176
  N  N831  1  0.697030  0.359800  0.546700  1.0  -0.3317
  N  N832  1  0.634600  0.367400  0.553700  1.0  -0.3623
  N  N833  1  0.522240  0.764200  0.617000  1.0  -0.2928
  N  N834  1  0.554200  0.770200  0.782000  1.0  -0.2132
  N  N835  1  0.568600  0.763800  0.826100  1.0  -0.2251
  N  N836  1  0.642180  0.725800  0.982300  1.0  -0.3019
  N  N837  1  0.686160  0.262900  0.614700  1.0  -0.3079
  N  N838  1  0.719000  0.266600  0.779800  1.0  -0.2259
  N  N839  1  0.733300  0.259700  0.823800  1.0  -0.2282
  N  N840  1  0.807900  0.223400  0.980100  1.0  -0.3399
  N  N841  1  0.131900  0.866500  0.952400  1.0  -0.3923
  N  N842  1  0.136200  0.664600  0.958700  1.0  -0.3944
  N  N843  1  0.200200  0.668500  0.943900  1.0  -0.4153
  N  N844  1  0.199100  0.875800  0.944300  1.0  -0.4412
  N  N845  1  0.143820  0.764000  0.880400  1.0  -0.3173
  N  N846  1  0.110900  0.768700  0.715500  1.0  -0.2366
  N  N847  1  0.096200  0.761300  0.671600  1.0  -0.2366
  N  N848  1  0.021200  0.725800  0.515200  1.0  -0.3049
  N  N849  1  0.631900  0.366500  0.952400  1.0  -0.3923
  N  N850  1  0.636200  0.164600  0.958700  1.0  -0.3944
  N  N851  1  0.700200  0.168500  0.943900  1.0  -0.4153
  N  N852  1  0.699100  0.375800  0.944300  1.0  -0.4412
  N  N853  1  0.643820  0.264000  0.880400  1.0  -0.3173
  N  N854  1  0.610900  0.268700  0.715500  1.0  -0.2366
  N  N855  1  0.596200  0.261300  0.671600  1.0  -0.2366
  N  N856  1  0.521200  0.225800  0.515200  1.0  -0.3049
  N  N857  1  0.969900  0.829500  0.455900  1.0  -0.3262
  N  N858  1  0.029970  0.824300  0.444700  1.0  -0.2987
  N  N859  1  0.028580  0.633400  0.445100  1.0  -0.3558
  N  N860  1  0.966090  0.638400  0.451100  1.0  -0.3251
  N  N861  1  0.866470  0.325600  0.446400  1.0  -0.3153
  N  N862  1  0.806550  0.328300  0.458300  1.0  -0.3233
  N  N863  1  0.802970  0.140200  0.453300  1.0  -0.3322
  N  N864  1  0.865400  0.132600  0.446300  1.0  -0.3616
  N  N865  1  0.977760  0.735800  0.383000  1.0  -0.2929
  N  N866  1  0.945800  0.729800  0.218000  1.0  -0.2161
  N  N867  1  0.931400  0.736200  0.173900  1.0  -0.2247
  N  N868  1  0.857820  0.774200  0.017700  1.0  -0.3032
  N  N869  1  0.813840  0.237100  0.385300  1.0  -0.3079
  N  N870  1  0.781000  0.233400  0.220200  1.0  -0.2265
  N  N871  1  0.766700  0.240300  0.176200  1.0  -0.2284
  N  N872  1  0.692100  0.276600  0.019900  1.0  -0.3385
  N  N873  1  0.469900  0.329500  0.455900  1.0  -0.3262
  N  N874  1  0.529970  0.324300  0.444700  1.0  -0.2987
  N  N875  1  0.528580  0.133400  0.445100  1.0  -0.3558
  N  N876  1  0.466090  0.138400  0.451100  1.0  -0.3251
  N  N877  1  0.366470  0.825600  0.446400  1.0  -0.3153
  N  N878  1  0.306550  0.828300  0.458300  1.0  -0.3233
  N  N879  1  0.302970  0.640200  0.453300  1.0  -0.3322
  N  N880  1  0.365400  0.632600  0.446300  1.0  -0.3616
  N  N881  1  0.477760  0.235800  0.383000  1.0  -0.2929
  N  N882  1  0.445800  0.229800  0.218000  1.0  -0.2161
  N  N883  1  0.431400  0.236200  0.173900  1.0  -0.2247
  N  N884  1  0.357820  0.274200  0.017700  1.0  -0.3032
  N  N885  1  0.313840  0.737100  0.385300  1.0  -0.3079
  N  N886  1  0.281000  0.733400  0.220200  1.0  -0.2265
  N  N887  1  0.266700  0.740300  0.176200  1.0  -0.2284
  N  N888  1  0.192100  0.776600  0.019900  1.0  -0.3385
  N  N889  1  0.969900  0.170500  0.955900  1.0  -0.3235
  N  N890  1  0.029970  0.175700  0.944700  1.0  -0.2969
  N  N891  1  0.028580  0.366600  0.945100  1.0  -0.3558
  N  N892  1  0.966090  0.361600  0.951100  1.0  -0.3248
  N  N893  1  0.866470  0.674400  0.946400  1.0  -0.3132
  N  N894  1  0.806550  0.671700  0.958300  1.0  -0.3197
  N  N895  1  0.802970  0.859800  0.953300  1.0  -0.3321
  N  N896  1  0.865400  0.867400  0.946300  1.0  -0.3625
  N  N897  1  0.977760  0.264200  0.883000  1.0  -0.2926
  N  N898  1  0.945800  0.270200  0.718000  1.0  -0.216
  N  N899  1  0.931400  0.263800  0.673900  1.0  -0.2247
  N  N900  1  0.857820  0.225800  0.517700  1.0  -0.3035
  N  N901  1  0.813840  0.762900  0.885300  1.0  -0.3081
  N  N902  1  0.781000  0.766600  0.720200  1.0  -0.2272
  N  N903  1  0.766700  0.759700  0.676200  1.0  -0.2287
  N  N904  1  0.692100  0.723400  0.519900  1.0  -0.3378
  N  N905  1  0.469900  0.670500  0.955900  1.0  -0.3235
  N  N906  1  0.529970  0.675700  0.944700  1.0  -0.2969
  N  N907  1  0.528580  0.866600  0.945100  1.0  -0.3558
  N  N908  1  0.466090  0.861600  0.951100  1.0  -0.3248
  N  N909  1  0.366470  0.174400  0.946400  1.0  -0.3132
  N  N910  1  0.306550  0.171700  0.958300  1.0  -0.3197
  N  N911  1  0.302970  0.359800  0.953300  1.0  -0.3321
  N  N912  1  0.365400  0.367400  0.946300  1.0  -0.3625
  N  N913  1  0.477760  0.764200  0.883000  1.0  -0.2926
  N  N914  1  0.445800  0.770200  0.718000  1.0  -0.216
  N  N915  1  0.431400  0.763800  0.673900  1.0  -0.2247
  N  N916  1  0.357820  0.725800  0.517700  1.0  -0.3035
  N  N917  1  0.313840  0.262900  0.885300  1.0  -0.3081
  N  N918  1  0.281000  0.266600  0.720200  1.0  -0.2272
  N  N919  1  0.266700  0.259700  0.676200  1.0  -0.2287
  N  N920  1  0.192100  0.223400  0.519900  1.0  -0.3378
  N  N921  1  0.131900  0.133500  0.452400  1.0  -0.3921
  N  N922  1  0.136200  0.335400  0.458700  1.0  -0.3945
  N  N923  1  0.200200  0.331500  0.443900  1.0  -0.4161
  N  N924  1  0.199100  0.124200  0.444300  1.0  -0.44
  N  N925  1  0.143820  0.236000  0.380400  1.0  -0.3174
  N  N926  1  0.110900  0.231300  0.215500  1.0  -0.2348
  N  N927  1  0.096200  0.238700  0.171600  1.0  -0.2361
  N  N928  1  0.021200  0.274200  0.015200  1.0  -0.3049
  N  N929  1  0.631900  0.633500  0.452400  1.0  -0.3921
  N  N930  1  0.636200  0.835400  0.458700  1.0  -0.3945
  N  N931  1  0.700200  0.831500  0.443900  1.0  -0.4161
  N  N932  1  0.699100  0.624200  0.444300  1.0  -0.44
  N  N933  1  0.643820  0.736000  0.380400  1.0  -0.3174
  N  N934  1  0.610900  0.731300  0.215500  1.0  -0.2348
  N  N935  1  0.596200  0.738700  0.171600  1.0  -0.2361
  N  N936  1  0.521200  0.774200  0.015200  1.0  -0.3049
