# generated using pymatgen
data_CdH20C29N3O4
_symmetry_space_group_name_H-M   'P 1'
_cell_length_a   11.81030000
_cell_length_b   23.22100000
_cell_length_c   45.46700000
_cell_angle_alpha   104.51600000
_cell_angle_beta   90.00000000
_cell_angle_gamma   90.00000000
_symmetry_Int_Tables_number   1
_chemical_formula_structural   CdH20C29N3O4
_chemical_formula_sum   'Cd16 H320 C464 N48 O64'
_cell_volume   12071.14192689
_cell_formula_units_Z   16
loop_
 _symmetry_equiv_pos_site_id
 _symmetry_equiv_pos_as_xyz
  1  'x, y, z'
loop_
 _atom_site_type_symbol
 _atom_site_label
 _atom_site_symmetry_multiplicity
 _atom_site_fract_x
 _atom_site_fract_y
 _atom_site_fract_z
 _atom_site_occupancy
 _atom_site_charge
  Cd  Cd1  1  0.874210  0.582850  0.723320  1.0  0.9498
  Cd  Cd2  1  0.578790  0.904250  0.059660  1.0  0.9303
  Cd  Cd3  1  0.625790  0.582850  0.223320  1.0  0.9499
  Cd  Cd4  1  0.921210  0.904250  0.559660  1.0  0.9299
  Cd  Cd5  1  0.632160  0.127780  0.736210  1.0  0.9376
  Cd  Cd6  1  0.911960  0.451840  0.073490  1.0  0.9411
  Cd  Cd7  1  0.867840  0.127780  0.236210  1.0  0.9372
  Cd  Cd8  1  0.588040  0.451840  0.573490  1.0  0.9411
  Cd  Cd9  1  0.374210  0.417150  0.776680  1.0  0.95
  Cd  Cd10  1  0.078790  0.095750  0.440340  1.0  0.928
  Cd  Cd11  1  0.125790  0.417150  0.276680  1.0  0.95
  Cd  Cd12  1  0.421210  0.095750  0.940340  1.0  0.9278
  Cd  Cd13  1  0.132160  0.872220  0.763790  1.0  0.9389
  Cd  Cd14  1  0.411960  0.548160  0.426510  1.0  0.9413
  Cd  Cd15  1  0.367840  0.872220  0.263790  1.0  0.9383
  Cd  Cd16  1  0.088040  0.548160  0.926510  1.0  0.9415
  H  H17  1  0.833700  0.759000  0.815800  1.0  0.0998
  H  H18  1  0.781800  0.800700  0.864700  1.0  0.1192
  H  H19  1  0.726500  0.638500  0.876900  1.0  0.1076
  H  H20  1  0.784100  0.597300  0.828500  1.0  0.1031
  H  H21  1  0.605800  0.874200  0.950200  1.0  0.1012
  H  H22  1  0.643500  0.827100  0.900700  1.0  0.1063
  H  H23  1  0.732500  0.684200  0.925200  1.0  0.0838
  H  H24  1  0.670600  0.727200  0.972600  1.0  0.0811
  H  H25  1  0.914800  0.404400  0.630200  1.0  0.1048
  H  H26  1  0.929100  0.303800  0.609700  1.0  0.1076
  H  H27  1  0.908300  0.273500  0.691000  1.0  0.096
  H  H28  1  0.893000  0.373800  0.712900  1.0  0.1057
  H  H29  1  0.961000  0.085600  0.649000  1.0  0.0971
  H  H30  1  0.968600  0.184700  0.670100  1.0  0.0996
  H  H31  1  0.867800  0.215000  0.592800  1.0  0.111
  H  H32  1  0.859000  0.115500  0.572100  1.0  0.097
  H  H33  1  0.883500  0.588500  0.653200  1.0  0.0721
  H  H34  1  0.893900  0.649600  0.621400  1.0  0.117
  H  H35  1  0.878900  0.789400  0.694000  1.0  0.1187
  H  H36  1  0.864500  0.724300  0.723600  1.0  0.0687
  H  H37  1  0.875600  0.773000  0.563500  1.0  0.0769
  H  H38  1  0.857200  0.709500  0.594200  1.0  0.1219
  H  H39  1  0.953600  0.839700  0.663800  1.0  0.1204
  H  H40  1  0.962200  0.900600  0.631300  1.0  0.0723
  H  H41  1  0.653000  0.498000  0.703600  1.0  0.0685
  H  H42  1  0.459500  0.493700  0.704100  1.0  0.1227
  H  H43  1  0.460800  0.671500  0.737000  1.0  0.109
  H  H44  1  0.653200  0.669400  0.736100  1.0  0.0751
  H  H45  1  0.093100  0.665500  0.717100  1.0  0.0785
  H  H46  1  0.286200  0.667000  0.715400  1.0  0.1223
  H  H47  1  0.286600  0.500200  0.726400  1.0  0.1169
  H  H48  1  0.094100  0.504000  0.727800  1.0  0.0621
  H  H49  1  0.362100  0.934800  0.102100  1.0  0.0714
  H  H50  1  0.167800  0.932500  0.104700  1.0  0.1263
  H  H51  1  0.165700  0.852600  0.017400  1.0  0.1107
  H  H52  1  0.357400  0.857200  0.017000  1.0  0.0791
  H  H53  1  0.801700  0.829000  0.030100  1.0  0.0703
  H  H54  1  0.992400  0.822700  0.031100  1.0  0.0853
  H  H55  1  0.995000  0.960500  0.096300  1.0  0.0911
  H  H56  1  0.802500  0.962600  0.094900  1.0  0.0622
  H  H57  1  0.666300  0.759000  0.315800  1.0  0.1001
  H  H58  1  0.718200  0.800700  0.364700  1.0  0.1195
  H  H59  1  0.773500  0.638500  0.376900  1.0  0.1075
  H  H60  1  0.715900  0.597300  0.328500  1.0  0.1033
  H  H61  1  0.894200  0.874200  0.450200  1.0  0.1011
  H  H62  1  0.856500  0.827100  0.400700  1.0  0.1057
  H  H63  1  0.767500  0.684200  0.425200  1.0  0.084
  H  H64  1  0.829400  0.727200  0.472600  1.0  0.0809
  H  H65  1  0.585200  0.404400  0.130200  1.0  0.1046
  H  H66  1  0.570900  0.303800  0.109700  1.0  0.1077
  H  H67  1  0.591700  0.273500  0.191000  1.0  0.0962
  H  H68  1  0.607000  0.373800  0.212900  1.0  0.1054
  H  H69  1  0.539000  0.085600  0.149000  1.0  0.0971
  H  H70  1  0.531400  0.184700  0.170100  1.0  0.0996
  H  H71  1  0.632200  0.215000  0.092800  1.0  0.111
  H  H72  1  0.641000  0.115500  0.072100  1.0  0.0974
  H  H73  1  0.616500  0.588500  0.153200  1.0  0.0721
  H  H74  1  0.606100  0.649600  0.121400  1.0  0.1173
  H  H75  1  0.621100  0.789400  0.194000  1.0  0.1185
  H  H76  1  0.635500  0.724300  0.223600  1.0  0.0689
  H  H77  1  0.624400  0.773000  0.063500  1.0  0.0766
  H  H78  1  0.642800  0.709500  0.094200  1.0  0.1217
  H  H79  1  0.546400  0.839700  0.163800  1.0  0.1202
  H  H80  1  0.537800  0.900600  0.131300  1.0  0.0727
  H  H81  1  0.847000  0.498000  0.203600  1.0  0.0685
  H  H82  1  0.040500  0.493700  0.204100  1.0  0.1229
  H  H83  1  0.039200  0.671500  0.237000  1.0  0.109
  H  H84  1  0.846800  0.669400  0.236100  1.0  0.0749
  H  H85  1  0.406900  0.665500  0.217100  1.0  0.0783
  H  H86  1  0.213800  0.667000  0.215400  1.0  0.1223
  H  H87  1  0.213400  0.500200  0.226400  1.0  0.1173
  H  H88  1  0.405900  0.504000  0.227800  1.0  0.0624
  H  H89  1  0.137900  0.934800  0.602100  1.0  0.0717
  H  H90  1  0.332200  0.932500  0.604700  1.0  0.1262
  H  H91  1  0.334300  0.852600  0.517400  1.0  0.1109
  H  H92  1  0.142600  0.857200  0.517000  1.0  0.0789
  H  H93  1  0.698300  0.829000  0.530100  1.0  0.0707
  H  H94  1  0.507600  0.822700  0.531100  1.0  0.0855
  H  H95  1  0.505000  0.960500  0.596300  1.0  0.0912
  H  H96  1  0.697500  0.962600  0.594900  1.0  0.062
  H  H97  1  0.750300  0.148600  0.840400  1.0  0.1054
  H  H98  1  0.795200  0.195400  0.890300  1.0  0.1088
  H  H99  1  0.703500  0.351300  0.876500  1.0  0.1138
  H  H100  1  0.659400  0.305500  0.827000  1.0  0.0874
  H  H101  1  0.803000  0.284200  0.988200  1.0  0.1074
  H  H102  1  0.752000  0.239400  0.938600  1.0  0.0996
  H  H103  1  0.833800  0.386900  0.914000  1.0  0.1028
  H  H104  1  0.892000  0.431500  0.963000  1.0  0.113
  H  H105  1  0.492600  0.927400  0.717700  1.0  0.093
  H  H106  1  0.466700  0.827200  0.693000  1.0  0.1034
  H  H107  1  0.688900  0.844100  0.630100  1.0  0.09
  H  H108  1  0.698800  0.944600  0.651400  1.0  0.1005
  H  H109  1  0.554900  0.631800  0.663100  1.0  0.0949
  H  H110  1  0.546500  0.735000  0.683900  1.0  0.1025
  H  H111  1  0.592700  0.760700  0.601600  1.0  0.103
  H  H112  1  0.599500  0.660500  0.581100  1.0  0.1152
  H  H113  1  0.613800  0.266900  0.735500  1.0  0.083
  H  H114  1  0.605300  0.330800  0.705300  1.0  0.1097
  H  H115  1  0.621200  0.193100  0.633000  1.0  0.1194
  H  H116  1  0.641700  0.132400  0.665300  1.0  0.076
  H  H117  1  0.618100  0.447500  0.643000  1.0  0.0645
  H  H118  1  0.628300  0.388000  0.675400  1.0  0.1166
  H  H119  1  0.558000  0.250700  0.606600  1.0  0.1182
  H  H120  1  0.547700  0.315100  0.575700  1.0  0.0822
  H  H121  1  0.407800  0.055000  0.749000  1.0  0.0772
  H  H122  1  0.214500  0.050600  0.744700  1.0  0.1221
  H  H123  1  0.221000  0.206400  0.723300  1.0  0.113
  H  H124  1  0.413500  0.206300  0.727100  1.0  0.0725
  H  H125  1  0.852600  0.042800  0.713700  1.0  0.0649
  H  H126  1  0.045300  0.039700  0.714200  1.0  0.1356
  H  H127  1  0.043900  0.216000  0.746600  1.0  0.1207
  H  H128  1  0.852100  0.213100  0.745300  1.0  0.0729
  H  H129  1  0.128700  0.496500  0.116600  1.0  0.0799
  H  H130  1  0.320600  0.491900  0.119300  1.0  0.1022
  H  H131  1  0.329800  0.403900  0.032800  1.0  0.1226
  H  H132  1  0.133400  0.407400  0.032100  1.0  0.0784
  H  H133  1  0.691000  0.368600  0.049600  1.0  0.0743
  H  H134  1  0.498600  0.368700  0.047700  1.0  0.113
  H  H135  1  0.498900  0.525700  0.107700  1.0  0.1215
  H  H136  1  0.690700  0.523400  0.106800  1.0  0.0732
  H  H137  1  0.749700  0.148600  0.340400  1.0  0.1053
  H  H138  1  0.704800  0.195400  0.390300  1.0  0.1087
  H  H139  1  0.796500  0.351300  0.376500  1.0  0.1139
  H  H140  1  0.840600  0.305500  0.327000  1.0  0.087
  H  H141  1  0.697000  0.284200  0.488200  1.0  0.1071
  H  H142  1  0.748000  0.239400  0.438600  1.0  0.0995
  H  H143  1  0.666200  0.386900  0.414000  1.0  0.103
  H  H144  1  0.608000  0.431500  0.463000  1.0  0.113
  H  H145  1  0.007400  0.927400  0.217700  1.0  0.0931
  H  H146  1  0.033300  0.827200  0.193000  1.0  0.1037
  H  H147  1  0.811100  0.844100  0.130100  1.0  0.0899
  H  H148  1  0.801200  0.944600  0.151400  1.0  0.1004
  H  H149  1  0.945100  0.631800  0.163100  1.0  0.0947
  H  H150  1  0.953500  0.735000  0.183900  1.0  0.1027
  H  H151  1  0.907300  0.760700  0.101600  1.0  0.1033
  H  H152  1  0.900500  0.660500  0.081100  1.0  0.1152
  H  H153  1  0.886200  0.266900  0.235500  1.0  0.083
  H  H154  1  0.894700  0.330800  0.205300  1.0  0.11
  H  H155  1  0.878800  0.193100  0.133000  1.0  0.1193
  H  H156  1  0.858300  0.132400  0.165300  1.0  0.076
  H  H157  1  0.881900  0.447500  0.143000  1.0  0.0643
  H  H158  1  0.871700  0.388000  0.175400  1.0  0.1168
  H  H159  1  0.942000  0.250700  0.106600  1.0  0.1183
  H  H160  1  0.952300  0.315100  0.075700  1.0  0.0824
  H  H161  1  0.092200  0.055000  0.249000  1.0  0.0771
  H  H162  1  0.285500  0.050600  0.244700  1.0  0.1218
  H  H163  1  0.279000  0.206400  0.223300  1.0  0.113
  H  H164  1  0.086500  0.206300  0.227100  1.0  0.0729
  H  H165  1  0.647400  0.042800  0.213700  1.0  0.0649
  H  H166  1  0.454700  0.039700  0.214200  1.0  0.135
  H  H167  1  0.456100  0.216000  0.246600  1.0  0.1205
  H  H168  1  0.647900  0.213100  0.245300  1.0  0.0726
  H  H169  1  0.371300  0.496500  0.616600  1.0  0.0798
  H  H170  1  0.179400  0.491900  0.619300  1.0  0.1018
  H  H171  1  0.170200  0.403900  0.532800  1.0  0.1222
  H  H172  1  0.366600  0.407400  0.532100  1.0  0.0784
  H  H173  1  0.809000  0.368600  0.549600  1.0  0.074
  H  H174  1  0.001400  0.368700  0.547700  1.0  0.1129
  H  H175  1  0.001100  0.525700  0.607700  1.0  0.1211
  H  H176  1  0.809300  0.523400  0.606800  1.0  0.0733
  H  H177  1  0.333700  0.241000  0.684200  1.0  0.0992
  H  H178  1  0.281800  0.199300  0.635300  1.0  0.1204
  H  H179  1  0.226500  0.361500  0.623100  1.0  0.1085
  H  H180  1  0.284100  0.402700  0.671500  1.0  0.1027
  H  H181  1  0.105800  0.125800  0.549800  1.0  0.1015
  H  H182  1  0.143500  0.172900  0.599300  1.0  0.1053
  H  H183  1  0.232500  0.315800  0.574800  1.0  0.0836
  H  H184  1  0.170600  0.272800  0.527400  1.0  0.0807
  H  H185  1  0.414800  0.595600  0.869800  1.0  0.1046
  H  H186  1  0.429100  0.696200  0.890300  1.0  0.1065
  H  H187  1  0.408300  0.726500  0.809000  1.0  0.0971
  H  H188  1  0.393000  0.626200  0.787100  1.0  0.1063
  H  H189  1  0.461000  0.914400  0.851000  1.0  0.0971
  H  H190  1  0.468600  0.815300  0.829900  1.0  0.1007
  H  H191  1  0.367800  0.785000  0.907200  1.0  0.1109
  H  H192  1  0.359000  0.884500  0.927900  1.0  0.0967
  H  H193  1  0.383500  0.411500  0.846800  1.0  0.0728
  H  H194  1  0.393900  0.350400  0.878600  1.0  0.1169
  H  H195  1  0.378900  0.210600  0.806000  1.0  0.119
  H  H196  1  0.364500  0.275700  0.776400  1.0  0.0693
  H  H197  1  0.375600  0.227000  0.936500  1.0  0.0763
  H  H198  1  0.357200  0.290500  0.905800  1.0  0.1222
  H  H199  1  0.453600  0.160300  0.836200  1.0  0.1211
  H  H200  1  0.462200  0.099400  0.868700  1.0  0.0724
  H  H201  1  0.153000  0.502000  0.796400  1.0  0.0683
  H  H202  1  0.959500  0.506300  0.795900  1.0  0.1229
  H  H203  1  0.960800  0.328500  0.763000  1.0  0.1088
  H  H204  1  0.153200  0.330600  0.763900  1.0  0.0751
  H  H205  1  0.593100  0.334500  0.782900  1.0  0.0785
  H  H206  1  0.786200  0.333000  0.784600  1.0  0.1222
  H  H207  1  0.786600  0.499800  0.773600  1.0  0.1177
  H  H208  1  0.594100  0.496000  0.772200  1.0  0.0625
  H  H209  1  0.862100  0.065200  0.397900  1.0  0.0717
  H  H210  1  0.667800  0.067500  0.395300  1.0  0.1255
  H  H211  1  0.665700  0.147400  0.482600  1.0  0.1112
  H  H212  1  0.857400  0.142800  0.483000  1.0  0.0789
  H  H213  1  0.301700  0.171000  0.469900  1.0  0.071
  H  H214  1  0.492400  0.177300  0.468900  1.0  0.0854
  H  H215  1  0.495000  0.039500  0.403700  1.0  0.0917
  H  H216  1  0.302500  0.037400  0.405100  1.0  0.0628
  H  H217  1  0.166300  0.241000  0.184200  1.0  0.0994
  H  H218  1  0.218200  0.199300  0.135300  1.0  0.1201
  H  H219  1  0.273500  0.361500  0.123100  1.0  0.1082
  H  H220  1  0.215900  0.402700  0.171500  1.0  0.1028
  H  H221  1  0.394200  0.125800  0.049800  1.0  0.1015
  H  H222  1  0.356500  0.172900  0.099300  1.0  0.1056
  H  H223  1  0.267500  0.315800  0.074800  1.0  0.0839
  H  H224  1  0.329400  0.272800  0.027400  1.0  0.0804
  H  H225  1  0.085200  0.595600  0.369800  1.0  0.1044
  H  H226  1  0.070900  0.696200  0.390300  1.0  0.1069
  H  H227  1  0.091700  0.726500  0.309000  1.0  0.0973
  H  H228  1  0.107000  0.626200  0.287100  1.0  0.106
  H  H229  1  0.039000  0.914400  0.351000  1.0  0.097
  H  H230  1  0.031400  0.815300  0.329900  1.0  0.1011
  H  H231  1  0.132200  0.785000  0.407200  1.0  0.1106
  H  H232  1  0.141000  0.884500  0.427900  1.0  0.0965
  H  H233  1  0.116500  0.411500  0.346800  1.0  0.0728
  H  H234  1  0.106100  0.350400  0.378600  1.0  0.117
  H  H235  1  0.121100  0.210600  0.306000  1.0  0.1189
  H  H236  1  0.135500  0.275700  0.276400  1.0  0.0692
  H  H237  1  0.124400  0.227000  0.436500  1.0  0.0763
  H  H238  1  0.142800  0.290500  0.405800  1.0  0.1221
  H  H239  1  0.046400  0.160300  0.336200  1.0  0.1212
  H  H240  1  0.037800  0.099400  0.368700  1.0  0.0724
  H  H241  1  0.347000  0.502000  0.296400  1.0  0.0687
  H  H242  1  0.540500  0.506300  0.295900  1.0  0.1231
  H  H243  1  0.539200  0.328500  0.263000  1.0  0.1089
  H  H244  1  0.346800  0.330600  0.263900  1.0  0.0747
  H  H245  1  0.906900  0.334500  0.282900  1.0  0.0786
  H  H246  1  0.713800  0.333000  0.284600  1.0  0.1222
  H  H247  1  0.713400  0.499800  0.273600  1.0  0.1179
  H  H248  1  0.905900  0.496000  0.272200  1.0  0.0624
  H  H249  1  0.637900  0.065200  0.897900  1.0  0.0717
  H  H250  1  0.832200  0.067500  0.895300  1.0  0.1258
  H  H251  1  0.834300  0.147400  0.982600  1.0  0.1113
  H  H252  1  0.642600  0.142800  0.983000  1.0  0.0789
  H  H253  1  0.198300  0.171000  0.969900  1.0  0.0709
  H  H254  1  0.007600  0.177300  0.968900  1.0  0.0861
  H  H255  1  0.005000  0.039500  0.903700  1.0  0.0913
  H  H256  1  0.197500  0.037400  0.905100  1.0  0.0629
  H  H257  1  0.250300  0.851400  0.659600  1.0  0.1038
  H  H258  1  0.295200  0.804600  0.609700  1.0  0.109
  H  H259  1  0.203500  0.648700  0.623500  1.0  0.1147
  H  H260  1  0.159400  0.694500  0.673000  1.0  0.0871
  H  H261  1  0.303000  0.715800  0.511800  1.0  0.1071
  H  H262  1  0.252000  0.760600  0.561400  1.0  0.1
  H  H263  1  0.333800  0.613100  0.586000  1.0  0.1028
  H  H264  1  0.392000  0.568500  0.537000  1.0  0.1128
  H  H265  1  0.992600  0.072600  0.782300  1.0  0.0935
  H  H266  1  0.966700  0.172800  0.807000  1.0  0.1033
  H  H267  1  0.188900  0.155900  0.869900  1.0  0.0899
  H  H268  1  0.198800  0.055400  0.848600  1.0  0.1005
  H  H269  1  0.054900  0.368200  0.836900  1.0  0.0948
  H  H270  1  0.046500  0.265000  0.816100  1.0  0.1033
  H  H271  1  0.092700  0.239300  0.898400  1.0  0.1028
  H  H272  1  0.099500  0.339500  0.918900  1.0  0.1151
  H  H273  1  0.113800  0.733100  0.764500  1.0  0.0835
  H  H274  1  0.105300  0.669200  0.794700  1.0  0.1106
  H  H275  1  0.121200  0.806900  0.867000  1.0  0.1193
  H  H276  1  0.141700  0.867600  0.834700  1.0  0.0755
  H  H277  1  0.118100  0.552500  0.857000  1.0  0.0645
  H  H278  1  0.128300  0.612000  0.824600  1.0  0.1168
  H  H279  1  0.058000  0.749300  0.893400  1.0  0.1192
  H  H280  1  0.047700  0.684900  0.924300  1.0  0.0816
  H  H281  1  0.907800  0.945000  0.751000  1.0  0.0769
  H  H282  1  0.714500  0.949400  0.755300  1.0  0.1231
  H  H283  1  0.721000  0.793600  0.776700  1.0  0.113
  H  H284  1  0.913500  0.793700  0.772900  1.0  0.0725
  H  H285  1  0.352600  0.957200  0.786300  1.0  0.0643
  H  H286  1  0.545300  0.960300  0.785800  1.0  0.135
  H  H287  1  0.543900  0.784000  0.753400  1.0  0.1205
  H  H288  1  0.352100  0.786900  0.754700  1.0  0.0724
  H  H289  1  0.628700  0.503500  0.383400  1.0  0.0797
  H  H290  1  0.820600  0.508100  0.380700  1.0  0.1026
  H  H291  1  0.829800  0.596100  0.467200  1.0  0.1211
  H  H292  1  0.633400  0.592600  0.467900  1.0  0.079
  H  H293  1  0.191000  0.631400  0.450400  1.0  0.0746
  H  H294  1  0.998600  0.631300  0.452300  1.0  0.1131
  H  H295  1  0.998900  0.474300  0.392300  1.0  0.1213
  H  H296  1  0.190700  0.476600  0.393200  1.0  0.0736
  H  H297  1  0.249700  0.851400  0.159600  1.0  0.1042
  H  H298  1  0.204800  0.804600  0.109700  1.0  0.109
  H  H299  1  0.296500  0.648700  0.123500  1.0  0.1147
  H  H300  1  0.340600  0.694500  0.173000  1.0  0.0868
  H  H301  1  0.197000  0.715800  0.011800  1.0  0.1068
  H  H302  1  0.248000  0.760600  0.061400  1.0  0.1
  H  H303  1  0.166200  0.613100  0.086000  1.0  0.1029
  H  H304  1  0.108000  0.568500  0.037000  1.0  0.1125
  H  H305  1  0.507400  0.072600  0.282300  1.0  0.0932
  H  H306  1  0.533300  0.172800  0.307000  1.0  0.1034
  H  H307  1  0.311100  0.155900  0.369900  1.0  0.0897
  H  H308  1  0.301200  0.055400  0.348600  1.0  0.1002
  H  H309  1  0.445100  0.368200  0.336900  1.0  0.0945
  H  H310  1  0.453500  0.265000  0.316100  1.0  0.1034
  H  H311  1  0.407300  0.239300  0.398400  1.0  0.1032
  H  H312  1  0.400500  0.339500  0.418900  1.0  0.1153
  H  H313  1  0.386200  0.733100  0.264500  1.0  0.0836
  H  H314  1  0.394700  0.669200  0.294700  1.0  0.1108
  H  H315  1  0.378800  0.806900  0.367000  1.0  0.1193
  H  H316  1  0.358300  0.867600  0.334700  1.0  0.0751
  H  H317  1  0.381900  0.552500  0.357000  1.0  0.0644
  H  H318  1  0.371700  0.612000  0.324600  1.0  0.1172
  H  H319  1  0.442000  0.749300  0.393400  1.0  0.1189
  H  H320  1  0.452300  0.684900  0.424300  1.0  0.0817
  H  H321  1  0.592200  0.945000  0.251000  1.0  0.0768
  H  H322  1  0.785500  0.949400  0.255300  1.0  0.1226
  H  H323  1  0.779000  0.793600  0.276700  1.0  0.1132
  H  H324  1  0.586500  0.793700  0.272900  1.0  0.0726
  H  H325  1  0.147400  0.957200  0.286300  1.0  0.0642
  H  H326  1  0.954700  0.960300  0.285800  1.0  0.1352
  H  H327  1  0.956100  0.784000  0.253400  1.0  0.1201
  H  H328  1  0.147900  0.786900  0.254700  1.0  0.0726
  H  H329  1  0.871300  0.503500  0.883400  1.0  0.0802
  H  H330  1  0.679400  0.508100  0.880700  1.0  0.1022
  H  H331  1  0.670200  0.596100  0.967200  1.0  0.1212
  H  H332  1  0.866600  0.592600  0.967900  1.0  0.0788
  H  H333  1  0.309000  0.631400  0.950400  1.0  0.0745
  H  H334  1  0.501400  0.631300  0.952300  1.0  0.1129
  H  H335  1  0.501100  0.474300  0.892300  1.0  0.121
  H  H336  1  0.309300  0.476600  0.893200  1.0  0.0736
  C  C337  1  0.812100  0.673270  0.816210  1.0  -0.0872
  C  C338  1  0.812000  0.734490  0.828100  1.0  -0.0589
  C  C339  1  0.780800  0.759570  0.857490  1.0  -0.1313
  C  C340  1  0.747900  0.724950  0.876650  1.0  0.0616
  C  C341  1  0.748900  0.663180  0.864670  1.0  -0.1104
  C  C342  1  0.781900  0.638510  0.835550  1.0  -0.0353
  C  C343  1  0.639400  0.806270  0.967760  1.0  -0.056
  C  C344  1  0.631000  0.835000  0.945430  1.0  -0.0962
  C  C345  1  0.658900  0.807700  0.915810  1.0  -0.1662
  C  C346  1  0.709300  0.752060  0.907990  1.0  0.1042
  C  C347  1  0.708200  0.723600  0.929620  1.0  -0.1922
  C  C348  1  0.672100  0.750200  0.958540  1.0  -0.0487
  C  C349  1  0.845100  0.646390  0.783750  1.0  0.6691
  C  C350  1  0.603700  0.836600  0.999790  1.0  0.6708
  C  C351  1  0.906400  0.400340  0.674110  1.0  -0.124
  C  C352  1  0.914300  0.378420  0.642820  1.0  -0.0797
  C  C353  1  0.921400  0.317760  0.630620  1.0  -0.0937
  C  C354  1  0.917700  0.276800  0.648070  1.0  0.029
  C  C355  1  0.909100  0.299680  0.678550  1.0  -0.1018
  C  C356  1  0.901400  0.360280  0.692010  1.0  -0.0673
  C  C357  1  0.920500  0.089170  0.607110  1.0  -0.0773
  C  C358  1  0.945200  0.111690  0.636990  1.0  -0.0898
  C  C359  1  0.947600  0.171300  0.649820  1.0  -0.141
  C  C360  1  0.920300  0.211580  0.634070  1.0  0.0695
  C  C361  1  0.888200  0.189000  0.604500  1.0  -0.1341
  C  C362  1  0.885600  0.129300  0.591830  1.0  -0.1238
  C  C363  1  0.892700  0.465460  0.688520  1.0  0.6688
  C  C364  1  0.923700  0.022300  0.592850  1.0  0.7106
  C  C365  1  0.881700  0.629460  0.661440  1.0  0.1787
  C  C366  1  0.888800  0.665960  0.642240  1.0  -0.1654
  C  C367  1  0.888500  0.727200  0.653440  1.0  0.073
  C  C368  1  0.879300  0.748670  0.685150  1.0  -0.1773
  C  C369  1  0.871200  0.709230  0.702690  1.0  0.1904
  C  C370  1  0.890200  0.787360  0.584140  1.0  0.1844
  C  C371  1  0.879500  0.748600  0.602580  1.0  -0.221
  C  C372  1  0.901100  0.766930  0.632760  1.0  0.0875
  C  C373  1  0.935100  0.824910  0.643450  1.0  -0.2056
  C  C374  1  0.941400  0.861090  0.623550  1.0  0.1787
  C  C375  1  0.613100  0.533190  0.710890  1.0  0.1843
  C  C376  1  0.496400  0.530030  0.710540  1.0  -0.1951
  C  C377  1  0.435500  0.582850  0.720150  1.0  0.0852
  C  C378  1  0.498100  0.635380  0.730160  1.0  -0.1664
  C  C379  1  0.613700  0.633760  0.729840  1.0  0.1817
  C  C380  1  0.132800  0.631980  0.718990  1.0  0.1557
  C  C381  1  0.248900  0.633260  0.717900  1.0  -0.1969
  C  C382  1  0.310800  0.583180  0.720610  1.0  0.0813
  C  C383  1  0.249300  0.534300  0.724450  1.0  -0.1868
  C  C384  1  0.133600  0.537110  0.725280  1.0  0.1855
  C  C385  1  0.321800  0.918600  0.084370  1.0  0.188
  C  C386  1  0.204100  0.918100  0.086180  1.0  -0.2168
  C  C387  1  0.142500  0.896300  0.060280  1.0  0.0701
  C  C388  1  0.203500  0.871500  0.035160  1.0  -0.1931
  C  C389  1  0.319400  0.873600  0.035050  1.0  0.1626
  C  C390  1  0.840200  0.859300  0.043700  1.0  0.091
  C  C391  1  0.957500  0.855600  0.043700  1.0  -0.1978
  C  C392  1  0.018200  0.895000  0.060250  1.0  0.2252
  C  C393  1  0.957600  0.933400  0.080800  1.0  -0.2127
  C  C394  1  0.839900  0.934400  0.079940  1.0  0.1122
  C  C395  1  0.687900  0.673270  0.316210  1.0  -0.0845
  C  C396  1  0.688000  0.734490  0.328100  1.0  -0.06
  C  C397  1  0.719200  0.759570  0.357490  1.0  -0.1319
  C  C398  1  0.752100  0.724950  0.376650  1.0  0.0615
  C  C399  1  0.751100  0.663180  0.364670  1.0  -0.11
  C  C400  1  0.718100  0.638510  0.335550  1.0  -0.0358
  C  C401  1  0.860600  0.806270  0.467760  1.0  -0.0572
  C  C402  1  0.869000  0.835000  0.445430  1.0  -0.0959
  C  C403  1  0.841100  0.807700  0.415810  1.0  -0.166
  C  C404  1  0.790700  0.752060  0.407990  1.0  0.1038
  C  C405  1  0.791800  0.723600  0.429620  1.0  -0.1927
  C  C406  1  0.827900  0.750200  0.458540  1.0  -0.0491
  C  C407  1  0.654900  0.646390  0.283750  1.0  0.6698
  C  C408  1  0.896300  0.836600  0.499790  1.0  0.6708
  C  C409  1  0.593600  0.400340  0.174110  1.0  -0.125
  C  C410  1  0.585700  0.378420  0.142820  1.0  -0.0792
  C  C411  1  0.578600  0.317760  0.130620  1.0  -0.0938
  C  C412  1  0.582300  0.276800  0.148070  1.0  0.0293
  C  C413  1  0.590900  0.299680  0.178550  1.0  -0.1016
  C  C414  1  0.598600  0.360280  0.192010  1.0  -0.0664
  C  C415  1  0.579500  0.089170  0.107110  1.0  -0.0774
  C  C416  1  0.554800  0.111690  0.136990  1.0  -0.0897
  C  C417  1  0.552400  0.171300  0.149820  1.0  -0.1402
  C  C418  1  0.579700  0.211580  0.134070  1.0  0.0695
  C  C419  1  0.611800  0.189000  0.104500  1.0  -0.1358
  C  C420  1  0.614400  0.129300  0.091830  1.0  -0.1248
  C  C421  1  0.607300  0.465460  0.188520  1.0  0.6688
  C  C422  1  0.576300  0.022300  0.092850  1.0  0.7102
  C  C423  1  0.618300  0.629460  0.161440  1.0  0.1788
  C  C424  1  0.611200  0.665960  0.142240  1.0  -0.1651
  C  C425  1  0.611500  0.727200  0.153440  1.0  0.0733
  C  C426  1  0.620700  0.748670  0.185150  1.0  -0.1774
  C  C427  1  0.628800  0.709230  0.202690  1.0  0.1901
  C  C428  1  0.609800  0.787360  0.084140  1.0  0.1845
  C  C429  1  0.620500  0.748600  0.102580  1.0  -0.2207
  C  C430  1  0.598900  0.766930  0.132760  1.0  0.0876
  C  C431  1  0.564900  0.824910  0.143450  1.0  -0.2057
  C  C432  1  0.558600  0.861090  0.123550  1.0  0.1793
  C  C433  1  0.886900  0.533190  0.210890  1.0  0.1839
  C  C434  1  0.003600  0.530030  0.210540  1.0  -0.1947
  C  C435  1  0.064500  0.582850  0.220150  1.0  0.0855
  C  C436  1  0.001900  0.635380  0.230160  1.0  -0.1661
  C  C437  1  0.886300  0.633760  0.229840  1.0  0.1809
  C  C438  1  0.367200  0.631980  0.218990  1.0  0.1565
  C  C439  1  0.251100  0.633260  0.217900  1.0  -0.1965
  C  C440  1  0.189200  0.583180  0.220610  1.0  0.0816
  C  C441  1  0.250700  0.534300  0.224450  1.0  -0.1882
  C  C442  1  0.366400  0.537110  0.225280  1.0  0.1863
  C  C443  1  0.178200  0.918600  0.584370  1.0  0.188
  C  C444  1  0.295900  0.918100  0.586180  1.0  -0.2165
  C  C445  1  0.357500  0.896300  0.560280  1.0  0.0703
  C  C446  1  0.296500  0.871500  0.535160  1.0  -0.1937
  C  C447  1  0.180600  0.873600  0.535050  1.0  0.1628
  C  C448  1  0.659800  0.859300  0.543700  1.0  0.0913
  C  C449  1  0.542500  0.855600  0.543700  1.0  -0.1984
  C  C450  1  0.481800  0.895000  0.560250  1.0  0.2252
  C  C451  1  0.542400  0.933400  0.580800  1.0  -0.2139
  C  C452  1  0.660100  0.934400  0.579940  1.0  0.1118
  C  C453  1  0.699100  0.222210  0.828150  1.0  -0.1407
  C  C454  1  0.740800  0.189470  0.847450  1.0  -0.0444
  C  C455  1  0.768400  0.217800  0.877470  1.0  -0.103
  C  C456  1  0.756500  0.278610  0.888270  1.0  0.0327
  C  C457  1  0.714100  0.310520  0.869370  1.0  -0.1033
  C  C458  1  0.686800  0.282710  0.839620  1.0  -0.027
  C  C459  1  0.852200  0.363000  0.980770  1.0  -0.1297
  C  C460  1  0.810200  0.305000  0.973260  1.0  -0.0661
  C  C461  1  0.779200  0.278200  0.943350  1.0  -0.1242
  C  C462  1  0.787700  0.307800  0.920680  1.0  0.0093
  C  C463  1  0.828700  0.365640  0.928840  1.0  -0.1102
  C  C464  1  0.862600  0.393100  0.958420  1.0  -0.089
  C  C465  1  0.669300  0.192900  0.795910  1.0  0.6786
  C  C466  1  0.883000  0.390700  0.013300  1.0  0.6758
  C  C467  1  0.596700  0.946780  0.686480  1.0  -0.102
  C  C468  1  0.529200  0.911300  0.699370  1.0  -0.0426
  C  C469  1  0.515600  0.850400  0.684840  1.0  -0.1312
  C  C470  1  0.574300  0.825100  0.658620  1.0  -0.0183
  C  C471  1  0.645300  0.860800  0.647180  1.0  -0.1211
  C  C472  1  0.653500  0.921100  0.660450  1.0  -0.0401
  C  C473  1  0.575700  0.636410  0.619880  1.0  -0.1516
  C  C474  1  0.561800  0.657790  0.650640  1.0  -0.0241
  C  C475  1  0.558200  0.720260  0.663150  1.0  -0.1031
  C  C476  1  0.571600  0.758740  0.645460  1.0  0.0563
  C  C477  1  0.585400  0.735010  0.614240  1.0  -0.0992
  C  C478  1  0.588600  0.675090  0.601880  1.0  -0.0376
  C  C479  1  0.610300  0.012630  0.701490  1.0  0.6749
  C  C480  1  0.582600  0.570220  0.606650  1.0  0.6846
  C  C481  1  0.617300  0.251740  0.714550  1.0  0.1694
  C  C482  1  0.609900  0.290110  0.696460  1.0  -0.1619
  C  C483  1  0.609100  0.269480  0.664840  1.0  0.0659
  C  C484  1  0.620800  0.209570  0.653920  1.0  -0.1813
  C  C485  1  0.631900  0.172980  0.673480  1.0  0.1834
  C  C486  1  0.606100  0.406940  0.635260  1.0  0.2006
  C  C487  1  0.613000  0.371220  0.654960  1.0  -0.2129
  C  C488  1  0.597800  0.311130  0.644900  1.0  0.0815
  C  C489  1  0.571700  0.291030  0.614700  1.0  -0.1742
  C  C490  1  0.565400  0.330030  0.596130  1.0  0.1698
  C  C491  1  0.369800  0.085600  0.743290  1.0  0.1806
  C  C492  1  0.253500  0.083000  0.741210  1.0  -0.2014
  C  C493  1  0.195400  0.129170  0.733790  1.0  0.1202
  C  C494  1  0.257300  0.174750  0.728440  1.0  -0.2097
  C  C495  1  0.373300  0.174280  0.730620  1.0  0.1761
  C  C496  1  0.891700  0.078200  0.720990  1.0  0.1855
  C  C497  1  0.007900  0.075800  0.721140  1.0  -0.2058
  C  C498  1  0.068800  0.128130  0.731910  1.0  0.1055
  C  C499  1  0.007100  0.179570  0.740300  1.0  -0.2002
  C  C500  1  0.891800  0.177500  0.739380  1.0  0.1859
  C  C501  1  0.169100  0.476900  0.099430  1.0  0.172
  C  C502  1  0.284800  0.475300  0.100880  1.0  -0.1673
  C  C503  1  0.349000  0.450330  0.076160  1.0  0.0714
  C  C504  1  0.290600  0.423300  0.050170  1.0  -0.1967
  C  C505  1  0.171700  0.425100  0.049970  1.0  0.174
  C  C506  1  0.652100  0.401700  0.060780  1.0  0.1793
  C  C507  1  0.536300  0.401300  0.059830  1.0  -0.2039
  C  C508  1  0.474700  0.448970  0.076730  1.0  0.0961
  C  C509  1  0.535900  0.493700  0.094880  1.0  -0.2266
  C  C510  1  0.651500  0.491800  0.094340  1.0  0.1868
  C  C511  1  0.800900  0.222210  0.328150  1.0  -0.1407
  C  C512  1  0.759200  0.189470  0.347450  1.0  -0.0443
  C  C513  1  0.731600  0.217800  0.377470  1.0  -0.1037
  C  C514  1  0.743500  0.278610  0.388270  1.0  0.0328
  C  C515  1  0.785900  0.310520  0.369370  1.0  -0.1033
  C  C516  1  0.813200  0.282710  0.339620  1.0  -0.0268
  C  C517  1  0.647800  0.363000  0.480770  1.0  -0.1299
  C  C518  1  0.689800  0.305000  0.473260  1.0  -0.0657
  C  C519  1  0.720800  0.278200  0.443350  1.0  -0.1236
  C  C520  1  0.712300  0.307800  0.420680  1.0  0.0081
  C  C521  1  0.671300  0.365640  0.428840  1.0  -0.1096
  C  C522  1  0.637400  0.393100  0.458420  1.0  -0.0891
  C  C523  1  0.830700  0.192900  0.295910  1.0  0.6782
  C  C524  1  0.617000  0.390700  0.513300  1.0  0.6757
  C  C525  1  0.903300  0.946780  0.186480  1.0  -0.1014
  C  C526  1  0.970800  0.911300  0.199370  1.0  -0.0441
  C  C527  1  0.984400  0.850400  0.184840  1.0  -0.1315
  C  C528  1  0.925700  0.825100  0.158620  1.0  -0.0176
  C  C529  1  0.854700  0.860800  0.147180  1.0  -0.1209
  C  C530  1  0.846500  0.921100  0.160450  1.0  -0.0392
  C  C531  1  0.924300  0.636410  0.119880  1.0  -0.1516
  C  C532  1  0.938200  0.657790  0.150640  1.0  -0.0245
  C  C533  1  0.941800  0.720260  0.163150  1.0  -0.1023
  C  C534  1  0.928400  0.758740  0.145460  1.0  0.0564
  C  C535  1  0.914600  0.735010  0.114240  1.0  -0.0991
  C  C536  1  0.911400  0.675090  0.101880  1.0  -0.0367
  C  C537  1  0.889700  0.012630  0.201490  1.0  0.6743
  C  C538  1  0.917400  0.570220  0.106650  1.0  0.684
  C  C539  1  0.882700  0.251740  0.214550  1.0  0.1698
  C  C540  1  0.890100  0.290110  0.196460  1.0  -0.162
  C  C541  1  0.890900  0.269480  0.164840  1.0  0.0667
  C  C542  1  0.879200  0.209570  0.153920  1.0  -0.1823
  C  C543  1  0.868100  0.172980  0.173480  1.0  0.1833
  C  C544  1  0.893900  0.406940  0.135260  1.0  0.2003
  C  C545  1  0.887000  0.371220  0.154960  1.0  -0.2133
  C  C546  1  0.902200  0.311130  0.144900  1.0  0.0812
  C  C547  1  0.928300  0.291030  0.114700  1.0  -0.175
  C  C548  1  0.934600  0.330030  0.096130  1.0  0.1706
  C  C549  1  0.130200  0.085600  0.243290  1.0  0.18
  C  C550  1  0.246500  0.083000  0.241210  1.0  -0.2008
  C  C551  1  0.304600  0.129170  0.233790  1.0  0.1188
  C  C552  1  0.242700  0.174750  0.228440  1.0  -0.2093
  C  C553  1  0.126700  0.174280  0.230620  1.0  0.1759
  C  C554  1  0.608300  0.078200  0.220990  1.0  0.186
  C  C555  1  0.492100  0.075800  0.221140  1.0  -0.2059
  C  C556  1  0.431200  0.128130  0.231910  1.0  0.1042
  C  C557  1  0.492900  0.179570  0.240300  1.0  -0.1999
  C  C558  1  0.608200  0.177500  0.239380  1.0  0.1859
  C  C559  1  0.330900  0.476900  0.599430  1.0  0.1736
  C  C560  1  0.215200  0.475300  0.600880  1.0  -0.1676
  C  C561  1  0.151000  0.450330  0.576160  1.0  0.0724
  C  C562  1  0.209400  0.423300  0.550170  1.0  -0.197
  C  C563  1  0.328300  0.425100  0.549970  1.0  0.1741
  C  C564  1  0.847900  0.401700  0.560780  1.0  0.1788
  C  C565  1  0.963700  0.401300  0.559830  1.0  -0.2042
  C  C566  1  0.025300  0.448970  0.576730  1.0  0.0959
  C  C567  1  0.964100  0.493700  0.594880  1.0  -0.2254
  C  C568  1  0.848500  0.491800  0.594340  1.0  0.1862
  C  C569  1  0.312100  0.326730  0.683790  1.0  -0.087
  C  C570  1  0.312000  0.265510  0.671900  1.0  -0.0576
  C  C571  1  0.280800  0.240430  0.642510  1.0  -0.1317
  C  C572  1  0.247900  0.275050  0.623350  1.0  0.0628
  C  C573  1  0.248900  0.336820  0.635330  1.0  -0.1114
  C  C574  1  0.281900  0.361490  0.664450  1.0  -0.0358
  C  C575  1  0.139400  0.193730  0.532240  1.0  -0.0581
  C  C576  1  0.131000  0.165000  0.554570  1.0  -0.0967
  C  C577  1  0.158900  0.192300  0.584190  1.0  -0.1657
  C  C578  1  0.209300  0.247940  0.592010  1.0  0.105
  C  C579  1  0.208200  0.276400  0.570380  1.0  -0.1925
  C  C580  1  0.172100  0.249800  0.541460  1.0  -0.0484
  C  C581  1  0.345100  0.353610  0.716250  1.0  0.6687
  C  C582  1  0.103700  0.163400  0.500210  1.0  0.6711
  C  C583  1  0.406400  0.599660  0.825890  1.0  -0.1224
  C  C584  1  0.414300  0.621580  0.857180  1.0  -0.0797
  C  C585  1  0.421400  0.682240  0.869380  1.0  -0.0949
  C  C586  1  0.417700  0.723200  0.851930  1.0  0.0293
  C  C587  1  0.409100  0.700320  0.821450  1.0  -0.102
  C  C588  1  0.401400  0.639720  0.807990  1.0  -0.0649
  C  C589  1  0.420500  0.910830  0.892890  1.0  -0.0747
  C  C590  1  0.445200  0.888310  0.863010  1.0  -0.0918
  C  C591  1  0.447600  0.828700  0.850180  1.0  -0.1425
  C  C592  1  0.420300  0.788420  0.865930  1.0  0.0696
  C  C593  1  0.388200  0.811000  0.895500  1.0  -0.1331
  C  C594  1  0.385600  0.870700  0.908170  1.0  -0.1239
  C  C595  1  0.392700  0.534540  0.811480  1.0  0.6688
  C  C596  1  0.423700  0.977700  0.907150  1.0  0.7093
  C  C597  1  0.381700  0.370540  0.838560  1.0  0.1787
  C  C598  1  0.388800  0.334040  0.857760  1.0  -0.1659
  C  C599  1  0.388500  0.272800  0.846560  1.0  0.0722
  C  C600  1  0.379300  0.251330  0.814850  1.0  -0.1776
  C  C601  1  0.371200  0.290770  0.797310  1.0  0.1904
  C  C602  1  0.390200  0.212640  0.915860  1.0  0.1839
  C  C603  1  0.379500  0.251400  0.897420  1.0  -0.2215
  C  C604  1  0.401100  0.233070  0.867240  1.0  0.0884
  C  C605  1  0.435100  0.175090  0.856550  1.0  -0.2051
  C  C606  1  0.441400  0.138910  0.876450  1.0  0.1795
  C  C607  1  0.113100  0.466810  0.789110  1.0  0.184
  C  C608  1  0.996400  0.469970  0.789460  1.0  -0.1956
  C  C609  1  0.935500  0.417150  0.779850  1.0  0.0852
  C  C610  1  0.998100  0.364620  0.769840  1.0  -0.1661
  C  C611  1  0.113700  0.366240  0.770160  1.0  0.1815
  C  C612  1  0.632800  0.368020  0.781010  1.0  0.1562
  C  C613  1  0.748900  0.366740  0.782100  1.0  -0.1958
  C  C614  1  0.810800  0.416820  0.779390  1.0  0.0818
  C  C615  1  0.749300  0.465700  0.775550  1.0  -0.1859
  C  C616  1  0.633600  0.462890  0.774720  1.0  0.1848
  C  C617  1  0.821800  0.081400  0.415630  1.0  0.1884
  C  C618  1  0.704100  0.081900  0.413820  1.0  -0.2158
  C  C619  1  0.642500  0.103700  0.439720  1.0  0.069
  C  C620  1  0.703500  0.128500  0.464840  1.0  -0.1917
  C  C621  1  0.819400  0.126400  0.464950  1.0  0.1619
  C  C622  1  0.340200  0.140700  0.456300  1.0  0.0904
  C  C623  1  0.457500  0.144400  0.456300  1.0  -0.1942
  C  C624  1  0.518200  0.105000  0.439750  1.0  0.2281
  C  C625  1  0.457600  0.066600  0.419200  1.0  -0.215
  C  C626  1  0.339900  0.065600  0.420060  1.0  0.1108
  C  C627  1  0.187900  0.326730  0.183790  1.0  -0.0862
  C  C628  1  0.188000  0.265510  0.171900  1.0  -0.0585
  C  C629  1  0.219200  0.240430  0.142510  1.0  -0.1323
  C  C630  1  0.252100  0.275050  0.123350  1.0  0.0626
  C  C631  1  0.251100  0.336820  0.135330  1.0  -0.1111
  C  C632  1  0.218100  0.361490  0.164450  1.0  -0.0361
  C  C633  1  0.360600  0.193730  0.032240  1.0  -0.0592
  C  C634  1  0.369000  0.165000  0.054570  1.0  -0.0961
  C  C635  1  0.341100  0.192300  0.084190  1.0  -0.1656
  C  C636  1  0.290700  0.247940  0.092010  1.0  0.1035
  C  C637  1  0.291800  0.276400  0.070380  1.0  -0.1934
  C  C638  1  0.327900  0.249800  0.041460  1.0  -0.0478
  C  C639  1  0.154900  0.353610  0.216250  1.0  0.6693
  C  C640  1  0.396300  0.163400  0.000210  1.0  0.6707
  C  C641  1  0.093600  0.599660  0.325890  1.0  -0.124
  C  C642  1  0.085700  0.621580  0.357180  1.0  -0.0793
  C  C643  1  0.078600  0.682240  0.369380  1.0  -0.0951
  C  C644  1  0.082300  0.723200  0.351930  1.0  0.0296
  C  C645  1  0.090900  0.700320  0.321450  1.0  -0.102
  C  C646  1  0.098600  0.639720  0.307990  1.0  -0.064
  C  C647  1  0.079500  0.910830  0.392890  1.0  -0.0747
  C  C648  1  0.054800  0.888310  0.363010  1.0  -0.0917
  C  C649  1  0.052400  0.828700  0.350180  1.0  -0.1409
  C  C650  1  0.079700  0.788420  0.365930  1.0  0.0696
  C  C651  1  0.111800  0.811000  0.395500  1.0  -0.1344
  C  C652  1  0.114400  0.870700  0.408170  1.0  -0.1245
  C  C653  1  0.107300  0.534540  0.311480  1.0  0.6688
  C  C654  1  0.076300  0.977700  0.407150  1.0  0.7089
  C  C655  1  0.118300  0.370540  0.338560  1.0  0.1784
  C  C656  1  0.111200  0.334040  0.357760  1.0  -0.1662
  C  C657  1  0.111500  0.272800  0.346560  1.0  0.0725
  C  C658  1  0.120700  0.251330  0.314850  1.0  -0.1777
  C  C659  1  0.128800  0.290770  0.297310  1.0  0.19
  C  C660  1  0.109800  0.212640  0.415860  1.0  0.1844
  C  C661  1  0.120500  0.251400  0.397420  1.0  -0.2209
  C  C662  1  0.098900  0.233070  0.367240  1.0  0.0885
  C  C663  1  0.064900  0.175090  0.356550  1.0  -0.2052
  C  C664  1  0.058600  0.138910  0.376450  1.0  0.1803
  C  C665  1  0.386900  0.466810  0.289110  1.0  0.1835
  C  C666  1  0.503600  0.469970  0.289460  1.0  -0.1953
  C  C667  1  0.564500  0.417150  0.279850  1.0  0.0853
  C  C668  1  0.501900  0.364620  0.269840  1.0  -0.1653
  C  C669  1  0.386300  0.366240  0.270160  1.0  0.1804
  C  C670  1  0.867200  0.368020  0.281010  1.0  0.1571
  C  C671  1  0.751100  0.366740  0.282100  1.0  -0.1955
  C  C672  1  0.689200  0.416820  0.279390  1.0  0.0823
  C  C673  1  0.750700  0.465700  0.275550  1.0  -0.1871
  C  C674  1  0.866400  0.462890  0.274720  1.0  0.1857
  C  C675  1  0.678200  0.081400  0.915630  1.0  0.1887
  C  C676  1  0.795900  0.081900  0.913820  1.0  -0.2164
  C  C677  1  0.857500  0.103700  0.939720  1.0  0.0697
  C  C678  1  0.796500  0.128500  0.964840  1.0  -0.1924
  C  C679  1  0.680600  0.126400  0.964950  1.0  0.1609
  C  C680  1  0.159800  0.140700  0.956300  1.0  0.0909
  C  C681  1  0.042500  0.144400  0.956300  1.0  -0.1951
  C  C682  1  0.981800  0.105000  0.939750  1.0  0.2271
  C  C683  1  0.042400  0.066600  0.919200  1.0  -0.2155
  C  C684  1  0.160100  0.065600  0.920060  1.0  0.1102
  C  C685  1  0.199100  0.777790  0.671850  1.0  -0.1396
  C  C686  1  0.240800  0.810530  0.652550  1.0  -0.0444
  C  C687  1  0.268400  0.782200  0.622530  1.0  -0.103
  C  C688  1  0.256500  0.721390  0.611730  1.0  0.0324
  C  C689  1  0.214100  0.689480  0.630630  1.0  -0.1042
  C  C690  1  0.186800  0.717290  0.660380  1.0  -0.0266
  C  C691  1  0.352200  0.637000  0.519230  1.0  -0.1298
  C  C692  1  0.310200  0.695000  0.526740  1.0  -0.0663
  C  C693  1  0.279200  0.721800  0.556650  1.0  -0.1232
  C  C694  1  0.287700  0.692200  0.579320  1.0  0.0084
  C  C695  1  0.328700  0.634360  0.571160  1.0  -0.1109
  C  C696  1  0.362600  0.606900  0.541580  1.0  -0.0887
  C  C697  1  0.169300  0.807100  0.704090  1.0  0.6788
  C  C698  1  0.383000  0.609300  0.486700  1.0  0.6753
  C  C699  1  0.096700  0.053220  0.813520  1.0  -0.1024
  C  C700  1  0.029200  0.088700  0.800630  1.0  -0.0434
  C  C701  1  0.015600  0.149600  0.815160  1.0  -0.132
  C  C702  1  0.074300  0.174900  0.841380  1.0  -0.0184
  C  C703  1  0.145300  0.139200  0.852820  1.0  -0.1198
  C  C704  1  0.153500  0.078900  0.839550  1.0  -0.0405
  C  C705  1  0.075700  0.363590  0.880120  1.0  -0.151
  C  C706  1  0.061800  0.342210  0.849360  1.0  -0.0242
  C  C707  1  0.058200  0.279740  0.836850  1.0  -0.1025
  C  C708  1  0.071600  0.241260  0.854540  1.0  0.0564
  C  C709  1  0.085400  0.264990  0.885760  1.0  -0.0997
  C  C710  1  0.088600  0.324910  0.898120  1.0  -0.0388
  C  C711  1  0.110300  0.987370  0.798510  1.0  0.6765
  C  C712  1  0.082600  0.429780  0.893350  1.0  0.6837
  C  C713  1  0.117300  0.748260  0.785450  1.0  0.1688
  C  C714  1  0.109900  0.709890  0.803540  1.0  -0.1618
  C  C715  1  0.109100  0.730520  0.835160  1.0  0.0659
  C  C716  1  0.120800  0.790430  0.846080  1.0  -0.1832
  C  C717  1  0.131900  0.827020  0.826520  1.0  0.1845
  C  C718  1  0.106100  0.593060  0.864740  1.0  0.2018
  C  C719  1  0.113000  0.628780  0.845040  1.0  -0.2121
  C  C720  1  0.097800  0.688870  0.855100  1.0  0.0818
  C  C721  1  0.071700  0.708970  0.885300  1.0  -0.1749
  C  C722  1  0.065400  0.669970  0.903870  1.0  0.1695
  C  C723  1  0.869800  0.914400  0.756710  1.0  0.1811
  C  C724  1  0.753500  0.917000  0.758790  1.0  -0.2008
  C  C725  1  0.695400  0.870830  0.766210  1.0  0.1207
  C  C726  1  0.757300  0.825250  0.771560  1.0  -0.2098
  C  C727  1  0.873300  0.825720  0.769380  1.0  0.1758
  C  C728  1  0.391700  0.921800  0.779010  1.0  0.1856
  C  C729  1  0.507900  0.924200  0.778860  1.0  -0.2062
  C  C730  1  0.568800  0.871870  0.768090  1.0  0.1046
  C  C731  1  0.507100  0.820430  0.759700  1.0  -0.1985
  C  C732  1  0.391800  0.822500  0.760620  1.0  0.1855
  C  C733  1  0.669100  0.523100  0.400570  1.0  0.171
  C  C734  1  0.784800  0.524700  0.399120  1.0  -0.1685
  C  C735  1  0.849000  0.549670  0.423840  1.0  0.0713
  C  C736  1  0.790600  0.576700  0.449830  1.0  -0.1962
  C  C737  1  0.671700  0.574900  0.450030  1.0  0.1722
  C  C738  1  0.152100  0.598300  0.439220  1.0  0.1783
  C  C739  1  0.036300  0.598700  0.440170  1.0  -0.204
  C  C740  1  0.974700  0.551030  0.423270  1.0  0.0962
  C  C741  1  0.035900  0.506300  0.405120  1.0  -0.2266
  C  C742  1  0.151500  0.508200  0.405660  1.0  0.1868
  C  C743  1  0.300900  0.777790  0.171850  1.0  -0.1396
  C  C744  1  0.259200  0.810530  0.152550  1.0  -0.0452
  C  C745  1  0.231600  0.782200  0.122530  1.0  -0.1031
  C  C746  1  0.243500  0.721390  0.111730  1.0  0.0323
  C  C747  1  0.285900  0.689480  0.130630  1.0  -0.1043
  C  C748  1  0.313200  0.717290  0.160380  1.0  -0.026
  C  C749  1  0.147800  0.637000  0.019230  1.0  -0.1303
  C  C750  1  0.189800  0.695000  0.026740  1.0  -0.0665
  C  C751  1  0.220800  0.721800  0.056650  1.0  -0.1231
  C  C752  1  0.212300  0.692200  0.079320  1.0  0.0078
  C  C753  1  0.171300  0.634360  0.071160  1.0  -0.1104
  C  C754  1  0.137400  0.606900  0.041580  1.0  -0.0891
  C  C755  1  0.330700  0.807100  0.204090  1.0  0.6786
  C  C756  1  0.117000  0.609300  0.986700  1.0  0.6752
  C  C757  1  0.403300  0.053220  0.313520  1.0  -0.1016
  C  C758  1  0.470800  0.088700  0.300630  1.0  -0.044
  C  C759  1  0.484400  0.149600  0.315160  1.0  -0.1323
  C  C760  1  0.425700  0.174900  0.341380  1.0  -0.0176
  C  C761  1  0.354700  0.139200  0.352820  1.0  -0.1191
  C  C762  1  0.346500  0.078900  0.339550  1.0  -0.0394
  C  C763  1  0.424300  0.363590  0.380120  1.0  -0.1513
  C  C764  1  0.438200  0.342210  0.349360  1.0  -0.0243
  C  C765  1  0.441800  0.279740  0.336850  1.0  -0.1021
  C  C766  1  0.428400  0.241260  0.354540  1.0  0.0565
  C  C767  1  0.414600  0.264990  0.385760  1.0  -0.0995
  C  C768  1  0.411400  0.324910  0.398120  1.0  -0.0396
  C  C769  1  0.389700  0.987370  0.298510  1.0  0.6761
  C  C770  1  0.417400  0.429780  0.393350  1.0  0.6833
  C  C771  1  0.382700  0.748260  0.285450  1.0  0.169
  C  C772  1  0.390100  0.709890  0.303540  1.0  -0.162
  C  C773  1  0.390900  0.730520  0.335160  1.0  0.0667
  C  C774  1  0.379200  0.790430  0.346080  1.0  -0.1836
  C  C775  1  0.368100  0.827020  0.326520  1.0  0.1839
  C  C776  1  0.393900  0.593060  0.364740  1.0  0.2017
  C  C777  1  0.387000  0.628780  0.345040  1.0  -0.2128
  C  C778  1  0.402200  0.688870  0.355100  1.0  0.0814
  C  C779  1  0.428300  0.708970  0.385300  1.0  -0.1743
  C  C780  1  0.434600  0.669970  0.403870  1.0  0.171
  C  C781  1  0.630200  0.914400  0.256710  1.0  0.1804
  C  C782  1  0.746500  0.917000  0.258790  1.0  -0.2004
  C  C783  1  0.804600  0.870830  0.266210  1.0  0.1188
  C  C784  1  0.742700  0.825250  0.271560  1.0  -0.2094
  C  C785  1  0.626700  0.825720  0.269380  1.0  0.1754
  C  C786  1  0.108300  0.921800  0.279010  1.0  0.1862
  C  C787  1  0.992100  0.924200  0.278860  1.0  -0.2067
  C  C788  1  0.931200  0.871870  0.268090  1.0  0.1045
  C  C789  1  0.992900  0.820430  0.259700  1.0  -0.1984
  C  C790  1  0.108200  0.822500  0.260620  1.0  0.1859
  C  C791  1  0.830900  0.523100  0.900570  1.0  0.1726
  C  C792  1  0.715200  0.524700  0.899120  1.0  -0.169
  C  C793  1  0.651000  0.549670  0.923840  1.0  0.0721
  C  C794  1  0.709400  0.576700  0.949830  1.0  -0.1976
  C  C795  1  0.828300  0.574900  0.950030  1.0  0.1736
  C  C796  1  0.347900  0.598300  0.939220  1.0  0.1774
  C  C797  1  0.463700  0.598700  0.940170  1.0  -0.2039
  C  C798  1  0.525300  0.551030  0.923270  1.0  0.0966
  C  C799  1  0.464100  0.506300  0.905120  1.0  -0.2258
  C  C800  1  0.348500  0.508200  0.905660  1.0  0.1857
  N  N801  1  0.872100  0.649920  0.691770  1.0  -0.3718
  N  N802  1  0.919600  0.842960  0.594050  1.0  -0.3464
  N  N803  1  0.673100  0.583020  0.720840  1.0  -0.3629
  N  N804  1  0.073200  0.584660  0.722680  1.0  -0.3604
  N  N805  1  0.379400  0.897780  0.059440  1.0  -0.3443
  N  N806  1  0.781100  0.899680  0.060170  1.0  -0.2901
  N  N807  1  0.627900  0.649920  0.191770  1.0  -0.3721
  N  N808  1  0.580400  0.842960  0.094050  1.0  -0.3462
  N  N809  1  0.826900  0.583020  0.220840  1.0  -0.3622
  N  N810  1  0.426800  0.584660  0.222680  1.0  -0.3562
  N  N811  1  0.120600  0.897780  0.559440  1.0  -0.3432
  N  N812  1  0.718900  0.899680  0.560170  1.0  -0.2918
  N  N813  1  0.629300  0.193110  0.703400  1.0  -0.3587
  N  N814  1  0.583700  0.387940  0.606500  1.0  -0.3579
  N  N815  1  0.430900  0.130270  0.737530  1.0  -0.35
  N  N816  1  0.832300  0.126850  0.730440  1.0  -0.3555
  N  N817  1  0.112700  0.451110  0.074290  1.0  -0.3291
  N  N818  1  0.711400  0.447710  0.077050  1.0  -0.3358
  N  N819  1  0.870700  0.193110  0.203400  1.0  -0.359
  N  N820  1  0.916300  0.387940  0.106500  1.0  -0.3578
  N  N821  1  0.069100  0.130270  0.237530  1.0  -0.3504
  N  N822  1  0.667700  0.126850  0.230440  1.0  -0.3549
  N  N823  1  0.387300  0.451110  0.574290  1.0  -0.3302
  N  N824  1  0.788600  0.447710  0.577050  1.0  -0.3351
  N  N825  1  0.372100  0.350080  0.808230  1.0  -0.3734
  N  N826  1  0.419600  0.157040  0.905950  1.0  -0.3437
  N  N827  1  0.173100  0.416980  0.779160  1.0  -0.363
  N  N828  1  0.573200  0.415340  0.777320  1.0  -0.36
  N  N829  1  0.879400  0.102220  0.440560  1.0  -0.3433
  N  N830  1  0.281100  0.100320  0.439830  1.0  -0.2923
  N  N831  1  0.127900  0.350080  0.308230  1.0  -0.3736
  N  N832  1  0.080400  0.157040  0.405950  1.0  -0.3438
  N  N833  1  0.326900  0.416980  0.279160  1.0  -0.3623
  N  N834  1  0.926800  0.415340  0.277320  1.0  -0.3562
  N  N835  1  0.620600  0.102220  0.940560  1.0  -0.3435
  N  N836  1  0.218900  0.100320  0.939830  1.0  -0.2913
  N  N837  1  0.129300  0.806890  0.796600  1.0  -0.3594
  N  N838  1  0.083700  0.612060  0.893500  1.0  -0.354
  N  N839  1  0.930900  0.869730  0.762470  1.0  -0.349
  N  N840  1  0.332300  0.873150  0.769560  1.0  -0.3557
  N  N841  1  0.612700  0.548890  0.425710  1.0  -0.3295
  N  N842  1  0.211400  0.552290  0.422950  1.0  -0.3361
  N  N843  1  0.370700  0.806890  0.296600  1.0  -0.3595
  N  N844  1  0.416300  0.612060  0.393500  1.0  -0.3539
  N  N845  1  0.569100  0.869730  0.262470  1.0  -0.3487
  N  N846  1  0.167700  0.873150  0.269560  1.0  -0.3549
  N  N847  1  0.887300  0.548890  0.925710  1.0  -0.3301
  N  N848  1  0.288600  0.552290  0.922950  1.0  -0.336
  O  O849  1  0.847500  0.677940  0.765240  1.0  -0.6542
  O  O850  1  0.866300  0.591230  0.775580  1.0  -0.6416
  O  O851  1  0.589100  0.890720  0.007020  1.0  -0.612
  O  O852  1  0.592900  0.805570  0.018290  1.0  -0.6679
  O  O853  1  0.894100  0.501210  0.672150  1.0  -0.6471
  O  O854  1  0.879500  0.481900  0.716730  1.0  -0.5745
  O  O855  1  0.912800  0.007000  0.564530  1.0  -0.6126
  O  O856  1  0.931300  0.986640  0.607960  1.0  -0.6202
  O  O857  1  0.652500  0.677940  0.265240  1.0  -0.6533
  O  O858  1  0.633700  0.591230  0.275580  1.0  -0.6422
  O  O859  1  0.910900  0.890720  0.507020  1.0  -0.6125
  O  O860  1  0.907100  0.805570  0.518290  1.0  -0.6675
  O  O861  1  0.605900  0.501210  0.172150  1.0  -0.6475
  O  O862  1  0.620500  0.481900  0.216730  1.0  -0.574
  O  O863  1  0.587200  0.007000  0.064530  1.0  -0.612
  O  O864  1  0.568700  0.986640  0.107960  1.0  -0.621
  O  O865  1  0.660200  0.136940  0.788000  1.0  -0.6379
  O  O866  1  0.654100  0.224430  0.777440  1.0  -0.6647
  O  O867  1  0.899400  0.360420  0.031720  1.0  -0.5974
  O  O868  1  0.893300  0.445950  0.021070  1.0  -0.6065
  O  O869  1  0.615000  0.025830  0.730210  1.0  -0.611
  O  O870  1  0.622300  0.049140  0.687720  1.0  -0.6185
  O  O871  1  0.575500  0.535670  0.623130  1.0  -0.6442
  O  O872  1  0.592700  0.551330  0.578060  1.0  -0.5979
  O  O873  1  0.839800  0.136940  0.288000  1.0  -0.637
  O  O874  1  0.845900  0.224430  0.277440  1.0  -0.6648
  O  O875  1  0.600600  0.360420  0.531720  1.0  -0.5977
  O  O876  1  0.606700  0.445950  0.521070  1.0  -0.6069
  O  O877  1  0.885000  0.025830  0.230210  1.0  -0.6107
  O  O878  1  0.877700  0.049140  0.187720  1.0  -0.6183
  O  O879  1  0.924500  0.535670  0.123130  1.0  -0.6451
  O  O880  1  0.907300  0.551330  0.078060  1.0  -0.5976
  O  O881  1  0.347500  0.322060  0.734760  1.0  -0.654
  O  O882  1  0.366300  0.408770  0.724420  1.0  -0.6426
  O  O883  1  0.089100  0.109280  0.492980  1.0  -0.6117
  O  O884  1  0.092900  0.194430  0.481710  1.0  -0.6669
  O  O885  1  0.394100  0.498790  0.827850  1.0  -0.6468
  O  O886  1  0.379500  0.518100  0.783270  1.0  -0.574
  O  O887  1  0.412800  0.993000  0.935470  1.0  -0.615
  O  O888  1  0.431300  0.013360  0.892040  1.0  -0.6193
  O  O889  1  0.152500  0.322060  0.234760  1.0  -0.653
  O  O890  1  0.133700  0.408770  0.224420  1.0  -0.6429
  O  O891  1  0.410900  0.109280  0.992980  1.0  -0.6119
  O  O892  1  0.407100  0.194430  0.981710  1.0  -0.6665
  O  O893  1  0.105900  0.498790  0.327850  1.0  -0.6466
  O  O894  1  0.120500  0.518100  0.283270  1.0  -0.5735
  O  O895  1  0.087200  0.993000  0.435470  1.0  -0.6141
  O  O896  1  0.068700  0.013360  0.392040  1.0  -0.6202
  O  O897  1  0.160200  0.863060  0.712000  1.0  -0.6398
  O  O898  1  0.154100  0.775570  0.722560  1.0  -0.664
  O  O899  1  0.399400  0.639580  0.468280  1.0  -0.5966
  O  O900  1  0.393300  0.554050  0.478930  1.0  -0.6059
  O  O901  1  0.115000  0.974170  0.769790  1.0  -0.6105
  O  O902  1  0.122300  0.950860  0.812280  1.0  -0.6199
  O  O903  1  0.075500  0.464330  0.876870  1.0  -0.643
  O  O904  1  0.092700  0.448670  0.921940  1.0  -0.5996
  O  O905  1  0.339800  0.863060  0.212000  1.0  -0.6398
  O  O906  1  0.345900  0.775570  0.222560  1.0  -0.6644
  O  O907  1  0.100600  0.639580  0.968280  1.0  -0.5975
  O  O908  1  0.106700  0.554050  0.978930  1.0  -0.6079
  O  O909  1  0.385000  0.974170  0.269790  1.0  -0.6102
  O  O910  1  0.377700  0.950860  0.312280  1.0  -0.6195
  O  O911  1  0.424500  0.464330  0.376870  1.0  -0.6436
  O  O912  1  0.407300  0.448670  0.421940  1.0  -0.6014
