# generated using pymatgen
data_CuH6(C5O2)2
_symmetry_space_group_name_H-M   'P 1'
_cell_length_a   45.84870000
_cell_length_b   45.84870000
_cell_length_c   45.84870000
_cell_angle_alpha   33.46500000
_cell_angle_beta   33.46500000
_cell_angle_gamma   33.46500000
_symmetry_Int_Tables_number   1
_chemical_formula_structural   CuH6(C5O2)2
_chemical_formula_sum   'Cu48 H288 C480 O192'
_cell_volume   26099.66856821
_cell_formula_units_Z   48
loop_
 _symmetry_equiv_pos_site_id
 _symmetry_equiv_pos_as_xyz
  1  'x, y, z'
loop_
 _atom_site_type_symbol
 _atom_site_label
 _atom_site_symmetry_multiplicity
 _atom_site_fract_x
 _atom_site_fract_y
 _atom_site_fract_z
 _atom_site_occupancy
 _atom_site_charge
  Cu  Cu1  1  0.686530  0.248860  0.156440  1.0  0.9118
  Cu  Cu2  1  0.708650  0.142650  0.245050  1.0  0.9002
  Cu  Cu3  1  0.455900  0.955570  0.425350  1.0  0.8781
  Cu  Cu4  1  0.506950  0.904750  0.474520  1.0  0.9578
  Cu  Cu5  1  0.156440  0.686530  0.248860  1.0  0.9111
  Cu  Cu6  1  0.245050  0.708650  0.142650  1.0  0.9022
  Cu  Cu7  1  0.425350  0.455900  0.955570  1.0  0.8776
  Cu  Cu8  1  0.474520  0.506950  0.904750  1.0  0.9635
  Cu  Cu9  1  0.248860  0.156440  0.686530  1.0  0.9113
  Cu  Cu10  1  0.142650  0.245050  0.708650  1.0  0.9026
  Cu  Cu11  1  0.955570  0.425350  0.455900  1.0  0.8766
  Cu  Cu12  1  0.904750  0.474520  0.506950  1.0  0.9575
  Cu  Cu13  1  0.748860  0.186530  0.656440  1.0  0.9082
  Cu  Cu14  1  0.642650  0.208650  0.745050  1.0  0.9001
  Cu  Cu15  1  0.455570  0.955900  0.925350  1.0  0.8765
  Cu  Cu16  1  0.404750  0.006950  0.974520  1.0  0.9591
  Cu  Cu17  1  0.186530  0.656440  0.748860  1.0  0.9113
  Cu  Cu18  1  0.208650  0.745050  0.642650  1.0  0.9018
  Cu  Cu19  1  0.955900  0.925350  0.455570  1.0  0.8778
  Cu  Cu20  1  0.006950  0.974520  0.404750  1.0  0.9625
  Cu  Cu21  1  0.656440  0.748860  0.186530  1.0  0.9119
  Cu  Cu22  1  0.745050  0.642650  0.208650  1.0  0.9008
  Cu  Cu23  1  0.925350  0.455570  0.955900  1.0  0.8783
  Cu  Cu24  1  0.974520  0.404750  0.006950  1.0  0.9577
  Cu  Cu25  1  0.251140  0.813470  0.343560  1.0  0.9082
  Cu  Cu26  1  0.357350  0.791350  0.254950  1.0  0.9009
  Cu  Cu27  1  0.544430  0.044100  0.074650  1.0  0.8767
  Cu  Cu28  1  0.595250  0.993050  0.025480  1.0  0.9576
  Cu  Cu29  1  0.813470  0.343560  0.251140  1.0  0.9141
  Cu  Cu30  1  0.791350  0.254950  0.357350  1.0  0.9006
  Cu  Cu31  1  0.044100  0.074650  0.544430  1.0  0.8794
  Cu  Cu32  1  0.993050  0.025480  0.595250  1.0  0.9618
  Cu  Cu33  1  0.343560  0.251140  0.813470  1.0  0.9097
  Cu  Cu34  1  0.254950  0.357350  0.791350  1.0  0.9008
  Cu  Cu35  1  0.074650  0.544430  0.044100  1.0  0.8766
  Cu  Cu36  1  0.025480  0.595250  0.993050  1.0  0.958
  Cu  Cu37  1  0.313470  0.751140  0.843560  1.0  0.9088
  Cu  Cu38  1  0.291350  0.857350  0.754950  1.0  0.8989
  Cu  Cu39  1  0.544100  0.044430  0.574650  1.0  0.8766
  Cu  Cu40  1  0.493050  0.095250  0.525480  1.0  0.9585
  Cu  Cu41  1  0.843560  0.313470  0.751140  1.0  0.9118
  Cu  Cu42  1  0.754950  0.291350  0.857350  1.0  0.9013
  Cu  Cu43  1  0.574650  0.544100  0.044430  1.0  0.8791
  Cu  Cu44  1  0.525480  0.493050  0.095250  1.0  0.962
  Cu  Cu45  1  0.751140  0.843560  0.313470  1.0  0.9138
  Cu  Cu46  1  0.857350  0.754950  0.291350  1.0  0.9007
  Cu  Cu47  1  0.044430  0.574650  0.544100  1.0  0.8772
  Cu  Cu48  1  0.095250  0.525480  0.493050  1.0  0.9568
  H  H49  1  0.519700  0.232200  0.357700  1.0  0.0982
  H  H50  1  0.630000  0.128400  0.237000  1.0  0.103
  H  H51  1  0.770000  0.262700  0.158400  1.0  0.0923
  H  H52  1  0.872500  0.159700  0.045000  1.0  0.1085
  H  H53  1  0.513800  0.340600  0.262100  1.0  0.1028
  H  H54  1  0.617900  0.235400  0.141300  1.0  0.1084
  H  H55  1  0.780100  0.157500  0.256400  1.0  0.0993
  H  H56  1  0.889500  0.052600  0.141200  1.0  0.1159
  H  H57  1  0.419600  0.426200  0.270700  1.0  0.1088
  H  H58  1  0.581300  0.120400  0.245900  1.0  0.0994
  H  H59  1  0.573400  0.274500  0.100700  1.0  0.11
  H  H60  1  0.818300  0.273400  0.147500  1.0  0.1085
  H  H61  1  0.826400  0.118600  0.296200  1.0  0.1082
  H  H62  1  0.969100  0.127400  0.982700  1.0  0.1233
  H  H63  1  0.506900  0.100800  0.264400  1.0  0.1285
  H  H64  1  0.502500  0.192500  0.177300  1.0  0.1199
  H  H65  1  0.487400  0.292400  0.092900  1.0  0.1013
  H  H66  1  0.862200  0.323900  0.097300  1.0  0.0993
  H  H67  1  0.895400  0.201400  0.219600  1.0  0.1012
  H  H68  1  0.872800  0.071700  0.341500  1.0  0.1045
  H  H69  1  0.561600  0.047500  0.312000  1.0  0.1177
  H  H70  1  0.544500  0.341800  0.035100  1.0  0.136
  H  H71  1  0.889600  0.288800  0.159000  1.0  0.119
  H  H72  1  0.931500  0.119800  0.281900  1.0  0.0843
  H  H73  1  0.357700  0.519700  0.232200  1.0  0.0974
  H  H74  1  0.237000  0.630000  0.128400  1.0  0.103
  H  H75  1  0.158400  0.770000  0.262700  1.0  0.091
  H  H76  1  0.045000  0.872500  0.159700  1.0  0.1075
  H  H77  1  0.262100  0.513800  0.340600  1.0  0.101
  H  H78  1  0.141300  0.617900  0.235400  1.0  0.1094
  H  H79  1  0.256400  0.780100  0.157500  1.0  0.0995
  H  H80  1  0.141200  0.889500  0.052600  1.0  0.1143
  H  H81  1  0.270700  0.419600  0.426200  1.0  0.108
  H  H82  1  0.245900  0.581300  0.120400  1.0  0.0992
  H  H83  1  0.100700  0.573400  0.274500  1.0  0.1115
  H  H84  1  0.147500  0.818300  0.273400  1.0  0.1071
  H  H85  1  0.296200  0.826400  0.118600  1.0  0.1092
  H  H86  1  0.982700  0.969100  0.127400  1.0  0.1246
  H  H87  1  0.264400  0.506900  0.100800  1.0  0.1295
  H  H88  1  0.177300  0.502500  0.192500  1.0  0.1204
  H  H89  1  0.092900  0.487400  0.292400  1.0  0.1008
  H  H90  1  0.097300  0.862200  0.323900  1.0  0.0994
  H  H91  1  0.219600  0.895400  0.201400  1.0  0.1004
  H  H92  1  0.341500  0.872800  0.071700  1.0  0.1053
  H  H93  1  0.312000  0.561600  0.047500  1.0  0.1187
  H  H94  1  0.035100  0.544500  0.341800  1.0  0.1376
  H  H95  1  0.159000  0.889600  0.288800  1.0  0.119
  H  H96  1  0.281900  0.931500  0.119800  1.0  0.0839
  H  H97  1  0.232200  0.357700  0.519700  1.0  0.0978
  H  H98  1  0.128400  0.237000  0.630000  1.0  0.1033
  H  H99  1  0.262700  0.158400  0.770000  1.0  0.0921
  H  H100  1  0.159700  0.045000  0.872500  1.0  0.1084
  H  H101  1  0.340600  0.262100  0.513800  1.0  0.1046
  H  H102  1  0.235400  0.141300  0.617900  1.0  0.1085
  H  H103  1  0.157500  0.256400  0.780100  1.0  0.0999
  H  H104  1  0.052600  0.141200  0.889500  1.0  0.1161
  H  H105  1  0.426200  0.270700  0.419600  1.0  0.1082
  H  H106  1  0.120400  0.245900  0.581300  1.0  0.0982
  H  H107  1  0.274500  0.100700  0.573400  1.0  0.1105
  H  H108  1  0.273400  0.147500  0.818300  1.0  0.1097
  H  H109  1  0.118600  0.296200  0.826400  1.0  0.1089
  H  H110  1  0.127400  0.982700  0.969100  1.0  0.1248
  H  H111  1  0.100800  0.264400  0.506900  1.0  0.1272
  H  H112  1  0.192500  0.177300  0.502500  1.0  0.1212
  H  H113  1  0.292400  0.092900  0.487400  1.0  0.1012
  H  H114  1  0.323900  0.097300  0.862200  1.0  0.0998
  H  H115  1  0.201400  0.219600  0.895400  1.0  0.1003
  H  H116  1  0.071700  0.341500  0.872800  1.0  0.1042
  H  H117  1  0.047500  0.312000  0.561600  1.0  0.1179
  H  H118  1  0.341800  0.035100  0.544500  1.0  0.1358
  H  H119  1  0.288800  0.159000  0.889600  1.0  0.1192
  H  H120  1  0.119800  0.281900  0.931500  1.0  0.0835
  H  H121  1  0.732200  0.019700  0.857700  1.0  0.0982
  H  H122  1  0.628400  0.130000  0.737000  1.0  0.1029
  H  H123  1  0.762700  0.270000  0.658400  1.0  0.0923
  H  H124  1  0.659700  0.372500  0.545000  1.0  0.1077
  H  H125  1  0.840600  0.013800  0.762100  1.0  0.1024
  H  H126  1  0.735400  0.117900  0.641300  1.0  0.1071
  H  H127  1  0.657500  0.280100  0.756400  1.0  0.0978
  H  H128  1  0.552600  0.389500  0.641200  1.0  0.1163
  H  H129  1  0.926200  0.919600  0.770700  1.0  0.1087
  H  H130  1  0.620400  0.081300  0.745900  1.0  0.0982
  H  H131  1  0.774500  0.073400  0.600700  1.0  0.1115
  H  H132  1  0.773400  0.318300  0.647500  1.0  0.1073
  H  H133  1  0.618600  0.326400  0.796200  1.0  0.1081
  H  H134  1  0.627400  0.469100  0.482700  1.0  0.1243
  H  H135  1  0.600800  0.006900  0.764400  1.0  0.1283
  H  H136  1  0.692500  0.002500  0.677300  1.0  0.1204
  H  H137  1  0.792400  0.987400  0.592900  1.0  0.101
  H  H138  1  0.823900  0.362200  0.597300  1.0  0.0994
  H  H139  1  0.701400  0.395400  0.719600  1.0  0.1003
  H  H140  1  0.571700  0.372800  0.841500  1.0  0.1037
  H  H141  1  0.547500  0.061600  0.812000  1.0  0.1176
  H  H142  1  0.841800  0.044500  0.535100  1.0  0.1358
  H  H143  1  0.788800  0.389600  0.659000  1.0  0.1199
  H  H144  1  0.619800  0.431500  0.781900  1.0  0.084
  H  H145  1  0.019700  0.857700  0.732200  1.0  0.0975
  H  H146  1  0.130000  0.737000  0.628400  1.0  0.1026
  H  H147  1  0.270000  0.658400  0.762700  1.0  0.0928
  H  H148  1  0.372500  0.545000  0.659700  1.0  0.1089
  H  H149  1  0.013800  0.762100  0.840600  1.0  0.1026
  H  H150  1  0.117900  0.641300  0.735400  1.0  0.1089
  H  H151  1  0.280100  0.756400  0.657500  1.0  0.1003
  H  H152  1  0.389500  0.641200  0.552600  1.0  0.1158
  H  H153  1  0.919600  0.770700  0.926200  1.0  0.109
  H  H154  1  0.081300  0.745900  0.620400  1.0  0.098
  H  H155  1  0.073400  0.600700  0.774500  1.0  0.1109
  H  H156  1  0.318300  0.647500  0.773400  1.0  0.1092
  H  H157  1  0.326400  0.796200  0.618600  1.0  0.1096
  H  H158  1  0.469100  0.482700  0.627400  1.0  0.1249
  H  H159  1  0.006900  0.764400  0.600800  1.0  0.1292
  H  H160  1  0.002500  0.677300  0.692500  1.0  0.12
  H  H161  1  0.987400  0.592900  0.792400  1.0  0.101
  H  H162  1  0.362200  0.597300  0.823900  1.0  0.0995
  H  H163  1  0.395400  0.719600  0.701400  1.0  0.1015
  H  H164  1  0.372800  0.841500  0.571700  1.0  0.1042
  H  H165  1  0.061600  0.812000  0.547500  1.0  0.1199
  H  H166  1  0.044500  0.535100  0.841800  1.0  0.1372
  H  H167  1  0.389600  0.659000  0.788800  1.0  0.1203
  H  H168  1  0.431500  0.781900  0.619800  1.0  0.0833
  H  H169  1  0.857700  0.732200  0.019700  1.0  0.0983
  H  H170  1  0.737000  0.628400  0.130000  1.0  0.104
  H  H171  1  0.658400  0.762700  0.270000  1.0  0.0924
  H  H172  1  0.545000  0.659700  0.372500  1.0  0.1083
  H  H173  1  0.762100  0.840600  0.013800  1.0  0.1022
  H  H174  1  0.641300  0.735400  0.117900  1.0  0.1086
  H  H175  1  0.756400  0.657500  0.280100  1.0  0.1
  H  H176  1  0.641200  0.552600  0.389500  1.0  0.116
  H  H177  1  0.770700  0.926200  0.919600  1.0  0.1079
  H  H178  1  0.745900  0.620400  0.081300  1.0  0.0987
  H  H179  1  0.600700  0.774500  0.073400  1.0  0.1111
  H  H180  1  0.647500  0.773400  0.318300  1.0  0.1093
  H  H181  1  0.796200  0.618600  0.326400  1.0  0.1092
  H  H182  1  0.482700  0.627400  0.469100  1.0  0.1227
  H  H183  1  0.764400  0.600800  0.006900  1.0  0.1269
  H  H184  1  0.677300  0.692500  0.002500  1.0  0.1212
  H  H185  1  0.592900  0.792400  0.987400  1.0  0.1012
  H  H186  1  0.597300  0.823900  0.362200  1.0  0.0987
  H  H187  1  0.719600  0.701400  0.395400  1.0  0.1003
  H  H188  1  0.841500  0.571700  0.372800  1.0  0.1048
  H  H189  1  0.812000  0.547500  0.061600  1.0  0.1165
  H  H190  1  0.535100  0.841800  0.044500  1.0  0.1364
  H  H191  1  0.659000  0.788800  0.389600  1.0  0.1193
  H  H192  1  0.781900  0.619800  0.431500  1.0  0.0844
  H  H193  1  0.267800  0.980300  0.142300  1.0  0.0988
  H  H194  1  0.371600  0.870000  0.263000  1.0  0.103
  H  H195  1  0.237300  0.730000  0.341600  1.0  0.0908
  H  H196  1  0.340300  0.627500  0.455000  1.0  0.1075
  H  H197  1  0.159400  0.986200  0.237900  1.0  0.1019
  H  H198  1  0.264600  0.882100  0.358700  1.0  0.1062
  H  H199  1  0.342500  0.719900  0.243600  1.0  0.0977
  H  H200  1  0.447400  0.610500  0.358800  1.0  0.1159
  H  H201  1  0.073800  0.080400  0.229300  1.0  0.1094
  H  H202  1  0.379600  0.918700  0.254100  1.0  0.0986
  H  H203  1  0.225500  0.926600  0.399300  1.0  0.1119
  H  H204  1  0.226600  0.681700  0.352500  1.0  0.1071
  H  H205  1  0.381400  0.673600  0.203800  1.0  0.1085
  H  H206  1  0.372600  0.530900  0.517300  1.0  0.1236
  H  H207  1  0.399200  0.993100  0.235600  1.0  0.1296
  H  H208  1  0.307500  0.997500  0.322700  1.0  0.1194
  H  H209  1  0.207600  0.012600  0.407100  1.0  0.101
  H  H210  1  0.176100  0.637800  0.402700  1.0  0.1002
  H  H211  1  0.298600  0.604600  0.280400  1.0  0.1013
  H  H212  1  0.428300  0.627200  0.158500  1.0  0.1045
  H  H213  1  0.452500  0.938400  0.188000  1.0  0.1195
  H  H214  1  0.158200  0.955500  0.464900  1.0  0.1379
  H  H215  1  0.211200  0.610400  0.341000  1.0  0.1201
  H  H216  1  0.380200  0.568500  0.218100  1.0  0.084
  H  H217  1  0.980300  0.142300  0.267800  1.0  0.0985
  H  H218  1  0.870000  0.263000  0.371600  1.0  0.1023
  H  H219  1  0.730000  0.341600  0.237300  1.0  0.0925
  H  H220  1  0.627500  0.455000  0.340300  1.0  0.1083
  H  H221  1  0.986200  0.237900  0.159400  1.0  0.1041
  H  H222  1  0.882100  0.358700  0.264600  1.0  0.1088
  H  H223  1  0.719900  0.243600  0.342500  1.0  0.1002
  H  H224  1  0.610500  0.358800  0.447400  1.0  0.1165
  H  H225  1  0.080400  0.229300  0.073800  1.0  0.1089
  H  H226  1  0.918700  0.254100  0.379600  1.0  0.0973
  H  H227  1  0.926600  0.399300  0.225500  1.0  0.1104
  H  H228  1  0.681700  0.352500  0.226600  1.0  0.1099
  H  H229  1  0.673600  0.203800  0.381400  1.0  0.1096
  H  H230  1  0.530900  0.517300  0.372600  1.0  0.1244
  H  H231  1  0.993100  0.235600  0.399200  1.0  0.1277
  H  H232  1  0.997500  0.322700  0.307500  1.0  0.1188
  H  H233  1  0.012600  0.407100  0.207600  1.0  0.1009
  H  H234  1  0.637800  0.402700  0.176100  1.0  0.0986
  H  H235  1  0.604600  0.280400  0.298600  1.0  0.1014
  H  H236  1  0.627200  0.158500  0.428300  1.0  0.1036
  H  H237  1  0.938400  0.188000  0.452500  1.0  0.1189
  H  H238  1  0.955500  0.464900  0.158200  1.0  0.1385
  H  H239  1  0.610400  0.341000  0.211200  1.0  0.1208
  H  H240  1  0.568500  0.218100  0.380200  1.0  0.0835
  H  H241  1  0.142300  0.267800  0.980300  1.0  0.0988
  H  H242  1  0.263000  0.371600  0.870000  1.0  0.1034
  H  H243  1  0.341600  0.237300  0.730000  1.0  0.0922
  H  H244  1  0.455000  0.340300  0.627500  1.0  0.1074
  H  H245  1  0.237900  0.159400  0.986200  1.0  0.1035
  H  H246  1  0.358700  0.264600  0.882100  1.0  0.1086
  H  H247  1  0.243600  0.342500  0.719900  1.0  0.0999
  H  H248  1  0.358800  0.447400  0.610500  1.0  0.116
  H  H249  1  0.229300  0.073800  0.080400  1.0  0.1081
  H  H250  1  0.254100  0.379600  0.918700  1.0  0.0982
  H  H251  1  0.399300  0.225500  0.926600  1.0  0.1111
  H  H252  1  0.352500  0.226600  0.681700  1.0  0.1079
  H  H253  1  0.203800  0.381400  0.673600  1.0  0.1092
  H  H254  1  0.517300  0.372600  0.530900  1.0  0.1236
  H  H255  1  0.235600  0.399200  0.993100  1.0  0.1276
  H  H256  1  0.322700  0.307500  0.997500  1.0  0.1207
  H  H257  1  0.407100  0.207600  0.012600  1.0  0.1011
  H  H258  1  0.402700  0.176100  0.637800  1.0  0.0987
  H  H259  1  0.280400  0.298600  0.604600  1.0  0.1024
  H  H260  1  0.158500  0.428300  0.627200  1.0  0.1045
  H  H261  1  0.188000  0.452500  0.938400  1.0  0.1198
  H  H262  1  0.464900  0.158200  0.955500  1.0  0.1369
  H  H263  1  0.341000  0.211200  0.610400  1.0  0.12
  H  H264  1  0.218100  0.380200  0.568500  1.0  0.0842
  H  H265  1  0.480300  0.767800  0.642300  1.0  0.0983
  H  H266  1  0.370000  0.871600  0.763000  1.0  0.1034
  H  H267  1  0.230000  0.737300  0.841600  1.0  0.0928
  H  H268  1  0.127500  0.840300  0.955000  1.0  0.1083
  H  H269  1  0.486200  0.659400  0.737900  1.0  0.1031
  H  H270  1  0.382100  0.764600  0.858700  1.0  0.1087
  H  H271  1  0.219900  0.842500  0.743600  1.0  0.1
  H  H272  1  0.110500  0.947400  0.858800  1.0  0.1159
  H  H273  1  0.580400  0.573800  0.729300  1.0  0.1089
  H  H274  1  0.418700  0.879600  0.754100  1.0  0.0985
  H  H275  1  0.426600  0.725500  0.899300  1.0  0.1113
  H  H276  1  0.181700  0.726600  0.852500  1.0  0.1077
  H  H277  1  0.173600  0.881400  0.703800  1.0  0.109
  H  H278  1  0.030900  0.872600  0.017300  1.0  0.124
  H  H279  1  0.493100  0.899200  0.735600  1.0  0.1284
  H  H280  1  0.497500  0.807500  0.822700  1.0  0.1188
  H  H281  1  0.512600  0.707600  0.907100  1.0  0.1016
  H  H282  1  0.137800  0.676100  0.902700  1.0  0.0997
  H  H283  1  0.104600  0.798600  0.780400  1.0  0.1014
  H  H284  1  0.127200  0.928300  0.658500  1.0  0.1051
  H  H285  1  0.438400  0.952500  0.688000  1.0  0.1203
  H  H286  1  0.455500  0.658200  0.964900  1.0  0.1375
  H  H287  1  0.110400  0.711200  0.841000  1.0  0.1194
  H  H288  1  0.068500  0.880200  0.718100  1.0  0.085
  H  H289  1  0.642300  0.480300  0.767800  1.0  0.0982
  H  H290  1  0.763000  0.370000  0.871600  1.0  0.1026
  H  H291  1  0.841600  0.230000  0.737300  1.0  0.0908
  H  H292  1  0.955000  0.127500  0.840300  1.0  0.1071
  H  H293  1  0.737900  0.486200  0.659400  1.0  0.1023
  H  H294  1  0.858700  0.382100  0.764600  1.0  0.1085
  H  H295  1  0.743600  0.219900  0.842500  1.0  0.101
  H  H296  1  0.858800  0.110500  0.947400  1.0  0.1145
  H  H297  1  0.729300  0.580400  0.573800  1.0  0.1087
  H  H298  1  0.754100  0.418700  0.879600  1.0  0.0983
  H  H299  1  0.899300  0.426600  0.725500  1.0  0.1113
  H  H300  1  0.852500  0.181700  0.726600  1.0  0.1079
  H  H301  1  0.703800  0.173600  0.881400  1.0  0.1091
  H  H302  1  0.017300  0.030900  0.872600  1.0  0.1243
  H  H303  1  0.735600  0.493100  0.899200  1.0  0.1293
  H  H304  1  0.822700  0.497500  0.807500  1.0  0.1194
  H  H305  1  0.907100  0.512600  0.707600  1.0  0.1006
  H  H306  1  0.902700  0.137800  0.676100  1.0  0.0996
  H  H307  1  0.780400  0.104600  0.798600  1.0  0.1012
  H  H308  1  0.658500  0.127200  0.928300  1.0  0.1047
  H  H309  1  0.688000  0.438400  0.952500  1.0  0.1188
  H  H310  1  0.964900  0.455500  0.658200  1.0  0.1383
  H  H311  1  0.841000  0.110400  0.711200  1.0  0.1192
  H  H312  1  0.718100  0.068500  0.880200  1.0  0.0836
  H  H313  1  0.767800  0.642300  0.480300  1.0  0.0994
  H  H314  1  0.871600  0.763000  0.370000  1.0  0.1031
  H  H315  1  0.737300  0.841600  0.230000  1.0  0.0912
  H  H316  1  0.840300  0.955000  0.127500  1.0  0.1079
  H  H317  1  0.659400  0.737900  0.486200  1.0  0.1047
  H  H318  1  0.764600  0.858700  0.382100  1.0  0.1091
  H  H319  1  0.842500  0.743600  0.219900  1.0  0.0992
  H  H320  1  0.947400  0.858800  0.110500  1.0  0.1162
  H  H321  1  0.573800  0.729300  0.580400  1.0  0.1084
  H  H322  1  0.879600  0.754100  0.418700  1.0  0.0981
  H  H323  1  0.725500  0.899300  0.426600  1.0  0.1111
  H  H324  1  0.726600  0.852500  0.181700  1.0  0.1103
  H  H325  1  0.881400  0.703800  0.173600  1.0  0.1087
  H  H326  1  0.872600  0.017300  0.030900  1.0  0.1236
  H  H327  1  0.899200  0.735600  0.493100  1.0  0.1283
  H  H328  1  0.807500  0.822700  0.497500  1.0  0.1207
  H  H329  1  0.707600  0.907100  0.512600  1.0  0.1012
  H  H330  1  0.676100  0.902700  0.137800  1.0  0.0993
  H  H331  1  0.798600  0.780400  0.104600  1.0  0.1026
  H  H332  1  0.928300  0.658500  0.127200  1.0  0.1035
  H  H333  1  0.952500  0.688000  0.438400  1.0  0.1189
  H  H334  1  0.658200  0.964900  0.455500  1.0  0.1374
  H  H335  1  0.711200  0.841000  0.110400  1.0  0.1198
  H  H336  1  0.880200  0.718100  0.068500  1.0  0.083
  C  C337  1  0.594800  0.235400  0.275700  1.0  0.7092
  C  C338  1  0.657600  0.173600  0.206300  1.0  0.6987
  C  C339  1  0.737200  0.216500  0.196300  1.0  0.6987
  C  C340  1  0.801000  0.155600  0.126400  1.0  0.7374
  C  C341  1  0.533400  0.258800  0.317900  1.0  -0.1938
  C  C342  1  0.631900  0.164100  0.208000  1.0  -0.1919
  C  C343  1  0.766300  0.227800  0.189600  1.0  -0.2157
  C  C344  1  0.861400  0.133400  0.085300  1.0  -0.1777
  C  C345  1  0.497500  0.315500  0.301800  1.0  -0.0648
  C  C346  1  0.612200  0.201800  0.172200  1.0  -0.08
  C  C347  1  0.785700  0.191300  0.225100  1.0  -0.0892
  C  C348  1  0.902100  0.078300  0.100800  1.0  -0.0851
  C  C349  1  0.433900  0.345200  0.338500  1.0  -0.093
  C  C350  1  0.581400  0.198300  0.174000  1.0  0.0024
  C  C351  1  0.815800  0.196200  0.222300  1.0  0.0532
  C  C352  1  0.966400  0.052100  0.060900  1.0  0.0206
  C  C353  1  0.401100  0.404500  0.311500  1.0  -0.0706
  C  C354  1  0.569300  0.151500  0.216600  1.0  -0.0773
  C  C355  1  0.564000  0.243500  0.130800  1.0  -0.1125
  C  C356  1  0.828900  0.243200  0.177500  1.0  -0.0078
  C  C357  1  0.834600  0.150500  0.265900  1.0  -0.0869
  C  C358  1  0.992300  0.086900  0.000200  1.0  -0.0807
  C  C359  1  0.540900  0.148200  0.218500  1.0  -0.0535
  C  C360  1  0.533000  0.244800  0.130300  1.0  0.0304
  C  C361  1  0.857500  0.245800  0.176800  1.0  -0.0301
  C  C362  1  0.864200  0.150800  0.265600  1.0  0.0058
  C  C363  1  0.527500  0.098300  0.266600  1.0  -0.1089
  C  C364  1  0.522300  0.194000  0.176400  1.0  -0.0513
  C  C365  1  0.510700  0.294200  0.087200  1.0  -0.0896
  C  C366  1  0.869400  0.298000  0.128500  1.0  -0.0892
  C  C367  1  0.875800  0.199800  0.220300  1.0  -0.0906
  C  C368  1  0.885500  0.100300  0.310600  1.0  -0.0676
  C  C369  1  0.538800  0.052500  0.310300  1.0  -0.1345
  C  C370  1  0.520100  0.340200  0.042100  1.0  -0.1817
  C  C371  1  0.888100  0.310700  0.125500  1.0  -0.189
  C  C372  1  0.918500  0.091500  0.312200  1.0  -0.1295
  C  C373  1  0.520100  0.005200  0.359500  1.0  0.6913
  C  C374  1  0.494000  0.392100  0.999200  1.0  0.6738
  C  C375  1  0.908100  0.357900  0.072600  1.0  0.694
  C  C376  1  0.938600  0.039300  0.359000  1.0  0.6996
  C  C377  1  0.275700  0.594800  0.235400  1.0  0.7095
  C  C378  1  0.206300  0.657600  0.173600  1.0  0.6981
  C  C379  1  0.196300  0.737200  0.216500  1.0  0.6947
  C  C380  1  0.126400  0.801000  0.155600  1.0  0.7372
  C  C381  1  0.317900  0.533400  0.258800  1.0  -0.1899
  C  C382  1  0.208000  0.631900  0.164100  1.0  -0.1912
  C  C383  1  0.189600  0.766300  0.227800  1.0  -0.2235
  C  C384  1  0.085300  0.861400  0.133400  1.0  -0.1793
  C  C385  1  0.301800  0.497500  0.315500  1.0  -0.0664
  C  C386  1  0.172200  0.612200  0.201800  1.0  -0.0826
  C  C387  1  0.225100  0.785700  0.191300  1.0  -0.0908
  C  C388  1  0.100800  0.902100  0.078300  1.0  -0.0849
  C  C389  1  0.338500  0.433900  0.345200  1.0  -0.0932
  C  C390  1  0.174000  0.581400  0.198300  1.0  0.0035
  C  C391  1  0.222300  0.815800  0.196200  1.0  0.0545
  C  C392  1  0.060900  0.966400  0.052100  1.0  0.0206
  C  C393  1  0.311500  0.401100  0.404500  1.0  -0.0698
  C  C394  1  0.216600  0.569300  0.151500  1.0  -0.0806
  C  C395  1  0.130800  0.564000  0.243500  1.0  -0.1133
  C  C396  1  0.177500  0.828900  0.243200  1.0  -0.0057
  C  C397  1  0.265900  0.834600  0.150500  1.0  -0.0834
  C  C398  1  0.000200  0.992300  0.086900  1.0  -0.0825
  C  C399  1  0.218500  0.540900  0.148200  1.0  -0.0527
  C  C400  1  0.130300  0.533000  0.244800  1.0  0.0297
  C  C401  1  0.176800  0.857500  0.245800  1.0  -0.0277
  C  C402  1  0.265600  0.864200  0.150800  1.0  0.0031
  C  C403  1  0.266600  0.527500  0.098300  1.0  -0.1079
  C  C404  1  0.176400  0.522300  0.194000  1.0  -0.0515
  C  C405  1  0.087200  0.510700  0.294200  1.0  -0.0877
  C  C406  1  0.128500  0.869400  0.298000  1.0  -0.0895
  C  C407  1  0.220300  0.875800  0.199800  1.0  -0.0914
  C  C408  1  0.310600  0.885500  0.100300  1.0  -0.0649
  C  C409  1  0.310300  0.538800  0.052500  1.0  -0.1336
  C  C410  1  0.042100  0.520100  0.340200  1.0  -0.1799
  C  C411  1  0.125500  0.888100  0.310700  1.0  -0.1877
  C  C412  1  0.312200  0.918500  0.091500  1.0  -0.1283
  C  C413  1  0.359500  0.520100  0.005200  1.0  0.6928
  C  C414  1  0.999200  0.494000  0.392100  1.0  0.6703
  C  C415  1  0.072600  0.908100  0.357900  1.0  0.6922
  C  C416  1  0.359000  0.938600  0.039300  1.0  0.6977
  C  C417  1  0.235400  0.275700  0.594800  1.0  0.7091
  C  C418  1  0.173600  0.206300  0.657600  1.0  0.6991
  C  C419  1  0.216500  0.196300  0.737200  1.0  0.6978
  C  C420  1  0.155600  0.126400  0.801000  1.0  0.7359
  C  C421  1  0.258800  0.317900  0.533400  1.0  -0.1925
  C  C422  1  0.164100  0.208000  0.631900  1.0  -0.1935
  C  C423  1  0.227800  0.189600  0.766300  1.0  -0.2222
  C  C424  1  0.133400  0.085300  0.861400  1.0  -0.179
  C  C425  1  0.315500  0.301800  0.497500  1.0  -0.0684
  C  C426  1  0.201800  0.172200  0.612200  1.0  -0.0815
  C  C427  1  0.191300  0.225100  0.785700  1.0  -0.0902
  C  C428  1  0.078300  0.100800  0.902100  1.0  -0.083
  C  C429  1  0.345200  0.338500  0.433900  1.0  -0.0929
  C  C430  1  0.198300  0.174000  0.581400  1.0  0.0041
  C  C431  1  0.196200  0.222300  0.815800  1.0  0.0538
  C  C432  1  0.052100  0.060900  0.966400  1.0  0.0212
  C  C433  1  0.404500  0.311500  0.401100  1.0  -0.0691
  C  C434  1  0.151500  0.216600  0.569300  1.0  -0.0815
  C  C435  1  0.243500  0.130800  0.564000  1.0  -0.1159
  C  C436  1  0.243200  0.177500  0.828900  1.0  -0.0078
  C  C437  1  0.150500  0.265900  0.834600  1.0  -0.0882
  C  C438  1  0.086900  0.000200  0.992300  1.0  -0.0819
  C  C439  1  0.148200  0.218500  0.540900  1.0  -0.0533
  C  C440  1  0.244800  0.130300  0.533000  1.0  0.0304
  C  C441  1  0.245800  0.176800  0.857500  1.0  -0.0257
  C  C442  1  0.150800  0.265600  0.864200  1.0  0.0053
  C  C443  1  0.098300  0.266600  0.527500  1.0  -0.1075
  C  C444  1  0.194000  0.176400  0.522300  1.0  -0.0481
  C  C445  1  0.294200  0.087200  0.510700  1.0  -0.0883
  C  C446  1  0.298000  0.128500  0.869400  1.0  -0.088
  C  C447  1  0.199800  0.220300  0.875800  1.0  -0.0874
  C  C448  1  0.100300  0.310600  0.885500  1.0  -0.0627
  C  C449  1  0.052500  0.310300  0.538800  1.0  -0.1346
  C  C450  1  0.340200  0.042100  0.520100  1.0  -0.1784
  C  C451  1  0.310700  0.125500  0.888100  1.0  -0.1897
  C  C452  1  0.091500  0.312200  0.918500  1.0  -0.1268
  C  C453  1  0.005200  0.359500  0.520100  1.0  0.6936
  C  C454  1  0.392100  0.999200  0.494000  1.0  0.6717
  C  C455  1  0.357900  0.072600  0.908100  1.0  0.6919
  C  C456  1  0.039300  0.359000  0.938600  1.0  0.6996
  C  C457  1  0.735400  0.094800  0.775700  1.0  0.7112
  C  C458  1  0.673600  0.157600  0.706300  1.0  0.6994
  C  C459  1  0.716500  0.237200  0.696300  1.0  0.6988
  C  C460  1  0.655600  0.301000  0.626400  1.0  0.7372
  C  C461  1  0.758800  0.033400  0.817900  1.0  -0.1952
  C  C462  1  0.664100  0.131900  0.708000  1.0  -0.1921
  C  C463  1  0.727800  0.266300  0.689600  1.0  -0.2205
  C  C464  1  0.633400  0.361400  0.585300  1.0  -0.1803
  C  C465  1  0.815500  0.997500  0.801800  1.0  -0.0647
  C  C466  1  0.701800  0.112200  0.672200  1.0  -0.081
  C  C467  1  0.691300  0.285700  0.725100  1.0  -0.088
  C  C468  1  0.578300  0.402100  0.600800  1.0  -0.0857
  C  C469  1  0.845200  0.933900  0.838500  1.0  -0.0933
  C  C470  1  0.698300  0.081400  0.674000  1.0  0.0028
  C  C471  1  0.696200  0.315800  0.722300  1.0  0.0528
  C  C472  1  0.552100  0.466400  0.560900  1.0  0.0203
  C  C473  1  0.904500  0.901100  0.811500  1.0  -0.071
  C  C474  1  0.651500  0.069300  0.716600  1.0  -0.0829
  C  C475  1  0.743500  0.064000  0.630800  1.0  -0.1118
  C  C476  1  0.743200  0.328900  0.677500  1.0  -0.0107
  C  C477  1  0.650500  0.334600  0.765900  1.0  -0.0883
  C  C478  1  0.586900  0.492300  0.500200  1.0  -0.0816
  C  C479  1  0.648200  0.040900  0.718500  1.0  -0.0529
  C  C480  1  0.744800  0.033000  0.630300  1.0  0.0303
  C  C481  1  0.745800  0.357500  0.676800  1.0  -0.0294
  C  C482  1  0.650800  0.364200  0.765600  1.0  0.0061
  C  C483  1  0.598300  0.027500  0.766600  1.0  -0.1097
  C  C484  1  0.694000  0.022300  0.676400  1.0  -0.0508
  C  C485  1  0.794200  0.010700  0.587200  1.0  -0.089
  C  C486  1  0.798000  0.369400  0.628500  1.0  -0.0864
  C  C487  1  0.699800  0.375800  0.720300  1.0  -0.0927
  C  C488  1  0.600300  0.385500  0.810600  1.0  -0.0639
  C  C489  1  0.552500  0.038800  0.810300  1.0  -0.1343
  C  C490  1  0.840200  0.020100  0.542100  1.0  -0.1804
  C  C491  1  0.810700  0.388100  0.625500  1.0  -0.188
  C  C492  1  0.591500  0.418500  0.812200  1.0  -0.1266
  C  C493  1  0.505200  0.020100  0.859500  1.0  0.6926
  C  C494  1  0.892100  0.994000  0.499200  1.0  0.6707
  C  C495  1  0.857900  0.408100  0.572600  1.0  0.6904
  C  C496  1  0.539300  0.438600  0.859000  1.0  0.6989
  C  C497  1  0.094800  0.775700  0.735400  1.0  0.708
  C  C498  1  0.157600  0.706300  0.673600  1.0  0.6977
  C  C499  1  0.237200  0.696300  0.716500  1.0  0.6979
  C  C500  1  0.301000  0.626400  0.655600  1.0  0.7356
  C  C501  1  0.033400  0.817900  0.758800  1.0  -0.1908
  C  C502  1  0.131900  0.708000  0.664100  1.0  -0.1918
  C  C503  1  0.266300  0.689600  0.727800  1.0  -0.221
  C  C504  1  0.361400  0.585300  0.633400  1.0  -0.1782
  C  C505  1  0.997500  0.801800  0.815500  1.0  -0.0669
  C  C506  1  0.112200  0.672200  0.701800  1.0  -0.0799
  C  C507  1  0.285700  0.725100  0.691300  1.0  -0.0886
  C  C508  1  0.402100  0.600800  0.578300  1.0  -0.086
  C  C509  1  0.933900  0.838500  0.845200  1.0  -0.0928
  C  C510  1  0.081400  0.674000  0.698300  1.0  0.0022
  C  C511  1  0.315800  0.722300  0.696200  1.0  0.0519
  C  C512  1  0.466400  0.560900  0.552100  1.0  0.0209
  C  C513  1  0.901100  0.811500  0.904500  1.0  -0.0697
  C  C514  1  0.069300  0.716600  0.651500  1.0  -0.0814
  C  C515  1  0.064000  0.630800  0.743500  1.0  -0.1118
  C  C516  1  0.328900  0.677500  0.743200  1.0  -0.0086
  C  C517  1  0.334600  0.765900  0.650500  1.0  -0.0844
  C  C518  1  0.492300  0.500200  0.586900  1.0  -0.0827
  C  C519  1  0.040900  0.718500  0.648200  1.0  -0.0536
  C  C520  1  0.033000  0.630300  0.744800  1.0  0.0298
  C  C521  1  0.357500  0.676800  0.745800  1.0  -0.0266
  C  C522  1  0.364200  0.765600  0.650800  1.0  0.0036
  C  C523  1  0.027500  0.766600  0.598300  1.0  -0.1096
  C  C524  1  0.022300  0.676400  0.694000  1.0  -0.0522
  C  C525  1  0.010700  0.587200  0.794200  1.0  -0.0885
  C  C526  1  0.369400  0.628500  0.798000  1.0  -0.0919
  C  C527  1  0.375800  0.720300  0.699800  1.0  -0.0911
  C  C528  1  0.385500  0.810600  0.600300  1.0  -0.0655
  C  C529  1  0.038800  0.810300  0.552500  1.0  -0.1368
  C  C530  1  0.020100  0.542100  0.840200  1.0  -0.1805
  C  C531  1  0.388100  0.625500  0.810700  1.0  -0.1888
  C  C532  1  0.418500  0.812200  0.591500  1.0  -0.1292
  C  C533  1  0.020100  0.859500  0.505200  1.0  0.6949
  C  C534  1  0.994000  0.499200  0.892100  1.0  0.6727
  C  C535  1  0.408100  0.572600  0.857900  1.0  0.6922
  C  C536  1  0.438600  0.859000  0.539300  1.0  0.6986
  C  C537  1  0.775700  0.735400  0.094800  1.0  0.7069
  C  C538  1  0.706300  0.673600  0.157600  1.0  0.6992
  C  C539  1  0.696300  0.716500  0.237200  1.0  0.6989
  C  C540  1  0.626400  0.655600  0.301000  1.0  0.7365
  C  C541  1  0.817900  0.758800  0.033400  1.0  -0.1906
  C  C542  1  0.708000  0.664100  0.131900  1.0  -0.1914
  C  C543  1  0.689600  0.727800  0.266300  1.0  -0.2247
  C  C544  1  0.585300  0.633400  0.361400  1.0  -0.1775
  C  C545  1  0.801800  0.815500  0.997500  1.0  -0.0666
  C  C546  1  0.672200  0.701800  0.112200  1.0  -0.0818
  C  C547  1  0.725100  0.691300  0.285700  1.0  -0.0898
  C  C548  1  0.600800  0.578300  0.402100  1.0  -0.0818
  C  C549  1  0.838500  0.845200  0.933900  1.0  -0.093
  C  C550  1  0.674000  0.698300  0.081400  1.0  0.0046
  C  C551  1  0.722300  0.696200  0.315800  1.0  0.0543
  C  C552  1  0.560900  0.552100  0.466400  1.0  0.0209
  C  C553  1  0.811500  0.904500  0.901100  1.0  -0.0688
  C  C554  1  0.716600  0.651500  0.069300  1.0  -0.0784
  C  C555  1  0.630800  0.743500  0.064000  1.0  -0.1159
  C  C556  1  0.677500  0.743200  0.328900  1.0  -0.0058
  C  C557  1  0.765900  0.650500  0.334600  1.0  -0.0857
  C  C558  1  0.500200  0.586900  0.492300  1.0  -0.081
  C  C559  1  0.718500  0.648200  0.040900  1.0  -0.0531
  C  C560  1  0.630300  0.744800  0.033000  1.0  0.0302
  C  C561  1  0.676800  0.745800  0.357500  1.0  -0.0287
  C  C562  1  0.765600  0.650800  0.364200  1.0  0.0045
  C  C563  1  0.766600  0.598300  0.027500  1.0  -0.1073
  C  C564  1  0.676400  0.694000  0.022300  1.0  -0.0488
  C  C565  1  0.587200  0.794200  0.010700  1.0  -0.088
  C  C566  1  0.628500  0.798000  0.369400  1.0  -0.0893
  C  C567  1  0.720300  0.699800  0.375800  1.0  -0.0898
  C  C568  1  0.810600  0.600300  0.385500  1.0  -0.0664
  C  C569  1  0.810300  0.552500  0.038800  1.0  -0.1327
  C  C570  1  0.542100  0.840200  0.020100  1.0  -0.1784
  C  C571  1  0.625500  0.810700  0.388100  1.0  -0.1854
  C  C572  1  0.812200  0.591500  0.418500  1.0  -0.1279
  C  C573  1  0.859500  0.505200  0.020100  1.0  0.6925
  C  C574  1  0.499200  0.892100  0.994000  1.0  0.6738
  C  C575  1  0.572600  0.857900  0.408100  1.0  0.6943
  C  C576  1  0.859000  0.539300  0.438600  1.0  0.6979
  C  C577  1  0.264600  0.905200  0.224300  1.0  0.7107
  C  C578  1  0.326400  0.842400  0.293700  1.0  0.6996
  C  C579  1  0.283500  0.762800  0.303700  1.0  0.6989
  C  C580  1  0.344400  0.699000  0.373600  1.0  0.7377
  C  C581  1  0.241200  0.966600  0.182100  1.0  -0.1943
  C  C582  1  0.335900  0.868100  0.292000  1.0  -0.1923
  C  C583  1  0.272200  0.733700  0.310400  1.0  -0.2225
  C  C584  1  0.366600  0.638600  0.414700  1.0  -0.1799
  C  C585  1  0.184500  0.002500  0.198200  1.0  -0.0644
  C  C586  1  0.298200  0.887800  0.327800  1.0  -0.0804
  C  C587  1  0.308700  0.714300  0.274900  1.0  -0.0833
  C  C588  1  0.421700  0.597900  0.399200  1.0  -0.0859
  C  C589  1  0.154800  0.066100  0.161500  1.0  -0.0929
  C  C590  1  0.301700  0.918600  0.326000  1.0  0.003
  C  C591  1  0.303800  0.684200  0.277700  1.0  0.0574
  C  C592  1  0.447900  0.533600  0.439100  1.0  0.0214
  C  C593  1  0.095500  0.098900  0.188500  1.0  -0.0716
  C  C594  1  0.348500  0.930700  0.283400  1.0  -0.081
  C  C595  1  0.256500  0.936000  0.369200  1.0  -0.1131
  C  C596  1  0.256800  0.671100  0.322500  1.0  -0.0088
  C  C597  1  0.349500  0.665400  0.234100  1.0  -0.0811
  C  C598  1  0.413100  0.507700  0.499800  1.0  -0.0803
  C  C599  1  0.351800  0.959100  0.281500  1.0  -0.0554
  C  C600  1  0.255200  0.967000  0.369700  1.0  0.0301
  C  C601  1  0.254200  0.642500  0.323200  1.0  -0.026
  C  C602  1  0.349200  0.635800  0.234400  1.0  0.0044
  C  C603  1  0.401700  0.972500  0.233400  1.0  -0.1078
  C  C604  1  0.306000  0.977700  0.323600  1.0  -0.0522
  C  C605  1  0.205800  0.989300  0.412800  1.0  -0.0882
  C  C606  1  0.202000  0.630600  0.371500  1.0  -0.088
  C  C607  1  0.300200  0.624200  0.279700  1.0  -0.0908
  C  C608  1  0.399700  0.614500  0.189400  1.0  -0.0634
  C  C609  1  0.447500  0.961200  0.189700  1.0  -0.1382
  C  C610  1  0.159800  0.979900  0.457900  1.0  -0.179
  C  C611  1  0.189300  0.611900  0.374500  1.0  -0.1869
  C  C612  1  0.408500  0.581500  0.187800  1.0  -0.1281
  C  C613  1  0.494800  0.979900  0.140500  1.0  0.6924
  C  C614  1  0.107900  0.006000  0.500800  1.0  0.6733
  C  C615  1  0.142100  0.591900  0.427400  1.0  0.6905
  C  C616  1  0.460700  0.561400  0.141000  1.0  0.6986
  C  C617  1  0.905200  0.224300  0.264600  1.0  0.7083
  C  C618  1  0.842400  0.293700  0.326400  1.0  0.6969
  C  C619  1  0.762800  0.303700  0.283500  1.0  0.6956
  C  C620  1  0.699000  0.373600  0.344400  1.0  0.7379
  C  C621  1  0.966600  0.182100  0.241200  1.0  -0.1925
  C  C622  1  0.868100  0.292000  0.335900  1.0  -0.1926
  C  C623  1  0.733700  0.310400  0.272200  1.0  -0.2223
  C  C624  1  0.638600  0.414700  0.366600  1.0  -0.179
  C  C625  1  0.002500  0.198200  0.184500  1.0  -0.0681
  C  C626  1  0.887800  0.327800  0.298200  1.0  -0.0826
  C  C627  1  0.714300  0.274900  0.308700  1.0  -0.0896
  C  C628  1  0.597900  0.399200  0.421700  1.0  -0.0841
  C  C629  1  0.066100  0.161500  0.154800  1.0  -0.0925
  C  C630  1  0.918600  0.326000  0.301700  1.0  0.0036
  C  C631  1  0.684200  0.277700  0.303800  1.0  0.0532
  C  C632  1  0.533600  0.439100  0.447900  1.0  0.0202
  C  C633  1  0.098900  0.188500  0.095500  1.0  -0.0676
  C  C634  1  0.930700  0.283400  0.348500  1.0  -0.0813
  C  C635  1  0.936000  0.369200  0.256500  1.0  -0.1125
  C  C636  1  0.671100  0.322500  0.256800  1.0  -0.0076
  C  C637  1  0.665400  0.234100  0.349500  1.0  -0.0836
  C  C638  1  0.507700  0.499800  0.413100  1.0  -0.0843
  C  C639  1  0.959100  0.281500  0.351800  1.0  -0.0518
  C  C640  1  0.967000  0.369700  0.255200  1.0  0.0287
  C  C641  1  0.642500  0.323200  0.254200  1.0  -0.024
  C  C642  1  0.635800  0.234400  0.349200  1.0  0.0046
  C  C643  1  0.972500  0.233400  0.401700  1.0  -0.1077
  C  C644  1  0.977700  0.323600  0.306000  1.0  -0.052
  C  C645  1  0.989300  0.412800  0.205800  1.0  -0.0889
  C  C646  1  0.630600  0.371500  0.202000  1.0  -0.0928
  C  C647  1  0.624200  0.279700  0.300200  1.0  -0.0927
  C  C648  1  0.614500  0.189400  0.399700  1.0  -0.0681
  C  C649  1  0.961200  0.189700  0.447500  1.0  -0.1375
  C  C650  1  0.979900  0.457900  0.159800  1.0  -0.1816
  C  C651  1  0.611900  0.374500  0.189300  1.0  -0.1894
  C  C652  1  0.581500  0.187800  0.408500  1.0  -0.1294
  C  C653  1  0.979900  0.140500  0.494800  1.0  0.694
  C  C654  1  0.006000  0.500800  0.107900  1.0  0.6727
  C  C655  1  0.591900  0.427400  0.142100  1.0  0.6927
  C  C656  1  0.561400  0.141000  0.460700  1.0  0.6981
  C  C657  1  0.224300  0.264600  0.905200  1.0  0.7075
  C  C658  1  0.293700  0.326400  0.842400  1.0  0.6978
  C  C659  1  0.303700  0.283500  0.762800  1.0  0.6996
  C  C660  1  0.373600  0.344400  0.699000  1.0  0.7373
  C  C661  1  0.182100  0.241200  0.966600  1.0  -0.1902
  C  C662  1  0.292000  0.335900  0.868100  1.0  -0.1947
  C  C663  1  0.310400  0.272200  0.733700  1.0  -0.2205
  C  C664  1  0.414700  0.366600  0.638600  1.0  -0.1795
  C  C665  1  0.198200  0.184500  0.002500  1.0  -0.0664
  C  C666  1  0.327800  0.298200  0.887800  1.0  -0.0816
  C  C667  1  0.274900  0.308700  0.714300  1.0  -0.0854
  C  C668  1  0.399200  0.421700  0.597900  1.0  -0.0814
  C  C669  1  0.161500  0.154800  0.066100  1.0  -0.0924
  C  C670  1  0.326000  0.301700  0.918600  1.0  0.0038
  C  C671  1  0.277700  0.303800  0.684200  1.0  0.0548
  C  C672  1  0.439100  0.447900  0.533600  1.0  0.0208
  C  C673  1  0.188500  0.095500  0.098900  1.0  -0.0686
  C  C674  1  0.283400  0.348500  0.930700  1.0  -0.0788
  C  C675  1  0.369200  0.256500  0.936000  1.0  -0.1141
  C  C676  1  0.322500  0.256800  0.671100  1.0  -0.0083
  C  C677  1  0.234100  0.349500  0.665400  1.0  -0.088
  C  C678  1  0.499800  0.413100  0.507700  1.0  -0.081
  C  C679  1  0.281500  0.351800  0.959100  1.0  -0.052
  C  C680  1  0.369700  0.255200  0.967000  1.0  0.0307
  C  C681  1  0.323200  0.254200  0.642500  1.0  -0.0301
  C  C682  1  0.234400  0.349200  0.635800  1.0  0.0061
  C  C683  1  0.233400  0.401700  0.972500  1.0  -0.1063
  C  C684  1  0.323600  0.306000  0.977700  1.0  -0.0453
  C  C685  1  0.412800  0.205800  0.989300  1.0  -0.0882
  C  C686  1  0.371500  0.202000  0.630600  1.0  -0.089
  C  C687  1  0.279700  0.300200  0.624200  1.0  -0.0904
  C  C688  1  0.189400  0.399700  0.614500  1.0  -0.0669
  C  C689  1  0.189700  0.447500  0.961200  1.0  -0.1365
  C  C690  1  0.457900  0.159800  0.979900  1.0  -0.1801
  C  C691  1  0.374500  0.189300  0.611900  1.0  -0.1876
  C  C692  1  0.187800  0.408500  0.581500  1.0  -0.1281
  C  C693  1  0.140500  0.494800  0.979900  1.0  0.6925
  C  C694  1  0.500800  0.107900  0.006000  1.0  0.6726
  C  C695  1  0.427400  0.142100  0.591900  1.0  0.692
  C  C696  1  0.141000  0.460700  0.561400  1.0  0.6979
  C  C697  1  0.405200  0.764600  0.724300  1.0  0.7102
  C  C698  1  0.342400  0.826400  0.793700  1.0  0.6989
  C  C699  1  0.262800  0.783500  0.803700  1.0  0.6972
  C  C700  1  0.199000  0.844400  0.873600  1.0  0.7374
  C  C701  1  0.466600  0.741200  0.682100  1.0  -0.1934
  C  C702  1  0.368100  0.835900  0.792000  1.0  -0.1932
  C  C703  1  0.233700  0.772200  0.810400  1.0  -0.2187
  C  C704  1  0.138600  0.866600  0.914700  1.0  -0.18
  C  C705  1  0.502500  0.684500  0.698200  1.0  -0.0642
  C  C706  1  0.387800  0.798200  0.827800  1.0  -0.08
  C  C707  1  0.214300  0.808700  0.774900  1.0  -0.0878
  C  C708  1  0.097900  0.921700  0.899200  1.0  -0.0849
  C  C709  1  0.566100  0.654800  0.661500  1.0  -0.0932
  C  C710  1  0.418600  0.801700  0.826000  1.0  0.0029
  C  C711  1  0.184200  0.803800  0.777700  1.0  0.0544
  C  C712  1  0.033600  0.947900  0.939100  1.0  0.0202
  C  C713  1  0.598900  0.595500  0.688500  1.0  -0.0711
  C  C714  1  0.430700  0.848500  0.783400  1.0  -0.0776
  C  C715  1  0.436000  0.756500  0.869200  1.0  -0.1124
  C  C716  1  0.171100  0.756800  0.822500  1.0  -0.0065
  C  C717  1  0.165400  0.849500  0.734100  1.0  -0.0843
  C  C718  1  0.007700  0.913100  0.999800  1.0  -0.0804
  C  C719  1  0.459100  0.851800  0.781500  1.0  -0.0545
  C  C720  1  0.467000  0.755200  0.869700  1.0  0.0307
  C  C721  1  0.142500  0.754200  0.823200  1.0  -0.0267
  C  C722  1  0.135800  0.849200  0.734400  1.0  0.0078
  C  C723  1  0.472500  0.901700  0.733400  1.0  -0.1078
  C  C724  1  0.477700  0.806000  0.823600  1.0  -0.0509
  C  C725  1  0.489300  0.705800  0.912800  1.0  -0.0887
  C  C726  1  0.130600  0.702000  0.871500  1.0  -0.0904
  C  C727  1  0.124200  0.800200  0.779700  1.0  -0.0917
  C  C728  1  0.114500  0.899700  0.689400  1.0  -0.0697
  C  C729  1  0.461200  0.947500  0.689700  1.0  -0.1383
  C  C730  1  0.479900  0.659800  0.957900  1.0  -0.1819
  C  C731  1  0.111900  0.689300  0.874500  1.0  -0.1871
  C  C732  1  0.081500  0.908500  0.687800  1.0  -0.13
  C  C733  1  0.479900  0.994800  0.640500  1.0  0.6923
  C  C734  1  0.506000  0.607900  0.000800  1.0  0.6732
  C  C735  1  0.091900  0.642100  0.927400  1.0  0.6939
  C  C736  1  0.061400  0.960700  0.641000  1.0  0.6989
  C  C737  1  0.724300  0.405200  0.764600  1.0  0.7092
  C  C738  1  0.793700  0.342400  0.826400  1.0  0.6984
  C  C739  1  0.803700  0.262800  0.783500  1.0  0.6943
  C  C740  1  0.873600  0.199000  0.844400  1.0  0.7376
  C  C741  1  0.682100  0.466600  0.741200  1.0  -0.1896
  C  C742  1  0.792000  0.368100  0.835900  1.0  -0.1937
  C  C743  1  0.810400  0.233700  0.772200  1.0  -0.2216
  C  C744  1  0.914700  0.138600  0.866600  1.0  -0.1789
  C  C745  1  0.698200  0.502500  0.684500  1.0  -0.0646
  C  C746  1  0.827800  0.387800  0.798200  1.0  -0.0834
  C  C747  1  0.774900  0.214300  0.808700  1.0  -0.0914
  C  C748  1  0.899200  0.097900  0.921700  1.0  -0.0846
  C  C749  1  0.661500  0.566100  0.654800  1.0  -0.0927
  C  C750  1  0.826000  0.418600  0.801700  1.0  0.0036
  C  C751  1  0.777700  0.184200  0.803800  1.0  0.0583
  C  C752  1  0.939100  0.033600  0.947900  1.0  0.0213
  C  C753  1  0.688500  0.598900  0.595500  1.0  -0.0696
  C  C754  1  0.783400  0.430700  0.848500  1.0  -0.0812
  C  C755  1  0.869200  0.436000  0.756500  1.0  -0.1135
  C  C756  1  0.822500  0.171100  0.756800  1.0  -0.0081
  C  C757  1  0.734100  0.165400  0.849500  1.0  -0.0863
  C  C758  1  0.999800  0.007700  0.913100  1.0  -0.0828
  C  C759  1  0.781500  0.459100  0.851800  1.0  -0.0518
  C  C760  1  0.869700  0.467000  0.755200  1.0  0.0285
  C  C761  1  0.823200  0.142500  0.754200  1.0  -0.0259
  C  C762  1  0.734400  0.135800  0.849200  1.0  0.0034
  C  C763  1  0.733400  0.472500  0.901700  1.0  -0.1073
  C  C764  1  0.823600  0.477700  0.806000  1.0  -0.0521
  C  C765  1  0.912800  0.489300  0.705800  1.0  -0.0886
  C  C766  1  0.871500  0.130600  0.702000  1.0  -0.0858
  C  C767  1  0.779700  0.124200  0.800200  1.0  -0.0913
  C  C768  1  0.689400  0.114500  0.899700  1.0  -0.0653
  C  C769  1  0.689700  0.461200  0.947500  1.0  -0.1338
  C  C770  1  0.957900  0.479900  0.659800  1.0  -0.1807
  C  C771  1  0.874500  0.111900  0.689300  1.0  -0.1879
  C  C772  1  0.687800  0.081500  0.908500  1.0  -0.1292
  C  C773  1  0.640500  0.479900  0.994800  1.0  0.6925
  C  C774  1  0.000800  0.506000  0.607900  1.0  0.6722
  C  C775  1  0.927400  0.091900  0.642100  1.0  0.6931
  C  C776  1  0.641000  0.061400  0.960700  1.0  0.6971
  C  C777  1  0.764600  0.724300  0.405200  1.0  0.7067
  C  C778  1  0.826400  0.793700  0.342400  1.0  0.6979
  C  C779  1  0.783500  0.803700  0.262800  1.0  0.6977
  C  C780  1  0.844400  0.873600  0.199000  1.0  0.7371
  C  C781  1  0.741200  0.682100  0.466600  1.0  -0.1927
  C  C782  1  0.835900  0.792000  0.368100  1.0  -0.1923
  C  C783  1  0.772200  0.810400  0.233700  1.0  -0.2247
  C  C784  1  0.866600  0.914700  0.138600  1.0  -0.1795
  C  C785  1  0.684500  0.698200  0.502500  1.0  -0.069
  C  C786  1  0.798200  0.827800  0.387800  1.0  -0.0823
  C  C787  1  0.808700  0.774900  0.214300  1.0  -0.0867
  C  C788  1  0.921700  0.899200  0.097900  1.0  -0.0805
  C  C789  1  0.654800  0.661500  0.566100  1.0  -0.0927
  C  C790  1  0.801700  0.826000  0.418600  1.0  0.0039
  C  C791  1  0.803800  0.777700  0.184200  1.0  0.0531
  C  C792  1  0.947900  0.939100  0.033600  1.0  0.0205
  C  C793  1  0.595500  0.688500  0.598900  1.0  -0.0677
  C  C794  1  0.848500  0.783400  0.430700  1.0  -0.0781
  C  C795  1  0.756500  0.869200  0.436000  1.0  -0.1138
  C  C796  1  0.756800  0.822500  0.171100  1.0  -0.0076
  C  C797  1  0.849500  0.734100  0.165400  1.0  -0.0849
  C  C798  1  0.913100  0.999800  0.007700  1.0  -0.0815
  C  C799  1  0.851800  0.781500  0.459100  1.0  -0.052
  C  C800  1  0.755200  0.869700  0.467000  1.0  0.0301
  C  C801  1  0.754200  0.823200  0.142500  1.0  -0.0262
  C  C802  1  0.849200  0.734400  0.135800  1.0  0.0032
  C  C803  1  0.901700  0.733400  0.472500  1.0  -0.1061
  C  C804  1  0.806000  0.823600  0.477700  1.0  -0.0456
  C  C805  1  0.705800  0.912800  0.489300  1.0  -0.0882
  C  C806  1  0.702000  0.871500  0.130600  1.0  -0.0906
  C  C807  1  0.800200  0.779700  0.124200  1.0  -0.0891
  C  C808  1  0.899700  0.689400  0.114500  1.0  -0.0646
  C  C809  1  0.947500  0.689700  0.461200  1.0  -0.1359
  C  C810  1  0.659800  0.957900  0.479900  1.0  -0.1814
  C  C811  1  0.689300  0.874500  0.111900  1.0  -0.1852
  C  C812  1  0.908500  0.687800  0.081500  1.0  -0.1293
  C  C813  1  0.994800  0.640500  0.479900  1.0  0.6941
  C  C814  1  0.607900  0.000800  0.506000  1.0  0.6737
  C  C815  1  0.642100  0.927400  0.091900  1.0  0.6917
  C  C816  1  0.960700  0.641000  0.061400  1.0  0.7006
  O  O817  1  0.609100  0.272500  0.221300  1.0  -0.5582
  O  O818  1  0.656900  0.223700  0.167600  1.0  -0.5694
  O  O819  1  0.720400  0.256900  0.158100  1.0  -0.5839
  O  O820  1  0.766900  0.209800  0.105900  1.0  -0.571
  O  O821  1  0.626800  0.180400  0.296800  1.0  -0.5737
  O  O822  1  0.786200  0.120600  0.181400  1.0  -0.576
  O  O823  1  0.679100  0.132900  0.239900  1.0  -0.5597
  O  O824  1  0.734000  0.169700  0.237100  1.0  -0.5549
  O  O825  1  0.492200  0.009400  0.356800  1.0  -0.558
  O  O826  1  0.531300  0.967000  0.402800  1.0  -0.5948
  O  O827  1  0.464900  0.386700  0.007900  1.0  -0.5548
  O  O828  1  0.508400  0.432400  0.960000  1.0  -0.5861
  O  O829  1  0.935200  0.356700  0.073600  1.0  -0.5733
  O  O830  1  0.894300  0.395200  0.032600  1.0  -0.5826
  O  O831  1  0.924200  0.999000  0.398200  1.0  -0.5571
  O  O832  1  0.972600  0.037700  0.352400  1.0  -0.5655
  O  O833  1  0.221300  0.609100  0.272500  1.0  -0.5555
  O  O834  1  0.167600  0.656900  0.223700  1.0  -0.5703
  O  O835  1  0.158100  0.720400  0.256900  1.0  -0.5813
  O  O836  1  0.105900  0.766900  0.209800  1.0  -0.5725
  O  O837  1  0.296800  0.626800  0.180400  1.0  -0.5773
  O  O838  1  0.181400  0.786200  0.120600  1.0  -0.5762
  O  O839  1  0.239900  0.679100  0.132900  1.0  -0.5582
  O  O840  1  0.237100  0.734000  0.169700  1.0  -0.5537
  O  O841  1  0.356800  0.492200  0.009400  1.0  -0.5616
  O  O842  1  0.402800  0.531300  0.967000  1.0  -0.5959
  O  O843  1  0.007900  0.464900  0.386700  1.0  -0.5522
  O  O844  1  0.960000  0.508400  0.432400  1.0  -0.5842
  O  O845  1  0.073600  0.935200  0.356700  1.0  -0.5723
  O  O846  1  0.032600  0.894300  0.395200  1.0  -0.5808
  O  O847  1  0.398200  0.924200  0.999000  1.0  -0.5565
  O  O848  1  0.352400  0.972600  0.037700  1.0  -0.5662
  O  O849  1  0.272500  0.221300  0.609100  1.0  -0.5603
  O  O850  1  0.223700  0.167600  0.656900  1.0  -0.5708
  O  O851  1  0.256900  0.158100  0.720400  1.0  -0.5789
  O  O852  1  0.209800  0.105900  0.766900  1.0  -0.5722
  O  O853  1  0.180400  0.296800  0.626800  1.0  -0.5734
  O  O854  1  0.120600  0.181400  0.786200  1.0  -0.5773
  O  O855  1  0.132900  0.239900  0.679100  1.0  -0.5607
  O  O856  1  0.169700  0.237100  0.734000  1.0  -0.5543
  O  O857  1  0.009400  0.356800  0.492200  1.0  -0.5599
  O  O858  1  0.967000  0.402800  0.531300  1.0  -0.5938
  O  O859  1  0.386700  0.007900  0.464900  1.0  -0.5523
  O  O860  1  0.432400  0.960000  0.508400  1.0  -0.5825
  O  O861  1  0.356700  0.073600  0.935200  1.0  -0.5727
  O  O862  1  0.395200  0.032600  0.894300  1.0  -0.5826
  O  O863  1  0.999000  0.398200  0.924200  1.0  -0.5589
  O  O864  1  0.037700  0.352400  0.972600  1.0  -0.5652
  O  O865  1  0.772500  0.109100  0.721300  1.0  -0.5588
  O  O866  1  0.723700  0.156900  0.667600  1.0  -0.5689
  O  O867  1  0.756900  0.220400  0.658100  1.0  -0.5846
  O  O868  1  0.709800  0.266900  0.605900  1.0  -0.5739
  O  O869  1  0.680400  0.126800  0.796800  1.0  -0.5751
  O  O870  1  0.620600  0.286200  0.681400  1.0  -0.5768
  O  O871  1  0.632900  0.179100  0.739900  1.0  -0.5585
  O  O872  1  0.669700  0.234000  0.737100  1.0  -0.5532
  O  O873  1  0.509400  0.992200  0.856800  1.0  -0.5587
  O  O874  1  0.467000  0.031300  0.902800  1.0  -0.5976
  O  O875  1  0.886700  0.964900  0.507900  1.0  -0.5556
  O  O876  1  0.932400  0.008400  0.460000  1.0  -0.5844
  O  O877  1  0.856700  0.435200  0.573600  1.0  -0.5732
  O  O878  1  0.895200  0.394300  0.532600  1.0  -0.583
  O  O879  1  0.499000  0.424200  0.898200  1.0  -0.5576
  O  O880  1  0.537700  0.472600  0.852400  1.0  -0.5638
  O  O881  1  0.109100  0.721300  0.772500  1.0  -0.5557
  O  O882  1  0.156900  0.667600  0.723700  1.0  -0.5708
  O  O883  1  0.220400  0.658100  0.756900  1.0  -0.5787
  O  O884  1  0.266900  0.605900  0.709800  1.0  -0.572
  O  O885  1  0.126800  0.796800  0.680400  1.0  -0.5766
  O  O886  1  0.286200  0.681400  0.620600  1.0  -0.5763
  O  O887  1  0.179100  0.739900  0.632900  1.0  -0.5588
  O  O888  1  0.234000  0.737100  0.669700  1.0  -0.5555
  O  O889  1  0.992200  0.856800  0.509400  1.0  -0.5605
  O  O890  1  0.031300  0.902800  0.467000  1.0  -0.5962
  O  O891  1  0.964900  0.507900  0.886700  1.0  -0.5508
  O  O892  1  0.008400  0.460000  0.932400  1.0  -0.5857
  O  O893  1  0.435200  0.573600  0.856700  1.0  -0.5707
  O  O894  1  0.394300  0.532600  0.895200  1.0  -0.5815
  O  O895  1  0.424200  0.898200  0.499000  1.0  -0.559
  O  O896  1  0.472600  0.852400  0.537700  1.0  -0.5652
  O  O897  1  0.721300  0.772500  0.109100  1.0  -0.5587
  O  O898  1  0.667600  0.723700  0.156900  1.0  -0.5691
  O  O899  1  0.658100  0.756900  0.220400  1.0  -0.5823
  O  O900  1  0.605900  0.709800  0.266900  1.0  -0.5751
  O  O901  1  0.796800  0.680400  0.126800  1.0  -0.5717
  O  O902  1  0.681400  0.620600  0.286200  1.0  -0.5761
  O  O903  1  0.739900  0.632900  0.179100  1.0  -0.5589
  O  O904  1  0.737100  0.669700  0.234000  1.0  -0.5555
  O  O905  1  0.856800  0.509400  0.992200  1.0  -0.5593
  O  O906  1  0.902800  0.467000  0.031300  1.0  -0.5949
  O  O907  1  0.507900  0.886700  0.964900  1.0  -0.5517
  O  O908  1  0.460000  0.932400  0.008400  1.0  -0.5823
  O  O909  1  0.573600  0.856700  0.435200  1.0  -0.5737
  O  O910  1  0.532600  0.895200  0.394300  1.0  -0.5835
  O  O911  1  0.898200  0.499000  0.424200  1.0  -0.5575
  O  O912  1  0.852400  0.537700  0.472600  1.0  -0.567
  O  O913  1  0.227500  0.890900  0.278700  1.0  -0.5596
  O  O914  1  0.276300  0.843100  0.332400  1.0  -0.5689
  O  O915  1  0.243100  0.779600  0.341900  1.0  -0.5817
  O  O916  1  0.290200  0.733100  0.394100  1.0  -0.5729
  O  O917  1  0.319600  0.873200  0.203200  1.0  -0.5767
  O  O918  1  0.379400  0.713800  0.318600  1.0  -0.5758
  O  O919  1  0.367100  0.820900  0.260100  1.0  -0.5594
  O  O920  1  0.330300  0.766000  0.262900  1.0  -0.5526
  O  O921  1  0.490600  0.007800  0.143200  1.0  -0.5624
  O  O922  1  0.533000  0.968700  0.097200  1.0  -0.5961
  O  O923  1  0.113300  0.035100  0.492100  1.0  -0.5535
  O  O924  1  0.067600  0.991600  0.540000  1.0  -0.584
  O  O925  1  0.143300  0.564800  0.426400  1.0  -0.575
  O  O926  1  0.104800  0.605700  0.467400  1.0  -0.5821
  O  O927  1  0.501000  0.575800  0.101800  1.0  -0.5574
  O  O928  1  0.462300  0.527400  0.147600  1.0  -0.5659
  O  O929  1  0.890900  0.278700  0.227500  1.0  -0.5545
  O  O930  1  0.843100  0.332400  0.276300  1.0  -0.5705
  O  O931  1  0.779600  0.341900  0.243100  1.0  -0.5817
  O  O932  1  0.733100  0.394100  0.290200  1.0  -0.5719
  O  O933  1  0.873200  0.203200  0.319600  1.0  -0.5742
  O  O934  1  0.713800  0.318600  0.379400  1.0  -0.5771
  O  O935  1  0.820900  0.260100  0.367100  1.0  -0.5593
  O  O936  1  0.766000  0.262900  0.330300  1.0  -0.5531
  O  O937  1  0.007800  0.143200  0.490600  1.0  -0.5627
  O  O938  1  0.968700  0.097200  0.533000  1.0  -0.5968
  O  O939  1  0.035100  0.492100  0.113300  1.0  -0.5515
  O  O940  1  0.991600  0.540000  0.067600  1.0  -0.5842
  O  O941  1  0.564800  0.426400  0.143300  1.0  -0.5724
  O  O942  1  0.605700  0.467400  0.104800  1.0  -0.581
  O  O943  1  0.575800  0.101800  0.501000  1.0  -0.5597
  O  O944  1  0.527400  0.147600  0.462300  1.0  -0.5672
  O  O945  1  0.278700  0.227500  0.890900  1.0  -0.5583
  O  O946  1  0.332400  0.276300  0.843100  1.0  -0.5702
  O  O947  1  0.341900  0.243100  0.779600  1.0  -0.5829
  O  O948  1  0.394100  0.290200  0.733100  1.0  -0.576
  O  O949  1  0.203200  0.319600  0.873200  1.0  -0.5723
  O  O950  1  0.318600  0.379400  0.713800  1.0  -0.5749
  O  O951  1  0.260100  0.367100  0.820900  1.0  -0.5588
  O  O952  1  0.262900  0.330300  0.766000  1.0  -0.5551
  O  O953  1  0.143200  0.490600  0.007800  1.0  -0.5608
  O  O954  1  0.097200  0.533000  0.968700  1.0  -0.5985
  O  O955  1  0.492100  0.113300  0.035100  1.0  -0.5537
  O  O956  1  0.540000  0.067600  0.991600  1.0  -0.5854
  O  O957  1  0.426400  0.143300  0.564800  1.0  -0.5744
  O  O958  1  0.467400  0.104800  0.605700  1.0  -0.5804
  O  O959  1  0.101800  0.501000  0.575800  1.0  -0.5582
  O  O960  1  0.147600  0.462300  0.527400  1.0  -0.567
  O  O961  1  0.390900  0.727500  0.778700  1.0  -0.5592
  O  O962  1  0.343100  0.776300  0.832400  1.0  -0.5687
  O  O963  1  0.279600  0.743100  0.841900  1.0  -0.5815
  O  O964  1  0.233100  0.790200  0.894100  1.0  -0.5714
  O  O965  1  0.373200  0.819600  0.703200  1.0  -0.5741
  O  O966  1  0.213800  0.879400  0.818600  1.0  -0.5761
  O  O967  1  0.320900  0.867100  0.760100  1.0  -0.5589
  O  O968  1  0.266000  0.830300  0.762900  1.0  -0.5563
  O  O969  1  0.507800  0.990600  0.643200  1.0  -0.5599
  O  O970  1  0.468700  0.033000  0.597200  1.0  -0.5971
  O  O971  1  0.535100  0.613300  0.992100  1.0  -0.5537
  O  O972  1  0.491600  0.567600  0.040000  1.0  -0.5846
  O  O973  1  0.064800  0.643300  0.926400  1.0  -0.5737
  O  O974  1  0.105700  0.604800  0.967400  1.0  -0.5826
  O  O975  1  0.075800  0.001000  0.601800  1.0  -0.558
  O  O976  1  0.027400  0.962300  0.647600  1.0  -0.5656
  O  O977  1  0.778700  0.390900  0.727500  1.0  -0.5542
  O  O978  1  0.832400  0.343100  0.776300  1.0  -0.5708
  O  O979  1  0.841900  0.279600  0.743100  1.0  -0.5845
  O  O980  1  0.894100  0.233100  0.790200  1.0  -0.572
  O  O981  1  0.703200  0.373200  0.819600  1.0  -0.5761
  O  O982  1  0.818600  0.213800  0.879400  1.0  -0.5767
  O  O983  1  0.760100  0.320900  0.867100  1.0  -0.5583
  O  O984  1  0.762900  0.266000  0.830300  1.0  -0.5529
  O  O985  1  0.643200  0.507800  0.990600  1.0  -0.5622
  O  O986  1  0.597200  0.468700  0.033000  1.0  -0.5962
  O  O987  1  0.992100  0.535100  0.613300  1.0  -0.5546
  O  O988  1  0.040000  0.491600  0.567600  1.0  -0.5877
  O  O989  1  0.926400  0.064800  0.643300  1.0  -0.573
  O  O990  1  0.967400  0.105700  0.604800  1.0  -0.5816
  O  O991  1  0.601800  0.075800  0.001000  1.0  -0.5591
  O  O992  1  0.647600  0.027400  0.962300  1.0  -0.5673
  O  O993  1  0.727500  0.778700  0.390900  1.0  -0.5592
  O  O994  1  0.776300  0.832400  0.343100  1.0  -0.5693
  O  O995  1  0.743100  0.841900  0.279600  1.0  -0.5814
  O  O996  1  0.790200  0.894100  0.233100  1.0  -0.5707
  O  O997  1  0.819600  0.703200  0.373200  1.0  -0.5758
  O  O998  1  0.879400  0.818600  0.213800  1.0  -0.5781
  O  O999  1  0.867100  0.760100  0.320900  1.0  -0.5615
  O  O1000  1  0.830300  0.762900  0.266000  1.0  -0.5532
  O  O1001  1  0.990600  0.643200  0.507800  1.0  -0.5632
  O  O1002  1  0.033000  0.597200  0.468700  1.0  -0.5986
  O  O1003  1  0.613300  0.992100  0.535100  1.0  -0.5526
  O  O1004  1  0.567600  0.040000  0.491600  1.0  -0.585
  O  O1005  1  0.643300  0.926400  0.064800  1.0  -0.575
  O  O1006  1  0.604800  0.967400  0.105700  1.0  -0.5835
  O  O1007  1  0.001000  0.601800  0.075800  1.0  -0.5582
  O  O1008  1  0.962300  0.647600  0.027400  1.0  -0.5667
