# generated using pymatgen
data_Mn6H39C31(NO8)2
_symmetry_space_group_name_H-M   'P 1'
_cell_length_a   47.89900000
_cell_length_b   47.89900000
_cell_length_c   14.17780000
_cell_angle_alpha   90.00000000
_cell_angle_beta   90.00000000
_cell_angle_gamma   120.00000000
_symmetry_Int_Tables_number   1
_chemical_formula_structural   Mn6H39C31(NO8)2
_chemical_formula_sum   'Mn108 H702 C558 N36 O288'
_cell_volume   28170.35828579
_cell_formula_units_Z   18
loop_
 _symmetry_equiv_pos_site_id
 _symmetry_equiv_pos_as_xyz
  1  'x, y, z'
loop_
 _atom_site_type_symbol
 _atom_site_label
 _atom_site_symmetry_multiplicity
 _atom_site_fract_x
 _atom_site_fract_y
 _atom_site_fract_z
 _atom_site_occupancy
 _atom_site_charge
  Mn  Mn1  1  0.529450  0.028930  0.984880  1.0  0.7751
  Mn  Mn2  1  0.466090  0.028460  0.923290  1.0  0.6494
  Mn  Mn3  1  0.448640  0.020320  0.697430  1.0  0.9342
  Mn  Mn4  1  0.452450  0.962370  0.799720  1.0  0.9448
  Mn  Mn5  1  0.521020  0.030790  0.761970  1.0  0.9626
  Mn  Mn6  1  0.528540  0.956960  0.855770  1.0  1.0594
  Mn  Mn7  1  0.196120  0.362260  0.318210  1.0  0.7752
  Mn  Mn8  1  0.132760  0.361790  0.256620  1.0  0.6494
  Mn  Mn9  1  0.115310  0.353650  0.030760  1.0  0.9342
  Mn  Mn10  1  0.119120  0.295700  0.133050  1.0  0.9448
  Mn  Mn11  1  0.187690  0.364120  0.095300  1.0  0.9626
  Mn  Mn12  1  0.195210  0.290290  0.189100  1.0  1.0594
  Mn  Mn13  1  0.862780  0.695600  0.651550  1.0  0.7751
  Mn  Mn14  1  0.799420  0.695130  0.589960  1.0  0.6494
  Mn  Mn15  1  0.781970  0.686990  0.364100  1.0  0.934
  Mn  Mn16  1  0.785780  0.629040  0.466390  1.0  0.9422
  Mn  Mn17  1  0.854350  0.697460  0.428640  1.0  0.9627
  Mn  Mn18  1  0.861870  0.623630  0.522440  1.0  1.0594
  Mn  Mn19  1  0.971070  0.500520  0.984880  1.0  0.7746
  Mn  Mn20  1  0.971540  0.437630  0.923290  1.0  0.6483
  Mn  Mn21  1  0.979680  0.428320  0.697430  1.0  0.9337
  Mn  Mn22  1  0.037630  0.490080  0.799720  1.0  0.9409
  Mn  Mn23  1  0.969210  0.490230  0.761970  1.0  0.9656
  Mn  Mn24  1  0.043040  0.571580  0.855770  1.0  1.0586
  Mn  Mn25  1  0.637740  0.833850  0.318210  1.0  0.7746
  Mn  Mn26  1  0.638210  0.770960  0.256620  1.0  0.6483
  Mn  Mn27  1  0.646350  0.761650  0.030760  1.0  0.9337
  Mn  Mn28  1  0.704300  0.823410  0.133050  1.0  0.9409
  Mn  Mn29  1  0.635880  0.823560  0.095300  1.0  0.9656
  Mn  Mn30  1  0.709710  0.904910  0.189100  1.0  1.0586
  Mn  Mn31  1  0.304400  0.167190  0.651550  1.0  0.7746
  Mn  Mn32  1  0.304870  0.104300  0.589960  1.0  0.6484
  Mn  Mn33  1  0.313010  0.094990  0.364100  1.0  0.9339
  Mn  Mn34  1  0.370960  0.156750  0.466390  1.0  0.9435
  Mn  Mn35  1  0.302540  0.156900  0.428640  1.0  0.9655
  Mn  Mn36  1  0.376370  0.238250  0.522440  1.0  1.0586
  Mn  Mn37  1  0.499480  0.470550  0.984880  1.0  0.7727
  Mn  Mn38  1  0.562370  0.533910  0.923290  1.0  0.6503
  Mn  Mn39  1  0.571680  0.551360  0.697430  1.0  0.9347
  Mn  Mn40  1  0.509920  0.547550  0.799720  1.0  0.941
  Mn  Mn41  1  0.509770  0.478980  0.761970  1.0  0.962
  Mn  Mn42  1  0.428420  0.471460  0.855770  1.0  1.0584
  Mn  Mn43  1  0.166150  0.803880  0.318210  1.0  0.7727
  Mn  Mn44  1  0.229040  0.867240  0.256620  1.0  0.6503
  Mn  Mn45  1  0.238350  0.884690  0.030760  1.0  0.9347
  Mn  Mn46  1  0.176590  0.880880  0.133050  1.0  0.941
  Mn  Mn47  1  0.176440  0.812310  0.095300  1.0  0.962
  Mn  Mn48  1  0.095090  0.804790  0.189100  1.0  1.0584
  Mn  Mn49  1  0.832810  0.137220  0.651550  1.0  0.7727
  Mn  Mn50  1  0.895700  0.200580  0.589960  1.0  0.6503
  Mn  Mn51  1  0.905010  0.218030  0.364100  1.0  0.9349
  Mn  Mn52  1  0.843250  0.214220  0.466390  1.0  0.9436
  Mn  Mn53  1  0.843100  0.145650  0.428640  1.0  0.962
  Mn  Mn54  1  0.761750  0.138130  0.522440  1.0  1.0584
  Mn  Mn55  1  0.470550  0.971070  0.015120  1.0  0.7741
  Mn  Mn56  1  0.533910  0.971540  0.076710  1.0  0.6499
  Mn  Mn57  1  0.551360  0.979680  0.302570  1.0  0.9309
  Mn  Mn58  1  0.547550  0.037630  0.200280  1.0  0.9436
  Mn  Mn59  1  0.478980  0.969210  0.238030  1.0  0.96
  Mn  Mn60  1  0.471460  0.043040  0.144230  1.0  1.0561
  Mn  Mn61  1  0.137220  0.304400  0.348450  1.0  0.7741
  Mn  Mn62  1  0.200580  0.304870  0.410040  1.0  0.6499
  Mn  Mn63  1  0.218030  0.313010  0.635900  1.0  0.9307
  Mn  Mn64  1  0.214220  0.370960  0.533610  1.0  0.941
  Mn  Mn65  1  0.145650  0.302540  0.571360  1.0  0.9601
  Mn  Mn66  1  0.138130  0.376370  0.477560  1.0  1.0561
  Mn  Mn67  1  0.803880  0.637740  0.681790  1.0  0.7741
  Mn  Mn68  1  0.867240  0.638210  0.743380  1.0  0.6499
  Mn  Mn69  1  0.884690  0.646350  0.969240  1.0  0.9309
  Mn  Mn70  1  0.880880  0.704300  0.866950  1.0  0.9436
  Mn  Mn71  1  0.812310  0.635880  0.904700  1.0  0.96
  Mn  Mn72  1  0.804790  0.709710  0.810900  1.0  1.0561
  Mn  Mn73  1  0.028930  0.499480  0.015120  1.0  0.7742
  Mn  Mn74  1  0.028460  0.562370  0.076710  1.0  0.6494
  Mn  Mn75  1  0.020320  0.571680  0.302570  1.0  0.9327
  Mn  Mn76  1  0.962370  0.509920  0.200280  1.0  0.9406
  Mn  Mn77  1  0.030790  0.509770  0.238030  1.0  0.9612
  Mn  Mn78  1  0.956960  0.428420  0.144230  1.0  1.0575
  Mn  Mn79  1  0.695600  0.832810  0.348450  1.0  0.7742
  Mn  Mn80  1  0.695130  0.895700  0.410040  1.0  0.6494
  Mn  Mn81  1  0.686990  0.905010  0.635900  1.0  0.9329
  Mn  Mn82  1  0.629040  0.843250  0.533610  1.0  0.9432
  Mn  Mn83  1  0.697460  0.843100  0.571360  1.0  0.9611
  Mn  Mn84  1  0.623630  0.761750  0.477560  1.0  1.0575
  Mn  Mn85  1  0.362260  0.166150  0.681790  1.0  0.7742
  Mn  Mn86  1  0.361790  0.229040  0.743380  1.0  0.6494
  Mn  Mn87  1  0.353650  0.238350  0.969240  1.0  0.9327
  Mn  Mn88  1  0.295700  0.176590  0.866950  1.0  0.9406
  Mn  Mn89  1  0.364120  0.176440  0.904700  1.0  0.9612
  Mn  Mn90  1  0.290290  0.095090  0.810900  1.0  1.0575
  Mn  Mn91  1  0.500520  0.529450  0.015120  1.0  0.775
  Mn  Mn92  1  0.437630  0.466090  0.076710  1.0  0.6495
  Mn  Mn93  1  0.428320  0.448640  0.302570  1.0  0.932
  Mn  Mn94  1  0.490080  0.452450  0.200280  1.0  0.9418
  Mn  Mn95  1  0.490230  0.521020  0.238030  1.0  0.9602
  Mn  Mn96  1  0.571580  0.528540  0.144230  1.0  1.0563
  Mn  Mn97  1  0.167190  0.862780  0.348450  1.0  0.775
  Mn  Mn98  1  0.104300  0.799420  0.410040  1.0  0.6495
  Mn  Mn99  1  0.094990  0.781970  0.635900  1.0  0.9322
  Mn  Mn100  1  0.156750  0.785780  0.533610  1.0  0.9444
  Mn  Mn101  1  0.156900  0.854350  0.571360  1.0  0.9601
  Mn  Mn102  1  0.238250  0.861870  0.477560  1.0  1.0563
  Mn  Mn103  1  0.833850  0.196120  0.681790  1.0  0.775
  Mn  Mn104  1  0.770960  0.132760  0.743380  1.0  0.6495
  Mn  Mn105  1  0.761650  0.115310  0.969240  1.0  0.932
  Mn  Mn106  1  0.823410  0.119120  0.866950  1.0  0.9418
  Mn  Mn107  1  0.823560  0.187690  0.904700  1.0  0.9602
  Mn  Mn108  1  0.904910  0.195210  0.810900  1.0  1.0563
  H  H109  1  0.306100  0.901700  0.138100  1.0  0.0844
  H  H110  1  0.288200  0.933400  0.902400  1.0  0.1102
  H  H111  1  0.435800  0.900400  0.686700  1.0  0.1518
  H  H112  1  0.437500  0.870800  0.727100  1.0  0.1515
  H  H113  1  0.458000  0.889200  0.638400  1.0  0.1489
  H  H114  1  0.572500  0.202500  0.987800  1.0  0.0961
  H  H115  1  0.588600  0.191400  0.723100  1.0  0.1291
  H  H116  1  0.370800  0.934900  0.537100  1.0  0.1453
  H  H117  1  0.358300  0.909400  0.618800  1.0  0.1616
  H  H118  1  0.385900  0.912800  0.551900  1.0  0.1538
  H  H119  1  0.548400  0.148400  0.014200  1.0  0.1299
  H  H120  1  0.415100  0.092000  0.056400  1.0  0.1441
  H  H121  1  0.397200  0.069800  0.969900  1.0  0.1437
  H  H122  1  0.429800  0.102000  0.955000  1.0  0.1391
  H  H123  1  0.360000  0.926900  0.106100  1.0  0.0876
  H  H124  1  0.345400  0.961000  0.863600  1.0  0.0919
  H  H125  1  0.559800  0.137600  0.746200  1.0  0.1057
  H  H126  1  0.571000  0.030500  0.612300  1.0  0.1504
  H  H127  1  0.566700  0.998800  0.566800  1.0  0.1516
  H  H128  1  0.598100  0.021600  0.623200  1.0  0.1584
  H  H129  1  0.495600  0.975700  0.615800  1.0  0.1463
  H  H130  1  0.492400  0.002700  0.562500  1.0  0.1137
  H  H131  1  0.461600  0.969300  0.582900  1.0  0.141
  H  H132  1  0.492500  0.093800  0.828900  1.0  0.1026
  H  H133  1  0.516700  0.093800  0.754700  1.0  0.1037
  H  H134  1  0.386900  0.966100  0.822200  1.0  0.1028
  H  H135  1  0.393900  0.996700  0.880700  1.0  0.0977
  H  H136  1  0.535500  0.099400  0.040600  1.0  0.0989
  H  H137  1  0.504100  0.098600  0.004000  1.0  0.0885
  H  H138  1  0.570900  0.099300  0.821000  1.0  0.1104
  H  H139  1  0.574300  0.099200  0.930700  1.0  0.1124
  H  H140  1  0.397100  0.923400  0.015500  1.0  0.1033
  H  H141  1  0.388700  0.919500  0.908000  1.0  0.1041
  H  H142  1  0.404400  0.999000  0.055200  1.0  0.103
  H  H143  1  0.407300  0.971100  0.103300  1.0  0.0936
  H  H144  1  0.288100  0.870100  0.018900  1.0  0.1077
  H  H145  1  0.298400  0.953900  0.035400  1.0  0.0918
  H  H146  1  0.350000  0.895500  0.991600  1.0  0.1091
  H  H147  1  0.353200  0.979700  0.994800  1.0  0.0871
  H  H148  1  0.972770  0.235030  0.471430  1.0  0.0844
  H  H149  1  0.954870  0.266730  0.235730  1.0  0.1103
  H  H150  1  0.102470  0.233730  0.020030  1.0  0.1518
  H  H151  1  0.104170  0.204130  0.060430  1.0  0.1515
  H  H152  1  0.124670  0.222530  0.971730  1.0  0.1489
  H  H153  1  0.239170  0.535830  0.321130  1.0  0.0958
  H  H154  1  0.255270  0.524730  0.056430  1.0  0.1291
  H  H155  1  0.037470  0.268230  0.870430  1.0  0.1453
  H  H156  1  0.024970  0.242730  0.952130  1.0  0.1616
  H  H157  1  0.052570  0.246130  0.885230  1.0  0.1538
  H  H158  1  0.215070  0.481730  0.347530  1.0  0.1299
  H  H159  1  0.081770  0.425330  0.389730  1.0  0.1441
  H  H160  1  0.063870  0.403130  0.303230  1.0  0.1437
  H  H161  1  0.096470  0.435330  0.288330  1.0  0.1391
  H  H162  1  0.026670  0.260230  0.439430  1.0  0.0876
  H  H163  1  0.012070  0.294330  0.196930  1.0  0.0919
  H  H164  1  0.226470  0.470930  0.079530  1.0  0.1057
  H  H165  1  0.237670  0.363830  0.945630  1.0  0.1504
  H  H166  1  0.233370  0.332130  0.900130  1.0  0.1516
  H  H167  1  0.264770  0.354930  0.956530  1.0  0.1585
  H  H168  1  0.162270  0.309030  0.949130  1.0  0.1463
  H  H169  1  0.159070  0.336030  0.895830  1.0  0.1137
  H  H170  1  0.128270  0.302630  0.916230  1.0  0.141
  H  H171  1  0.159170  0.427130  0.162230  1.0  0.1026
  H  H172  1  0.183370  0.427130  0.088030  1.0  0.1037
  H  H173  1  0.053570  0.299430  0.155530  1.0  0.1028
  H  H174  1  0.060570  0.330030  0.214030  1.0  0.0977
  H  H175  1  0.202170  0.432730  0.373930  1.0  0.0989
  H  H176  1  0.170770  0.431930  0.337330  1.0  0.0885
  H  H177  1  0.237570  0.432630  0.154330  1.0  0.1104
  H  H178  1  0.240970  0.432530  0.264030  1.0  0.1124
  H  H179  1  0.063770  0.256730  0.348830  1.0  0.1033
  H  H180  1  0.055370  0.252830  0.241330  1.0  0.1041
  H  H181  1  0.071070  0.332330  0.388530  1.0  0.103
  H  H182  1  0.073970  0.304430  0.436630  1.0  0.0936
  H  H183  1  0.954770  0.203430  0.352230  1.0  0.1078
  H  H184  1  0.965070  0.287230  0.368730  1.0  0.0918
  H  H185  1  0.016670  0.228830  0.324930  1.0  0.109
  H  H186  1  0.019870  0.313030  0.328130  1.0  0.0872
  H  H187  1  0.639430  0.568370  0.804770  1.0  0.0844
  H  H188  1  0.621530  0.600070  0.569070  1.0  0.11
  H  H189  1  0.769130  0.567070  0.353370  1.0  0.1518
  H  H190  1  0.770830  0.537470  0.393770  1.0  0.1515
  H  H191  1  0.791330  0.555870  0.305070  1.0  0.1489
  H  H192  1  0.905830  0.869170  0.654470  1.0  0.0958
  H  H193  1  0.921930  0.858070  0.389770  1.0  0.1291
  H  H194  1  0.704130  0.601570  0.203770  1.0  0.1453
  H  H195  1  0.691630  0.576070  0.285470  1.0  0.1616
  H  H196  1  0.719230  0.579470  0.218570  1.0  0.1538
  H  H197  1  0.881730  0.815070  0.680870  1.0  0.1299
  H  H198  1  0.748430  0.758670  0.723070  1.0  0.1442
  H  H199  1  0.730530  0.736470  0.636570  1.0  0.1437
  H  H200  1  0.763130  0.768670  0.621670  1.0  0.1391
  H  H201  1  0.693330  0.593570  0.772770  1.0  0.0876
  H  H202  1  0.678730  0.627670  0.530270  1.0  0.0918
  H  H203  1  0.893130  0.804270  0.412870  1.0  0.1058
  H  H204  1  0.904330  0.697170  0.278970  1.0  0.1505
  H  H205  1  0.900030  0.665470  0.233470  1.0  0.1516
  H  H206  1  0.931430  0.688270  0.289870  1.0  0.1583
  H  H207  1  0.828930  0.642370  0.282470  1.0  0.1463
  H  H208  1  0.825730  0.669370  0.229170  1.0  0.1137
  H  H209  1  0.794930  0.635970  0.249570  1.0  0.141
  H  H210  1  0.825830  0.760470  0.495570  1.0  0.1025
  H  H211  1  0.850030  0.760470  0.421370  1.0  0.1037
  H  H212  1  0.720230  0.632770  0.488870  1.0  0.1028
  H  H213  1  0.727230  0.663370  0.547370  1.0  0.0977
  H  H214  1  0.868830  0.766070  0.707270  1.0  0.0989
  H  H215  1  0.837430  0.765270  0.670670  1.0  0.0885
  H  H216  1  0.904230  0.765970  0.487670  1.0  0.1105
  H  H217  1  0.907630  0.765870  0.597370  1.0  0.1124
  H  H218  1  0.730430  0.590070  0.682170  1.0  0.1033
  H  H219  1  0.722030  0.586170  0.574670  1.0  0.1041
  H  H220  1  0.737730  0.665670  0.721870  1.0  0.103
  H  H221  1  0.740630  0.637770  0.769970  1.0  0.0936
  H  H222  1  0.621430  0.536770  0.685570  1.0  0.1077
  H  H223  1  0.631730  0.620570  0.702070  1.0  0.0917
  H  H224  1  0.683330  0.562170  0.658270  1.0  0.1091
  H  H225  1  0.686530  0.646370  0.661470  1.0  0.0872
  H  H226  1  0.098300  0.404400  0.138100  1.0  0.084
  H  H227  1  0.066600  0.354800  0.902400  1.0  0.1094
  H  H228  1  0.099600  0.535400  0.686700  1.0  0.1491
  H  H229  1  0.129200  0.566700  0.727100  1.0  0.1488
  H  H230  1  0.110800  0.568800  0.638400  1.0  0.1492
  H  H231  1  0.797500  0.370000  0.987800  1.0  0.0975
  H  H232  1  0.808600  0.397200  0.723100  1.0  0.1278
  H  H233  1  0.065100  0.435900  0.537100  1.0  0.1472
  H  H234  1  0.090600  0.448900  0.618800  1.0  0.1611
  H  H235  1  0.087200  0.473100  0.551900  1.0  0.1543
  H  H236  1  0.851600  0.400000  0.014200  1.0  0.1289
  H  H237  1  0.908000  0.323100  0.056400  1.0  0.144
  H  H238  1  0.930200  0.327400  0.969900  1.0  0.1382
  H  H239  1  0.898000  0.327800  0.955000  1.0  0.1411
  H  H240  1  0.073100  0.433100  0.106100  1.0  0.0843
  H  H241  1  0.039000  0.384400  0.863600  1.0  0.0897
  H  H242  1  0.862400  0.422200  0.746200  1.0  0.1063
  H  H243  1  0.969500  0.540500  0.612300  1.0  0.146
  H  H244  1  0.001200  0.567900  0.566800  1.0  0.1517
  H  H245  1  0.978400  0.576500  0.623200  1.0  0.1634
  H  H246  1  0.024300  0.519900  0.615800  1.0  0.1447
  H  H247  1  0.997300  0.489700  0.562500  1.0  0.1102
  H  H248  1  0.030700  0.492300  0.582900  1.0  0.1418
  H  H249  1  0.906200  0.398700  0.828900  1.0  0.1038
  H  H250  1  0.906200  0.422900  0.754700  1.0  0.1045
  H  H251  1  0.033900  0.420800  0.822200  1.0  0.1039
  H  H252  1  0.003300  0.397200  0.880700  1.0  0.0981
  H  H253  1  0.900600  0.436100  0.040600  1.0  0.0982
  H  H254  1  0.901400  0.405500  0.004000  1.0  0.0929
  H  H255  1  0.900700  0.471600  0.821000  1.0  0.1112
  H  H256  1  0.900800  0.475100  0.930700  1.0  0.1132
  H  H257  1  0.076600  0.473700  0.015500  1.0  0.1013
  H  H258  1  0.080500  0.469200  0.908000  1.0  0.1039
  H  H259  1  0.001000  0.405400  0.055200  1.0  0.106
  H  H260  1  0.028900  0.436200  0.103300  1.0  0.0933
  H  H261  1  0.129900  0.418000  0.018900  1.0  0.1093
  H  H262  1  0.046100  0.344500  0.035400  1.0  0.0898
  H  H263  1  0.104500  0.454500  0.991600  1.0  0.1115
  H  H264  1  0.020300  0.373500  0.994800  1.0  0.0837
  H  H265  1  0.764970  0.737730  0.471430  1.0  0.084
  H  H266  1  0.733270  0.688130  0.235730  1.0  0.1097
  H  H267  1  0.766270  0.868730  0.020030  1.0  0.1491
  H  H268  1  0.795870  0.900030  0.060430  1.0  0.1491
  H  H269  1  0.777470  0.902130  0.971730  1.0  0.1492
  H  H270  1  0.464170  0.703330  0.321130  1.0  0.0962
  H  H271  1  0.475270  0.730530  0.056430  1.0  0.1277
  H  H272  1  0.731770  0.769230  0.870430  1.0  0.1471
  H  H273  1  0.757270  0.782230  0.952130  1.0  0.1611
  H  H274  1  0.753870  0.806430  0.885230  1.0  0.1543
  H  H275  1  0.518270  0.733330  0.347530  1.0  0.1289
  H  H276  1  0.574670  0.656430  0.389730  1.0  0.144
  H  H277  1  0.596870  0.660730  0.303230  1.0  0.1382
  H  H278  1  0.564670  0.661130  0.288330  1.0  0.1411
  H  H279  1  0.739770  0.766430  0.439430  1.0  0.0843
  H  H280  1  0.705670  0.717730  0.196930  1.0  0.0897
  H  H281  1  0.529070  0.755530  0.079530  1.0  0.1063
  H  H282  1  0.636170  0.873830  0.945630  1.0  0.146
  H  H283  1  0.667870  0.901230  0.900130  1.0  0.1517
  H  H284  1  0.645070  0.909830  0.956530  1.0  0.1634
  H  H285  1  0.690970  0.853230  0.949130  1.0  0.1447
  H  H286  1  0.663970  0.823030  0.895830  1.0  0.1102
  H  H287  1  0.697370  0.825630  0.916230  1.0  0.1418
  H  H288  1  0.572870  0.732030  0.162230  1.0  0.1038
  H  H289  1  0.572870  0.756230  0.088030  1.0  0.1045
  H  H290  1  0.700570  0.754130  0.155530  1.0  0.1039
  H  H291  1  0.669970  0.730530  0.214030  1.0  0.0981
  H  H292  1  0.567270  0.769430  0.373930  1.0  0.0982
  H  H293  1  0.568070  0.738830  0.337330  1.0  0.0929
  H  H294  1  0.567370  0.804930  0.154330  1.0  0.1112
  H  H295  1  0.567470  0.808430  0.264030  1.0  0.1132
  H  H296  1  0.743270  0.807030  0.348830  1.0  0.1013
  H  H297  1  0.747170  0.802530  0.241330  1.0  0.104
  H  H298  1  0.667670  0.738730  0.388530  1.0  0.106
  H  H299  1  0.695570  0.769530  0.436630  1.0  0.0933
  H  H300  1  0.796570  0.751330  0.352230  1.0  0.1093
  H  H301  1  0.712770  0.677830  0.368730  1.0  0.0898
  H  H302  1  0.771170  0.787830  0.324930  1.0  0.1115
  H  H303  1  0.686970  0.706830  0.328130  1.0  0.0837
  H  H304  1  0.431630  0.071070  0.804770  1.0  0.084
  H  H305  1  0.399930  0.021470  0.569070  1.0  0.1097
  H  H306  1  0.432930  0.202070  0.353370  1.0  0.1491
  H  H307  1  0.462530  0.233370  0.393770  1.0  0.1488
  H  H308  1  0.444130  0.235470  0.305070  1.0  0.1492
  H  H309  1  0.130830  0.036670  0.654470  1.0  0.0949
  H  H310  1  0.141930  0.063870  0.389770  1.0  0.1278
  H  H311  1  0.398430  0.102570  0.203770  1.0  0.1472
  H  H312  1  0.423930  0.115570  0.285470  1.0  0.1611
  H  H313  1  0.420530  0.139770  0.218570  1.0  0.1543
  H  H314  1  0.184930  0.066670  0.680870  1.0  0.1289
  H  H315  1  0.241330  0.989770  0.723070  1.0  0.1442
  H  H316  1  0.263530  0.994070  0.636570  1.0  0.1382
  H  H317  1  0.231330  0.994470  0.621670  1.0  0.1411
  H  H318  1  0.406430  0.099770  0.772770  1.0  0.0843
  H  H319  1  0.372330  0.051070  0.530270  1.0  0.0897
  H  H320  1  0.195730  0.088870  0.412870  1.0  0.1063
  H  H321  1  0.302830  0.207170  0.278970  1.0  0.1458
  H  H322  1  0.334530  0.234570  0.233470  1.0  0.1517
  H  H323  1  0.311730  0.243170  0.289870  1.0  0.1634
  H  H324  1  0.357630  0.186570  0.282470  1.0  0.1447
  H  H325  1  0.330630  0.156370  0.229170  1.0  0.1102
  H  H326  1  0.364030  0.158970  0.249570  1.0  0.1418
  H  H327  1  0.239530  0.065370  0.495570  1.0  0.1038
  H  H328  1  0.239530  0.089570  0.421370  1.0  0.1044
  H  H329  1  0.367230  0.087470  0.488870  1.0  0.1039
  H  H330  1  0.336630  0.063870  0.547370  1.0  0.0981
  H  H331  1  0.233930  0.102770  0.707270  1.0  0.0982
  H  H332  1  0.234730  0.072170  0.670670  1.0  0.0929
  H  H333  1  0.234030  0.138270  0.487670  1.0  0.1112
  H  H334  1  0.234130  0.141770  0.597370  1.0  0.1132
  H  H335  1  0.409930  0.140370  0.682170  1.0  0.1013
  H  H336  1  0.413830  0.135870  0.574670  1.0  0.1039
  H  H337  1  0.334330  0.072070  0.721870  1.0  0.106
  H  H338  1  0.362230  0.102870  0.769970  1.0  0.0933
  H  H339  1  0.463230  0.084670  0.685570  1.0  0.1093
  H  H340  1  0.379430  0.011170  0.702070  1.0  0.0899
  H  H341  1  0.437830  0.121170  0.658270  1.0  0.1115
  H  H342  1  0.353630  0.040170  0.661470  1.0  0.0838
  H  H343  1  0.595600  0.693900  0.138100  1.0  0.0842
  H  H344  1  0.645200  0.711800  0.902400  1.0  0.1103
  H  H345  1  0.464600  0.564200  0.686700  1.0  0.154
  H  H346  1  0.433300  0.562500  0.727100  1.0  0.1489
  H  H347  1  0.431200  0.542000  0.638400  1.0  0.1483
  H  H348  1  0.630000  0.427500  0.987800  1.0  0.0953
  H  H349  1  0.602800  0.411400  0.723100  1.0  0.1287
  H  H350  1  0.564100  0.629200  0.537100  1.0  0.1447
  H  H351  1  0.551100  0.641700  0.618800  1.0  0.1617
  H  H352  1  0.526900  0.614100  0.551900  1.0  0.1543
  H  H353  1  0.600000  0.451600  0.014200  1.0  0.1276
  H  H354  1  0.676900  0.584900  0.056400  1.0  0.1447
  H  H355  1  0.672600  0.602800  0.969900  1.0  0.1428
  H  H356  1  0.672200  0.570200  0.955000  1.0  0.1391
  H  H357  1  0.566900  0.640000  0.106100  1.0  0.0887
  H  H358  1  0.615600  0.654600  0.863600  1.0  0.0893
  H  H359  1  0.577800  0.440200  0.746200  1.0  0.1062
  H  H360  1  0.459500  0.429000  0.612300  1.0  0.1475
  H  H361  1  0.432100  0.433300  0.566800  1.0  0.1518
  H  H362  1  0.423500  0.401900  0.623200  1.0  0.1584
  H  H363  1  0.480100  0.504400  0.615800  1.0  0.1443
  H  H364  1  0.510300  0.507600  0.562500  1.0  0.1085
  H  H365  1  0.507700  0.538400  0.582900  1.0  0.1446
  H  H366  1  0.601300  0.507500  0.828900  1.0  0.1027
  H  H367  1  0.577100  0.483300  0.754700  1.0  0.104
  H  H368  1  0.579200  0.613100  0.822200  1.0  0.1031
  H  H369  1  0.602800  0.606100  0.880700  1.0  0.0951
  H  H370  1  0.563900  0.464500  0.040600  1.0  0.1007
  H  H371  1  0.594500  0.495900  0.004000  1.0  0.09
  H  H372  1  0.528400  0.429100  0.821000  1.0  0.1105
  H  H373  1  0.524900  0.425700  0.930700  1.0  0.114
  H  H374  1  0.526300  0.602900  0.015500  1.0  0.1026
  H  H375  1  0.530800  0.611300  0.908000  1.0  0.1037
  H  H376  1  0.594600  0.595600  0.055200  1.0  0.1067
  H  H377  1  0.563800  0.592700  0.103300  1.0  0.0933
  H  H378  1  0.582000  0.711900  0.018900  1.0  0.107
  H  H379  1  0.655500  0.701600  0.035400  1.0  0.0998
  H  H380  1  0.545500  0.650000  0.991600  1.0  0.1141
  H  H381  1  0.626500  0.646800  0.994800  1.0  0.0914
  H  H382  1  0.262270  0.027230  0.471430  1.0  0.0842
  H  H383  1  0.311870  0.045130  0.235730  1.0  0.11
  H  H384  1  0.131270  0.897530  0.020030  1.0  0.154
  H  H385  1  0.099970  0.895830  0.060430  1.0  0.1486
  H  H386  1  0.097870  0.875330  0.971730  1.0  0.1483
  H  H387  1  0.296670  0.760830  0.321130  1.0  0.0973
  H  H388  1  0.269470  0.744730  0.056430  1.0  0.1285
  H  H389  1  0.230770  0.962530  0.870430  1.0  0.1447
  H  H390  1  0.217770  0.975030  0.952130  1.0  0.1617
  H  H391  1  0.193570  0.947430  0.885230  1.0  0.1544
  H  H392  1  0.266670  0.784930  0.347530  1.0  0.1276
  H  H393  1  0.343570  0.918230  0.389730  1.0  0.1447
  H  H394  1  0.339270  0.936130  0.303230  1.0  0.1428
  H  H395  1  0.338870  0.903530  0.288330  1.0  0.1391
  H  H396  1  0.233570  0.973330  0.439430  1.0  0.0887
  H  H397  1  0.282270  0.987930  0.196930  1.0  0.0893
  H  H398  1  0.244470  0.773530  0.079530  1.0  0.1062
  H  H399  1  0.126170  0.762330  0.945630  1.0  0.1475
  H  H400  1  0.098770  0.766630  0.900130  1.0  0.1518
  H  H401  1  0.090170  0.735230  0.956530  1.0  0.1585
  H  H402  1  0.146770  0.837730  0.949130  1.0  0.1443
  H  H403  1  0.176970  0.840930  0.895830  1.0  0.1085
  H  H404  1  0.174370  0.871730  0.916230  1.0  0.1446
  H  H405  1  0.267970  0.840830  0.162230  1.0  0.1027
  H  H406  1  0.243770  0.816630  0.088030  1.0  0.104
  H  H407  1  0.245870  0.946430  0.155530  1.0  0.1031
  H  H408  1  0.269470  0.939430  0.214030  1.0  0.0951
  H  H409  1  0.230570  0.797830  0.373930  1.0  0.1007
  H  H410  1  0.261170  0.829230  0.337330  1.0  0.09
  H  H411  1  0.195070  0.762430  0.154330  1.0  0.1105
  H  H412  1  0.191570  0.759030  0.264030  1.0  0.114
  H  H413  1  0.192970  0.936230  0.348830  1.0  0.1026
  H  H414  1  0.197470  0.944630  0.241330  1.0  0.1037
  H  H415  1  0.261270  0.928930  0.388530  1.0  0.1067
  H  H416  1  0.230470  0.926030  0.436630  1.0  0.0932
  H  H417  1  0.248670  0.045230  0.352230  1.0  0.107
  H  H418  1  0.322170  0.034930  0.368730  1.0  0.0998
  H  H419  1  0.212170  0.983330  0.324930  1.0  0.1141
  H  H420  1  0.293170  0.980130  0.328130  1.0  0.0915
  H  H421  1  0.928930  0.360570  0.804770  1.0  0.0842
  H  H422  1  0.978530  0.378470  0.569070  1.0  0.1102
  H  H423  1  0.797930  0.230870  0.353370  1.0  0.154
  H  H424  1  0.766630  0.229170  0.393770  1.0  0.1489
  H  H425  1  0.764530  0.208670  0.305070  1.0  0.1483
  H  H426  1  0.963330  0.094170  0.654470  1.0  0.0942
  H  H427  1  0.936130  0.078070  0.389770  1.0  0.1287
  H  H428  1  0.897430  0.295870  0.203770  1.0  0.1447
  H  H429  1  0.884430  0.308370  0.285470  1.0  0.1617
  H  H430  1  0.860230  0.280770  0.218570  1.0  0.1543
  H  H431  1  0.933330  0.118270  0.680870  1.0  0.1276
  H  H432  1  0.010230  0.251570  0.723070  1.0  0.1446
  H  H433  1  0.005930  0.269470  0.636570  1.0  0.1427
  H  H434  1  0.005530  0.236870  0.621670  1.0  0.1391
  H  H435  1  0.900230  0.306670  0.772770  1.0  0.0887
  H  H436  1  0.948930  0.321270  0.530270  1.0  0.0893
  H  H437  1  0.911130  0.106870  0.412870  1.0  0.1062
  H  H438  1  0.792830  0.095670  0.278970  1.0  0.1475
  H  H439  1  0.765430  0.099970  0.233470  1.0  0.1518
  H  H440  1  0.756830  0.068570  0.289870  1.0  0.1584
  H  H441  1  0.813430  0.171070  0.282470  1.0  0.1443
  H  H442  1  0.843630  0.174270  0.229170  1.0  0.1085
  H  H443  1  0.841030  0.205070  0.249570  1.0  0.1446
  H  H444  1  0.934630  0.174170  0.495570  1.0  0.1027
  H  H445  1  0.910430  0.149970  0.421370  1.0  0.104
  H  H446  1  0.912530  0.279770  0.488870  1.0  0.1028
  H  H447  1  0.936130  0.272770  0.547370  1.0  0.0951
  H  H448  1  0.897230  0.131170  0.707270  1.0  0.1007
  H  H449  1  0.927830  0.162570  0.670670  1.0  0.09
  H  H450  1  0.861730  0.095770  0.487670  1.0  0.1105
  H  H451  1  0.858230  0.092370  0.597370  1.0  0.114
  H  H452  1  0.859630  0.269570  0.682170  1.0  0.1026
  H  H453  1  0.864130  0.277970  0.574670  1.0  0.1037
  H  H454  1  0.927930  0.262270  0.721870  1.0  0.1067
  H  H455  1  0.897130  0.259370  0.769970  1.0  0.0933
  H  H456  1  0.915330  0.378570  0.685570  1.0  0.107
  H  H457  1  0.988830  0.368270  0.702070  1.0  0.0998
  H  H458  1  0.878830  0.316670  0.658270  1.0  0.1141
  H  H459  1  0.959830  0.313470  0.661470  1.0  0.0913
  H  H460  1  0.693900  0.098300  0.861900  1.0  0.087
  H  H461  1  0.711800  0.066600  0.097600  1.0  0.1098
  H  H462  1  0.564200  0.099600  0.313300  1.0  0.1546
  H  H463  1  0.562500  0.129200  0.272900  1.0  0.1496
  H  H464  1  0.542000  0.110800  0.361600  1.0  0.1463
  H  H465  1  0.427500  0.797500  0.012200  1.0  0.0963
  H  H466  1  0.411400  0.808600  0.276900  1.0  0.1284
  H  H467  1  0.629200  0.065100  0.462900  1.0  0.1446
  H  H468  1  0.641700  0.090600  0.381200  1.0  0.1619
  H  H469  1  0.614100  0.087200  0.448100  1.0  0.1517
  H  H470  1  0.451600  0.851600  0.985800  1.0  0.1295
  H  H471  1  0.584900  0.908000  0.943600  1.0  0.1425
  H  H472  1  0.602800  0.930200  0.030100  1.0  0.1423
  H  H473  1  0.570200  0.898000  0.045000  1.0  0.1375
  H  H474  1  0.640000  0.073100  0.893900  1.0  0.0861
  H  H475  1  0.654600  0.039000  0.136400  1.0  0.0939
  H  H476  1  0.440200  0.862400  0.253800  1.0  0.1064
  H  H477  1  0.429000  0.969500  0.387700  1.0  0.1505
  H  H478  1  0.433300  0.001200  0.433200  1.0  0.1521
  H  H479  1  0.401900  0.978400  0.376800  1.0  0.1596
  H  H480  1  0.504400  0.024300  0.384200  1.0  0.1459
  H  H481  1  0.507600  0.997300  0.437500  1.0  0.1113
  H  H482  1  0.538400  0.030700  0.417100  1.0  0.1412
  H  H483  1  0.507500  0.906200  0.171100  1.0  0.105
  H  H484  1  0.483300  0.906200  0.245300  1.0  0.1038
  H  H485  1  0.613100  0.033900  0.177800  1.0  0.1048
  H  H486  1  0.606100  0.003300  0.119300  1.0  0.0964
  H  H487  1  0.464500  0.900600  0.959400  1.0  0.0989
  H  H488  1  0.495900  0.901400  0.996000  1.0  0.0891
  H  H489  1  0.429100  0.900700  0.179000  1.0  0.1116
  H  H490  1  0.425700  0.900800  0.069300  1.0  0.1135
  H  H491  1  0.602900  0.076600  0.984500  1.0  0.104
  H  H492  1  0.611300  0.080500  0.092000  1.0  0.1023
  H  H493  1  0.595600  0.001000  0.944800  1.0  0.1041
  H  H494  1  0.592700  0.028900  0.896700  1.0  0.0936
  H  H495  1  0.711900  0.129900  0.981100  1.0  0.1081
  H  H496  1  0.701600  0.046100  0.964600  1.0  0.092
  H  H497  1  0.650000  0.104500  0.008400  1.0  0.1107
  H  H498  1  0.646800  0.020300  0.005200  1.0  0.0883
  H  H499  1  0.360570  0.431630  0.195230  1.0  0.087
  H  H500  1  0.378470  0.399930  0.430930  1.0  0.1095
  H  H501  1  0.230870  0.432930  0.646630  1.0  0.1546
  H  H502  1  0.229170  0.462530  0.606230  1.0  0.1496
  H  H503  1  0.208670  0.444130  0.694930  1.0  0.1463
  H  H504  1  0.094170  0.130830  0.345530  1.0  0.0954
  H  H505  1  0.078070  0.141930  0.610230  1.0  0.1284
  H  H506  1  0.295870  0.398430  0.796230  1.0  0.1446
  H  H507  1  0.308370  0.423930  0.714530  1.0  0.1619
  H  H508  1  0.280770  0.420530  0.781430  1.0  0.1517
  H  H509  1  0.118270  0.184930  0.319130  1.0  0.1295
  H  H510  1  0.251570  0.241330  0.276930  1.0  0.1426
  H  H511  1  0.269470  0.263530  0.363430  1.0  0.1423
  H  H512  1  0.236870  0.231330  0.378330  1.0  0.1375
  H  H513  1  0.306670  0.406430  0.227230  1.0  0.0861
  H  H514  1  0.321270  0.372330  0.469730  1.0  0.0938
  H  H515  1  0.106870  0.195730  0.587130  1.0  0.1065
  H  H516  1  0.095670  0.302830  0.721030  1.0  0.1505
  H  H517  1  0.099970  0.334530  0.766530  1.0  0.1521
  H  H518  1  0.068570  0.311730  0.710130  1.0  0.1595
  H  H519  1  0.171070  0.357630  0.717530  1.0  0.1458
  H  H520  1  0.174270  0.330630  0.770830  1.0  0.1113
  H  H521  1  0.205070  0.364030  0.750430  1.0  0.1412
  H  H522  1  0.174170  0.239530  0.504430  1.0  0.105
  H  H523  1  0.149970  0.239530  0.578630  1.0  0.1038
  H  H524  1  0.279770  0.367230  0.511130  1.0  0.1048
  H  H525  1  0.272770  0.336630  0.452630  1.0  0.0964
  H  H526  1  0.131170  0.233930  0.292730  1.0  0.0989
  H  H527  1  0.162570  0.234730  0.329330  1.0  0.0891
  H  H528  1  0.095770  0.234030  0.512330  1.0  0.1116
  H  H529  1  0.092370  0.234130  0.402630  1.0  0.1135
  H  H530  1  0.269570  0.409930  0.317830  1.0  0.104
  H  H531  1  0.277970  0.413830  0.425330  1.0  0.1023
  H  H532  1  0.262270  0.334330  0.278130  1.0  0.1041
  H  H533  1  0.259370  0.362230  0.230030  1.0  0.0936
  H  H534  1  0.378570  0.463230  0.314430  1.0  0.1081
  H  H535  1  0.368270  0.379430  0.297930  1.0  0.0919
  H  H536  1  0.316670  0.437830  0.341730  1.0  0.1107
  H  H537  1  0.313470  0.353630  0.338530  1.0  0.0884
  H  H538  1  0.027230  0.764970  0.528570  1.0  0.087
  H  H539  1  0.045130  0.733270  0.764270  1.0  0.1098
  H  H540  1  0.897530  0.766270  0.979970  1.0  0.1546
  H  H541  1  0.895830  0.795870  0.939570  1.0  0.1496
  H  H542  1  0.875330  0.777470  0.028270  1.0  0.1463
  H  H543  1  0.760830  0.464170  0.678870  1.0  0.0954
  H  H544  1  0.744730  0.475270  0.943570  1.0  0.1279
  H  H545  1  0.962530  0.731770  0.129570  1.0  0.1446
  H  H546  1  0.975030  0.757270  0.047870  1.0  0.1619
  H  H547  1  0.947430  0.753870  0.114770  1.0  0.1517
  H  H548  1  0.784930  0.518270  0.652470  1.0  0.1295
  H  H549  1  0.918230  0.574670  0.610270  1.0  0.1425
  H  H550  1  0.936130  0.596870  0.696770  1.0  0.1423
  H  H551  1  0.903530  0.564670  0.711670  1.0  0.1375
  H  H552  1  0.973330  0.739770  0.560570  1.0  0.0861
  H  H553  1  0.987930  0.705670  0.803070  1.0  0.0939
  H  H554  1  0.773530  0.529070  0.920470  1.0  0.1064
  H  H555  1  0.762330  0.636170  0.054370  1.0  0.1505
  H  H556  1  0.766630  0.667870  0.099870  1.0  0.1521
  H  H557  1  0.735230  0.645070  0.043470  1.0  0.1597
  H  H558  1  0.837730  0.690970  0.050870  1.0  0.1458
  H  H559  1  0.840930  0.663970  0.104170  1.0  0.1113
  H  H560  1  0.871730  0.697370  0.083770  1.0  0.1412
  H  H561  1  0.840830  0.572870  0.837770  1.0  0.105
  H  H562  1  0.816630  0.572870  0.911970  1.0  0.1038
  H  H563  1  0.946430  0.700570  0.844470  1.0  0.1048
  H  H564  1  0.939430  0.669970  0.785970  1.0  0.0964
  H  H565  1  0.797830  0.567270  0.626070  1.0  0.0989
  H  H566  1  0.829230  0.568070  0.662670  1.0  0.0891
  H  H567  1  0.762430  0.567370  0.845670  1.0  0.1116
  H  H568  1  0.759030  0.567470  0.735970  1.0  0.1135
  H  H569  1  0.936230  0.743270  0.651170  1.0  0.104
  H  H570  1  0.944630  0.747170  0.758670  1.0  0.1023
  H  H571  1  0.928930  0.667670  0.611470  1.0  0.104
  H  H572  1  0.926030  0.695570  0.563370  1.0  0.0936
  H  H573  1  0.045230  0.796570  0.647770  1.0  0.1083
  H  H574  1  0.034930  0.712770  0.631270  1.0  0.092
  H  H575  1  0.983330  0.771170  0.675070  1.0  0.1106
  H  H576  1  0.980130  0.686970  0.671870  1.0  0.0884
  H  H577  1  0.901700  0.595600  0.861900  1.0  0.0863
  H  H578  1  0.933400  0.645200  0.097600  1.0  0.1088
  H  H579  1  0.900400  0.464600  0.313300  1.0  0.1503
  H  H580  1  0.870800  0.433300  0.272900  1.0  0.1461
  H  H581  1  0.889200  0.431200  0.361600  1.0  0.1488
  H  H582  1  0.202500  0.630000  0.012200  1.0  0.0971
  H  H583  1  0.191400  0.602800  0.276900  1.0  0.1277
  H  H584  1  0.934900  0.564100  0.462900  1.0  0.1457
  H  H585  1  0.909400  0.551100  0.381200  1.0  0.1622
  H  H586  1  0.912800  0.526900  0.448100  1.0  0.1531
  H  H587  1  0.148400  0.600000  0.985800  1.0  0.1286
  H  H588  1  0.092000  0.676900  0.943600  1.0  0.1437
  H  H589  1  0.069800  0.672600  0.030100  1.0  0.1388
  H  H590  1  0.102000  0.672200  0.045000  1.0  0.1414
  H  H591  1  0.926900  0.566900  0.893900  1.0  0.0835
  H  H592  1  0.961000  0.615600  0.136400  1.0  0.0931
  H  H593  1  0.137600  0.577800  0.253800  1.0  0.1061
  H  H594  1  0.030500  0.459500  0.387700  1.0  0.1498
  H  H595  1  0.998800  0.432100  0.433200  1.0  0.1523
  H  H596  1  0.021600  0.423500  0.376800  1.0  0.1627
  H  H597  1  0.975700  0.480100  0.384200  1.0  0.142
  H  H598  1  0.002700  0.510300  0.437500  1.0  0.1109
  H  H599  1  0.969300  0.507700  0.417100  1.0  0.1416
  H  H600  1  0.093800  0.601300  0.171100  1.0  0.104
  H  H601  1  0.093800  0.577100  0.245300  1.0  0.1059
  H  H602  1  0.966100  0.579200  0.177800  1.0  0.1066
  H  H603  1  0.996700  0.602800  0.119300  1.0  0.0967
  H  H604  1  0.099400  0.563900  0.959400  1.0  0.0992
  H  H605  1  0.098600  0.594500  0.996000  1.0  0.092
  H  H606  1  0.099300  0.528400  0.179000  1.0  0.1091
  H  H607  1  0.099200  0.524900  0.069300  1.0  0.1121
  H  H608  1  0.923400  0.526300  0.984500  1.0  0.1046
  H  H609  1  0.919500  0.530800  0.092000  1.0  0.1041
  H  H610  1  0.999000  0.594600  0.944800  1.0  0.1053
  H  H611  1  0.971100  0.563800  0.896700  1.0  0.0933
  H  H612  1  0.870100  0.582000  0.981100  1.0  0.1101
  H  H613  1  0.953900  0.655500  0.964600  1.0  0.0918
  H  H614  1  0.895500  0.545500  0.008400  1.0  0.1112
  H  H615  1  0.979700  0.626500  0.005200  1.0  0.0835
  H  H616  1  0.568370  0.928930  0.195230  1.0  0.0863
  H  H617  1  0.600070  0.978530  0.430930  1.0  0.1091
  H  H618  1  0.567070  0.797930  0.646630  1.0  0.1503
  H  H619  1  0.537470  0.766630  0.606230  1.0  0.1461
  H  H620  1  0.555870  0.764530  0.694930  1.0  0.1488
  H  H621  1  0.869170  0.963330  0.345530  1.0  0.0947
  H  H622  1  0.858070  0.936130  0.610230  1.0  0.1277
  H  H623  1  0.601570  0.897430  0.796230  1.0  0.1457
  H  H624  1  0.576070  0.884430  0.714530  1.0  0.1622
  H  H625  1  0.579470  0.860230  0.781430  1.0  0.1531
  H  H626  1  0.815070  0.933330  0.319130  1.0  0.1286
  H  H627  1  0.758670  0.010230  0.276930  1.0  0.1438
  H  H628  1  0.736470  0.005930  0.363430  1.0  0.1388
  H  H629  1  0.768670  0.005530  0.378330  1.0  0.1414
  H  H630  1  0.593570  0.900230  0.227230  1.0  0.0835
  H  H631  1  0.627670  0.948930  0.469730  1.0  0.0931
  H  H632  1  0.804270  0.911130  0.587130  1.0  0.1061
  H  H633  1  0.697170  0.792830  0.721030  1.0  0.1497
  H  H634  1  0.665470  0.765430  0.766530  1.0  0.1522
  H  H635  1  0.688270  0.756830  0.710130  1.0  0.1628
  H  H636  1  0.642370  0.813430  0.717530  1.0  0.142
  H  H637  1  0.669370  0.843630  0.770830  1.0  0.1109
  H  H638  1  0.635970  0.841030  0.750430  1.0  0.1416
  H  H639  1  0.760470  0.934630  0.504430  1.0  0.1041
  H  H640  1  0.760470  0.910430  0.578630  1.0  0.1058
  H  H641  1  0.632770  0.912530  0.511130  1.0  0.1066
  H  H642  1  0.663370  0.936130  0.452630  1.0  0.0967
  H  H643  1  0.766070  0.897230  0.292730  1.0  0.0992
  H  H644  1  0.765270  0.927830  0.329330  1.0  0.0921
  H  H645  1  0.765970  0.861730  0.512330  1.0  0.1091
  H  H646  1  0.765870  0.858230  0.402630  1.0  0.1121
  H  H647  1  0.590070  0.859630  0.317830  1.0  0.1046
  H  H648  1  0.586170  0.864130  0.425330  1.0  0.1041
  H  H649  1  0.665670  0.927930  0.278130  1.0  0.1053
  H  H650  1  0.637770  0.897130  0.230030  1.0  0.0933
  H  H651  1  0.536770  0.915330  0.314430  1.0  0.1101
  H  H652  1  0.620570  0.988830  0.297930  1.0  0.0918
  H  H653  1  0.562170  0.878830  0.341730  1.0  0.1112
  H  H654  1  0.646370  0.959830  0.338530  1.0  0.0836
  H  H655  1  0.235030  0.262270  0.528570  1.0  0.0862
  H  H656  1  0.266730  0.311870  0.764270  1.0  0.1091
  H  H657  1  0.233730  0.131270  0.979970  1.0  0.1503
  H  H658  1  0.204130  0.099970  0.939570  1.0  0.1463
  H  H659  1  0.222530  0.097870  0.028270  1.0  0.1488
  H  H660  1  0.535830  0.296670  0.678870  1.0  0.0956
  H  H661  1  0.524730  0.269470  0.943570  1.0  0.1277
  H  H662  1  0.268230  0.230770  0.129570  1.0  0.1456
  H  H663  1  0.242730  0.217770  0.047870  1.0  0.1622
  H  H664  1  0.246130  0.193570  0.114770  1.0  0.1531
  H  H665  1  0.481730  0.266670  0.652470  1.0  0.1286
  H  H666  1  0.425330  0.343570  0.610270  1.0  0.1437
  H  H667  1  0.403130  0.339270  0.696770  1.0  0.1389
  H  H668  1  0.435330  0.338870  0.711670  1.0  0.1414
  H  H669  1  0.260230  0.233570  0.560570  1.0  0.0835
  H  H670  1  0.294330  0.282270  0.803070  1.0  0.0931
  H  H671  1  0.470930  0.244470  0.920470  1.0  0.1061
  H  H672  1  0.363830  0.126170  0.054370  1.0  0.1498
  H  H673  1  0.332130  0.098770  0.099870  1.0  0.1523
  H  H674  1  0.354930  0.090170  0.043470  1.0  0.1627
  H  H675  1  0.309030  0.146770  0.050870  1.0  0.142
  H  H676  1  0.336030  0.176970  0.104170  1.0  0.1109
  H  H677  1  0.302630  0.174370  0.083770  1.0  0.1416
  H  H678  1  0.427130  0.267970  0.837770  1.0  0.104
  H  H679  1  0.427130  0.243770  0.911970  1.0  0.1059
  H  H680  1  0.299430  0.245870  0.844470  1.0  0.1066
  H  H681  1  0.330030  0.269470  0.785970  1.0  0.0967
  H  H682  1  0.432730  0.230570  0.626070  1.0  0.0992
  H  H683  1  0.431930  0.261170  0.662670  1.0  0.092
  H  H684  1  0.432630  0.195070  0.845670  1.0  0.1091
  H  H685  1  0.432530  0.191570  0.735970  1.0  0.1121
  H  H686  1  0.256730  0.192970  0.651170  1.0  0.1046
  H  H687  1  0.252830  0.197470  0.758670  1.0  0.1041
  H  H688  1  0.332330  0.261270  0.611470  1.0  0.1053
  H  H689  1  0.304430  0.230470  0.563370  1.0  0.0933
  H  H690  1  0.203430  0.248670  0.647770  1.0  0.1101
  H  H691  1  0.287230  0.322170  0.631270  1.0  0.0918
  H  H692  1  0.228830  0.212170  0.675070  1.0  0.1112
  H  H693  1  0.313030  0.293170  0.671870  1.0  0.0834
  H  H694  1  0.404400  0.306100  0.861900  1.0  0.0883
  H  H695  1  0.354800  0.288200  0.097600  1.0  0.1105
  H  H696  1  0.535400  0.435800  0.313300  1.0  0.1552
  H  H697  1  0.566700  0.437500  0.272900  1.0  0.1486
  H  H698  1  0.568800  0.458000  0.361600  1.0  0.1481
  H  H699  1  0.370000  0.572500  0.012200  1.0  0.096
  H  H700  1  0.397200  0.588600  0.276900  1.0  0.1285
  H  H701  1  0.435900  0.370800  0.462900  1.0  0.1457
  H  H702  1  0.448900  0.358300  0.381200  1.0  0.1617
  H  H703  1  0.473100  0.385900  0.448100  1.0  0.153
  H  H704  1  0.400000  0.548400  0.985800  1.0  0.1281
  H  H705  1  0.323100  0.415100  0.943600  1.0  0.1438
  H  H706  1  0.327400  0.397200  0.030100  1.0  0.1427
  H  H707  1  0.327800  0.429800  0.045000  1.0  0.1401
  H  H708  1  0.433100  0.360000  0.893900  1.0  0.087
  H  H709  1  0.384400  0.345400  0.136400  1.0  0.0938
  H  H710  1  0.422200  0.559800  0.253800  1.0  0.1064
  H  H711  1  0.540500  0.571000  0.387700  1.0  0.1498
  H  H712  1  0.567900  0.566700  0.433200  1.0  0.1516
  H  H713  1  0.576500  0.598100  0.376800  1.0  0.1616
  H  H714  1  0.519900  0.495600  0.384200  1.0  0.1452
  H  H715  1  0.489700  0.492400  0.437500  1.0  0.1109
  H  H716  1  0.492300  0.461600  0.417100  1.0  0.1448
  H  H717  1  0.398700  0.492500  0.171100  1.0  0.1047
  H  H718  1  0.422900  0.516700  0.245300  1.0  0.1047
  H  H719  1  0.420800  0.386900  0.177800  1.0  0.1047
  H  H720  1  0.397200  0.393900  0.119300  1.0  0.0961
  H  H721  1  0.436100  0.535500  0.959400  1.0  0.1009
  H  H722  1  0.405500  0.504100  0.996000  1.0  0.0914
  H  H723  1  0.471600  0.570900  0.179000  1.0  0.1093
  H  H724  1  0.475100  0.574300  0.069300  1.0  0.1124
  H  H725  1  0.473700  0.397100  0.984500  1.0  0.1025
  H  H726  1  0.469200  0.388700  0.092000  1.0  0.1026
  H  H727  1  0.405400  0.404400  0.944800  1.0  0.1061
  H  H728  1  0.436200  0.407300  0.896700  1.0  0.094
  H  H729  1  0.418000  0.288100  0.981100  1.0  0.1067
  H  H730  1  0.344500  0.298400  0.964600  1.0  0.0964
  H  H731  1  0.454500  0.350000  0.008400  1.0  0.1148
  H  H732  1  0.373500  0.353200  0.005200  1.0  0.0888
  H  H733  1  0.071070  0.639430  0.195230  1.0  0.0883
  H  H734  1  0.021470  0.621530  0.430930  1.0  0.1104
  H  H735  1  0.202070  0.769130  0.646630  1.0  0.1552
  H  H736  1  0.233370  0.770830  0.606230  1.0  0.1486
  H  H737  1  0.235470  0.791330  0.694930  1.0  0.1481
  H  H738  1  0.036670  0.905830  0.345530  1.0  0.0942
  H  H739  1  0.063870  0.921930  0.610230  1.0  0.1285
  H  H740  1  0.102570  0.704130  0.796230  1.0  0.1457
  H  H741  1  0.115570  0.691630  0.714530  1.0  0.1617
  H  H742  1  0.139770  0.719230  0.781430  1.0  0.153
  H  H743  1  0.066670  0.881730  0.319130  1.0  0.1281
  H  H744  1  0.989770  0.748430  0.276930  1.0  0.1437
  H  H745  1  0.994070  0.730530  0.363430  1.0  0.1427
  H  H746  1  0.994470  0.763130  0.378330  1.0  0.1401
  H  H747  1  0.099770  0.693330  0.227230  1.0  0.087
  H  H748  1  0.051070  0.678730  0.469730  1.0  0.0938
  H  H749  1  0.088870  0.893130  0.587130  1.0  0.1064
  H  H750  1  0.207170  0.904330  0.721030  1.0  0.1498
  H  H751  1  0.234570  0.900030  0.766530  1.0  0.1516
  H  H752  1  0.243170  0.931430  0.710130  1.0  0.1616
  H  H753  1  0.186570  0.828930  0.717530  1.0  0.1452
  H  H754  1  0.156370  0.825730  0.770830  1.0  0.1109
  H  H755  1  0.158970  0.794930  0.750430  1.0  0.1448
  H  H756  1  0.065370  0.825830  0.504430  1.0  0.1047
  H  H757  1  0.089570  0.850030  0.578630  1.0  0.1048
  H  H758  1  0.087470  0.720230  0.511130  1.0  0.1045
  H  H759  1  0.063870  0.727230  0.452630  1.0  0.0962
  H  H760  1  0.102770  0.868830  0.292730  1.0  0.1009
  H  H761  1  0.072170  0.837430  0.329330  1.0  0.0914
  H  H762  1  0.138270  0.904230  0.512330  1.0  0.1093
  H  H763  1  0.141770  0.907630  0.402630  1.0  0.1124
  H  H764  1  0.140370  0.730430  0.317830  1.0  0.1025
  H  H765  1  0.135870  0.722030  0.425330  1.0  0.1026
  H  H766  1  0.072070  0.737730  0.278130  1.0  0.1061
  H  H767  1  0.102870  0.740630  0.230030  1.0  0.094
  H  H768  1  0.084670  0.621430  0.314430  1.0  0.1067
  H  H769  1  0.011170  0.631730  0.297930  1.0  0.0964
  H  H770  1  0.121170  0.683330  0.341730  1.0  0.1148
  H  H771  1  0.040170  0.686530  0.338530  1.0  0.0888
  H  H772  1  0.737730  0.972770  0.528570  1.0  0.0883
  H  H773  1  0.688130  0.954870  0.764270  1.0  0.1102
  H  H774  1  0.868730  0.102470  0.979970  1.0  0.1552
  H  H775  1  0.900030  0.104170  0.939570  1.0  0.1489
  H  H776  1  0.902130  0.124670  0.028270  1.0  0.1481
  H  H777  1  0.703330  0.239170  0.678870  1.0  0.0974
  H  H778  1  0.730530  0.255270  0.943570  1.0  0.1286
  H  H779  1  0.769230  0.037470  0.129570  1.0  0.1457
  H  H780  1  0.782230  0.024970  0.047870  1.0  0.1617
  H  H781  1  0.806430  0.052570  0.114770  1.0  0.153
  H  H782  1  0.733330  0.215070  0.652470  1.0  0.1281
  H  H783  1  0.656430  0.081770  0.610270  1.0  0.1438
  H  H784  1  0.660730  0.063870  0.696770  1.0  0.1427
  H  H785  1  0.661130  0.096470  0.711670  1.0  0.1401
  H  H786  1  0.766430  0.026670  0.560570  1.0  0.087
  H  H787  1  0.717730  0.012070  0.803070  1.0  0.0938
  H  H788  1  0.755530  0.226470  0.920470  1.0  0.1064
  H  H789  1  0.873830  0.237670  0.054370  1.0  0.1498
  H  H790  1  0.901230  0.233370  0.099870  1.0  0.1516
  H  H791  1  0.909830  0.264770  0.043470  1.0  0.1617
  H  H792  1  0.853230  0.162270  0.050870  1.0  0.1452
  H  H793  1  0.823030  0.159070  0.104170  1.0  0.1109
  H  H794  1  0.825630  0.128270  0.083770  1.0  0.1448
  H  H795  1  0.732030  0.159170  0.837770  1.0  0.1047
  H  H796  1  0.756230  0.183370  0.911970  1.0  0.1047
  H  H797  1  0.754130  0.053570  0.844470  1.0  0.1047
  H  H798  1  0.730530  0.060570  0.785970  1.0  0.0961
  H  H799  1  0.769430  0.202170  0.626070  1.0  0.1009
  H  H800  1  0.738830  0.170770  0.662670  1.0  0.0914
  H  H801  1  0.804930  0.237570  0.845670  1.0  0.1093
  H  H802  1  0.808430  0.240970  0.735970  1.0  0.1124
  H  H803  1  0.807030  0.063770  0.651170  1.0  0.1025
  H  H804  1  0.802530  0.055370  0.758670  1.0  0.1026
  H  H805  1  0.738730  0.071070  0.611470  1.0  0.1061
  H  H806  1  0.769530  0.073970  0.563370  1.0  0.094
  H  H807  1  0.751330  0.954770  0.647770  1.0  0.1067
  H  H808  1  0.677830  0.965070  0.631270  1.0  0.0964
  H  H809  1  0.787830  0.016670  0.675070  1.0  0.1149
  H  H810  1  0.706830  0.019870  0.671870  1.0  0.089
  C  C811  1  0.313700  0.913600  0.080200  1.0  0.028
  C  C812  1  0.303100  0.932000  0.944600  1.0  0.0005
  C  C813  1  0.449600  0.891500  0.697500  1.0  -0.4298
  C  C814  1  0.571300  0.189200  0.938200  1.0  0.198
  C  C815  1  0.580200  0.182900  0.782200  1.0  0.0993
  C  C816  1  0.376900  0.924300  0.583200  1.0  -0.4588
  C  C817  1  0.555900  0.156500  0.954100  1.0  -0.248
  C  C818  1  0.417900  0.084200  0.996800  1.0  -0.375
  C  C819  1  0.345800  0.928600  0.061700  1.0  -0.0408
  C  C820  1  0.337300  0.948800  0.920600  1.0  0.0675
  C  C821  1  0.551500  0.135910  0.880600  1.0  0.0971
  C  C822  1  0.563500  0.150800  0.798200  1.0  -0.1169
  C  C823  1  0.476500  0.913300  0.759500  1.0  0.708
  C  C824  1  0.436100  0.066500  0.011500  1.0  0.7298
  C  C825  1  0.533320  0.098580  0.890000  1.0  0.1546
  C  C826  1  0.575290  0.013100  0.619700  1.0  -0.4388
  C  C827  1  0.401210  0.948480  0.647200  1.0  0.7321
  C  C828  1  0.482290  0.985240  0.606800  1.0  -0.0746
  C  C829  1  0.506900  0.085520  0.815800  1.0  -0.0395
  C  C830  1  0.400480  0.980780  0.871200  1.0  0.0172
  C  C831  1  0.358370  0.945980  0.984500  1.0  0.0048
  C  C832  1  0.518320  0.089880  0.994300  1.0  -0.0429
  C  C833  1  0.560220  0.995630  0.705800  1.0  0.6455
  C  C834  1  0.559200  0.089700  0.878900  1.0  -0.0359
  C  C835  1  0.402560  0.934680  0.955600  1.0  -0.031
  C  C836  1  0.412360  0.984140  0.046700  1.0  0.0226
  C  C837  1  0.394930  0.961960  0.961700  1.0  0.1205
  C  C838  1  0.302900  0.892900  0.016200  1.0  0.011
  C  C839  1  0.307900  0.940700  0.022500  1.0  -0.0605
  C  C840  1  0.339500  0.908100  0.993600  1.0  -0.0064
  C  C841  1  0.342400  0.956600  0.998900  1.0  -0.1043
  C  C842  1  0.980370  0.246930  0.413530  1.0  0.0282
  C  C843  1  0.969770  0.265330  0.277930  1.0  0.0007
  C  C844  1  0.116270  0.224830  0.030830  1.0  -0.4298
  C  C845  1  0.237970  0.522530  0.271530  1.0  0.198
  C  C846  1  0.246870  0.516230  0.115530  1.0  0.0993
  C  C847  1  0.043570  0.257630  0.916530  1.0  -0.4588
  C  C848  1  0.222570  0.489830  0.287430  1.0  -0.248
  C  C849  1  0.084570  0.417530  0.330130  1.0  -0.375
  C  C850  1  0.012470  0.261930  0.395030  1.0  -0.0408
  C  C851  1  0.003970  0.282130  0.253930  1.0  0.0675
  C  C852  1  0.218170  0.469240  0.213930  1.0  0.0971
  C  C853  1  0.230170  0.484130  0.131530  1.0  -0.1169
  C  C854  1  0.143170  0.246630  0.092830  1.0  0.708
  C  C855  1  0.102770  0.399830  0.344830  1.0  0.7298
  C  C856  1  0.199990  0.431910  0.223330  1.0  0.1546
  C  C857  1  0.241960  0.346430  0.953030  1.0  -0.4388
  C  C858  1  0.067880  0.281810  0.980530  1.0  0.7322
  C  C859  1  0.148960  0.318570  0.940130  1.0  -0.0746
  C  C860  1  0.173570  0.418850  0.149130  1.0  -0.0395
  C  C861  1  0.067150  0.314110  0.204530  1.0  0.0172
  C  C862  1  0.025040  0.279310  0.317830  1.0  0.0048
  C  C863  1  0.184990  0.423210  0.327630  1.0  -0.0429
  C  C864  1  0.226890  0.328960  0.039130  1.0  0.6455
  C  C865  1  0.225870  0.423030  0.212230  1.0  -0.0359
  C  C866  1  0.069230  0.268010  0.288930  1.0  -0.031
  C  C867  1  0.079030  0.317470  0.380030  1.0  0.0226
  C  C868  1  0.061600  0.295290  0.295030  1.0  0.1205
  C  C869  1  0.969570  0.226230  0.349530  1.0  0.011
  C  C870  1  0.974570  0.274030  0.355830  1.0  -0.0605
  C  C871  1  0.006170  0.241430  0.326930  1.0  -0.0064
  C  C872  1  0.009070  0.289930  0.332230  1.0  -0.1043
  C  C873  1  0.647030  0.580270  0.746870  1.0  0.028
  C  C874  1  0.636430  0.598670  0.611270  1.0  0.0006
  C  C875  1  0.782930  0.558170  0.364170  1.0  -0.4298
  C  C876  1  0.904630  0.855870  0.604870  1.0  0.1979
  C  C877  1  0.913530  0.849570  0.448870  1.0  0.0993
  C  C878  1  0.710230  0.590970  0.249870  1.0  -0.4588
  C  C879  1  0.889230  0.823170  0.620770  1.0  -0.248
  C  C880  1  0.751230  0.750870  0.663470  1.0  -0.3751
  C  C881  1  0.679130  0.595270  0.728370  1.0  -0.0408
  C  C882  1  0.670630  0.615470  0.587270  1.0  0.0675
  C  C883  1  0.884830  0.802580  0.547270  1.0  0.0971
  C  C884  1  0.896830  0.817470  0.464870  1.0  -0.1169
  C  C885  1  0.809830  0.579970  0.426170  1.0  0.708
  C  C886  1  0.769430  0.733170  0.678170  1.0  0.7298
  C  C887  1  0.866650  0.765250  0.556670  1.0  0.1545
  C  C888  1  0.908620  0.679770  0.286370  1.0  -0.4388
  C  C889  1  0.734540  0.615150  0.313870  1.0  0.7321
  C  C890  1  0.815620  0.651910  0.273470  1.0  -0.0747
  C  C891  1  0.840230  0.752190  0.482470  1.0  -0.0395
  C  C892  1  0.733810  0.647450  0.537870  1.0  0.0172
  C  C893  1  0.691700  0.612650  0.651170  1.0  0.0048
  C  C894  1  0.851650  0.756550  0.660970  1.0  -0.0429
  C  C895  1  0.893550  0.662300  0.372470  1.0  0.6455
  C  C896  1  0.892530  0.756370  0.545570  1.0  -0.0359
  C  C897  1  0.735890  0.601350  0.622270  1.0  -0.031
  C  C898  1  0.745690  0.650810  0.713370  1.0  0.0226
  C  C899  1  0.728260  0.628630  0.628370  1.0  0.1205
  C  C900  1  0.636230  0.559570  0.682870  1.0  0.011
  C  C901  1  0.641230  0.607370  0.689170  1.0  -0.0605
  C  C902  1  0.672830  0.574770  0.660270  1.0  -0.0064
  C  C903  1  0.675730  0.623270  0.665570  1.0  -0.1043
  C  C904  1  0.086400  0.400100  0.080200  1.0  0.0261
  C  C905  1  0.068000  0.371100  0.944600  1.0  -0.0013
  C  C906  1  0.108500  0.558100  0.697500  1.0  -0.4285
  C  C907  1  0.810800  0.382100  0.938200  1.0  0.1969
  C  C908  1  0.817100  0.397300  0.782200  1.0  0.0992
  C  C909  1  0.075700  0.452600  0.583200  1.0  -0.46
  C  C910  1  0.843500  0.399400  0.954100  1.0  -0.2482
  C  C911  1  0.915800  0.333700  0.996800  1.0  -0.3778
  C  C912  1  0.071400  0.417200  0.061700  1.0  -0.0378
  C  C913  1  0.051200  0.388500  0.920600  1.0  0.0694
  C  C914  1  0.864090  0.415590  0.880600  1.0  0.0934
  C  C915  1  0.849200  0.412700  0.798200  1.0  -0.1132
  C  C916  1  0.086700  0.563200  0.759500  1.0  0.7064
  C  C917  1  0.933500  0.369600  0.011500  1.0  0.7298
  C  C918  1  0.901420  0.434740  0.890000  1.0  0.1564
  C  C919  1  0.986900  0.562190  0.619700  1.0  -0.4383
  C  C920  1  0.051520  0.452730  0.647200  1.0  0.7339
  C  C921  1  0.014760  0.497050  0.606800  1.0  -0.0719
  C  C922  1  0.914480  0.421380  0.815800  1.0  -0.0366
  C  C923  1  0.019220  0.419700  0.871200  1.0  0.0159
  C  C924  1  0.054020  0.412390  0.984500  1.0  0.0013
  C  C925  1  0.910120  0.428440  0.994300  1.0  -0.0454
  C  C926  1  0.004370  0.564590  0.705800  1.0  0.641
  C  C927  1  0.910300  0.469500  0.878900  1.0  -0.0357
  C  C928  1  0.065320  0.467880  0.955600  1.0  -0.0269
  C  C929  1  0.015860  0.428220  0.046700  1.0  0.0194
  C  C930  1  0.038040  0.432970  0.961700  1.0  0.1211
  C  C931  1  0.107100  0.410000  0.016200  1.0  0.011
  C  C932  1  0.059300  0.367200  0.022500  1.0  -0.0565
  C  C933  1  0.091900  0.431400  0.993600  1.0  -0.007
  C  C934  1  0.043400  0.385800  0.998900  1.0  -0.1029
  C  C935  1  0.753070  0.733430  0.413530  1.0  0.0261
  C  C936  1  0.734670  0.704430  0.277930  1.0  -0.0016
  C  C937  1  0.775170  0.891430  0.030830  1.0  -0.4285
  C  C938  1  0.477470  0.715430  0.271530  1.0  0.1969
  C  C939  1  0.483770  0.730630  0.115530  1.0  0.0992
  C  C940  1  0.742370  0.785930  0.916530  1.0  -0.46
  C  C941  1  0.510170  0.732730  0.287430  1.0  -0.2482
  C  C942  1  0.582470  0.667030  0.330130  1.0  -0.3778
  C  C943  1  0.738070  0.750530  0.395030  1.0  -0.0378
  C  C944  1  0.717870  0.721830  0.253930  1.0  0.0694
  C  C945  1  0.530760  0.748920  0.213930  1.0  0.0934
  C  C946  1  0.515870  0.746030  0.131530  1.0  -0.1132
  C  C947  1  0.753370  0.896530  0.092830  1.0  0.7064
  C  C948  1  0.600170  0.702930  0.344830  1.0  0.7298
  C  C949  1  0.568090  0.768070  0.223330  1.0  0.1564
  C  C950  1  0.653570  0.895520  0.953030  1.0  -0.4383
  C  C951  1  0.718190  0.786060  0.980530  1.0  0.7339
  C  C952  1  0.681430  0.830380  0.940130  1.0  -0.0719
  C  C953  1  0.581150  0.754710  0.149130  1.0  -0.0366
  C  C954  1  0.685890  0.753030  0.204530  1.0  0.0159
  C  C955  1  0.720690  0.745720  0.317830  1.0  0.0013
  C  C956  1  0.576790  0.761770  0.327630  1.0  -0.0454
  C  C957  1  0.671040  0.897920  0.039130  1.0  0.641
  C  C958  1  0.576970  0.802830  0.212230  1.0  -0.0357
  C  C959  1  0.731990  0.801210  0.288930  1.0  -0.0269
  C  C960  1  0.682530  0.761550  0.380030  1.0  0.0194
  C  C961  1  0.704710  0.766300  0.295030  1.0  0.1211
  C  C962  1  0.773770  0.743330  0.349530  1.0  0.011
  C  C963  1  0.725970  0.700530  0.355830  1.0  -0.0565
  C  C964  1  0.758570  0.764730  0.326930  1.0  -0.007
  C  C965  1  0.710070  0.719130  0.332230  1.0  -0.103
  C  C966  1  0.419730  0.066770  0.746870  1.0  0.0261
  C  C967  1  0.401330  0.037770  0.611270  1.0  -0.0013
  C  C968  1  0.441830  0.224770  0.364170  1.0  -0.4285
  C  C969  1  0.144130  0.048770  0.604870  1.0  0.1969
  C  C970  1  0.150430  0.063970  0.448870  1.0  0.0992
  C  C971  1  0.409030  0.119270  0.249870  1.0  -0.46
  C  C972  1  0.176830  0.066070  0.620770  1.0  -0.2483
  C  C973  1  0.249130  0.000370  0.663470  1.0  -0.3778
  C  C974  1  0.404730  0.083870  0.728370  1.0  -0.0378
  C  C975  1  0.384530  0.055170  0.587270  1.0  0.0694
  C  C976  1  0.197420  0.082260  0.547270  1.0  0.0934
  C  C977  1  0.182530  0.079370  0.464870  1.0  -0.1132
  C  C978  1  0.420030  0.229870  0.426170  1.0  0.7064
  C  C979  1  0.266830  0.036270  0.678170  1.0  0.7298
  C  C980  1  0.234750  0.101410  0.556670  1.0  0.1564
  C  C981  1  0.320230  0.228860  0.286370  1.0  -0.4383
  C  C982  1  0.384850  0.119400  0.313870  1.0  0.7339
  C  C983  1  0.348090  0.163720  0.273470  1.0  -0.0719
  C  C984  1  0.247810  0.088050  0.482470  1.0  -0.0366
  C  C985  1  0.352550  0.086370  0.537870  1.0  0.0159
  C  C986  1  0.387350  0.079060  0.651170  1.0  0.0013
  C  C987  1  0.243450  0.095110  0.660970  1.0  -0.0454
  C  C988  1  0.337700  0.231260  0.372470  1.0  0.641
  C  C989  1  0.243630  0.136170  0.545570  1.0  -0.0357
  C  C990  1  0.398650  0.134550  0.622270  1.0  -0.0269
  C  C991  1  0.349190  0.094890  0.713370  1.0  0.0194
  C  C992  1  0.371370  0.099640  0.628370  1.0  0.1211
  C  C993  1  0.440430  0.076670  0.682870  1.0  0.011
  C  C994  1  0.392630  0.033870  0.689170  1.0  -0.0565
  C  C995  1  0.425230  0.098070  0.660270  1.0  -0.007
  C  C996  1  0.376730  0.052470  0.665570  1.0  -0.1029
  C  C997  1  0.599900  0.686300  0.080200  1.0  0.0291
  C  C998  1  0.628900  0.696900  0.944600  1.0  0.0052
  C  C999  1  0.441900  0.550400  0.697500  1.0  -0.4309
  C  C1000  1  0.617900  0.428700  0.938200  1.0  0.197
  C  C1001  1  0.602700  0.419800  0.782200  1.0  0.1008
  C  C1002  1  0.547400  0.623100  0.583200  1.0  -0.4565
  C  C1003  1  0.600600  0.444100  0.954100  1.0  -0.2467
  C  C1004  1  0.666300  0.582100  0.996800  1.0  -0.3775
  C  C1005  1  0.582800  0.654200  0.061700  1.0  -0.0384
  C  C1006  1  0.611500  0.662700  0.920600  1.0  0.066
  C  C1007  1  0.584410  0.448500  0.880600  1.0  0.0963
  C  C1008  1  0.587300  0.436500  0.798200  1.0  -0.1124
  C  C1009  1  0.436800  0.523500  0.759500  1.0  0.7048
  C  C1010  1  0.630400  0.563900  0.011500  1.0  0.7346
  C  C1011  1  0.565260  0.466680  0.890000  1.0  0.1556
  C  C1012  1  0.437810  0.424710  0.619700  1.0  -0.4378
  C  C1013  1  0.547270  0.598790  0.647200  1.0  0.7328
  C  C1014  1  0.502950  0.517710  0.606800  1.0  -0.0737
  C  C1015  1  0.578620  0.493100  0.815800  1.0  -0.0398
  C  C1016  1  0.580300  0.599520  0.871200  1.0  0.0169
  C  C1017  1  0.587610  0.641630  0.984500  1.0  0.0032
  C  C1018  1  0.571560  0.481680  0.994300  1.0  -0.0446
  C  C1019  1  0.435410  0.439780  0.705800  1.0  0.6445
  C  C1020  1  0.530500  0.440800  0.878900  1.0  -0.038
  C  C1021  1  0.532120  0.597440  0.955600  1.0  -0.0301
  C  C1022  1  0.571780  0.587640  0.046700  1.0  0.0227
  C  C1023  1  0.567030  0.605070  0.961700  1.0  0.1197
  C  C1024  1  0.590000  0.697100  0.016200  1.0  0.0081
  C  C1025  1  0.632800  0.692100  0.022500  1.0  -0.0643
  C  C1026  1  0.568600  0.660500  0.993600  1.0  -0.0072
  C  C1027  1  0.614200  0.657600  0.998900  1.0  -0.1085
  C  C1028  1  0.266570  0.019630  0.413530  1.0  0.0293
  C  C1029  1  0.295570  0.030230  0.277930  1.0  0.0054
  C  C1030  1  0.108570  0.883730  0.030830  1.0  -0.4309
  C  C1031  1  0.284570  0.762030  0.271530  1.0  0.197
  C  C1032  1  0.269370  0.753130  0.115530  1.0  0.1008
  C  C1033  1  0.214070  0.956430  0.916530  1.0  -0.4565
  C  C1034  1  0.267270  0.777430  0.287430  1.0  -0.2467
  C  C1035  1  0.332970  0.915430  0.330130  1.0  -0.3775
  C  C1036  1  0.249470  0.987530  0.395030  1.0  -0.0384
  C  C1037  1  0.278170  0.996030  0.253930  1.0  0.066
  C  C1038  1  0.251080  0.781830  0.213930  1.0  0.0963
  C  C1039  1  0.253970  0.769830  0.131530  1.0  -0.1124
  C  C1040  1  0.103470  0.856830  0.092830  1.0  0.7048
  C  C1041  1  0.297070  0.897230  0.344830  1.0  0.7346
  C  C1042  1  0.231930  0.800010  0.223330  1.0  0.1556
  C  C1043  1  0.104480  0.758040  0.953030  1.0  -0.4378
  C  C1044  1  0.213940  0.932120  0.980530  1.0  0.7328
  C  C1045  1  0.169620  0.851040  0.940130  1.0  -0.0737
  C  C1046  1  0.245290  0.826430  0.149130  1.0  -0.0398
  C  C1047  1  0.246970  0.932850  0.204530  1.0  0.0169
  C  C1048  1  0.254280  0.974960  0.317830  1.0  0.0032
  C  C1049  1  0.238230  0.815010  0.327630  1.0  -0.0446
  C  C1050  1  0.102080  0.773110  0.039130  1.0  0.6445
  C  C1051  1  0.197170  0.774130  0.212230  1.0  -0.038
  C  C1052  1  0.198790  0.930770  0.288930  1.0  -0.0301
  C  C1053  1  0.238450  0.920970  0.380030  1.0  0.0226
  C  C1054  1  0.233700  0.938400  0.295030  1.0  0.1197
  C  C1055  1  0.256670  0.030430  0.349530  1.0  0.0081
  C  C1056  1  0.299470  0.025430  0.355830  1.0  -0.0643
  C  C1057  1  0.235270  0.993830  0.326930  1.0  -0.0072
  C  C1058  1  0.280870  0.990930  0.332230  1.0  -0.1085
  C  C1059  1  0.933230  0.352970  0.746870  1.0  0.0291
  C  C1060  1  0.962230  0.363570  0.611270  1.0  0.0054
  C  C1061  1  0.775230  0.217070  0.364170  1.0  -0.4309
  C  C1062  1  0.951230  0.095370  0.604870  1.0  0.197
  C  C1063  1  0.936030  0.086470  0.448870  1.0  0.1007
  C  C1064  1  0.880730  0.289770  0.249870  1.0  -0.4565
  C  C1065  1  0.933930  0.110770  0.620770  1.0  -0.2467
  C  C1066  1  0.999630  0.248770  0.663470  1.0  -0.3775
  C  C1067  1  0.916130  0.320870  0.728370  1.0  -0.0384
  C  C1068  1  0.944830  0.329370  0.587270  1.0  0.0659
  C  C1069  1  0.917740  0.115170  0.547270  1.0  0.0963
  C  C1070  1  0.920630  0.103170  0.464870  1.0  -0.1124
  C  C1071  1  0.770130  0.190170  0.426170  1.0  0.7048
  C  C1072  1  0.963730  0.230570  0.678170  1.0  0.7346
  C  C1073  1  0.898590  0.133350  0.556670  1.0  0.1556
  C  C1074  1  0.771140  0.091380  0.286370  1.0  -0.4378
  C  C1075  1  0.880600  0.265460  0.313870  1.0  0.7329
  C  C1076  1  0.836280  0.184380  0.273470  1.0  -0.0736
  C  C1077  1  0.911950  0.159770  0.482470  1.0  -0.0398
  C  C1078  1  0.913630  0.266190  0.537870  1.0  0.0169
  C  C1079  1  0.920940  0.308300  0.651170  1.0  0.0032
  C  C1080  1  0.904890  0.148350  0.660970  1.0  -0.0446
  C  C1081  1  0.768740  0.106450  0.372470  1.0  0.6445
  C  C1082  1  0.863830  0.107470  0.545570  1.0  -0.038
  C  C1083  1  0.865450  0.264110  0.622270  1.0  -0.0301
  C  C1084  1  0.905110  0.254310  0.713370  1.0  0.0227
  C  C1085  1  0.900360  0.271740  0.628370  1.0  0.1197
  C  C1086  1  0.923330  0.363770  0.682870  1.0  0.0081
  C  C1087  1  0.966130  0.358770  0.689170  1.0  -0.0643
  C  C1088  1  0.901930  0.327170  0.660270  1.0  -0.0072
  C  C1089  1  0.947530  0.324270  0.665570  1.0  -0.1085
  C  C1090  1  0.686300  0.086400  0.919800  1.0  0.03
  C  C1091  1  0.696900  0.068000  0.055400  1.0  0.0003
  C  C1092  1  0.550400  0.108500  0.302500  1.0  -0.4337
  C  C1093  1  0.428700  0.810800  0.061800  1.0  0.1969
  C  C1094  1  0.419800  0.817100  0.217800  1.0  0.0997
  C  C1095  1  0.623100  0.075700  0.416800  1.0  -0.4611
  C  C1096  1  0.444100  0.843500  0.045900  1.0  -0.247
  C  C1097  1  0.582100  0.915800  0.003200  1.0  -0.3772
  C  C1098  1  0.654200  0.071400  0.938300  1.0  -0.0377
  C  C1099  1  0.662700  0.051200  0.079400  1.0  0.0672
  C  C1100  1  0.448500  0.864090  0.119400  1.0  0.0992
  C  C1101  1  0.436500  0.849200  0.201800  1.0  -0.1157
  C  C1102  1  0.523500  0.086700  0.240500  1.0  0.7048
  C  C1103  1  0.563900  0.933500  0.988500  1.0  0.7321
  C  C1104  1  0.466680  0.901420  0.110000  1.0  0.1563
  C  C1105  1  0.424710  0.986900  0.380300  1.0  -0.4381
  C  C1106  1  0.598790  0.051520  0.352800  1.0  0.7312
  C  C1107  1  0.517710  0.014760  0.393200  1.0  -0.0737
  C  C1108  1  0.493100  0.914480  0.184200  1.0  -0.0404
  C  C1109  1  0.599520  0.019220  0.128800  1.0  0.0166
  C  C1110  1  0.641630  0.054020  0.015500  1.0  0.0035
  C  C1111  1  0.481680  0.910120  0.005700  1.0  -0.0399
  C  C1112  1  0.439780  0.004370  0.294200  1.0  0.6445
  C  C1113  1  0.440800  0.910300  0.121100  1.0  -0.0374
  C  C1114  1  0.597440  0.065320  0.044400  1.0  -0.0322
  C  C1115  1  0.587640  0.015860  0.953300  1.0  0.0215
  C  C1116  1  0.605070  0.038040  0.038300  1.0  0.1191
  C  C1117  1  0.697100  0.107100  0.983800  1.0  0.0145
  C  C1118  1  0.692100  0.059300  0.977500  1.0  -0.0629
  C  C1119  1  0.660500  0.091900  0.006400  1.0  -0.005
  C  C1120  1  0.657600  0.043400  0.001100  1.0  -0.0987
  C  C1121  1  0.352970  0.419730  0.253130  1.0  0.03
  C  C1122  1  0.363570  0.401330  0.388730  1.0  0.0004
  C  C1123  1  0.217070  0.441830  0.635830  1.0  -0.4337
  C  C1124  1  0.095370  0.144130  0.395130  1.0  0.1968
  C  C1125  1  0.086470  0.150430  0.551130  1.0  0.0997
  C  C1126  1  0.289770  0.409030  0.750130  1.0  -0.4611
  C  C1127  1  0.110770  0.176830  0.379230  1.0  -0.247
  C  C1128  1  0.248770  0.249130  0.336530  1.0  -0.3773
  C  C1129  1  0.320870  0.404730  0.271630  1.0  -0.0377
  C  C1130  1  0.329370  0.384530  0.412730  1.0  0.0672
  C  C1131  1  0.115170  0.197420  0.452730  1.0  0.0992
  C  C1132  1  0.103170  0.182530  0.535130  1.0  -0.1157
  C  C1133  1  0.190170  0.420030  0.573830  1.0  0.7048
  C  C1134  1  0.230570  0.266830  0.321830  1.0  0.7321
  C  C1135  1  0.133350  0.234750  0.443330  1.0  0.1563
  C  C1136  1  0.091380  0.320230  0.713630  1.0  -0.4381
  C  C1137  1  0.265460  0.384850  0.686130  1.0  0.7312
  C  C1138  1  0.184380  0.348090  0.726530  1.0  -0.0737
  C  C1139  1  0.159770  0.247810  0.517530  1.0  -0.0403
  C  C1140  1  0.266190  0.352550  0.462130  1.0  0.0166
  C  C1141  1  0.308300  0.387350  0.348830  1.0  0.0035
  C  C1142  1  0.148350  0.243450  0.339030  1.0  -0.0399
  C  C1143  1  0.106450  0.337700  0.627530  1.0  0.6445
  C  C1144  1  0.107470  0.243630  0.454430  1.0  -0.0374
  C  C1145  1  0.264110  0.398650  0.377730  1.0  -0.0322
  C  C1146  1  0.254310  0.349190  0.286630  1.0  0.0215
  C  C1147  1  0.271740  0.371370  0.371630  1.0  0.1191
  C  C1148  1  0.363770  0.440430  0.317130  1.0  0.0145
  C  C1149  1  0.358770  0.392630  0.310830  1.0  -0.0629
  C  C1150  1  0.327170  0.425230  0.339730  1.0  -0.005
  C  C1151  1  0.324270  0.376730  0.334430  1.0  -0.0987
  C  C1152  1  0.019630  0.753070  0.586470  1.0  0.0302
  C  C1153  1  0.030230  0.734670  0.722070  1.0  0.0006
  C  C1154  1  0.883730  0.775170  0.969170  1.0  -0.4337
  C  C1155  1  0.762030  0.477470  0.728470  1.0  0.1969
  C  C1156  1  0.753130  0.483770  0.884470  1.0  0.0997
  C  C1157  1  0.956430  0.742370  0.083470  1.0  -0.4611
  C  C1158  1  0.777430  0.510170  0.712570  1.0  -0.247
  C  C1159  1  0.915430  0.582470  0.669870  1.0  -0.3772
  C  C1160  1  0.987530  0.738070  0.604970  1.0  -0.0377
  C  C1161  1  0.996030  0.717870  0.746070  1.0  0.0672
  C  C1162  1  0.781830  0.530760  0.786070  1.0  0.0992
  C  C1163  1  0.769830  0.515870  0.868470  1.0  -0.1157
  C  C1164  1  0.856830  0.753370  0.907170  1.0  0.7048
  C  C1165  1  0.897230  0.600170  0.655170  1.0  0.7321
  C  C1166  1  0.800010  0.568090  0.776670  1.0  0.1563
  C  C1167  1  0.758040  0.653570  0.046970  1.0  -0.4381
  C  C1168  1  0.932120  0.718190  0.019470  1.0  0.7312
  C  C1169  1  0.851040  0.681430  0.059870  1.0  -0.0737
  C  C1170  1  0.826430  0.581150  0.850870  1.0  -0.0404
  C  C1171  1  0.932850  0.685890  0.795470  1.0  0.0166
  C  C1172  1  0.974960  0.720690  0.682170  1.0  0.0035
  C  C1173  1  0.815010  0.576790  0.672370  1.0  -0.0399
  C  C1174  1  0.773110  0.671040  0.960870  1.0  0.6445
  C  C1175  1  0.774130  0.576970  0.787770  1.0  -0.0374
  C  C1176  1  0.930770  0.731990  0.711070  1.0  -0.0322
  C  C1177  1  0.920970  0.682530  0.619970  1.0  0.0215
  C  C1178  1  0.938400  0.704710  0.704970  1.0  0.1191
  C  C1179  1  0.030430  0.773770  0.650470  1.0  0.0145
  C  C1180  1  0.025430  0.725970  0.644170  1.0  -0.0629
  C  C1181  1  0.993830  0.758570  0.673070  1.0  -0.005
  C  C1182  1  0.990930  0.710070  0.667770  1.0  -0.0987
  C  C1183  1  0.913600  0.599900  0.919800  1.0  0.0283
  C  C1184  1  0.932000  0.628900  0.055400  1.0  -0.0061
  C  C1185  1  0.891500  0.441900  0.302500  1.0  -0.4275
  C  C1186  1  0.189200  0.617900  0.061800  1.0  0.1949
  C  C1187  1  0.182900  0.602700  0.217800  1.0  0.1022
  C  C1188  1  0.924300  0.547400  0.416800  1.0  -0.457
  C  C1189  1  0.156500  0.600600  0.045900  1.0  -0.25
  C  C1190  1  0.084200  0.666300  0.003200  1.0  -0.3777
  C  C1191  1  0.928600  0.582800  0.938300  1.0  -0.0333
  C  C1192  1  0.948800  0.611500  0.079400  1.0  0.0673
  C  C1193  1  0.135910  0.584410  0.119400  1.0  0.0951
  C  C1194  1  0.150800  0.587300  0.201800  1.0  -0.1123
  C  C1195  1  0.913300  0.436800  0.240500  1.0  0.706
  C  C1196  1  0.066500  0.630400  0.988500  1.0  0.7323
  C  C1197  1  0.098580  0.565260  0.110000  1.0  0.1564
  C  C1198  1  0.013100  0.437810  0.380300  1.0  -0.4392
  C  C1199  1  0.948480  0.547270  0.352800  1.0  0.7332
  C  C1200  1  0.985240  0.502950  0.393200  1.0  -0.0725
  C  C1201  1  0.085520  0.578620  0.184200  1.0  -0.0386
  C  C1202  1  0.980780  0.580300  0.128800  1.0  0.0164
  C  C1203  1  0.945980  0.587610  0.015500  1.0  0.0009
  C  C1204  1  0.089880  0.571560  0.005700  1.0  -0.0436
  C  C1205  1  0.995630  0.435410  0.294200  1.0  0.6424
  C  C1206  1  0.089700  0.530500  0.121100  1.0  -0.0373
  C  C1207  1  0.934680  0.532120  0.044400  1.0  -0.0292
  C  C1208  1  0.984140  0.571780  0.953300  1.0  0.0187
  C  C1209  1  0.961960  0.567030  0.038300  1.0  0.1204
  C  C1210  1  0.892900  0.590000  0.983800  1.0  0.0033
  C  C1211  1  0.940700  0.632800  0.977500  1.0  -0.0579
  C  C1212  1  0.908100  0.568600  0.006400  1.0  -0.0105
  C  C1213  1  0.956600  0.614200  0.001100  1.0  -0.1061
  C  C1214  1  0.580270  0.933230  0.253130  1.0  0.0283
  C  C1215  1  0.598670  0.962230  0.388730  1.0  -0.0061
  C  C1216  1  0.558170  0.775230  0.635830  1.0  -0.4275
  C  C1217  1  0.855870  0.951230  0.395130  1.0  0.1949
  C  C1218  1  0.849570  0.936030  0.551130  1.0  0.1022
  C  C1219  1  0.590970  0.880730  0.750130  1.0  -0.457
  C  C1220  1  0.823170  0.933930  0.379230  1.0  -0.2501
  C  C1221  1  0.750870  0.999630  0.336530  1.0  -0.3777
  C  C1222  1  0.595270  0.916130  0.271630  1.0  -0.0333
  C  C1223  1  0.615470  0.944830  0.412730  1.0  0.0673
  C  C1224  1  0.802580  0.917740  0.452730  1.0  0.0951
  C  C1225  1  0.817470  0.920630  0.535130  1.0  -0.1123
  C  C1226  1  0.579970  0.770130  0.573830  1.0  0.706
  C  C1227  1  0.733170  0.963730  0.321830  1.0  0.7323
  C  C1228  1  0.765250  0.898590  0.443330  1.0  0.1564
  C  C1229  1  0.679770  0.771140  0.713630  1.0  -0.4392
  C  C1230  1  0.615150  0.880600  0.686130  1.0  0.7332
  C  C1231  1  0.651910  0.836280  0.726530  1.0  -0.0725
  C  C1232  1  0.752190  0.911950  0.517530  1.0  -0.0386
  C  C1233  1  0.647450  0.913630  0.462130  1.0  0.0164
  C  C1234  1  0.612650  0.920940  0.348830  1.0  0.0009
  C  C1235  1  0.756550  0.904890  0.339030  1.0  -0.0436
  C  C1236  1  0.662300  0.768740  0.627530  1.0  0.6424
  C  C1237  1  0.756370  0.863830  0.454430  1.0  -0.0373
  C  C1238  1  0.601350  0.865450  0.377730  1.0  -0.0292
  C  C1239  1  0.650810  0.905110  0.286630  1.0  0.0187
  C  C1240  1  0.628630  0.900360  0.371630  1.0  0.1204
  C  C1241  1  0.559570  0.923330  0.317130  1.0  0.0033
  C  C1242  1  0.607370  0.966130  0.310830  1.0  -0.0579
  C  C1243  1  0.574770  0.901930  0.339730  1.0  -0.0105
  C  C1244  1  0.623270  0.947530  0.334430  1.0  -0.1061
  C  C1245  1  0.246930  0.266570  0.586470  1.0  0.0283
  C  C1246  1  0.265330  0.295570  0.722070  1.0  -0.0064
  C  C1247  1  0.224830  0.108570  0.969170  1.0  -0.4275
  C  C1248  1  0.522530  0.284570  0.728470  1.0  0.1949
  C  C1249  1  0.516230  0.269370  0.884470  1.0  0.1022
  C  C1250  1  0.257630  0.214070  0.083470  1.0  -0.457
  C  C1251  1  0.489830  0.267270  0.712570  1.0  -0.25
  C  C1252  1  0.417530  0.332970  0.669870  1.0  -0.3777
  C  C1253  1  0.261930  0.249470  0.604970  1.0  -0.0333
  C  C1254  1  0.282130  0.278170  0.746070  1.0  0.0673
  C  C1255  1  0.469240  0.251080  0.786070  1.0  0.0951
  C  C1256  1  0.484130  0.253970  0.868470  1.0  -0.1123
  C  C1257  1  0.246630  0.103470  0.907170  1.0  0.706
  C  C1258  1  0.399830  0.297070  0.655170  1.0  0.7323
  C  C1259  1  0.431910  0.231930  0.776670  1.0  0.1564
  C  C1260  1  0.346430  0.104480  0.046970  1.0  -0.4392
  C  C1261  1  0.281810  0.213940  0.019470  1.0  0.7331
  C  C1262  1  0.318570  0.169620  0.059870  1.0  -0.0725
  C  C1263  1  0.418850  0.245290  0.850870  1.0  -0.0386
  C  C1264  1  0.314110  0.246970  0.795470  1.0  0.0164
  C  C1265  1  0.279310  0.254280  0.682170  1.0  0.0009
  C  C1266  1  0.423210  0.238230  0.672370  1.0  -0.0436
  C  C1267  1  0.328960  0.102080  0.960870  1.0  0.6424
  C  C1268  1  0.423030  0.197170  0.787770  1.0  -0.0373
  C  C1269  1  0.268010  0.198790  0.711070  1.0  -0.0292
  C  C1270  1  0.317470  0.238450  0.619970  1.0  0.0187
  C  C1271  1  0.295290  0.233700  0.704970  1.0  0.1204
  C  C1272  1  0.226230  0.256670  0.650470  1.0  0.0033
  C  C1273  1  0.274030  0.299470  0.644170  1.0  -0.0579
  C  C1274  1  0.241430  0.235270  0.673070  1.0  -0.0105
  C  C1275  1  0.289930  0.280870  0.667770  1.0  -0.1062
  C  C1276  1  0.400100  0.313700  0.919800  1.0  0.0278
  C  C1277  1  0.371100  0.303100  0.055400  1.0  0.0014
  C  C1278  1  0.558100  0.449600  0.302500  1.0  -0.4314
  C  C1279  1  0.382100  0.571300  0.061800  1.0  0.1977
  C  C1280  1  0.397300  0.580200  0.217800  1.0  0.0984
  C  C1281  1  0.452600  0.376900  0.416800  1.0  -0.4581
  C  C1282  1  0.399400  0.555900  0.045900  1.0  -0.2477
  C  C1283  1  0.333700  0.417900  0.003200  1.0  -0.375
  C  C1284  1  0.417200  0.345800  0.938300  1.0  -0.0363
  C  C1285  1  0.388500  0.337300  0.079400  1.0  0.0679
  C  C1286  1  0.415590  0.551500  0.119400  1.0  0.0929
  C  C1287  1  0.412700  0.563500  0.201800  1.0  -0.1136
  C  C1288  1  0.563200  0.476500  0.240500  1.0  0.7021
  C  C1289  1  0.369600  0.436100  0.988500  1.0  0.7345
  C  C1290  1  0.434740  0.533320  0.110000  1.0  0.1564
  C  C1291  1  0.562190  0.575290  0.380300  1.0  -0.4398
  C  C1292  1  0.452730  0.401210  0.352800  1.0  0.7308
  C  C1293  1  0.497050  0.482290  0.393200  1.0  -0.0743
  C  C1294  1  0.421380  0.506900  0.184200  1.0  -0.0378
  C  C1295  1  0.419700  0.400480  0.128800  1.0  0.0178
  C  C1296  1  0.412390  0.358370  0.015500  1.0  0.0007
  C  C1297  1  0.428440  0.518320  0.005700  1.0  -0.0434
  C  C1298  1  0.564590  0.560220  0.294200  1.0  0.6458
  C  C1299  1  0.469500  0.559200  0.121100  1.0  -0.0374
  C  C1300  1  0.467880  0.402560  0.044400  1.0  -0.0306
  C  C1301  1  0.428220  0.412360  0.953300  1.0  0.0227
  C  C1302  1  0.432970  0.394930  0.038300  1.0  0.1211
  C  C1303  1  0.410000  0.302900  0.983800  1.0  0.0059
  C  C1304  1  0.367200  0.307900  0.977500  1.0  -0.0584
  C  C1305  1  0.431400  0.339500  0.006400  1.0  -0.0059
  C  C1306  1  0.385800  0.342400  0.001100  1.0  -0.1001
  C  C1307  1  0.066770  0.647030  0.253130  1.0  0.0278
  C  C1308  1  0.037770  0.636430  0.388730  1.0  0.0016
  C  C1309  1  0.224770  0.782930  0.635830  1.0  -0.4314
  C  C1310  1  0.048770  0.904630  0.395130  1.0  0.1977
  C  C1311  1  0.063970  0.913530  0.551130  1.0  0.0983
  C  C1312  1  0.119270  0.710230  0.750130  1.0  -0.4582
  C  C1313  1  0.066070  0.889230  0.379230  1.0  -0.2477
  C  C1314  1  0.000370  0.751230  0.336530  1.0  -0.375
  C  C1315  1  0.083870  0.679130  0.271630  1.0  -0.0363
  C  C1316  1  0.055170  0.670630  0.412730  1.0  0.0679
  C  C1317  1  0.082260  0.884830  0.452730  1.0  0.0929
  C  C1318  1  0.079370  0.896830  0.535130  1.0  -0.1136
  C  C1319  1  0.229870  0.809830  0.573830  1.0  0.7021
  C  C1320  1  0.036270  0.769430  0.321830  1.0  0.7345
  C  C1321  1  0.101410  0.866650  0.443330  1.0  0.1564
  C  C1322  1  0.228860  0.908620  0.713630  1.0  -0.4397
  C  C1323  1  0.119400  0.734540  0.686130  1.0  0.7309
  C  C1324  1  0.163720  0.815620  0.726530  1.0  -0.0743
  C  C1325  1  0.088050  0.840230  0.517530  1.0  -0.0378
  C  C1326  1  0.086370  0.733810  0.462130  1.0  0.0178
  C  C1327  1  0.079060  0.691700  0.348830  1.0  0.0007
  C  C1328  1  0.095110  0.851650  0.339030  1.0  -0.0434
  C  C1329  1  0.231260  0.893550  0.627530  1.0  0.6458
  C  C1330  1  0.136170  0.892530  0.454430  1.0  -0.0374
  C  C1331  1  0.134550  0.735890  0.377730  1.0  -0.0306
  C  C1332  1  0.094890  0.745690  0.286630  1.0  0.0227
  C  C1333  1  0.099640  0.728260  0.371630  1.0  0.1211
  C  C1334  1  0.076670  0.636230  0.317130  1.0  0.0059
  C  C1335  1  0.033870  0.641230  0.310830  1.0  -0.0584
  C  C1336  1  0.098070  0.672830  0.339730  1.0  -0.0059
  C  C1337  1  0.052470  0.675730  0.334430  1.0  -0.1001
  C  C1338  1  0.733430  0.980370  0.586470  1.0  0.0279
  C  C1339  1  0.704430  0.969770  0.722070  1.0  0.0017
  C  C1340  1  0.891430  0.116270  0.969170  1.0  -0.4314
  C  C1341  1  0.715430  0.237970  0.728470  1.0  0.1977
  C  C1342  1  0.730630  0.246870  0.884470  1.0  0.0984
  C  C1343  1  0.785930  0.043570  0.083470  1.0  -0.4581
  C  C1344  1  0.732730  0.222570  0.712570  1.0  -0.2477
  C  C1345  1  0.667030  0.084570  0.669870  1.0  -0.375
  C  C1346  1  0.750530  0.012470  0.604970  1.0  -0.0363
  C  C1347  1  0.721830  0.003970  0.746070  1.0  0.0679
  C  C1348  1  0.748920  0.218170  0.786070  1.0  0.0929
  C  C1349  1  0.746030  0.230170  0.868470  1.0  -0.1136
  C  C1350  1  0.896530  0.143170  0.907170  1.0  0.7021
  C  C1351  1  0.702930  0.102770  0.655170  1.0  0.7345
  C  C1352  1  0.768070  0.199990  0.776670  1.0  0.1564
  C  C1353  1  0.895520  0.241960  0.046970  1.0  -0.4398
  C  C1354  1  0.786060  0.067880  0.019470  1.0  0.7308
  C  C1355  1  0.830380  0.148960  0.059870  1.0  -0.0743
  C  C1356  1  0.754710  0.173570  0.850870  1.0  -0.0378
  C  C1357  1  0.753030  0.067150  0.795470  1.0  0.0178
  C  C1358  1  0.745720  0.025040  0.682170  1.0  0.0007
  C  C1359  1  0.761770  0.184990  0.672370  1.0  -0.0434
  C  C1360  1  0.897920  0.226890  0.960870  1.0  0.6458
  C  C1361  1  0.802830  0.225870  0.787770  1.0  -0.0374
  C  C1362  1  0.801210  0.069230  0.711070  1.0  -0.0306
  C  C1363  1  0.761550  0.079030  0.619970  1.0  0.0227
  C  C1364  1  0.766300  0.061600  0.704970  1.0  0.1211
  C  C1365  1  0.743330  0.969570  0.650470  1.0  0.0059
  C  C1366  1  0.700530  0.974570  0.644170  1.0  -0.0584
  C  C1367  1  0.764730  0.006170  0.673070  1.0  -0.0059
  C  C1368  1  0.719130  0.009070  0.667770  1.0  -0.1001
  N  N1369  1  0.292270  0.914720  0.022500  1.0  -0.2006
  N  N1370  1  0.584200  0.202550  0.859500  1.0  -0.386
  N  N1371  1  0.958940  0.248050  0.355830  1.0  -0.2007
  N  N1372  1  0.250870  0.535880  0.192830  1.0  -0.386
  N  N1373  1  0.625600  0.581390  0.689170  1.0  -0.2006
  N  N1374  1  0.917530  0.869220  0.526170  1.0  -0.386
  N  N1375  1  0.085280  0.377550  0.022500  1.0  -0.1872
  N  N1376  1  0.797450  0.381650  0.859500  1.0  -0.3866
  N  N1377  1  0.751950  0.710880  0.355830  1.0  -0.1868
  N  N1378  1  0.464120  0.714980  0.192830  1.0  -0.3866
  N  N1379  1  0.418610  0.044220  0.689170  1.0  -0.1872
  N  N1380  1  0.130780  0.048320  0.526170  1.0  -0.3893
  N  N1381  1  0.622450  0.707730  0.022500  1.0  -0.1972
  N  N1382  1  0.618350  0.415800  0.859500  1.0  -0.3921
  N  N1383  1  0.289120  0.041060  0.355830  1.0  -0.1974
  N  N1384  1  0.285020  0.749130  0.192830  1.0  -0.3921
  N  N1385  1  0.955780  0.374400  0.689170  1.0  -0.1972
  N  N1386  1  0.951680  0.082470  0.526170  1.0  -0.3897
  N  N1387  1  0.707730  0.085280  0.977500  1.0  -0.197
  N  N1388  1  0.415800  0.797450  0.140500  1.0  -0.3826
  N  N1389  1  0.374400  0.418610  0.310830  1.0  -0.197
  N  N1390  1  0.082470  0.130780  0.473830  1.0  -0.3826
  N  N1391  1  0.041060  0.751950  0.644170  1.0  -0.197
  N  N1392  1  0.749130  0.464120  0.807170  1.0  -0.3826
  N  N1393  1  0.914720  0.622450  0.977500  1.0  -0.2002
  N  N1394  1  0.202550  0.618350  0.140500  1.0  -0.3895
  N  N1395  1  0.581390  0.955780  0.310830  1.0  -0.2002
  N  N1396  1  0.869220  0.951680  0.473830  1.0  -0.3912
  N  N1397  1  0.248050  0.289120  0.644170  1.0  -0.1998
  N  N1398  1  0.535880  0.285020  0.807170  1.0  -0.3895
  N  N1399  1  0.377550  0.292270  0.977500  1.0  -0.1958
  N  N1400  1  0.381650  0.584200  0.140500  1.0  -0.3864
  N  N1401  1  0.044220  0.625600  0.310830  1.0  -0.1958
  N  N1402  1  0.048320  0.917530  0.473830  1.0  -0.3845
  N  N1403  1  0.710880  0.958940  0.644170  1.0  -0.196
  N  N1404  1  0.714980  0.250870  0.807170  1.0  -0.3864
  O  O1405  1  0.488300  0.051310  0.809900  1.0  -0.7645
  O  O1406  1  0.492330  0.999760  0.911200  1.0  -0.7403
  O  O1407  1  0.500900  0.055990  0.005700  1.0  -0.7703
  O  O1408  1  0.410500  0.977470  0.633900  1.0  -0.5602
  O  O1409  1  0.411260  0.936660  0.711900  1.0  -0.5817
  O  O1410  1  0.446710  0.002110  0.034300  1.0  -0.7541
  O  O1411  1  0.433640  0.996960  0.838900  1.0  -0.7442
  O  O1412  1  0.435220  0.944010  0.933500  1.0  -0.6531
  O  O1413  1  0.441430  0.055170  0.937000  1.0  -0.5755
  O  O1414  1  0.445020  0.064690  0.093000  1.0  -0.589
  O  O1415  1  0.562380  0.971520  0.731800  1.0  -0.5988
  O  O1416  1  0.548240  0.056050  0.876600  1.0  -0.6082
  O  O1417  1  0.478020  0.997470  0.696900  1.0  -0.6855
  O  O1418  1  0.498190  0.906270  0.784000  1.0  -0.6191
  O  O1419  1  0.479560  0.938470  0.787700  1.0  -0.6212
  O  O1420  1  0.542160  0.001130  0.756000  1.0  -0.6615
  O  O1421  1  0.154970  0.384640  0.143230  1.0  -0.7645
  O  O1422  1  0.159000  0.333090  0.244530  1.0  -0.7403
  O  O1423  1  0.167570  0.389320  0.339030  1.0  -0.7703
  O  O1424  1  0.077170  0.310800  0.967230  1.0  -0.5602
  O  O1425  1  0.077930  0.269990  0.045230  1.0  -0.5817
  O  O1426  1  0.113380  0.335440  0.367630  1.0  -0.7541
  O  O1427  1  0.100310  0.330290  0.172230  1.0  -0.7442
  O  O1428  1  0.101890  0.277340  0.266830  1.0  -0.6531
  O  O1429  1  0.108100  0.388500  0.270330  1.0  -0.5755
  O  O1430  1  0.111690  0.398020  0.426330  1.0  -0.589
  O  O1431  1  0.229050  0.304850  0.065130  1.0  -0.5988
  O  O1432  1  0.214910  0.389380  0.209930  1.0  -0.6082
  O  O1433  1  0.144690  0.330800  0.030230  1.0  -0.6855
  O  O1434  1  0.164860  0.239600  0.117330  1.0  -0.6191
  O  O1435  1  0.146230  0.271800  0.121030  1.0  -0.6212
  O  O1436  1  0.208830  0.334460  0.089330  1.0  -0.6615
  O  O1437  1  0.821630  0.717980  0.476570  1.0  -0.7645
  O  O1438  1  0.825660  0.666430  0.577870  1.0  -0.7403
  O  O1439  1  0.834230  0.722660  0.672370  1.0  -0.7703
  O  O1440  1  0.743830  0.644140  0.300570  1.0  -0.5598
  O  O1441  1  0.744590  0.603330  0.378570  1.0  -0.5817
  O  O1442  1  0.780040  0.668780  0.700970  1.0  -0.7541
  O  O1443  1  0.766970  0.663630  0.505570  1.0  -0.7442
  O  O1444  1  0.768550  0.610680  0.600170  1.0  -0.6531
  O  O1445  1  0.774760  0.721840  0.603670  1.0  -0.5755
  O  O1446  1  0.778350  0.731360  0.759670  1.0  -0.589
  O  O1447  1  0.895710  0.638190  0.398470  1.0  -0.5988
  O  O1448  1  0.881570  0.722720  0.543270  1.0  -0.6082
  O  O1449  1  0.811350  0.664140  0.363570  1.0  -0.6855
  O  O1450  1  0.831520  0.572940  0.450670  1.0  -0.6191
  O  O1451  1  0.812890  0.605140  0.454370  1.0  -0.6212
  O  O1452  1  0.875490  0.667800  0.422670  1.0  -0.6615
  O  O1453  1  0.948690  0.436990  0.809900  1.0  -0.7651
  O  O1454  1  0.000240  0.492570  0.911200  1.0  -0.7392
  O  O1455  1  0.944010  0.444910  0.005700  1.0  -0.7708
  O  O1456  1  0.022530  0.433030  0.633900  1.0  -0.5618
  O  O1457  1  0.063340  0.474600  0.711900  1.0  -0.5784
  O  O1458  1  0.997890  0.444600  0.034300  1.0  -0.7551
  O  O1459  1  0.003040  0.436680  0.838900  1.0  -0.745
  O  O1460  1  0.055990  0.491210  0.933500  1.0  -0.6532
  O  O1461  1  0.944830  0.386260  0.937000  1.0  -0.5766
  O  O1462  1  0.935310  0.380330  0.093000  1.0  -0.5892
  O  O1463  1  0.028480  0.590860  0.731800  1.0  -0.5992
  O  O1464  1  0.943950  0.492190  0.876600  1.0  -0.6089
  O  O1465  1  0.002530  0.480550  0.696900  1.0  -0.6843
  O  O1466  1  0.093730  0.591920  0.784000  1.0  -0.6189
  O  O1467  1  0.061530  0.541090  0.787700  1.0  -0.6202
  O  O1468  1  0.998870  0.541030  0.756000  1.0  -0.6621
  O  O1469  1  0.615360  0.770320  0.143230  1.0  -0.7651
  O  O1470  1  0.666910  0.825900  0.244530  1.0  -0.7392
  O  O1471  1  0.610680  0.778240  0.339030  1.0  -0.7708
  O  O1472  1  0.689200  0.766360  0.967230  1.0  -0.5618
  O  O1473  1  0.730010  0.807930  0.045230  1.0  -0.5784
  O  O1474  1  0.664560  0.777930  0.367630  1.0  -0.7551
  O  O1475  1  0.669710  0.770010  0.172230  1.0  -0.745
  O  O1476  1  0.722660  0.824540  0.266830  1.0  -0.6532
  O  O1477  1  0.611500  0.719590  0.270330  1.0  -0.5766
  O  O1478  1  0.601980  0.713660  0.426330  1.0  -0.5892
  O  O1479  1  0.695150  0.924190  0.065130  1.0  -0.5992
  O  O1480  1  0.610620  0.825520  0.209930  1.0  -0.6089
  O  O1481  1  0.669200  0.813880  0.030230  1.0  -0.6843
  O  O1482  1  0.760400  0.925250  0.117330  1.0  -0.6189
  O  O1483  1  0.728200  0.874420  0.121030  1.0  -0.6202
  O  O1484  1  0.665540  0.874360  0.089330  1.0  -0.6621
  O  O1485  1  0.282020  0.103660  0.476570  1.0  -0.7651
  O  O1486  1  0.333570  0.159240  0.577870  1.0  -0.7392
  O  O1487  1  0.277340  0.111580  0.672370  1.0  -0.7708
  O  O1488  1  0.355860  0.099700  0.300570  1.0  -0.5618
  O  O1489  1  0.396670  0.141270  0.378570  1.0  -0.5784
  O  O1490  1  0.331220  0.111270  0.700970  1.0  -0.7551
  O  O1491  1  0.336370  0.103350  0.505570  1.0  -0.745
  O  O1492  1  0.389320  0.157880  0.600170  1.0  -0.6532
  O  O1493  1  0.278160  0.052930  0.603670  1.0  -0.5766
  O  O1494  1  0.268640  0.047000  0.759670  1.0  -0.5892
  O  O1495  1  0.361810  0.257530  0.398470  1.0  -0.5991
  O  O1496  1  0.277280  0.158860  0.543270  1.0  -0.6089
  O  O1497  1  0.335860  0.147220  0.363570  1.0  -0.6843
  O  O1498  1  0.427060  0.258590  0.450670  1.0  -0.6189
  O  O1499  1  0.394860  0.207760  0.454370  1.0  -0.6202
  O  O1500  1  0.332200  0.207700  0.422670  1.0  -0.6622
  O  O1501  1  0.563010  0.511700  0.809900  1.0  -0.7641
  O  O1502  1  0.507430  0.507670  0.911200  1.0  -0.7409
  O  O1503  1  0.555090  0.499100  0.005700  1.0  -0.7694
  O  O1504  1  0.566970  0.589500  0.633900  1.0  -0.5608
  O  O1505  1  0.525400  0.588740  0.711900  1.0  -0.5767
  O  O1506  1  0.555400  0.553290  0.034300  1.0  -0.7529
  O  O1507  1  0.563320  0.566360  0.838900  1.0  -0.7437
  O  O1508  1  0.508790  0.564780  0.933500  1.0  -0.6509
  O  O1509  1  0.613740  0.558570  0.937000  1.0  -0.5763
  O  O1510  1  0.619670  0.554980  0.093000  1.0  -0.5895
  O  O1511  1  0.409140  0.437620  0.731800  1.0  -0.5956
  O  O1512  1  0.507810  0.451760  0.876600  1.0  -0.6096
  O  O1513  1  0.519450  0.521980  0.696900  1.0  -0.6826
  O  O1514  1  0.408080  0.501810  0.784000  1.0  -0.6108
  O  O1515  1  0.458910  0.520440  0.787700  1.0  -0.6217
  O  O1516  1  0.458970  0.457840  0.756000  1.0  -0.6618
  O  O1517  1  0.229680  0.845030  0.143230  1.0  -0.7641
  O  O1518  1  0.174100  0.841000  0.244530  1.0  -0.7409
  O  O1519  1  0.221760  0.832430  0.339030  1.0  -0.7694
  O  O1520  1  0.233640  0.922830  0.967230  1.0  -0.5608
  O  O1521  1  0.192070  0.922070  0.045230  1.0  -0.5767
  O  O1522  1  0.222070  0.886620  0.367630  1.0  -0.7529
  O  O1523  1  0.229990  0.899690  0.172230  1.0  -0.7437
  O  O1524  1  0.175460  0.898110  0.266830  1.0  -0.6509
  O  O1525  1  0.280410  0.891900  0.270330  1.0  -0.5763
  O  O1526  1  0.286340  0.888310  0.426330  1.0  -0.5895
  O  O1527  1  0.075810  0.770950  0.065130  1.0  -0.5956
  O  O1528  1  0.174480  0.785090  0.209930  1.0  -0.6096
  O  O1529  1  0.186120  0.855310  0.030230  1.0  -0.6826
  O  O1530  1  0.074750  0.835140  0.117330  1.0  -0.6108
  O  O1531  1  0.125580  0.853770  0.121030  1.0  -0.6217
  O  O1532  1  0.125640  0.791170  0.089330  1.0  -0.6618
  O  O1533  1  0.896340  0.178370  0.476570  1.0  -0.7641
  O  O1534  1  0.840760  0.174340  0.577870  1.0  -0.7409
  O  O1535  1  0.888420  0.165770  0.672370  1.0  -0.7694
  O  O1536  1  0.900300  0.256170  0.300570  1.0  -0.5608
  O  O1537  1  0.858730  0.255410  0.378570  1.0  -0.5767
  O  O1538  1  0.888730  0.219960  0.700970  1.0  -0.7529
  O  O1539  1  0.896650  0.233030  0.505570  1.0  -0.7437
  O  O1540  1  0.842120  0.231450  0.600170  1.0  -0.6509
  O  O1541  1  0.947070  0.225240  0.603670  1.0  -0.5763
  O  O1542  1  0.953000  0.221650  0.759670  1.0  -0.5895
  O  O1543  1  0.742470  0.104290  0.398470  1.0  -0.5956
  O  O1544  1  0.841140  0.118430  0.543270  1.0  -0.6096
  O  O1545  1  0.852780  0.188650  0.363570  1.0  -0.6826
  O  O1546  1  0.741410  0.168480  0.450670  1.0  -0.6108
  O  O1547  1  0.792240  0.187110  0.454370  1.0  -0.6217
  O  O1548  1  0.792300  0.124510  0.422670  1.0  -0.6618
  O  O1549  1  0.511700  0.948690  0.190100  1.0  -0.7653
  O  O1550  1  0.507670  0.000240  0.088800  1.0  -0.7412
  O  O1551  1  0.499100  0.944010  0.994300  1.0  -0.7675
  O  O1552  1  0.589500  0.022530  0.366100  1.0  -0.5632
  O  O1553  1  0.588740  0.063340  0.288100  1.0  -0.5795
  O  O1554  1  0.553290  0.997890  0.965700  1.0  -0.7543
  O  O1555  1  0.566360  0.003040  0.161100  1.0  -0.7462
  O  O1556  1  0.564780  0.055990  0.066500  1.0  -0.6537
  O  O1557  1  0.558570  0.944830  0.063000  1.0  -0.5777
  O  O1558  1  0.554980  0.935310  0.907000  1.0  -0.5906
  O  O1559  1  0.437620  0.028480  0.268200  1.0  -0.5984
  O  O1560  1  0.451760  0.943950  0.123400  1.0  -0.6089
  O  O1561  1  0.521980  0.002530  0.303100  1.0  -0.6863
  O  O1562  1  0.501810  0.093730  0.216000  1.0  -0.6152
  O  O1563  1  0.520440  0.061530  0.212300  1.0  -0.6221
  O  O1564  1  0.457840  0.998870  0.244000  1.0  -0.66
  O  O1565  1  0.178370  0.282020  0.523430  1.0  -0.7653
  O  O1566  1  0.174340  0.333570  0.422130  1.0  -0.7412
  O  O1567  1  0.165770  0.277340  0.327630  1.0  -0.7675
  O  O1568  1  0.256170  0.355860  0.699430  1.0  -0.5627
  O  O1569  1  0.255410  0.396670  0.621430  1.0  -0.5795
  O  O1570  1  0.219960  0.331220  0.299030  1.0  -0.7543
  O  O1571  1  0.233030  0.336370  0.494430  1.0  -0.7461
  O  O1572  1  0.231450  0.389320  0.399830  1.0  -0.6537
  O  O1573  1  0.225240  0.278160  0.396330  1.0  -0.5776
  O  O1574  1  0.221650  0.268640  0.240330  1.0  -0.5904
  O  O1575  1  0.104290  0.361810  0.601530  1.0  -0.5985
  O  O1576  1  0.118430  0.277280  0.456730  1.0  -0.6089
  O  O1577  1  0.188650  0.335860  0.636430  1.0  -0.6863
  O  O1578  1  0.168480  0.427060  0.549330  1.0  -0.6152
  O  O1579  1  0.187110  0.394860  0.545630  1.0  -0.6221
  O  O1580  1  0.124510  0.332200  0.577330  1.0  -0.66
  O  O1581  1  0.845030  0.615360  0.856770  1.0  -0.7653
  O  O1582  1  0.841000  0.666910  0.755470  1.0  -0.7412
  O  O1583  1  0.832430  0.610680  0.660970  1.0  -0.7675
  O  O1584  1  0.922830  0.689200  0.032770  1.0  -0.5632
  O  O1585  1  0.922070  0.730010  0.954770  1.0  -0.5795
  O  O1586  1  0.886620  0.664560  0.632370  1.0  -0.7543
  O  O1587  1  0.899690  0.669710  0.827770  1.0  -0.7462
  O  O1588  1  0.898110  0.722660  0.733170  1.0  -0.6537
  O  O1589  1  0.891900  0.611500  0.729670  1.0  -0.5777
  O  O1590  1  0.888310  0.601980  0.573670  1.0  -0.5906
  O  O1591  1  0.770950  0.695150  0.934870  1.0  -0.5984
  O  O1592  1  0.785090  0.610620  0.790070  1.0  -0.6089
  O  O1593  1  0.855310  0.669200  0.969770  1.0  -0.6863
  O  O1594  1  0.835140  0.760400  0.882670  1.0  -0.6152
  O  O1595  1  0.853770  0.728200  0.878970  1.0  -0.6221
  O  O1596  1  0.791170  0.665540  0.910670  1.0  -0.66
  O  O1597  1  0.051310  0.563010  0.190100  1.0  -0.7662
  O  O1598  1  0.999760  0.507430  0.088800  1.0  -0.7413
  O  O1599  1  0.055990  0.555090  0.994300  1.0  -0.7683
  O  O1600  1  0.977470  0.566970  0.366100  1.0  -0.5629
  O  O1601  1  0.936660  0.525400  0.288100  1.0  -0.5762
  O  O1602  1  0.002110  0.555400  0.965700  1.0  -0.754
  O  O1603  1  0.996960  0.563320  0.161100  1.0  -0.7442
  O  O1604  1  0.944010  0.508790  0.066500  1.0  -0.6537
  O  O1605  1  0.055170  0.613740  0.063000  1.0  -0.5784
  O  O1606  1  0.064690  0.619670  0.907000  1.0  -0.5885
  O  O1607  1  0.971520  0.409140  0.268200  1.0  -0.5996
  O  O1608  1  0.056050  0.507810  0.123400  1.0  -0.6107
  O  O1609  1  0.997470  0.519450  0.303100  1.0  -0.6849
  O  O1610  1  0.906270  0.408080  0.216000  1.0  -0.6205
  O  O1611  1  0.938470  0.458910  0.212300  1.0  -0.6224
  O  O1612  1  0.001130  0.458970  0.244000  1.0  -0.6597
  O  O1613  1  0.717980  0.896340  0.523430  1.0  -0.7661
  O  O1614  1  0.666430  0.840760  0.422130  1.0  -0.7413
  O  O1615  1  0.722660  0.888420  0.327630  1.0  -0.7683
  O  O1616  1  0.644140  0.900300  0.699430  1.0  -0.563
  O  O1617  1  0.603330  0.858730  0.621430  1.0  -0.5762
  O  O1618  1  0.668780  0.888730  0.299030  1.0  -0.754
  O  O1619  1  0.663630  0.896650  0.494430  1.0  -0.7442
  O  O1620  1  0.610680  0.842120  0.399830  1.0  -0.6537
  O  O1621  1  0.721840  0.947070  0.396330  1.0  -0.5785
  O  O1622  1  0.731360  0.953000  0.240330  1.0  -0.5885
  O  O1623  1  0.638190  0.742470  0.601530  1.0  -0.5996
  O  O1624  1  0.722720  0.841140  0.456730  1.0  -0.6107
  O  O1625  1  0.664140  0.852780  0.636430  1.0  -0.6849
  O  O1626  1  0.572940  0.741410  0.549330  1.0  -0.6205
  O  O1627  1  0.605140  0.792240  0.545630  1.0  -0.6224
  O  O1628  1  0.667800  0.792300  0.577330  1.0  -0.6597
  O  O1629  1  0.384640  0.229680  0.856770  1.0  -0.7662
  O  O1630  1  0.333090  0.174100  0.755470  1.0  -0.7413
  O  O1631  1  0.389320  0.221760  0.660970  1.0  -0.7683
  O  O1632  1  0.310800  0.233640  0.032770  1.0  -0.5629
  O  O1633  1  0.269990  0.192070  0.954770  1.0  -0.5762
  O  O1634  1  0.335440  0.222070  0.632370  1.0  -0.754
  O  O1635  1  0.330290  0.229990  0.827770  1.0  -0.7442
  O  O1636  1  0.277340  0.175460  0.733170  1.0  -0.6537
  O  O1637  1  0.388500  0.280410  0.729670  1.0  -0.5784
  O  O1638  1  0.398020  0.286340  0.573670  1.0  -0.5885
  O  O1639  1  0.304850  0.075810  0.934870  1.0  -0.5996
  O  O1640  1  0.389380  0.174480  0.790070  1.0  -0.6107
  O  O1641  1  0.330800  0.186120  0.969770  1.0  -0.6849
  O  O1642  1  0.239600  0.074750  0.882670  1.0  -0.6205
  O  O1643  1  0.271800  0.125580  0.878970  1.0  -0.6224
  O  O1644  1  0.334460  0.125640  0.910670  1.0  -0.6597
  O  O1645  1  0.436990  0.488300  0.190100  1.0  -0.766
  O  O1646  1  0.492570  0.492330  0.088800  1.0  -0.7408
  O  O1647  1  0.444910  0.500900  0.994300  1.0  -0.7706
  O  O1648  1  0.433030  0.410500  0.366100  1.0  -0.5613
  O  O1649  1  0.474600  0.411260  0.288100  1.0  -0.5771
  O  O1650  1  0.444600  0.446710  0.965700  1.0  -0.7507
  O  O1651  1  0.436680  0.433640  0.161100  1.0  -0.7429
  O  O1652  1  0.491210  0.435220  0.066500  1.0  -0.6508
  O  O1653  1  0.386260  0.441430  0.063000  1.0  -0.5799
  O  O1654  1  0.380330  0.445020  0.907000  1.0  -0.5906
  O  O1655  1  0.590860  0.562380  0.268200  1.0  -0.5951
  O  O1656  1  0.492190  0.548240  0.123400  1.0  -0.6107
  O  O1657  1  0.480550  0.478020  0.303100  1.0  -0.6846
  O  O1658  1  0.591920  0.498190  0.216000  1.0  -0.611
  O  O1659  1  0.541090  0.479560  0.212300  1.0  -0.6234
  O  O1660  1  0.541030  0.542160  0.244000  1.0  -0.6603
  O  O1661  1  0.103660  0.821630  0.523430  1.0  -0.7659
  O  O1662  1  0.159240  0.825660  0.422130  1.0  -0.7408
  O  O1663  1  0.111580  0.834230  0.327630  1.0  -0.7706
  O  O1664  1  0.099700  0.743830  0.699430  1.0  -0.5613
  O  O1665  1  0.141270  0.744590  0.621430  1.0  -0.5771
  O  O1666  1  0.111270  0.780040  0.299030  1.0  -0.7506
  O  O1667  1  0.103350  0.766970  0.494430  1.0  -0.7431
  O  O1668  1  0.157880  0.768550  0.399830  1.0  -0.6508
  O  O1669  1  0.052930  0.774760  0.396330  1.0  -0.5799
  O  O1670  1  0.047000  0.778350  0.240330  1.0  -0.5906
  O  O1671  1  0.257530  0.895710  0.601530  1.0  -0.5952
  O  O1672  1  0.158860  0.881570  0.456730  1.0  -0.6107
  O  O1673  1  0.147220  0.811350  0.636430  1.0  -0.6846
  O  O1674  1  0.258590  0.831520  0.549330  1.0  -0.611
  O  O1675  1  0.207760  0.812890  0.545630  1.0  -0.6234
  O  O1676  1  0.207700  0.875490  0.577330  1.0  -0.6603
  O  O1677  1  0.770320  0.154970  0.856770  1.0  -0.766
  O  O1678  1  0.825900  0.159000  0.755470  1.0  -0.7408
  O  O1679  1  0.778240  0.167570  0.660970  1.0  -0.7706
  O  O1680  1  0.766360  0.077170  0.032770  1.0  -0.5613
  O  O1681  1  0.807930  0.077930  0.954770  1.0  -0.5771
  O  O1682  1  0.777930  0.113380  0.632370  1.0  -0.7507
  O  O1683  1  0.770010  0.100310  0.827770  1.0  -0.7429
  O  O1684  1  0.824540  0.101890  0.733170  1.0  -0.6508
  O  O1685  1  0.719590  0.108100  0.729670  1.0  -0.5799
  O  O1686  1  0.713660  0.111690  0.573670  1.0  -0.5906
  O  O1687  1  0.924190  0.229050  0.934870  1.0  -0.5952
  O  O1688  1  0.825520  0.214910  0.790070  1.0  -0.6107
  O  O1689  1  0.813880  0.144690  0.969770  1.0  -0.6846
  O  O1690  1  0.925250  0.164860  0.882670  1.0  -0.611
  O  O1691  1  0.874420  0.146230  0.878970  1.0  -0.6234
  O  O1692  1  0.874360  0.208830  0.910670  1.0  -0.6603
