# generated using pymatgen
data_ScH6(C2O)6
_symmetry_space_group_name_H-M   'P 1'
_cell_length_a   8.88240000
_cell_length_b   61.24800000
_cell_length_c   33.68900000
_cell_angle_alpha   90.00000000
_cell_angle_beta   90.00000000
_cell_angle_gamma   90.00000000
_symmetry_Int_Tables_number   1
_chemical_formula_structural   ScH6(C2O)6
_chemical_formula_sum   'Sc48 H288 C576 O288'
_cell_volume   18327.80090465
_cell_formula_units_Z   48
loop_
 _symmetry_equiv_pos_site_id
 _symmetry_equiv_pos_as_xyz
  1  'x, y, z'
loop_
 _atom_site_type_symbol
 _atom_site_label
 _atom_site_symmetry_multiplicity
 _atom_site_fract_x
 _atom_site_fract_y
 _atom_site_fract_z
 _atom_site_occupancy
 _atom_site_charge
  Sc  Sc1  1  0.254100  0.583300  0.426330  1.0  2.0567
  Sc  Sc2  1  0.751000  0.583300  0.404670  1.0  2.0531
  Sc  Sc3  1  0.254100  0.083300  0.926330  1.0  2.0567
  Sc  Sc4  1  0.751000  0.083300  0.904670  1.0  2.0531
  Sc  Sc5  1  0.754100  0.583300  0.926330  1.0  2.0567
  Sc  Sc6  1  0.251000  0.583300  0.904670  1.0  2.0531
  Sc  Sc7  1  0.754100  0.083300  0.426330  1.0  2.0567
  Sc  Sc8  1  0.251000  0.083300  0.404670  1.0  2.0531
  Sc  Sc9  1  0.745900  0.416700  0.426330  1.0  2.0562
  Sc  Sc10  1  0.249000  0.416700  0.404670  1.0  2.0534
  Sc  Sc11  1  0.745900  0.916700  0.926330  1.0  2.0562
  Sc  Sc12  1  0.249000  0.916700  0.904670  1.0  2.0534
  Sc  Sc13  1  0.245900  0.416700  0.926330  1.0  2.0562
  Sc  Sc14  1  0.749000  0.416700  0.904670  1.0  2.0534
  Sc  Sc15  1  0.245900  0.916700  0.426330  1.0  2.0562
  Sc  Sc16  1  0.749000  0.916700  0.404670  1.0  2.0534
  Sc  Sc17  1  0.504100  0.666667  0.676330  1.0  2.0556
  Sc  Sc18  1  0.001000  0.666667  0.654670  1.0  2.0538
  Sc  Sc19  1  0.504100  0.166700  0.176330  1.0  2.0557
  Sc  Sc20  1  0.001000  0.166700  0.154670  1.0  2.0539
  Sc  Sc21  1  0.004100  0.666667  0.176330  1.0  2.0556
  Sc  Sc22  1  0.501000  0.666667  0.154670  1.0  2.0538
  Sc  Sc23  1  0.004100  0.166700  0.676330  1.0  2.0557
  Sc  Sc24  1  0.501000  0.166700  0.654670  1.0  2.0539
  Sc  Sc25  1  0.995900  0.833300  0.676330  1.0  2.0572
  Sc  Sc26  1  0.499000  0.833300  0.654670  1.0  2.0525
  Sc  Sc27  1  0.995900  0.333333  0.176330  1.0  2.0571
  Sc  Sc28  1  0.499000  0.333333  0.154670  1.0  2.0525
  Sc  Sc29  1  0.495900  0.833300  0.176330  1.0  2.0572
  Sc  Sc30  1  0.999000  0.833300  0.154670  1.0  2.0525
  Sc  Sc31  1  0.495900  0.333333  0.676330  1.0  2.0571
  Sc  Sc32  1  0.999000  0.333333  0.654670  1.0  2.0525
  Sc  Sc33  1  0.750000  0.750000  0.426260  1.0  1.9833
  Sc  Sc34  1  0.750000  0.250000  0.926260  1.0  1.9833
  Sc  Sc35  1  0.250000  0.250000  0.426260  1.0  1.9833
  Sc  Sc36  1  0.250000  0.750000  0.926260  1.0  1.9833
  Sc  Sc37  1  0.000000  0.500000  0.676260  1.0  1.9833
  Sc  Sc38  1  0.000000  0.000000  0.176260  1.0  1.9833
  Sc  Sc39  1  0.500000  0.500000  0.176260  1.0  1.9833
  Sc  Sc40  1  0.500000  0.000000  0.676260  1.0  1.9833
  Sc  Sc41  1  0.250000  0.750000  0.404650  1.0  1.9971
  Sc  Sc42  1  0.250000  0.250000  0.904650  1.0  1.9971
  Sc  Sc43  1  0.750000  0.250000  0.404650  1.0  1.9971
  Sc  Sc44  1  0.750000  0.750000  0.904650  1.0  1.9971
  Sc  Sc45  1  0.500000  0.500000  0.654650  1.0  1.9984
  Sc  Sc46  1  0.500000  0.000000  0.154650  1.0  1.9984
  Sc  Sc47  1  0.000000  0.000000  0.654650  1.0  1.9984
  Sc  Sc48  1  0.000000  0.500000  0.154650  1.0  1.9984
  H  H49  1  0.227600  0.647100  0.424000  1.0  0.0951
  H  H50  1  0.229600  0.684900  0.420900  1.0  0.0957
  H  H51  1  0.778000  0.685600  0.427800  1.0  0.0974
  H  H52  1  0.776000  0.647800  0.430900  1.0  0.1009
  H  H53  1  0.125300  0.694200  0.539500  1.0  0.1021
  H  H54  1  0.209400  0.715300  0.486800  1.0  0.081
  H  H55  1  0.627800  0.714500  0.532100  1.0  0.0983
  H  H56  1  0.543700  0.693400  0.584900  1.0  0.0851
  H  H57  1  0.379300  0.607900  0.541100  1.0  0.1015
  H  H58  1  0.805100  0.605900  0.500900  1.0  0.0806
  H  H59  1  0.884400  0.625400  0.556100  1.0  0.1021
  H  H60  1  0.458600  0.627500  0.596200  1.0  0.086
  H  H61  1  0.125600  0.549200  0.530400  1.0  0.0989
  H  H62  1  0.043400  0.531200  0.586900  1.0  0.0882
  H  H63  1  0.630400  0.525600  0.539300  1.0  0.1004
  H  H64  1  0.712600  0.543600  0.482800  1.0  0.0854
  H  H65  1  0.722700  0.519200  0.395200  1.0  0.0927
  H  H66  1  0.727200  0.481500  0.398100  1.0  0.1075
  H  H67  1  0.227600  0.147100  0.924000  1.0  0.0951
  H  H68  1  0.229600  0.184900  0.920900  1.0  0.0957
  H  H69  1  0.778000  0.185600  0.927800  1.0  0.0974
  H  H70  1  0.776000  0.147800  0.930900  1.0  0.1009
  H  H71  1  0.125300  0.194200  0.039500  1.0  0.1021
  H  H72  1  0.209400  0.215300  0.986800  1.0  0.081
  H  H73  1  0.627800  0.214500  0.032100  1.0  0.0983
  H  H74  1  0.543700  0.193400  0.084900  1.0  0.0851
  H  H75  1  0.379300  0.107900  0.041100  1.0  0.1015
  H  H76  1  0.805100  0.105900  0.000900  1.0  0.0806
  H  H77  1  0.884400  0.125400  0.056100  1.0  0.1021
  H  H78  1  0.458600  0.127500  0.096200  1.0  0.086
  H  H79  1  0.125600  0.049200  0.030400  1.0  0.0989
  H  H80  1  0.043400  0.031200  0.086900  1.0  0.0882
  H  H81  1  0.630400  0.025600  0.039300  1.0  0.1004
  H  H82  1  0.712600  0.043600  0.982800  1.0  0.0854
  H  H83  1  0.722700  0.019200  0.895200  1.0  0.0927
  H  H84  1  0.727200  0.981500  0.898100  1.0  0.1075
  H  H85  1  0.727600  0.647100  0.924000  1.0  0.0951
  H  H86  1  0.729600  0.684900  0.920900  1.0  0.0957
  H  H87  1  0.278000  0.685600  0.927800  1.0  0.0974
  H  H88  1  0.276000  0.647800  0.930900  1.0  0.1009
  H  H89  1  0.625300  0.694200  0.039500  1.0  0.1021
  H  H90  1  0.709400  0.715300  0.986800  1.0  0.081
  H  H91  1  0.127800  0.714500  0.032100  1.0  0.0983
  H  H92  1  0.043700  0.693400  0.084900  1.0  0.0851
  H  H93  1  0.879300  0.607900  0.041100  1.0  0.1015
  H  H94  1  0.305100  0.605900  0.000900  1.0  0.0806
  H  H95  1  0.384400  0.625400  0.056100  1.0  0.1021
  H  H96  1  0.958600  0.627500  0.096200  1.0  0.086
  H  H97  1  0.625600  0.549200  0.030400  1.0  0.0989
  H  H98  1  0.543400  0.531200  0.086900  1.0  0.0882
  H  H99  1  0.130400  0.525600  0.039300  1.0  0.1004
  H  H100  1  0.212600  0.543600  0.982800  1.0  0.0854
  H  H101  1  0.222700  0.519200  0.895200  1.0  0.0927
  H  H102  1  0.227200  0.481500  0.898100  1.0  0.1075
  H  H103  1  0.727600  0.147100  0.424000  1.0  0.0951
  H  H104  1  0.729600  0.184900  0.420900  1.0  0.0957
  H  H105  1  0.278000  0.185600  0.427800  1.0  0.0974
  H  H106  1  0.276000  0.147800  0.430900  1.0  0.1009
  H  H107  1  0.625300  0.194200  0.539500  1.0  0.1021
  H  H108  1  0.709400  0.215300  0.486800  1.0  0.081
  H  H109  1  0.127800  0.214500  0.532100  1.0  0.0983
  H  H110  1  0.043700  0.193400  0.584900  1.0  0.0851
  H  H111  1  0.879300  0.107900  0.541100  1.0  0.1015
  H  H112  1  0.305100  0.105900  0.500900  1.0  0.0806
  H  H113  1  0.384400  0.125400  0.556100  1.0  0.1021
  H  H114  1  0.958600  0.127500  0.596200  1.0  0.086
  H  H115  1  0.625600  0.049200  0.530400  1.0  0.0989
  H  H116  1  0.543400  0.031200  0.586900  1.0  0.0882
  H  H117  1  0.130400  0.025600  0.539300  1.0  0.1004
  H  H118  1  0.212600  0.043600  0.482800  1.0  0.0854
  H  H119  1  0.222700  0.019200  0.395200  1.0  0.0927
  H  H120  1  0.227200  0.981500  0.398100  1.0  0.1075
  H  H121  1  0.772400  0.352900  0.424000  1.0  0.0946
  H  H122  1  0.770400  0.315100  0.420900  1.0  0.0966
  H  H123  1  0.222000  0.314400  0.427800  1.0  0.0977
  H  H124  1  0.224000  0.352200  0.430900  1.0  0.1002
  H  H125  1  0.874700  0.305800  0.539500  1.0  0.1015
  H  H126  1  0.790600  0.284700  0.486800  1.0  0.0812
  H  H127  1  0.372200  0.285500  0.532100  1.0  0.0994
  H  H128  1  0.456300  0.306600  0.584900  1.0  0.0847
  H  H129  1  0.620700  0.392100  0.541100  1.0  0.1012
  H  H130  1  0.194900  0.394100  0.500900  1.0  0.0805
  H  H131  1  0.115600  0.374600  0.556100  1.0  0.1019
  H  H132  1  0.541400  0.372500  0.596200  1.0  0.0861
  H  H133  1  0.874400  0.450800  0.530400  1.0  0.0995
  H  H134  1  0.956600  0.468800  0.586900  1.0  0.0885
  H  H135  1  0.369600  0.474400  0.539300  1.0  0.0994
  H  H136  1  0.287400  0.456400  0.482800  1.0  0.0854
  H  H137  1  0.277300  0.480800  0.395200  1.0  0.0926
  H  H138  1  0.272800  0.518500  0.398100  1.0  0.1066
  H  H139  1  0.772400  0.852900  0.924000  1.0  0.0946
  H  H140  1  0.770400  0.815100  0.920900  1.0  0.0966
  H  H141  1  0.222000  0.814400  0.927800  1.0  0.0977
  H  H142  1  0.224000  0.852200  0.930900  1.0  0.1002
  H  H143  1  0.874700  0.805800  0.039500  1.0  0.1016
  H  H144  1  0.790600  0.784700  0.986800  1.0  0.0812
  H  H145  1  0.372200  0.785500  0.032100  1.0  0.0994
  H  H146  1  0.456300  0.806600  0.084900  1.0  0.0847
  H  H147  1  0.620700  0.892100  0.041100  1.0  0.1012
  H  H148  1  0.194900  0.894100  0.000900  1.0  0.0805
  H  H149  1  0.115600  0.874600  0.056100  1.0  0.1019
  H  H150  1  0.541400  0.872500  0.096200  1.0  0.0861
  H  H151  1  0.874400  0.950800  0.030400  1.0  0.0995
  H  H152  1  0.956600  0.968800  0.086900  1.0  0.0885
  H  H153  1  0.369600  0.974400  0.039300  1.0  0.0994
  H  H154  1  0.287400  0.956400  0.982800  1.0  0.0854
  H  H155  1  0.277300  0.980800  0.895200  1.0  0.0926
  H  H156  1  0.272800  0.018500  0.898100  1.0  0.1066
  H  H157  1  0.272400  0.352900  0.924000  1.0  0.0946
  H  H158  1  0.270400  0.315100  0.920900  1.0  0.0966
  H  H159  1  0.722000  0.314400  0.927800  1.0  0.0977
  H  H160  1  0.724000  0.352200  0.930900  1.0  0.1002
  H  H161  1  0.374700  0.305800  0.039500  1.0  0.1015
  H  H162  1  0.290600  0.284700  0.986800  1.0  0.0812
  H  H163  1  0.872200  0.285500  0.032100  1.0  0.0994
  H  H164  1  0.956300  0.306600  0.084900  1.0  0.0847
  H  H165  1  0.120700  0.392100  0.041100  1.0  0.1012
  H  H166  1  0.694900  0.394100  0.000900  1.0  0.0805
  H  H167  1  0.615600  0.374600  0.056100  1.0  0.1019
  H  H168  1  0.041400  0.372500  0.096200  1.0  0.0861
  H  H169  1  0.374400  0.450800  0.030400  1.0  0.0995
  H  H170  1  0.456600  0.468800  0.086900  1.0  0.0885
  H  H171  1  0.869600  0.474400  0.039300  1.0  0.0994
  H  H172  1  0.787400  0.456400  0.982800  1.0  0.0854
  H  H173  1  0.777300  0.480800  0.895200  1.0  0.0926
  H  H174  1  0.772800  0.518500  0.898100  1.0  0.1066
  H  H175  1  0.272400  0.852900  0.424000  1.0  0.0946
  H  H176  1  0.270400  0.815100  0.420900  1.0  0.0966
  H  H177  1  0.722000  0.814400  0.427800  1.0  0.0977
  H  H178  1  0.724000  0.852200  0.430900  1.0  0.1002
  H  H179  1  0.374700  0.805800  0.539500  1.0  0.1016
  H  H180  1  0.290600  0.784700  0.486800  1.0  0.0812
  H  H181  1  0.872200  0.785500  0.532100  1.0  0.0994
  H  H182  1  0.956300  0.806600  0.584900  1.0  0.0847
  H  H183  1  0.120700  0.892100  0.541100  1.0  0.1012
  H  H184  1  0.694900  0.894100  0.500900  1.0  0.0805
  H  H185  1  0.615600  0.874600  0.556100  1.0  0.1019
  H  H186  1  0.041400  0.872500  0.596200  1.0  0.0861
  H  H187  1  0.374400  0.950800  0.530400  1.0  0.0995
  H  H188  1  0.456600  0.968800  0.586900  1.0  0.0885
  H  H189  1  0.869600  0.974400  0.539300  1.0  0.0994
  H  H190  1  0.787400  0.956400  0.482800  1.0  0.0854
  H  H191  1  0.777300  0.980800  0.395200  1.0  0.0926
  H  H192  1  0.772800  0.018500  0.398100  1.0  0.1066
  H  H193  1  0.477600  0.602900  0.674000  1.0  0.0947
  H  H194  1  0.479600  0.565100  0.670900  1.0  0.0961
  H  H195  1  0.028000  0.564400  0.677800  1.0  0.098
  H  H196  1  0.026000  0.602200  0.680900  1.0  0.1003
  H  H197  1  0.375300  0.555800  0.789500  1.0  0.102
  H  H198  1  0.459400  0.534700  0.736800  1.0  0.0811
  H  H199  1  0.877800  0.535500  0.782100  1.0  0.0983
  H  H200  1  0.793700  0.556600  0.834900  1.0  0.0848
  H  H201  1  0.629300  0.642100  0.791100  1.0  0.1017
  H  H202  1  0.055100  0.644100  0.750900  1.0  0.0806
  H  H203  1  0.134400  0.624600  0.806100  1.0  0.1023
  H  H204  1  0.708600  0.622500  0.846200  1.0  0.0859
  H  H205  1  0.375600  0.700800  0.780400  1.0  0.0987
  H  H206  1  0.293400  0.718800  0.836900  1.0  0.0889
  H  H207  1  0.880400  0.724400  0.789300  1.0  0.1003
  H  H208  1  0.962600  0.706400  0.732800  1.0  0.0854
  H  H209  1  0.972700  0.730800  0.645200  1.0  0.093
  H  H210  1  0.977200  0.768500  0.648100  1.0  0.1073
  H  H211  1  0.477600  0.102900  0.174000  1.0  0.0947
  H  H212  1  0.479600  0.065100  0.170900  1.0  0.0961
  H  H213  1  0.028000  0.064400  0.177800  1.0  0.098
  H  H214  1  0.026000  0.102200  0.180900  1.0  0.1002
  H  H215  1  0.375300  0.055800  0.289500  1.0  0.102
  H  H216  1  0.459400  0.034700  0.236800  1.0  0.0811
  H  H217  1  0.877800  0.035500  0.282100  1.0  0.0983
  H  H218  1  0.793700  0.056600  0.334900  1.0  0.0848
  H  H219  1  0.629300  0.142100  0.291100  1.0  0.1017
  H  H220  1  0.055100  0.144100  0.250900  1.0  0.0806
  H  H221  1  0.134400  0.124600  0.306100  1.0  0.1023
  H  H222  1  0.708600  0.122500  0.346200  1.0  0.0859
  H  H223  1  0.375600  0.200800  0.280400  1.0  0.0987
  H  H224  1  0.293400  0.218800  0.336900  1.0  0.0889
  H  H225  1  0.880400  0.224400  0.289300  1.0  0.1003
  H  H226  1  0.962600  0.206400  0.232800  1.0  0.0854
  H  H227  1  0.972700  0.230800  0.145200  1.0  0.093
  H  H228  1  0.977200  0.268500  0.148100  1.0  0.1073
  H  H229  1  0.977600  0.602900  0.174000  1.0  0.0947
  H  H230  1  0.979600  0.565100  0.170900  1.0  0.0961
  H  H231  1  0.528000  0.564400  0.177800  1.0  0.098
  H  H232  1  0.526000  0.602200  0.180900  1.0  0.1003
  H  H233  1  0.875300  0.555800  0.289500  1.0  0.102
  H  H234  1  0.959400  0.534700  0.236800  1.0  0.0811
  H  H235  1  0.377800  0.535500  0.282100  1.0  0.0983
  H  H236  1  0.293700  0.556600  0.334900  1.0  0.0848
  H  H237  1  0.129300  0.642100  0.291100  1.0  0.1017
  H  H238  1  0.555100  0.644100  0.250900  1.0  0.0806
  H  H239  1  0.634400  0.624600  0.306100  1.0  0.1023
  H  H240  1  0.208600  0.622500  0.346200  1.0  0.0859
  H  H241  1  0.875600  0.700800  0.280400  1.0  0.0987
  H  H242  1  0.793400  0.718800  0.336900  1.0  0.0889
  H  H243  1  0.380400  0.724400  0.289300  1.0  0.1003
  H  H244  1  0.462600  0.706400  0.232800  1.0  0.0854
  H  H245  1  0.472700  0.730800  0.145200  1.0  0.093
  H  H246  1  0.477200  0.768500  0.148100  1.0  0.1073
  H  H247  1  0.977600  0.102900  0.674000  1.0  0.0947
  H  H248  1  0.979600  0.065100  0.670900  1.0  0.0961
  H  H249  1  0.528000  0.064400  0.677800  1.0  0.098
  H  H250  1  0.526000  0.102200  0.680900  1.0  0.1002
  H  H251  1  0.875300  0.055800  0.789500  1.0  0.102
  H  H252  1  0.959400  0.034700  0.736800  1.0  0.0811
  H  H253  1  0.377800  0.035500  0.782100  1.0  0.0983
  H  H254  1  0.293700  0.056600  0.834900  1.0  0.0848
  H  H255  1  0.129300  0.142100  0.791100  1.0  0.1017
  H  H256  1  0.555100  0.144100  0.750900  1.0  0.0806
  H  H257  1  0.634400  0.124600  0.806100  1.0  0.1023
  H  H258  1  0.208600  0.122500  0.846200  1.0  0.0859
  H  H259  1  0.875600  0.200800  0.780400  1.0  0.0987
  H  H260  1  0.793400  0.218800  0.836900  1.0  0.0889
  H  H261  1  0.380400  0.224400  0.789300  1.0  0.1003
  H  H262  1  0.462600  0.206400  0.732800  1.0  0.0854
  H  H263  1  0.472700  0.230800  0.645200  1.0  0.093
  H  H264  1  0.477200  0.268500  0.648100  1.0  0.1073
  H  H265  1  0.022400  0.897100  0.674000  1.0  0.095
  H  H266  1  0.020400  0.934900  0.670900  1.0  0.096
  H  H267  1  0.472000  0.935600  0.677800  1.0  0.0974
  H  H268  1  0.474000  0.897800  0.680900  1.0  0.1005
  H  H269  1  0.124700  0.944200  0.789500  1.0  0.1017
  H  H270  1  0.040600  0.965300  0.736800  1.0  0.0809
  H  H271  1  0.622200  0.964500  0.782100  1.0  0.0995
  H  H272  1  0.706300  0.943400  0.834900  1.0  0.0849
  H  H273  1  0.870700  0.857900  0.791100  1.0  0.1013
  H  H274  1  0.444900  0.855900  0.750900  1.0  0.0806
  H  H275  1  0.365600  0.875400  0.806100  1.0  0.1018
  H  H276  1  0.791400  0.877500  0.846200  1.0  0.0862
  H  H277  1  0.124400  0.799200  0.780400  1.0  0.0998
  H  H278  1  0.206600  0.781200  0.836900  1.0  0.0879
  H  H279  1  0.619600  0.775600  0.789300  1.0  0.0994
  H  H280  1  0.537400  0.793600  0.732800  1.0  0.0855
  H  H281  1  0.527300  0.769200  0.645200  1.0  0.092
  H  H282  1  0.522800  0.731500  0.648100  1.0  0.1072
  H  H283  1  0.022400  0.397100  0.174000  1.0  0.095
  H  H284  1  0.020400  0.434900  0.170900  1.0  0.096
  H  H285  1  0.472000  0.435600  0.177800  1.0  0.0974
  H  H286  1  0.474000  0.397800  0.180900  1.0  0.1005
  H  H287  1  0.124700  0.444200  0.289500  1.0  0.1017
  H  H288  1  0.040600  0.465300  0.236800  1.0  0.0809
  H  H289  1  0.622200  0.464500  0.282100  1.0  0.0995
  H  H290  1  0.706300  0.443400  0.334900  1.0  0.0849
  H  H291  1  0.870700  0.357900  0.291100  1.0  0.1013
  H  H292  1  0.444900  0.355900  0.250900  1.0  0.0806
  H  H293  1  0.365600  0.375400  0.306100  1.0  0.1018
  H  H294  1  0.791400  0.377500  0.346200  1.0  0.0862
  H  H295  1  0.124400  0.299200  0.280400  1.0  0.0998
  H  H296  1  0.206600  0.281200  0.336900  1.0  0.0879
  H  H297  1  0.619600  0.275600  0.289300  1.0  0.0994
  H  H298  1  0.537400  0.293600  0.232800  1.0  0.0855
  H  H299  1  0.527300  0.269200  0.145200  1.0  0.092
  H  H300  1  0.522800  0.231500  0.148100  1.0  0.1072
  H  H301  1  0.522400  0.897100  0.174000  1.0  0.095
  H  H302  1  0.520400  0.934900  0.170900  1.0  0.096
  H  H303  1  0.972000  0.935600  0.177800  1.0  0.0974
  H  H304  1  0.974000  0.897800  0.180900  1.0  0.1005
  H  H305  1  0.624700  0.944200  0.289500  1.0  0.1017
  H  H306  1  0.540600  0.965300  0.236800  1.0  0.0809
  H  H307  1  0.122200  0.964500  0.282100  1.0  0.0995
  H  H308  1  0.206300  0.943400  0.334900  1.0  0.0849
  H  H309  1  0.370700  0.857900  0.291100  1.0  0.1013
  H  H310  1  0.944900  0.855900  0.250900  1.0  0.0806
  H  H311  1  0.865600  0.875400  0.306100  1.0  0.1018
  H  H312  1  0.291400  0.877500  0.346200  1.0  0.0862
  H  H313  1  0.624400  0.799200  0.280400  1.0  0.0998
  H  H314  1  0.706600  0.781200  0.336900  1.0  0.0879
  H  H315  1  0.119600  0.775600  0.289300  1.0  0.0994
  H  H316  1  0.037400  0.793600  0.232800  1.0  0.0855
  H  H317  1  0.027300  0.769200  0.145200  1.0  0.092
  H  H318  1  0.022800  0.731500  0.148100  1.0  0.1072
  H  H319  1  0.522400  0.397100  0.674000  1.0  0.095
  H  H320  1  0.520400  0.434900  0.670900  1.0  0.096
  H  H321  1  0.972000  0.435600  0.677800  1.0  0.0974
  H  H322  1  0.974000  0.397800  0.680900  1.0  0.1005
  H  H323  1  0.624700  0.444200  0.789500  1.0  0.1017
  H  H324  1  0.540600  0.465300  0.736800  1.0  0.0809
  H  H325  1  0.122200  0.464500  0.782100  1.0  0.0995
  H  H326  1  0.206300  0.443400  0.834900  1.0  0.0849
  H  H327  1  0.370700  0.357900  0.791100  1.0  0.1013
  H  H328  1  0.944900  0.355900  0.750900  1.0  0.0806
  H  H329  1  0.865600  0.375400  0.806100  1.0  0.1018
  H  H330  1  0.291400  0.377500  0.846200  1.0  0.0862
  H  H331  1  0.624400  0.299200  0.780400  1.0  0.0998
  H  H332  1  0.706600  0.281200  0.836900  1.0  0.0879
  H  H333  1  0.119600  0.275600  0.789300  1.0  0.0994
  H  H334  1  0.037400  0.293600  0.732800  1.0  0.0855
  H  H335  1  0.027300  0.269200  0.645200  1.0  0.092
  H  H336  1  0.022800  0.231500  0.648100  1.0  0.1072
  C  C337  1  0.002000  0.619600  0.428000  1.0  0.7039
  C  C338  1  0.137500  0.654810  0.424800  1.0  -0.0541
  C  C339  1  0.138700  0.677480  0.422900  1.0  -0.066
  C  C340  1  0.004000  0.689020  0.424000  1.0  -0.1706
  C  C341  1  0.868100  0.677890  0.427000  1.0  -0.0673
  C  C342  1  0.866900  0.655220  0.428900  1.0  -0.0627
  C  C343  1  0.001600  0.643680  0.427800  1.0  -0.1461
  C  C344  1  0.001000  0.712800  0.417800  1.0  0.6952
  C  C345  1  0.480000  0.729700  0.469900  1.0  0.7252
  C  C346  1  0.326200  0.691730  0.567400  1.0  -0.1305
  C  C347  1  0.226000  0.698280  0.538000  1.0  -0.0683
  C  C348  1  0.276400  0.710920  0.506400  1.0  -0.035
  C  C349  1  0.426900  0.717000  0.504200  1.0  -0.1778
  C  C350  1  0.527100  0.710450  0.533600  1.0  -0.0551
  C  C351  1  0.476700  0.697820  0.565200  1.0  -0.0413
  C  C352  1  0.273000  0.678800  0.602900  1.0  0.7153
  C  C353  1  0.736000  0.641700  0.616400  1.0  0.7169
  C  C354  1  0.480600  0.611410  0.544100  1.0  -0.0717
  C  C355  1  0.584400  0.604940  0.515500  1.0  -0.1688
  C  C356  1  0.735700  0.610190  0.520000  1.0  -0.0504
  C  C357  1  0.783100  0.621910  0.553100  1.0  -0.0671
  C  C358  1  0.679300  0.628380  0.581600  1.0  -0.146
  C  C359  1  0.528000  0.623130  0.577100  1.0  -0.0469
  C  C360  1  0.522000  0.594000  0.479300  1.0  0.683
  C  C361  1  0.978000  0.558970  0.464900  1.0  0.7206
  C  C362  1  0.026300  0.544480  0.532200  1.0  -0.0683
  C  C363  1  0.977100  0.533660  0.566000  1.0  -0.0434
  C  C364  1  0.828800  0.526580  0.568700  1.0  -0.1448
  C  C365  1  0.729700  0.530330  0.537500  1.0  -0.053
  C  C366  1  0.778900  0.541140  0.503600  1.0  -0.0732
  C  C367  1  0.927300  0.548220  0.501000  1.0  -0.1475
  C  C368  1  0.774000  0.516300  0.606500  1.0  0.7217
  C  C369  1  0.496000  0.547060  0.399200  1.0  0.6993
  C  C370  1  0.498400  0.522380  0.397800  1.0  -0.125
  C  C371  1  0.633000  0.511440  0.396600  1.0  -0.0413
  C  C372  1  0.636000  0.488960  0.397600  1.0  -0.0615
  C  C373  1  0.002000  0.119600  0.928000  1.0  0.7039
  C  C374  1  0.137500  0.154810  0.924800  1.0  -0.0541
  C  C375  1  0.138700  0.177480  0.922900  1.0  -0.066
  C  C376  1  0.004000  0.189020  0.924000  1.0  -0.1706
  C  C377  1  0.868100  0.177890  0.927000  1.0  -0.0673
  C  C378  1  0.866900  0.155220  0.928900  1.0  -0.0627
  C  C379  1  0.001600  0.143680  0.927800  1.0  -0.1461
  C  C380  1  0.001000  0.212800  0.917800  1.0  0.6952
  C  C381  1  0.480000  0.229700  0.969900  1.0  0.7252
  C  C382  1  0.326200  0.191730  0.067400  1.0  -0.1305
  C  C383  1  0.226000  0.198280  0.038000  1.0  -0.0683
  C  C384  1  0.276400  0.210920  0.006400  1.0  -0.035
  C  C385  1  0.426900  0.217000  0.004200  1.0  -0.1778
  C  C386  1  0.527100  0.210450  0.033600  1.0  -0.0551
  C  C387  1  0.476700  0.197820  0.065200  1.0  -0.0413
  C  C388  1  0.273000  0.178800  0.102900  1.0  0.7149
  C  C389  1  0.736000  0.141700  0.116400  1.0  0.7169
  C  C390  1  0.480600  0.111410  0.044100  1.0  -0.0717
  C  C391  1  0.584400  0.104940  0.015500  1.0  -0.1688
  C  C392  1  0.735700  0.110190  0.020000  1.0  -0.0504
  C  C393  1  0.783100  0.121910  0.053100  1.0  -0.0671
  C  C394  1  0.679300  0.128380  0.081600  1.0  -0.146
  C  C395  1  0.528000  0.123130  0.077100  1.0  -0.0469
  C  C396  1  0.522000  0.094000  0.979300  1.0  0.683
  C  C397  1  0.978000  0.058970  0.964900  1.0  0.7206
  C  C398  1  0.026300  0.044480  0.032200  1.0  -0.0683
  C  C399  1  0.977100  0.033660  0.066000  1.0  -0.0434
  C  C400  1  0.828800  0.026580  0.068700  1.0  -0.1448
  C  C401  1  0.729700  0.030330  0.037500  1.0  -0.053
  C  C402  1  0.778900  0.041140  0.003600  1.0  -0.0732
  C  C403  1  0.927300  0.048220  0.001000  1.0  -0.1475
  C  C404  1  0.774000  0.016300  0.106500  1.0  0.7217
  C  C405  1  0.496000  0.047060  0.899200  1.0  0.6993
  C  C406  1  0.498400  0.022380  0.897800  1.0  -0.125
  C  C407  1  0.633000  0.011440  0.896600  1.0  -0.0413
  C  C408  1  0.636000  0.988960  0.897600  1.0  -0.0615
  C  C409  1  0.502000  0.619600  0.928000  1.0  0.7039
  C  C410  1  0.637500  0.654810  0.924800  1.0  -0.0541
  C  C411  1  0.638700  0.677480  0.922900  1.0  -0.066
  C  C412  1  0.504000  0.689020  0.924000  1.0  -0.1706
  C  C413  1  0.368100  0.677890  0.927000  1.0  -0.0673
  C  C414  1  0.366900  0.655220  0.928900  1.0  -0.0627
  C  C415  1  0.501600  0.643680  0.927800  1.0  -0.1461
  C  C416  1  0.501000  0.712800  0.917800  1.0  0.6952
  C  C417  1  0.980000  0.729700  0.969900  1.0  0.7252
  C  C418  1  0.826200  0.691730  0.067400  1.0  -0.1305
  C  C419  1  0.726000  0.698280  0.038000  1.0  -0.0683
  C  C420  1  0.776400  0.710920  0.006400  1.0  -0.035
  C  C421  1  0.926900  0.717000  0.004200  1.0  -0.1778
  C  C422  1  0.027100  0.710450  0.033600  1.0  -0.0551
  C  C423  1  0.976700  0.697820  0.065200  1.0  -0.0413
  C  C424  1  0.773000  0.678800  0.102900  1.0  0.7153
  C  C425  1  0.236000  0.641700  0.116400  1.0  0.7169
  C  C426  1  0.980600  0.611410  0.044100  1.0  -0.0717
  C  C427  1  0.084400  0.604940  0.015500  1.0  -0.1688
  C  C428  1  0.235700  0.610190  0.020000  1.0  -0.0504
  C  C429  1  0.283100  0.621910  0.053100  1.0  -0.0671
  C  C430  1  0.179300  0.628380  0.081600  1.0  -0.146
  C  C431  1  0.028000  0.623130  0.077100  1.0  -0.0469
  C  C432  1  0.022000  0.594000  0.979300  1.0  0.683
  C  C433  1  0.478000  0.558970  0.964900  1.0  0.7206
  C  C434  1  0.526300  0.544480  0.032200  1.0  -0.0683
  C  C435  1  0.477100  0.533660  0.066000  1.0  -0.0434
  C  C436  1  0.328800  0.526580  0.068700  1.0  -0.1448
  C  C437  1  0.229700  0.530330  0.037500  1.0  -0.053
  C  C438  1  0.278900  0.541140  0.003600  1.0  -0.0732
  C  C439  1  0.427300  0.548220  0.001000  1.0  -0.1475
  C  C440  1  0.274000  0.516300  0.106500  1.0  0.7217
  C  C441  1  0.996000  0.547060  0.899200  1.0  0.6993
  C  C442  1  0.998400  0.522380  0.897800  1.0  -0.125
  C  C443  1  0.133000  0.511440  0.896600  1.0  -0.0413
  C  C444  1  0.136000  0.488960  0.897600  1.0  -0.0615
  C  C445  1  0.502000  0.119600  0.428000  1.0  0.7039
  C  C446  1  0.637500  0.154810  0.424800  1.0  -0.0541
  C  C447  1  0.638700  0.177480  0.422900  1.0  -0.066
  C  C448  1  0.504000  0.189020  0.424000  1.0  -0.1706
  C  C449  1  0.368100  0.177890  0.427000  1.0  -0.0673
  C  C450  1  0.366900  0.155220  0.428900  1.0  -0.0627
  C  C451  1  0.501600  0.143680  0.427800  1.0  -0.1461
  C  C452  1  0.501000  0.212800  0.417800  1.0  0.6952
  C  C453  1  0.980000  0.229700  0.469900  1.0  0.7252
  C  C454  1  0.826200  0.191730  0.567400  1.0  -0.1305
  C  C455  1  0.726000  0.198280  0.538000  1.0  -0.0683
  C  C456  1  0.776400  0.210920  0.506400  1.0  -0.035
  C  C457  1  0.926900  0.217000  0.504200  1.0  -0.1778
  C  C458  1  0.027100  0.210450  0.533600  1.0  -0.0551
  C  C459  1  0.976700  0.197820  0.565200  1.0  -0.0413
  C  C460  1  0.773000  0.178800  0.602900  1.0  0.7149
  C  C461  1  0.236000  0.141700  0.616400  1.0  0.7169
  C  C462  1  0.980600  0.111410  0.544100  1.0  -0.0717
  C  C463  1  0.084400  0.104940  0.515500  1.0  -0.1688
  C  C464  1  0.235700  0.110190  0.520000  1.0  -0.0504
  C  C465  1  0.283100  0.121910  0.553100  1.0  -0.0671
  C  C466  1  0.179300  0.128380  0.581600  1.0  -0.146
  C  C467  1  0.028000  0.123130  0.577100  1.0  -0.0469
  C  C468  1  0.022000  0.094000  0.479300  1.0  0.683
  C  C469  1  0.478000  0.058970  0.464900  1.0  0.7206
  C  C470  1  0.526300  0.044480  0.532200  1.0  -0.0683
  C  C471  1  0.477100  0.033660  0.566000  1.0  -0.0434
  C  C472  1  0.328800  0.026580  0.568700  1.0  -0.1448
  C  C473  1  0.229700  0.030330  0.537500  1.0  -0.053
  C  C474  1  0.278900  0.041140  0.503600  1.0  -0.0732
  C  C475  1  0.427300  0.048220  0.501000  1.0  -0.1475
  C  C476  1  0.274000  0.016300  0.606500  1.0  0.7217
  C  C477  1  0.996000  0.047060  0.399200  1.0  0.6993
  C  C478  1  0.998400  0.022380  0.397800  1.0  -0.125
  C  C479  1  0.133000  0.011440  0.396600  1.0  -0.0413
  C  C480  1  0.136000  0.988960  0.397600  1.0  -0.0615
  C  C481  1  0.998000  0.380400  0.428000  1.0  0.706
  C  C482  1  0.862500  0.345190  0.424800  1.0  -0.054
  C  C483  1  0.861300  0.322520  0.422900  1.0  -0.0671
  C  C484  1  0.996000  0.310980  0.424000  1.0  -0.1711
  C  C485  1  0.131900  0.322110  0.427000  1.0  -0.0652
  C  C486  1  0.133100  0.344780  0.428900  1.0  -0.0613
  C  C487  1  0.998400  0.356320  0.427800  1.0  -0.1456
  C  C488  1  0.999000  0.287200  0.417800  1.0  0.696
  C  C489  1  0.520000  0.270300  0.469900  1.0  0.7258
  C  C490  1  0.673800  0.308270  0.567400  1.0  -0.1308
  C  C491  1  0.774000  0.301720  0.538000  1.0  -0.0691
  C  C492  1  0.723600  0.289080  0.506400  1.0  -0.0339
  C  C493  1  0.573100  0.283000  0.504200  1.0  -0.1779
  C  C494  1  0.472900  0.289550  0.533600  1.0  -0.0572
  C  C495  1  0.523300  0.302180  0.565200  1.0  -0.0413
  C  C496  1  0.727000  0.321200  0.602900  1.0  0.7155
  C  C497  1  0.264000  0.358300  0.616400  1.0  0.7169
  C  C498  1  0.519400  0.388590  0.544100  1.0  -0.0701
  C  C499  1  0.415600  0.395060  0.515500  1.0  -0.1689
  C  C500  1  0.264300  0.389810  0.520000  1.0  -0.0502
  C  C501  1  0.216900  0.378090  0.553100  1.0  -0.0685
  C  C502  1  0.320700  0.371620  0.581600  1.0  -0.1448
  C  C503  1  0.472000  0.376870  0.577100  1.0  -0.0469
  C  C504  1  0.478000  0.406000  0.479300  1.0  0.6842
  C  C505  1  0.022000  0.441030  0.464900  1.0  0.7205
  C  C506  1  0.973700  0.455520  0.532200  1.0  -0.0685
  C  C507  1  0.022900  0.466340  0.566000  1.0  -0.0433
  C  C508  1  0.171200  0.473420  0.568700  1.0  -0.1464
  C  C509  1  0.270300  0.469670  0.537500  1.0  -0.0537
  C  C510  1  0.221100  0.458860  0.503600  1.0  -0.0739
  C  C511  1  0.072700  0.451780  0.501000  1.0  -0.1473
  C  C512  1  0.226000  0.483700  0.606500  1.0  0.7214
  C  C513  1  0.504000  0.452940  0.399200  1.0  0.6979
  C  C514  1  0.501600  0.477620  0.397800  1.0  -0.1244
  C  C515  1  0.367000  0.488560  0.396600  1.0  -0.04
  C  C516  1  0.364000  0.511040  0.397600  1.0  -0.0613
  C  C517  1  0.998000  0.880400  0.928000  1.0  0.706
  C  C518  1  0.862500  0.845190  0.924800  1.0  -0.054
  C  C519  1  0.861300  0.822520  0.922900  1.0  -0.0671
  C  C520  1  0.996000  0.810980  0.924000  1.0  -0.1711
  C  C521  1  0.131900  0.822110  0.927000  1.0  -0.0652
  C  C522  1  0.133100  0.844780  0.928900  1.0  -0.0613
  C  C523  1  0.998400  0.856320  0.927800  1.0  -0.1456
  C  C524  1  0.999000  0.787200  0.917800  1.0  0.696
  C  C525  1  0.520000  0.770300  0.969900  1.0  0.7258
  C  C526  1  0.673800  0.808270  0.067400  1.0  -0.1308
  C  C527  1  0.774000  0.801720  0.038000  1.0  -0.0691
  C  C528  1  0.723600  0.789080  0.006400  1.0  -0.0339
  C  C529  1  0.573100  0.783000  0.004200  1.0  -0.1779
  C  C530  1  0.472900  0.789550  0.033600  1.0  -0.0572
  C  C531  1  0.523300  0.802180  0.065200  1.0  -0.0413
  C  C532  1  0.727000  0.821200  0.102900  1.0  0.7151
  C  C533  1  0.264000  0.858300  0.116400  1.0  0.7169
  C  C534  1  0.519400  0.888590  0.044100  1.0  -0.0701
  C  C535  1  0.415600  0.895060  0.015500  1.0  -0.1689
  C  C536  1  0.264300  0.889810  0.020000  1.0  -0.0502
  C  C537  1  0.216900  0.878090  0.053100  1.0  -0.0685
  C  C538  1  0.320700  0.871620  0.081600  1.0  -0.1448
  C  C539  1  0.472000  0.876870  0.077100  1.0  -0.0469
  C  C540  1  0.478000  0.906000  0.979300  1.0  0.6842
  C  C541  1  0.022000  0.941030  0.964900  1.0  0.7205
  C  C542  1  0.973700  0.955520  0.032200  1.0  -0.0685
  C  C543  1  0.022900  0.966340  0.066000  1.0  -0.0433
  C  C544  1  0.171200  0.973420  0.068700  1.0  -0.1464
  C  C545  1  0.270300  0.969670  0.037500  1.0  -0.0537
  C  C546  1  0.221100  0.958860  0.003600  1.0  -0.0739
  C  C547  1  0.072700  0.951780  0.001000  1.0  -0.1473
  C  C548  1  0.226000  0.983700  0.106500  1.0  0.7214
  C  C549  1  0.504000  0.952940  0.899200  1.0  0.6979
  C  C550  1  0.501600  0.977620  0.897800  1.0  -0.1244
  C  C551  1  0.367000  0.988560  0.896600  1.0  -0.04
  C  C552  1  0.364000  0.011040  0.897600  1.0  -0.0613
  C  C553  1  0.498000  0.380400  0.928000  1.0  0.706
  C  C554  1  0.362500  0.345190  0.924800  1.0  -0.054
  C  C555  1  0.361300  0.322520  0.922900  1.0  -0.0671
  C  C556  1  0.496000  0.310980  0.924000  1.0  -0.1711
  C  C557  1  0.631900  0.322110  0.927000  1.0  -0.0652
  C  C558  1  0.633100  0.344780  0.928900  1.0  -0.0613
  C  C559  1  0.498400  0.356320  0.927800  1.0  -0.1456
  C  C560  1  0.499000  0.287200  0.917800  1.0  0.696
  C  C561  1  0.020000  0.270300  0.969900  1.0  0.7258
  C  C562  1  0.173800  0.308270  0.067400  1.0  -0.1308
  C  C563  1  0.274000  0.301720  0.038000  1.0  -0.0691
  C  C564  1  0.223600  0.289080  0.006400  1.0  -0.0339
  C  C565  1  0.073100  0.283000  0.004200  1.0  -0.1779
  C  C566  1  0.972900  0.289550  0.033600  1.0  -0.0572
  C  C567  1  0.023300  0.302180  0.065200  1.0  -0.0413
  C  C568  1  0.227000  0.321200  0.102900  1.0  0.7155
  C  C569  1  0.764000  0.358300  0.116400  1.0  0.7169
  C  C570  1  0.019400  0.388590  0.044100  1.0  -0.0701
  C  C571  1  0.915600  0.395060  0.015500  1.0  -0.1689
  C  C572  1  0.764300  0.389810  0.020000  1.0  -0.0502
  C  C573  1  0.716900  0.378090  0.053100  1.0  -0.0685
  C  C574  1  0.820700  0.371620  0.081600  1.0  -0.1448
  C  C575  1  0.972000  0.376870  0.077100  1.0  -0.0469
  C  C576  1  0.978000  0.406000  0.979300  1.0  0.6842
  C  C577  1  0.522000  0.441030  0.964900  1.0  0.7205
  C  C578  1  0.473700  0.455520  0.032200  1.0  -0.0685
  C  C579  1  0.522900  0.466340  0.066000  1.0  -0.0433
  C  C580  1  0.671200  0.473420  0.068700  1.0  -0.1464
  C  C581  1  0.770300  0.469670  0.037500  1.0  -0.0537
  C  C582  1  0.721100  0.458860  0.003600  1.0  -0.0739
  C  C583  1  0.572700  0.451780  0.001000  1.0  -0.1473
  C  C584  1  0.726000  0.483700  0.106500  1.0  0.7214
  C  C585  1  0.004000  0.452940  0.899200  1.0  0.6979
  C  C586  1  0.001600  0.477620  0.897800  1.0  -0.1244
  C  C587  1  0.867000  0.488560  0.896600  1.0  -0.04
  C  C588  1  0.864000  0.511040  0.897600  1.0  -0.0613
  C  C589  1  0.498000  0.880400  0.428000  1.0  0.706
  C  C590  1  0.362500  0.845190  0.424800  1.0  -0.054
  C  C591  1  0.361300  0.822520  0.422900  1.0  -0.0671
  C  C592  1  0.496000  0.810980  0.424000  1.0  -0.1711
  C  C593  1  0.631900  0.822110  0.427000  1.0  -0.0652
  C  C594  1  0.633100  0.844780  0.428900  1.0  -0.0613
  C  C595  1  0.498400  0.856320  0.427800  1.0  -0.1456
  C  C596  1  0.499000  0.787200  0.417800  1.0  0.696
  C  C597  1  0.020000  0.770300  0.469900  1.0  0.7258
  C  C598  1  0.173800  0.808270  0.567400  1.0  -0.1308
  C  C599  1  0.274000  0.801720  0.538000  1.0  -0.0691
  C  C600  1  0.223600  0.789080  0.506400  1.0  -0.0339
  C  C601  1  0.073100  0.783000  0.504200  1.0  -0.1779
  C  C602  1  0.972900  0.789550  0.533600  1.0  -0.0572
  C  C603  1  0.023300  0.802180  0.565200  1.0  -0.0413
  C  C604  1  0.227000  0.821200  0.602900  1.0  0.7151
  C  C605  1  0.764000  0.858300  0.616400  1.0  0.7169
  C  C606  1  0.019400  0.888590  0.544100  1.0  -0.0701
  C  C607  1  0.915600  0.895060  0.515500  1.0  -0.1689
  C  C608  1  0.764300  0.889810  0.520000  1.0  -0.0502
  C  C609  1  0.716900  0.878090  0.553100  1.0  -0.0685
  C  C610  1  0.820700  0.871620  0.581600  1.0  -0.1448
  C  C611  1  0.972000  0.876870  0.577100  1.0  -0.0469
  C  C612  1  0.978000  0.906000  0.479300  1.0  0.6842
  C  C613  1  0.522000  0.941030  0.464900  1.0  0.7205
  C  C614  1  0.473700  0.955520  0.532200  1.0  -0.0685
  C  C615  1  0.522900  0.966340  0.566000  1.0  -0.0433
  C  C616  1  0.671200  0.973420  0.568700  1.0  -0.1464
  C  C617  1  0.770300  0.969670  0.537500  1.0  -0.0537
  C  C618  1  0.721100  0.958860  0.503600  1.0  -0.0739
  C  C619  1  0.572700  0.951780  0.501000  1.0  -0.1473
  C  C620  1  0.726000  0.983700  0.606500  1.0  0.7214
  C  C621  1  0.004000  0.952940  0.399200  1.0  0.6979
  C  C622  1  0.001600  0.977620  0.397800  1.0  -0.1244
  C  C623  1  0.867000  0.988560  0.396600  1.0  -0.04
  C  C624  1  0.864000  0.011040  0.397600  1.0  -0.0613
  C  C625  1  0.252000  0.630400  0.678000  1.0  0.7057
  C  C626  1  0.387500  0.595190  0.674800  1.0  -0.054
  C  C627  1  0.388700  0.572520  0.672900  1.0  -0.0658
  C  C628  1  0.254000  0.560980  0.674000  1.0  -0.1709
  C  C629  1  0.118100  0.572110  0.677000  1.0  -0.0675
  C  C630  1  0.116900  0.594780  0.678900  1.0  -0.0628
  C  C631  1  0.251600  0.606320  0.677800  1.0  -0.1454
  C  C632  1  0.251000  0.537200  0.667800  1.0  0.6955
  C  C633  1  0.730000  0.520300  0.719900  1.0  0.7251
  C  C634  1  0.576200  0.558270  0.817400  1.0  -0.1304
  C  C635  1  0.476000  0.551720  0.788000  1.0  -0.0687
  C  C636  1  0.526400  0.539080  0.756400  1.0  -0.0351
  C  C637  1  0.676900  0.533000  0.754200  1.0  -0.1777
  C  C638  1  0.777100  0.539550  0.783600  1.0  -0.0547
  C  C639  1  0.726700  0.552180  0.815200  1.0  -0.0413
  C  C640  1  0.523000  0.571200  0.852900  1.0  0.715
  C  C641  1  0.986000  0.608300  0.866400  1.0  0.7167
  C  C642  1  0.730600  0.638590  0.794100  1.0  -0.0719
  C  C643  1  0.834400  0.645060  0.765500  1.0  -0.1682
  C  C644  1  0.985700  0.639810  0.770000  1.0  -0.0506
  C  C645  1  0.033100  0.628090  0.803100  1.0  -0.0669
  C  C646  1  0.929300  0.621620  0.831600  1.0  -0.1462
  C  C647  1  0.778000  0.626870  0.827100  1.0  -0.0467
  C  C648  1  0.772000  0.656000  0.729300  1.0  0.6835
  C  C649  1  0.228000  0.691030  0.714900  1.0  0.7205
  C  C650  1  0.276300  0.705520  0.782200  1.0  -0.0682
  C  C651  1  0.227100  0.716340  0.816000  1.0  -0.0439
  C  C652  1  0.078800  0.723420  0.818700  1.0  -0.1452
  C  C653  1  0.979700  0.719670  0.787500  1.0  -0.0535
  C  C654  1  0.028900  0.708860  0.753600  1.0  -0.0735
  C  C655  1  0.177300  0.701780  0.751000  1.0  -0.1474
  C  C656  1  0.024000  0.733700  0.856500  1.0  0.7219
  C  C657  1  0.746000  0.702940  0.649200  1.0  0.6979
  C  C658  1  0.748400  0.727620  0.647800  1.0  -0.1245
  C  C659  1  0.883000  0.738560  0.646600  1.0  -0.0407
  C  C660  1  0.886000  0.761040  0.647600  1.0  -0.0622
  C  C661  1  0.252000  0.130400  0.178000  1.0  0.7059
  C  C662  1  0.387500  0.095190  0.174800  1.0  -0.054
  C  C663  1  0.388700  0.072520  0.172900  1.0  -0.0658
  C  C664  1  0.254000  0.060980  0.174000  1.0  -0.1709
  C  C665  1  0.118100  0.072110  0.177000  1.0  -0.0675
  C  C666  1  0.116900  0.094780  0.178900  1.0  -0.0628
  C  C667  1  0.251600  0.106320  0.177800  1.0  -0.1456
  C  C668  1  0.251000  0.037200  0.167800  1.0  0.6955
  C  C669  1  0.730000  0.020300  0.219900  1.0  0.7251
  C  C670  1  0.576200  0.058270  0.317400  1.0  -0.1304
  C  C671  1  0.476000  0.051720  0.288000  1.0  -0.0687
  C  C672  1  0.526400  0.039080  0.256400  1.0  -0.0351
  C  C673  1  0.676900  0.033000  0.254200  1.0  -0.1777
  C  C674  1  0.777100  0.039550  0.283600  1.0  -0.0547
  C  C675  1  0.726700  0.052180  0.315200  1.0  -0.0413
  C  C676  1  0.523000  0.071200  0.352900  1.0  0.715
  C  C677  1  0.986000  0.108300  0.366400  1.0  0.7167
  C  C678  1  0.730600  0.138590  0.294100  1.0  -0.0719
  C  C679  1  0.834400  0.145060  0.265500  1.0  -0.1682
  C  C680  1  0.985700  0.139810  0.270000  1.0  -0.0506
  C  C681  1  0.033100  0.128090  0.303100  1.0  -0.0669
  C  C682  1  0.929300  0.121620  0.331600  1.0  -0.1462
  C  C683  1  0.778000  0.126870  0.327100  1.0  -0.0467
  C  C684  1  0.772000  0.156000  0.229300  1.0  0.6835
  C  C685  1  0.228000  0.191030  0.214900  1.0  0.7205
  C  C686  1  0.276300  0.205520  0.282200  1.0  -0.0683
  C  C687  1  0.227100  0.216340  0.316000  1.0  -0.0439
  C  C688  1  0.078800  0.223420  0.318700  1.0  -0.1452
  C  C689  1  0.979700  0.219670  0.287500  1.0  -0.0535
  C  C690  1  0.028900  0.208860  0.253600  1.0  -0.0736
  C  C691  1  0.177300  0.201780  0.251000  1.0  -0.1474
  C  C692  1  0.024000  0.233700  0.356500  1.0  0.7219
  C  C693  1  0.746000  0.202940  0.149200  1.0  0.6979
  C  C694  1  0.748400  0.227620  0.147800  1.0  -0.1245
  C  C695  1  0.883000  0.238560  0.146600  1.0  -0.0407
  C  C696  1  0.886000  0.261040  0.147600  1.0  -0.0622
  C  C697  1  0.752000  0.630400  0.178000  1.0  0.7057
  C  C698  1  0.887500  0.595190  0.174800  1.0  -0.054
  C  C699  1  0.888700  0.572520  0.172900  1.0  -0.0658
  C  C700  1  0.754000  0.560980  0.174000  1.0  -0.1709
  C  C701  1  0.618100  0.572110  0.177000  1.0  -0.0675
  C  C702  1  0.616900  0.594780  0.178900  1.0  -0.0628
  C  C703  1  0.751600  0.606320  0.177800  1.0  -0.1454
  C  C704  1  0.751000  0.537200  0.167800  1.0  0.6955
  C  C705  1  0.230000  0.520300  0.219900  1.0  0.7251
  C  C706  1  0.076200  0.558270  0.317400  1.0  -0.1304
  C  C707  1  0.976000  0.551720  0.288000  1.0  -0.0687
  C  C708  1  0.026400  0.539080  0.256400  1.0  -0.0351
  C  C709  1  0.176900  0.533000  0.254200  1.0  -0.1777
  C  C710  1  0.277100  0.539550  0.283600  1.0  -0.0547
  C  C711  1  0.226700  0.552180  0.315200  1.0  -0.0413
  C  C712  1  0.023000  0.571200  0.352900  1.0  0.715
  C  C713  1  0.486000  0.608300  0.366400  1.0  0.7167
  C  C714  1  0.230600  0.638590  0.294100  1.0  -0.0719
  C  C715  1  0.334400  0.645060  0.265500  1.0  -0.1682
  C  C716  1  0.485700  0.639810  0.270000  1.0  -0.0506
  C  C717  1  0.533100  0.628090  0.303100  1.0  -0.0669
  C  C718  1  0.429300  0.621620  0.331600  1.0  -0.1462
  C  C719  1  0.278000  0.626870  0.327100  1.0  -0.0467
  C  C720  1  0.272000  0.656000  0.229300  1.0  0.6835
  C  C721  1  0.728000  0.691030  0.214900  1.0  0.7205
  C  C722  1  0.776300  0.705520  0.282200  1.0  -0.0682
  C  C723  1  0.727100  0.716340  0.316000  1.0  -0.0439
  C  C724  1  0.578800  0.723420  0.318700  1.0  -0.1452
  C  C725  1  0.479700  0.719670  0.287500  1.0  -0.0535
  C  C726  1  0.528900  0.708860  0.253600  1.0  -0.0735
  C  C727  1  0.677300  0.701780  0.251000  1.0  -0.1474
  C  C728  1  0.524000  0.733700  0.356500  1.0  0.7219
  C  C729  1  0.246000  0.702940  0.149200  1.0  0.6979
  C  C730  1  0.248400  0.727620  0.147800  1.0  -0.1245
  C  C731  1  0.383000  0.738560  0.146600  1.0  -0.0407
  C  C732  1  0.386000  0.761040  0.147600  1.0  -0.0622
  C  C733  1  0.752000  0.130400  0.678000  1.0  0.7059
  C  C734  1  0.887500  0.095190  0.674800  1.0  -0.054
  C  C735  1  0.888700  0.072520  0.672900  1.0  -0.0658
  C  C736  1  0.754000  0.060980  0.674000  1.0  -0.1709
  C  C737  1  0.618100  0.072110  0.677000  1.0  -0.0675
  C  C738  1  0.616900  0.094780  0.678900  1.0  -0.0628
  C  C739  1  0.751600  0.106320  0.677800  1.0  -0.1456
  C  C740  1  0.751000  0.037200  0.667800  1.0  0.6955
  C  C741  1  0.230000  0.020300  0.719900  1.0  0.7251
  C  C742  1  0.076200  0.058270  0.817400  1.0  -0.1304
  C  C743  1  0.976000  0.051720  0.788000  1.0  -0.0687
  C  C744  1  0.026400  0.039080  0.756400  1.0  -0.0351
  C  C745  1  0.176900  0.033000  0.754200  1.0  -0.1777
  C  C746  1  0.277100  0.039550  0.783600  1.0  -0.0547
  C  C747  1  0.226700  0.052180  0.815200  1.0  -0.0413
  C  C748  1  0.023000  0.071200  0.852900  1.0  0.715
  C  C749  1  0.486000  0.108300  0.866400  1.0  0.7167
  C  C750  1  0.230600  0.138590  0.794100  1.0  -0.0719
  C  C751  1  0.334400  0.145060  0.765500  1.0  -0.1682
  C  C752  1  0.485700  0.139810  0.770000  1.0  -0.0506
  C  C753  1  0.533100  0.128090  0.803100  1.0  -0.0669
  C  C754  1  0.429300  0.121620  0.831600  1.0  -0.1462
  C  C755  1  0.278000  0.126870  0.827100  1.0  -0.0467
  C  C756  1  0.272000  0.156000  0.729300  1.0  0.6835
  C  C757  1  0.728000  0.191030  0.714900  1.0  0.7205
  C  C758  1  0.776300  0.205520  0.782200  1.0  -0.0683
  C  C759  1  0.727100  0.216340  0.816000  1.0  -0.0439
  C  C760  1  0.578800  0.223420  0.818700  1.0  -0.1452
  C  C761  1  0.479700  0.219670  0.787500  1.0  -0.0535
  C  C762  1  0.528900  0.208860  0.753600  1.0  -0.0736
  C  C763  1  0.677300  0.201780  0.751000  1.0  -0.1474
  C  C764  1  0.524000  0.233700  0.856500  1.0  0.7219
  C  C765  1  0.246000  0.202940  0.649200  1.0  0.6979
  C  C766  1  0.248400  0.227620  0.647800  1.0  -0.1245
  C  C767  1  0.383000  0.238560  0.646600  1.0  -0.0407
  C  C768  1  0.386000  0.261040  0.647600  1.0  -0.0622
  C  C769  1  0.248000  0.869600  0.678000  1.0  0.704
  C  C770  1  0.112500  0.904810  0.674800  1.0  -0.0541
  C  C771  1  0.111300  0.927480  0.672900  1.0  -0.067
  C  C772  1  0.246000  0.939020  0.674000  1.0  -0.1709
  C  C773  1  0.381900  0.927890  0.677000  1.0  -0.0648
  C  C774  1  0.383100  0.905220  0.678900  1.0  -0.0617
  C  C775  1  0.248400  0.893680  0.677800  1.0  -0.1458
  C  C776  1  0.249000  0.962800  0.667800  1.0  0.6956
  C  C777  1  0.770000  0.979700  0.719900  1.0  0.7261
  C  C778  1  0.923800  0.941730  0.817400  1.0  -0.1309
  C  C779  1  0.024000  0.948280  0.788000  1.0  -0.0688
  C  C780  1  0.973600  0.960920  0.756400  1.0  -0.034
  C  C781  1  0.823100  0.967000  0.754200  1.0  -0.1782
  C  C782  1  0.722900  0.960450  0.783600  1.0  -0.0578
  C  C783  1  0.773300  0.947820  0.815200  1.0  -0.0413
  C  C784  1  0.977000  0.928800  0.852900  1.0  0.7148
  C  C785  1  0.514000  0.891700  0.866400  1.0  0.7169
  C  C786  1  0.769400  0.861410  0.794100  1.0  -0.07
  C  C787  1  0.665600  0.854940  0.765500  1.0  -0.169
  C  C788  1  0.514300  0.860190  0.770000  1.0  -0.05
  C  C789  1  0.466900  0.871910  0.803100  1.0  -0.0689
  C  C790  1  0.570700  0.878380  0.831600  1.0  -0.1445
  C  C791  1  0.722000  0.873130  0.827100  1.0  -0.0471
  C  C792  1  0.728000  0.844000  0.729300  1.0  0.6833
  C  C793  1  0.272000  0.808970  0.714900  1.0  0.7202
  C  C794  1  0.223700  0.794480  0.782200  1.0  -0.0682
  C  C795  1  0.272900  0.783660  0.816000  1.0  -0.0433
  C  C796  1  0.421200  0.776580  0.818700  1.0  -0.1458
  C  C797  1  0.520300  0.780330  0.787500  1.0  -0.0533
  C  C798  1  0.471100  0.791140  0.753600  1.0  -0.0739
  C  C799  1  0.322700  0.798220  0.751000  1.0  -0.1472
  C  C800  1  0.476000  0.766300  0.856500  1.0  0.7212
  C  C801  1  0.754000  0.797060  0.649200  1.0  0.6988
  C  C802  1  0.751600  0.772380  0.647800  1.0  -0.125
  C  C803  1  0.617000  0.761440  0.646600  1.0  -0.0405
  C  C804  1  0.614000  0.738960  0.647600  1.0  -0.0608
  C  C805  1  0.248000  0.369600  0.178000  1.0  0.7038
  C  C806  1  0.112500  0.404810  0.174800  1.0  -0.0541
  C  C807  1  0.111300  0.427480  0.172900  1.0  -0.067
  C  C808  1  0.246000  0.439020  0.174000  1.0  -0.1709
  C  C809  1  0.381900  0.427890  0.177000  1.0  -0.0648
  C  C810  1  0.383100  0.405220  0.178900  1.0  -0.0617
  C  C811  1  0.248400  0.393680  0.177800  1.0  -0.1456
  C  C812  1  0.249000  0.462800  0.167800  1.0  0.6956
  C  C813  1  0.770000  0.479700  0.219900  1.0  0.7261
  C  C814  1  0.923800  0.441730  0.317400  1.0  -0.1309
  C  C815  1  0.024000  0.448280  0.288000  1.0  -0.0688
  C  C816  1  0.973600  0.460920  0.256400  1.0  -0.034
  C  C817  1  0.823100  0.467000  0.254200  1.0  -0.1782
  C  C818  1  0.722900  0.460450  0.283600  1.0  -0.0578
  C  C819  1  0.773300  0.447820  0.315200  1.0  -0.0413
  C  C820  1  0.977000  0.428800  0.352900  1.0  0.7148
  C  C821  1  0.514000  0.391700  0.366400  1.0  0.7169
  C  C822  1  0.769400  0.361410  0.294100  1.0  -0.07
  C  C823  1  0.665600  0.354940  0.265500  1.0  -0.169
  C  C824  1  0.514300  0.360190  0.270000  1.0  -0.05
  C  C825  1  0.466900  0.371910  0.303100  1.0  -0.0689
  C  C826  1  0.570700  0.378380  0.331600  1.0  -0.1445
  C  C827  1  0.722000  0.373130  0.327100  1.0  -0.0471
  C  C828  1  0.728000  0.344000  0.229300  1.0  0.6833
  C  C829  1  0.272000  0.308970  0.214900  1.0  0.7202
  C  C830  1  0.223700  0.294480  0.282200  1.0  -0.0682
  C  C831  1  0.272900  0.283660  0.316000  1.0  -0.0433
  C  C832  1  0.421200  0.276580  0.318700  1.0  -0.1458
  C  C833  1  0.520300  0.280330  0.287500  1.0  -0.0533
  C  C834  1  0.471100  0.291140  0.253600  1.0  -0.0738
  C  C835  1  0.322700  0.298220  0.251000  1.0  -0.1472
  C  C836  1  0.476000  0.266300  0.356500  1.0  0.7212
  C  C837  1  0.754000  0.297060  0.149200  1.0  0.6988
  C  C838  1  0.751600  0.272380  0.147800  1.0  -0.125
  C  C839  1  0.617000  0.261440  0.146600  1.0  -0.0406
  C  C840  1  0.614000  0.238960  0.147600  1.0  -0.0608
  C  C841  1  0.748000  0.869600  0.178000  1.0  0.704
  C  C842  1  0.612500  0.904810  0.174800  1.0  -0.0541
  C  C843  1  0.611300  0.927480  0.172900  1.0  -0.067
  C  C844  1  0.746000  0.939020  0.174000  1.0  -0.1709
  C  C845  1  0.881900  0.927890  0.177000  1.0  -0.0648
  C  C846  1  0.883100  0.905220  0.178900  1.0  -0.0617
  C  C847  1  0.748400  0.893680  0.177800  1.0  -0.1458
  C  C848  1  0.749000  0.962800  0.167800  1.0  0.6956
  C  C849  1  0.270000  0.979700  0.219900  1.0  0.7261
  C  C850  1  0.423800  0.941730  0.317400  1.0  -0.1309
  C  C851  1  0.524000  0.948280  0.288000  1.0  -0.0688
  C  C852  1  0.473600  0.960920  0.256400  1.0  -0.034
  C  C853  1  0.323100  0.967000  0.254200  1.0  -0.1782
  C  C854  1  0.222900  0.960450  0.283600  1.0  -0.0578
  C  C855  1  0.273300  0.947820  0.315200  1.0  -0.0413
  C  C856  1  0.477000  0.928800  0.352900  1.0  0.7148
  C  C857  1  0.014000  0.891700  0.366400  1.0  0.7169
  C  C858  1  0.269400  0.861410  0.294100  1.0  -0.07
  C  C859  1  0.165600  0.854940  0.265500  1.0  -0.169
  C  C860  1  0.014300  0.860190  0.270000  1.0  -0.05
  C  C861  1  0.966900  0.871910  0.303100  1.0  -0.0689
  C  C862  1  0.070700  0.878380  0.331600  1.0  -0.1445
  C  C863  1  0.222000  0.873130  0.327100  1.0  -0.0471
  C  C864  1  0.228000  0.844000  0.229300  1.0  0.6833
  C  C865  1  0.772000  0.808970  0.214900  1.0  0.7202
  C  C866  1  0.723700  0.794480  0.282200  1.0  -0.0682
  C  C867  1  0.772900  0.783660  0.316000  1.0  -0.0433
  C  C868  1  0.921200  0.776580  0.318700  1.0  -0.1458
  C  C869  1  0.020300  0.780330  0.287500  1.0  -0.0533
  C  C870  1  0.971100  0.791140  0.253600  1.0  -0.0739
  C  C871  1  0.822700  0.798220  0.251000  1.0  -0.1472
  C  C872  1  0.976000  0.766300  0.356500  1.0  0.7212
  C  C873  1  0.254000  0.797060  0.149200  1.0  0.6988
  C  C874  1  0.251600  0.772380  0.147800  1.0  -0.125
  C  C875  1  0.117000  0.761440  0.146600  1.0  -0.0405
  C  C876  1  0.114000  0.738960  0.147600  1.0  -0.0608
  C  C877  1  0.748000  0.369600  0.678000  1.0  0.7038
  C  C878  1  0.612500  0.404810  0.674800  1.0  -0.0541
  C  C879  1  0.611300  0.427480  0.672900  1.0  -0.067
  C  C880  1  0.746000  0.439020  0.674000  1.0  -0.1709
  C  C881  1  0.881900  0.427890  0.677000  1.0  -0.0648
  C  C882  1  0.883100  0.405220  0.678900  1.0  -0.0617
  C  C883  1  0.748400  0.393680  0.677800  1.0  -0.1456
  C  C884  1  0.749000  0.462800  0.667800  1.0  0.6956
  C  C885  1  0.270000  0.479700  0.719900  1.0  0.7261
  C  C886  1  0.423800  0.441730  0.817400  1.0  -0.1309
  C  C887  1  0.524000  0.448280  0.788000  1.0  -0.0688
  C  C888  1  0.473600  0.460920  0.756400  1.0  -0.034
  C  C889  1  0.323100  0.467000  0.754200  1.0  -0.1782
  C  C890  1  0.222900  0.460450  0.783600  1.0  -0.0578
  C  C891  1  0.273300  0.447820  0.815200  1.0  -0.0413
  C  C892  1  0.477000  0.428800  0.852900  1.0  0.7148
  C  C893  1  0.014000  0.391700  0.866400  1.0  0.7169
  C  C894  1  0.269400  0.361410  0.794100  1.0  -0.07
  C  C895  1  0.165600  0.354940  0.765500  1.0  -0.169
  C  C896  1  0.014300  0.360190  0.770000  1.0  -0.05
  C  C897  1  0.966900  0.371910  0.803100  1.0  -0.0689
  C  C898  1  0.070700  0.378380  0.831600  1.0  -0.1445
  C  C899  1  0.222000  0.373130  0.827100  1.0  -0.0471
  C  C900  1  0.228000  0.344000  0.729300  1.0  0.6833
  C  C901  1  0.772000  0.308970  0.714900  1.0  0.7202
  C  C902  1  0.723700  0.294480  0.782200  1.0  -0.0682
  C  C903  1  0.772900  0.283660  0.816000  1.0  -0.0433
  C  C904  1  0.921200  0.276580  0.818700  1.0  -0.1458
  C  C905  1  0.020300  0.280330  0.787500  1.0  -0.0533
  C  C906  1  0.971100  0.291140  0.753600  1.0  -0.0738
  C  C907  1  0.822700  0.298220  0.751000  1.0  -0.1472
  C  C908  1  0.976000  0.266300  0.856500  1.0  0.7212
  C  C909  1  0.254000  0.297060  0.649200  1.0  0.6988
  C  C910  1  0.251600  0.272380  0.647800  1.0  -0.125
  C  C911  1  0.117000  0.261440  0.646600  1.0  -0.0406
  C  C912  1  0.114000  0.238960  0.647600  1.0  -0.0608
  O  O913  1  0.121300  0.610270  0.438500  1.0  -0.6409
  O  O914  1  0.879700  0.609830  0.419800  1.0  -0.6915
  O  O915  1  0.121000  0.721810  0.407800  1.0  -0.6664
  O  O916  1  0.888000  0.722960  0.427100  1.0  -0.6594
  O  O917  1  0.616200  0.734000  0.467700  1.0  -0.6235
  O  O918  1  0.382100  0.737600  0.447800  1.0  -0.6632
  O  O919  1  0.373300  0.672530  0.627000  1.0  -0.674
  O  O920  1  0.135900  0.674680  0.605600  1.0  -0.6052
  O  O921  1  0.872600  0.646210  0.618600  1.0  -0.6316
  O  O922  1  0.638500  0.646900  0.642200  1.0  -0.6922
  O  O923  1  0.624100  0.588080  0.454100  1.0  -0.7002
  O  O924  1  0.388100  0.590620  0.475800  1.0  -0.5921
  O  O925  1  0.111300  0.564730  0.463000  1.0  -0.6309
  O  O926  1  0.883200  0.562320  0.437600  1.0  -0.6903
  O  O927  1  0.868600  0.512900  0.632500  1.0  -0.6633
  O  O928  1  0.636700  0.512200  0.609500  1.0  -0.6295
  O  O929  1  0.617000  0.556790  0.390900  1.0  -0.6566
  O  O930  1  0.376300  0.556140  0.411400  1.0  -0.6868
  O  O931  1  0.121300  0.110270  0.938500  1.0  -0.6409
  O  O932  1  0.879700  0.109830  0.919800  1.0  -0.6915
  O  O933  1  0.121000  0.221810  0.907800  1.0  -0.6664
  O  O934  1  0.888000  0.222960  0.927100  1.0  -0.6594
  O  O935  1  0.616200  0.234000  0.967700  1.0  -0.6235
  O  O936  1  0.382100  0.237600  0.947800  1.0  -0.6632
  O  O937  1  0.373300  0.172530  0.127000  1.0  -0.6741
  O  O938  1  0.135900  0.174680  0.105600  1.0  -0.6049
  O  O939  1  0.872600  0.146210  0.118600  1.0  -0.6314
  O  O940  1  0.638500  0.146900  0.142200  1.0  -0.6923
  O  O941  1  0.624100  0.088080  0.954100  1.0  -0.7002
  O  O942  1  0.388100  0.090620  0.975800  1.0  -0.5921
  O  O943  1  0.111300  0.064730  0.963000  1.0  -0.6309
  O  O944  1  0.883200  0.062320  0.937600  1.0  -0.6903
  O  O945  1  0.868600  0.012900  0.132500  1.0  -0.6633
  O  O946  1  0.636700  0.012200  0.109500  1.0  -0.6295
  O  O947  1  0.617000  0.056790  0.890900  1.0  -0.6566
  O  O948  1  0.376300  0.056140  0.911400  1.0  -0.6868
  O  O949  1  0.621300  0.610270  0.938500  1.0  -0.6409
  O  O950  1  0.379700  0.609830  0.919800  1.0  -0.6915
  O  O951  1  0.621000  0.721810  0.907800  1.0  -0.6664
  O  O952  1  0.388000  0.722960  0.927100  1.0  -0.6594
  O  O953  1  0.116200  0.734000  0.967700  1.0  -0.6235
  O  O954  1  0.882100  0.737600  0.947800  1.0  -0.6632
  O  O955  1  0.873300  0.672530  0.127000  1.0  -0.674
  O  O956  1  0.635900  0.674680  0.105600  1.0  -0.6052
  O  O957  1  0.372600  0.646210  0.118600  1.0  -0.6316
  O  O958  1  0.138500  0.646900  0.142200  1.0  -0.6922
  O  O959  1  0.124100  0.588080  0.954100  1.0  -0.7002
  O  O960  1  0.888100  0.590620  0.975800  1.0  -0.5921
  O  O961  1  0.611300  0.564730  0.963000  1.0  -0.6309
  O  O962  1  0.383200  0.562320  0.937600  1.0  -0.6903
  O  O963  1  0.368600  0.512900  0.132500  1.0  -0.6633
  O  O964  1  0.136700  0.512200  0.109500  1.0  -0.6295
  O  O965  1  0.117000  0.556790  0.890900  1.0  -0.6566
  O  O966  1  0.876300  0.556140  0.911400  1.0  -0.6868
  O  O967  1  0.621300  0.110270  0.438500  1.0  -0.6409
  O  O968  1  0.379700  0.109830  0.419800  1.0  -0.6915
  O  O969  1  0.621000  0.221810  0.407800  1.0  -0.6664
  O  O970  1  0.388000  0.222960  0.427100  1.0  -0.6594
  O  O971  1  0.116200  0.234000  0.467700  1.0  -0.6235
  O  O972  1  0.882100  0.237600  0.447800  1.0  -0.6632
  O  O973  1  0.873300  0.172530  0.627000  1.0  -0.6741
  O  O974  1  0.635900  0.174680  0.605600  1.0  -0.6049
  O  O975  1  0.372600  0.146210  0.618600  1.0  -0.6314
  O  O976  1  0.138500  0.146900  0.642200  1.0  -0.6923
  O  O977  1  0.124100  0.088080  0.454100  1.0  -0.7002
  O  O978  1  0.888100  0.090620  0.475800  1.0  -0.5921
  O  O979  1  0.611300  0.064730  0.463000  1.0  -0.6309
  O  O980  1  0.383200  0.062320  0.437600  1.0  -0.6903
  O  O981  1  0.368600  0.012900  0.632500  1.0  -0.6633
  O  O982  1  0.136700  0.012200  0.609500  1.0  -0.6295
  O  O983  1  0.117000  0.056790  0.390900  1.0  -0.6566
  O  O984  1  0.876300  0.056140  0.411400  1.0  -0.6868
  O  O985  1  0.878700  0.389730  0.438500  1.0  -0.6411
  O  O986  1  0.120300  0.390170  0.419800  1.0  -0.6924
  O  O987  1  0.879000  0.278190  0.407800  1.0  -0.6644
  O  O988  1  0.112000  0.277040  0.427100  1.0  -0.6599
  O  O989  1  0.383800  0.266000  0.467700  1.0  -0.623
  O  O990  1  0.617900  0.262400  0.447800  1.0  -0.6634
  O  O991  1  0.626700  0.327470  0.627000  1.0  -0.6738
  O  O992  1  0.864100  0.325320  0.605600  1.0  -0.6045
  O  O993  1  0.127400  0.353790  0.618600  1.0  -0.6302
  O  O994  1  0.361500  0.353100  0.642200  1.0  -0.6936
  O  O995  1  0.375900  0.411920  0.454100  1.0  -0.6997
  O  O996  1  0.611900  0.409380  0.475800  1.0  -0.5923
  O  O997  1  0.888700  0.435270  0.463000  1.0  -0.63
  O  O998  1  0.116800  0.437680  0.437600  1.0  -0.6897
  O  O999  1  0.131400  0.487100  0.632500  1.0  -0.6622
  O  O1000  1  0.363300  0.487800  0.609500  1.0  -0.6307
  O  O1001  1  0.383000  0.443210  0.390900  1.0  -0.6587
  O  O1002  1  0.623700  0.443860  0.411400  1.0  -0.6875
  O  O1003  1  0.878700  0.889730  0.938500  1.0  -0.6411
  O  O1004  1  0.120300  0.890170  0.919800  1.0  -0.6924
  O  O1005  1  0.879000  0.778190  0.907800  1.0  -0.6644
  O  O1006  1  0.112000  0.777040  0.927100  1.0  -0.6599
  O  O1007  1  0.383800  0.766000  0.967700  1.0  -0.623
  O  O1008  1  0.617900  0.762400  0.947800  1.0  -0.6634
  O  O1009  1  0.626700  0.827470  0.127000  1.0  -0.6739
  O  O1010  1  0.864100  0.825320  0.105600  1.0  -0.6042
  O  O1011  1  0.127400  0.853790  0.118600  1.0  -0.63
  O  O1012  1  0.361500  0.853100  0.142200  1.0  -0.6937
  O  O1013  1  0.375900  0.911920  0.954100  1.0  -0.6997
  O  O1014  1  0.611900  0.909380  0.975800  1.0  -0.5923
  O  O1015  1  0.888700  0.935270  0.963000  1.0  -0.63
  O  O1016  1  0.116800  0.937680  0.937600  1.0  -0.6897
  O  O1017  1  0.131400  0.987100  0.132500  1.0  -0.6622
  O  O1018  1  0.363300  0.987800  0.109500  1.0  -0.6307
  O  O1019  1  0.383000  0.943210  0.890900  1.0  -0.6587
  O  O1020  1  0.623700  0.943860  0.911400  1.0  -0.6875
  O  O1021  1  0.378700  0.389730  0.938500  1.0  -0.6411
  O  O1022  1  0.620300  0.390170  0.919800  1.0  -0.6924
  O  O1023  1  0.379000  0.278190  0.907800  1.0  -0.6644
  O  O1024  1  0.612000  0.277040  0.927100  1.0  -0.6599
  O  O1025  1  0.883800  0.266000  0.967700  1.0  -0.623
  O  O1026  1  0.117900  0.262400  0.947800  1.0  -0.6634
  O  O1027  1  0.126700  0.327470  0.127000  1.0  -0.6738
  O  O1028  1  0.364100  0.325320  0.105600  1.0  -0.6045
  O  O1029  1  0.627400  0.353790  0.118600  1.0  -0.6302
  O  O1030  1  0.861500  0.353100  0.142200  1.0  -0.6936
  O  O1031  1  0.875900  0.411920  0.954100  1.0  -0.6997
  O  O1032  1  0.111900  0.409380  0.975800  1.0  -0.5923
  O  O1033  1  0.388700  0.435270  0.963000  1.0  -0.63
  O  O1034  1  0.616800  0.437680  0.937600  1.0  -0.6897
  O  O1035  1  0.631400  0.487100  0.132500  1.0  -0.6622
  O  O1036  1  0.863300  0.487800  0.109500  1.0  -0.6307
  O  O1037  1  0.883000  0.443210  0.890900  1.0  -0.6587
  O  O1038  1  0.123700  0.443860  0.911400  1.0  -0.6875
  O  O1039  1  0.378700  0.889730  0.438500  1.0  -0.6411
  O  O1040  1  0.620300  0.890170  0.419800  1.0  -0.6924
  O  O1041  1  0.379000  0.778190  0.407800  1.0  -0.6644
  O  O1042  1  0.612000  0.777040  0.427100  1.0  -0.6599
  O  O1043  1  0.883800  0.766000  0.467700  1.0  -0.623
  O  O1044  1  0.117900  0.762400  0.447800  1.0  -0.6634
  O  O1045  1  0.126700  0.827470  0.627000  1.0  -0.6739
  O  O1046  1  0.364100  0.825320  0.605600  1.0  -0.6042
  O  O1047  1  0.627400  0.853790  0.618600  1.0  -0.63
  O  O1048  1  0.861500  0.853100  0.642200  1.0  -0.6937
  O  O1049  1  0.875900  0.911920  0.454100  1.0  -0.6997
  O  O1050  1  0.111900  0.909380  0.475800  1.0  -0.5923
  O  O1051  1  0.388700  0.935270  0.463000  1.0  -0.63
  O  O1052  1  0.616800  0.937680  0.437600  1.0  -0.6897
  O  O1053  1  0.631400  0.987100  0.632500  1.0  -0.6622
  O  O1054  1  0.863300  0.987800  0.609500  1.0  -0.6307
  O  O1055  1  0.883000  0.943210  0.390900  1.0  -0.6587
  O  O1056  1  0.123700  0.943860  0.411400  1.0  -0.6875
  O  O1057  1  0.371300  0.639730  0.688500  1.0  -0.6409
  O  O1058  1  0.129700  0.640170  0.669800  1.0  -0.6923
  O  O1059  1  0.371000  0.528190  0.657800  1.0  -0.6666
  O  O1060  1  0.138000  0.527040  0.677100  1.0  -0.6602
  O  O1061  1  0.866200  0.516000  0.717700  1.0  -0.6238
  O  O1062  1  0.632100  0.512400  0.697800  1.0  -0.6623
  O  O1063  1  0.623300  0.577470  0.877000  1.0  -0.6744
  O  O1064  1  0.385900  0.575320  0.855600  1.0  -0.6039
  O  O1065  1  0.122600  0.603790  0.868600  1.0  -0.6314
  O  O1066  1  0.888500  0.603100  0.892200  1.0  -0.6921
  O  O1067  1  0.874100  0.661920  0.704100  1.0  -0.701
  O  O1068  1  0.638100  0.659380  0.725800  1.0  -0.592
  O  O1069  1  0.361300  0.685270  0.713000  1.0  -0.6296
  O  O1070  1  0.133200  0.687680  0.687600  1.0  -0.6904
  O  O1071  1  0.118600  0.737100  0.882500  1.0  -0.6628
  O  O1072  1  0.886700  0.737800  0.859500  1.0  -0.6293
  O  O1073  1  0.867000  0.693210  0.640900  1.0  -0.6567
  O  O1074  1  0.626300  0.693860  0.661400  1.0  -0.6864
  O  O1075  1  0.371300  0.139730  0.188500  1.0  -0.6406
  O  O1076  1  0.129700  0.140170  0.169800  1.0  -0.6919
  O  O1077  1  0.371000  0.028190  0.157800  1.0  -0.6666
  O  O1078  1  0.138000  0.027040  0.177100  1.0  -0.6602
  O  O1079  1  0.866200  0.016000  0.217700  1.0  -0.6238
  O  O1080  1  0.632100  0.012400  0.197800  1.0  -0.6623
  O  O1081  1  0.623300  0.077470  0.377000  1.0  -0.6744
  O  O1082  1  0.385900  0.075320  0.355600  1.0  -0.6039
  O  O1083  1  0.122600  0.103790  0.368600  1.0  -0.6314
  O  O1084  1  0.888500  0.103100  0.392200  1.0  -0.6921
  O  O1085  1  0.874100  0.161920  0.204100  1.0  -0.7009
  O  O1086  1  0.638100  0.159380  0.225800  1.0  -0.592
  O  O1087  1  0.361300  0.185270  0.213000  1.0  -0.6305
  O  O1088  1  0.133200  0.187680  0.187600  1.0  -0.6899
  O  O1089  1  0.118600  0.237100  0.382500  1.0  -0.6628
  O  O1090  1  0.886700  0.237800  0.359500  1.0  -0.6293
  O  O1091  1  0.867000  0.193210  0.140900  1.0  -0.6569
  O  O1092  1  0.626300  0.193860  0.161400  1.0  -0.6873
  O  O1093  1  0.871300  0.639730  0.188500  1.0  -0.6409
  O  O1094  1  0.629700  0.640170  0.169800  1.0  -0.6923
  O  O1095  1  0.871000  0.528190  0.157800  1.0  -0.6666
  O  O1096  1  0.638000  0.527040  0.177100  1.0  -0.6602
  O  O1097  1  0.366200  0.516000  0.217700  1.0  -0.6238
  O  O1098  1  0.132100  0.512400  0.197800  1.0  -0.6623
  O  O1099  1  0.123300  0.577470  0.377000  1.0  -0.6744
  O  O1100  1  0.885900  0.575320  0.355600  1.0  -0.6039
  O  O1101  1  0.622600  0.603790  0.368600  1.0  -0.6314
  O  O1102  1  0.388500  0.603100  0.392200  1.0  -0.6921
  O  O1103  1  0.374100  0.661920  0.204100  1.0  -0.701
  O  O1104  1  0.138100  0.659380  0.225800  1.0  -0.592
  O  O1105  1  0.861300  0.685270  0.213000  1.0  -0.6296
  O  O1106  1  0.633200  0.687680  0.187600  1.0  -0.6904
  O  O1107  1  0.618600  0.737100  0.382500  1.0  -0.6628
  O  O1108  1  0.386700  0.737800  0.359500  1.0  -0.6293
  O  O1109  1  0.367000  0.693210  0.140900  1.0  -0.6567
  O  O1110  1  0.126300  0.693860  0.161400  1.0  -0.6864
  O  O1111  1  0.871300  0.139730  0.688500  1.0  -0.6406
  O  O1112  1  0.629700  0.140170  0.669800  1.0  -0.6919
  O  O1113  1  0.871000  0.028190  0.657800  1.0  -0.6666
  O  O1114  1  0.638000  0.027040  0.677100  1.0  -0.6602
  O  O1115  1  0.366200  0.016000  0.717700  1.0  -0.6238
  O  O1116  1  0.132100  0.012400  0.697800  1.0  -0.6623
  O  O1117  1  0.123300  0.077470  0.877000  1.0  -0.6744
  O  O1118  1  0.885900  0.075320  0.855600  1.0  -0.6039
  O  O1119  1  0.622600  0.103790  0.868600  1.0  -0.6314
  O  O1120  1  0.388500  0.103100  0.892200  1.0  -0.6921
  O  O1121  1  0.374100  0.161920  0.704100  1.0  -0.7009
  O  O1122  1  0.138100  0.159380  0.725800  1.0  -0.592
  O  O1123  1  0.861300  0.185270  0.713000  1.0  -0.6305
  O  O1124  1  0.633200  0.187680  0.687600  1.0  -0.6899
  O  O1125  1  0.618600  0.237100  0.882500  1.0  -0.6628
  O  O1126  1  0.386700  0.237800  0.859500  1.0  -0.6293
  O  O1127  1  0.367000  0.193210  0.640900  1.0  -0.6569
  O  O1128  1  0.126300  0.193860  0.661400  1.0  -0.6873
  O  O1129  1  0.128700  0.860270  0.688500  1.0  -0.6414
  O  O1130  1  0.370300  0.859830  0.669800  1.0  -0.6925
  O  O1131  1  0.129000  0.971810  0.657800  1.0  -0.6639
  O  O1132  1  0.362000  0.972960  0.677100  1.0  -0.6593
  O  O1133  1  0.633800  0.984000  0.717700  1.0  -0.6235
  O  O1134  1  0.867900  0.987600  0.697800  1.0  -0.6644
  O  O1135  1  0.876700  0.922530  0.877000  1.0  -0.6736
  O  O1136  1  0.114100  0.924680  0.855600  1.0  -0.6051
  O  O1137  1  0.377400  0.896210  0.868600  1.0  -0.6301
  O  O1138  1  0.611500  0.896900  0.892200  1.0  -0.6937
  O  O1139  1  0.625900  0.838080  0.704100  1.0  -0.6992
  O  O1140  1  0.861900  0.840620  0.725800  1.0  -0.5925
  O  O1141  1  0.138700  0.814730  0.713000  1.0  -0.6304
  O  O1142  1  0.366800  0.812320  0.687600  1.0  -0.6898
  O  O1143  1  0.381400  0.762900  0.882500  1.0  -0.6625
  O  O1144  1  0.613300  0.762200  0.859500  1.0  -0.6309
  O  O1145  1  0.633000  0.806790  0.640900  1.0  -0.6581
  O  O1146  1  0.873700  0.806140  0.661400  1.0  -0.6865
  O  O1147  1  0.128700  0.360270  0.188500  1.0  -0.6418
  O  O1148  1  0.370300  0.359830  0.169800  1.0  -0.6929
  O  O1149  1  0.129000  0.471810  0.157800  1.0  -0.6639
  O  O1150  1  0.362000  0.472960  0.177100  1.0  -0.6593
  O  O1151  1  0.633800  0.484000  0.217700  1.0  -0.6235
  O  O1152  1  0.867900  0.487600  0.197800  1.0  -0.6644
  O  O1153  1  0.876700  0.422530  0.377000  1.0  -0.6736
  O  O1154  1  0.114100  0.424680  0.355600  1.0  -0.6051
  O  O1155  1  0.377400  0.396210  0.368600  1.0  -0.6301
  O  O1156  1  0.611500  0.396900  0.392200  1.0  -0.6937
  O  O1157  1  0.625900  0.338080  0.204100  1.0  -0.6993
  O  O1158  1  0.861900  0.340620  0.225800  1.0  -0.5927
  O  O1159  1  0.138700  0.314730  0.213000  1.0  -0.6295
  O  O1160  1  0.366800  0.312320  0.187600  1.0  -0.6904
  O  O1161  1  0.381400  0.262900  0.382500  1.0  -0.6625
  O  O1162  1  0.613300  0.262200  0.359500  1.0  -0.6309
  O  O1163  1  0.633000  0.306790  0.140900  1.0  -0.6579
  O  O1164  1  0.873700  0.306140  0.161400  1.0  -0.6855
  O  O1165  1  0.628700  0.860270  0.188500  1.0  -0.6414
  O  O1166  1  0.870300  0.859830  0.169800  1.0  -0.6925
  O  O1167  1  0.629000  0.971810  0.157800  1.0  -0.6639
  O  O1168  1  0.862000  0.972960  0.177100  1.0  -0.6593
  O  O1169  1  0.133800  0.984000  0.217700  1.0  -0.6235
  O  O1170  1  0.367900  0.987600  0.197800  1.0  -0.6644
  O  O1171  1  0.376700  0.922530  0.377000  1.0  -0.6736
  O  O1172  1  0.614100  0.924680  0.355600  1.0  -0.6051
  O  O1173  1  0.877400  0.896210  0.368600  1.0  -0.6301
  O  O1174  1  0.111500  0.896900  0.392200  1.0  -0.6937
  O  O1175  1  0.125900  0.838080  0.204100  1.0  -0.6992
  O  O1176  1  0.361900  0.840620  0.225800  1.0  -0.5925
  O  O1177  1  0.638700  0.814730  0.213000  1.0  -0.6304
  O  O1178  1  0.866800  0.812320  0.187600  1.0  -0.6898
  O  O1179  1  0.881400  0.762900  0.382500  1.0  -0.6625
  O  O1180  1  0.113300  0.762200  0.359500  1.0  -0.6309
  O  O1181  1  0.133000  0.806790  0.140900  1.0  -0.6581
  O  O1182  1  0.373700  0.806140  0.161400  1.0  -0.6865
  O  O1183  1  0.628700  0.360270  0.688500  1.0  -0.6418
  O  O1184  1  0.870300  0.359830  0.669800  1.0  -0.6929
  O  O1185  1  0.629000  0.471810  0.657800  1.0  -0.6639
  O  O1186  1  0.862000  0.472960  0.677100  1.0  -0.6593
  O  O1187  1  0.133800  0.484000  0.717700  1.0  -0.6235
  O  O1188  1  0.367900  0.487600  0.697800  1.0  -0.6644
  O  O1189  1  0.376700  0.422530  0.877000  1.0  -0.6736
  O  O1190  1  0.614100  0.424680  0.855600  1.0  -0.6051
  O  O1191  1  0.877400  0.396210  0.868600  1.0  -0.6301
  O  O1192  1  0.111500  0.396900  0.892200  1.0  -0.6937
  O  O1193  1  0.125900  0.338080  0.704100  1.0  -0.6993
  O  O1194  1  0.361900  0.340620  0.725800  1.0  -0.5927
  O  O1195  1  0.638700  0.314730  0.713000  1.0  -0.6295
  O  O1196  1  0.866800  0.312320  0.687600  1.0  -0.6904
  O  O1197  1  0.881400  0.262900  0.882500  1.0  -0.6625
  O  O1198  1  0.113300  0.262200  0.859500  1.0  -0.6309
  O  O1199  1  0.133000  0.306790  0.640900  1.0  -0.6579
  O  O1200  1  0.373700  0.306140  0.661400  1.0  -0.6855
