# generated using pymatgen
data_La14Ag16H216Pt12C122S24N24O55
_symmetry_space_group_name_H-M   'P 1'
_cell_length_a   24.60500000
_cell_length_b   24.60500000
_cell_length_c   46.81400000
_cell_angle_alpha   90.00000000
_cell_angle_beta   90.00000000
_cell_angle_gamma   90.00000000
_symmetry_Int_Tables_number   1
_chemical_formula_structural   La14Ag16H216Pt12C122S24N24O55
_chemical_formula_sum   'La56 Ag64 H864 Pt48 C488 S96 N96 O220'
_cell_volume   28341.47765435
_cell_formula_units_Z   4
loop_
 _symmetry_equiv_pos_site_id
 _symmetry_equiv_pos_as_xyz
  1  'x, y, z'
loop_
 _atom_site_type_symbol
 _atom_site_label
 _atom_site_symmetry_multiplicity
 _atom_site_fract_x
 _atom_site_fract_y
 _atom_site_fract_z
 _atom_site_occupancy
 _atom_site_charge
  La  La1  1  0.918920  0.381700  0.112790  1.0  2.1208
  La  La2  1  0.934440  0.027310  0.293500  1.0  1.6694
  La  La3  1  0.493100  0.818200  0.287320  1.0  1.8903
  La  La4  1  0.214800  0.643700  0.254950  1.0  2.0273
  La  La5  1  0.833800  0.768400  0.496240  1.0  1.9989
  La  La6  1  0.863700  0.060600  0.238800  1.0  1.601
  La  La7  1  0.187300  0.723300  0.223200  1.0  1.974
  La  La8  1  0.081080  0.618300  0.612790  1.0  2.1234
  La  La9  1  0.065560  0.972690  0.793500  1.0  1.6667
  La  La10  1  0.506900  0.181800  0.787320  1.0  1.8912
  La  La11  1  0.785200  0.356300  0.754950  1.0  2.0266
  La  La12  1  0.166200  0.231600  0.996240  1.0  1.9989
  La  La13  1  0.136300  0.939400  0.738800  1.0  1.6021
  La  La14  1  0.812700  0.276700  0.723200  1.0  1.975
  La  La15  1  0.118300  0.418920  0.362790  1.0  2.1216
  La  La16  1  0.472690  0.434440  0.543500  1.0  1.6695
  La  La17  1  0.681800  0.993100  0.537320  1.0  1.8913
  La  La18  1  0.856300  0.714800  0.504950  1.0  2.0209
  La  La19  1  0.731600  0.333800  0.746240  1.0  2.0117
  La  La20  1  0.439400  0.363700  0.488800  1.0  1.6001
  La  La21  1  0.776700  0.687300  0.473200  1.0  1.9734
  La  La22  1  0.881700  0.581080  0.862790  1.0  2.1219
  La  La23  1  0.527310  0.565560  0.043500  1.0  1.6693
  La  La24  1  0.318200  0.006900  0.037320  1.0  1.8925
  La  La25  1  0.143700  0.285200  0.004950  1.0  2.0276
  La  La26  1  0.268400  0.666200  0.246240  1.0  2.0013
  La  La27  1  0.560600  0.636300  0.988800  1.0  1.6004
  La  La28  1  0.223300  0.312700  0.973200  1.0  1.9731
  La  La29  1  0.581080  0.881700  0.137210  1.0  2.1225
  La  La30  1  0.565560  0.527310  0.956500  1.0  1.68
  La  La31  1  0.006900  0.318200  0.962680  1.0  1.8898
  La  La32  1  0.285200  0.143700  0.995050  1.0  2.0355
  La  La33  1  0.666200  0.268400  0.753760  1.0  2.0008
  La  La34  1  0.636300  0.560600  0.011200  1.0  1.6015
  La  La35  1  0.312700  0.223300  0.026800  1.0  1.9719
  La  La36  1  0.418920  0.118300  0.637210  1.0  2.1204
  La  La37  1  0.434440  0.472690  0.456500  1.0  1.6789
  La  La38  1  0.993100  0.681800  0.462680  1.0  1.889
  La  La39  1  0.714800  0.856300  0.495050  1.0  2.0399
  La  La40  1  0.333800  0.731600  0.253760  1.0  1.9993
  La  La41  1  0.363700  0.439400  0.511200  1.0  1.601
  La  La42  1  0.687300  0.776700  0.526800  1.0  1.9717
  La  La43  1  0.381700  0.918920  0.887210  1.0  2.1211
  La  La44  1  0.027310  0.934440  0.706500  1.0  1.6824
  La  La45  1  0.818200  0.493100  0.712680  1.0  1.8915
  La  La46  1  0.643700  0.214800  0.745050  1.0  2.0337
  La  La47  1  0.768400  0.833800  0.503760  1.0  2.0027
  La  La48  1  0.060600  0.863700  0.761200  1.0  1.6015
  La  La49  1  0.723300  0.187300  0.776800  1.0  1.9701
  La  La50  1  0.618300  0.081080  0.387210  1.0  2.1222
  La  La51  1  0.972690  0.065560  0.206500  1.0  1.6799
  La  La52  1  0.181800  0.506900  0.212680  1.0  1.8895
  La  La53  1  0.356300  0.785200  0.245050  1.0  2.0328
  La  La54  1  0.231600  0.166200  0.003760  1.0  2.0123
  La  La55  1  0.939400  0.136300  0.261200  1.0  1.599
  La  La56  1  0.276700  0.812700  0.276800  1.0  1.972
  Ag  Ag57  1  0.716400  0.659440  0.229890  1.0  0.3364
  Ag  Ag58  1  0.849160  0.610540  0.251170  1.0  0.142
  Ag  Ag59  1  0.810570  0.499920  0.288920  1.0  0.2678
  Ag  Ag60  1  0.673000  0.559560  0.274220  1.0  0.0858
  Ag  Ag61  1  0.728730  0.736250  0.292580  1.0  0.1214
  Ag  Ag62  1  0.873960  0.711700  0.312690  1.0  0.0908
  Ag  Ag63  1  0.798380  0.593890  0.345830  1.0  0.0992
  Ag  Ag64  1  0.647600  0.640450  0.345800  1.0  0.1186
  Ag  Ag65  1  0.283600  0.340560  0.729890  1.0  0.3351
  Ag  Ag66  1  0.150840  0.389460  0.751170  1.0  0.143
  Ag  Ag67  1  0.189430  0.500080  0.788920  1.0  0.2648
  Ag  Ag68  1  0.327000  0.440440  0.774220  1.0  0.0859
  Ag  Ag69  1  0.271270  0.263750  0.792580  1.0  0.1258
  Ag  Ag70  1  0.126040  0.288300  0.812690  1.0  0.0903
  Ag  Ag71  1  0.201620  0.406110  0.845830  1.0  0.097
  Ag  Ag72  1  0.352400  0.359550  0.845800  1.0  0.1196
  Ag  Ag73  1  0.840560  0.216400  0.479890  1.0  0.3373
  Ag  Ag74  1  0.889460  0.349160  0.501170  1.0  0.1435
  Ag  Ag75  1  0.000080  0.310570  0.538920  1.0  0.2669
  Ag  Ag76  1  0.940440  0.173000  0.524220  1.0  0.0874
  Ag  Ag77  1  0.763750  0.228730  0.542580  1.0  0.1223
  Ag  Ag78  1  0.788300  0.373960  0.562690  1.0  0.0898
  Ag  Ag79  1  0.906110  0.298380  0.595830  1.0  0.0978
  Ag  Ag80  1  0.859550  0.147600  0.595800  1.0  0.1223
  Ag  Ag81  1  0.159440  0.783600  0.979890  1.0  0.3348
  Ag  Ag82  1  0.110540  0.650840  0.001170  1.0  0.1459
  Ag  Ag83  1  0.999920  0.689430  0.038920  1.0  0.2661
  Ag  Ag84  1  0.059560  0.827000  0.024220  1.0  0.0859
  Ag  Ag85  1  0.236250  0.771270  0.042580  1.0  0.1234
  Ag  Ag86  1  0.211700  0.626040  0.062690  1.0  0.0904
  Ag  Ag87  1  0.093890  0.701620  0.095830  1.0  0.0991
  Ag  Ag88  1  0.140450  0.852400  0.095800  1.0  0.1226
  Ag  Ag89  1  0.783600  0.159440  0.020110  1.0  0.3254
  Ag  Ag90  1  0.650840  0.110540  0.998830  1.0  0.1379
  Ag  Ag91  1  0.689430  0.999920  0.961070  1.0  0.2669
  Ag  Ag92  1  0.827000  0.059560  0.975780  1.0  0.087
  Ag  Ag93  1  0.771270  0.236250  0.957420  1.0  0.1238
  Ag  Ag94  1  0.626040  0.211700  0.937310  1.0  0.0905
  Ag  Ag95  1  0.701620  0.093890  0.904170  1.0  0.1053
  Ag  Ag96  1  0.852400  0.140450  0.904200  1.0  0.1189
  Ag  Ag97  1  0.216400  0.840560  0.520110  1.0  0.3272
  Ag  Ag98  1  0.349160  0.889460  0.498820  1.0  0.1388
  Ag  Ag99  1  0.310570  0.000080  0.461080  1.0  0.2654
  Ag  Ag100  1  0.173000  0.940440  0.475780  1.0  0.083
  Ag  Ag101  1  0.228730  0.763750  0.457420  1.0  0.125
  Ag  Ag102  1  0.373960  0.788300  0.437310  1.0  0.0899
  Ag  Ag103  1  0.298380  0.906110  0.404170  1.0  0.103
  Ag  Ag104  1  0.147600  0.859550  0.404200  1.0  0.118
  Ag  Ag105  1  0.659440  0.716400  0.770110  1.0  0.3269
  Ag  Ag106  1  0.610540  0.849160  0.748820  1.0  0.1399
  Ag  Ag107  1  0.499920  0.810570  0.711070  1.0  0.266
  Ag  Ag108  1  0.559560  0.673000  0.725780  1.0  0.086
  Ag  Ag109  1  0.736250  0.728730  0.707420  1.0  0.125
  Ag  Ag110  1  0.711700  0.873960  0.687310  1.0  0.0899
  Ag  Ag111  1  0.593890  0.798380  0.654170  1.0  0.1041
  Ag  Ag112  1  0.640450  0.647600  0.654200  1.0  0.1216
  Ag  Ag113  1  0.340560  0.283600  0.270110  1.0  0.3271
  Ag  Ag114  1  0.389460  0.150840  0.248830  1.0  0.141
  Ag  Ag115  1  0.500080  0.189430  0.211080  1.0  0.2669
  Ag  Ag116  1  0.440440  0.327000  0.225780  1.0  0.084
  Ag  Ag117  1  0.263750  0.271270  0.207420  1.0  0.1221
  Ag  Ag118  1  0.288300  0.126040  0.187310  1.0  0.0901
  Ag  Ag119  1  0.406110  0.201620  0.154170  1.0  0.1042
  Ag  Ag120  1  0.359550  0.352400  0.154200  1.0  0.1222
  H  H121  1  0.720200  0.486100  0.156200  1.0  0.2739
  H  H122  1  0.683700  0.456900  0.176000  1.0  0.2341
  H  H123  1  0.783100  0.408900  0.187700  1.0  0.2372
  H  H124  1  0.815100  0.449700  0.171400  1.0  0.2212
  H  H125  1  0.829300  0.822100  0.185200  1.0  0.284
  H  H126  1  0.878300  0.786600  0.184600  1.0  0.235
  H  H127  1  0.903000  0.846800  0.233400  1.0  0.2315
  H  H128  1  0.849000  0.872900  0.231400  1.0  0.2109
  H  H129  1  0.048600  0.598900  0.318900  1.0  0.2164
  H  H130  1  0.042700  0.577100  0.289500  1.0  0.1947
  H  H131  1  0.017600  0.492100  0.326200  1.0  0.2367
  H  H132  1  0.997800  0.516000  0.353500  1.0  0.2319
  H  H133  1  0.677400  0.376900  0.355300  1.0  0.2404
  H  H134  1  0.631300  0.393200  0.336800  1.0  0.2272
  H  H135  1  0.620700  0.456600  0.387400  1.0  0.2587
  H  H136  1  0.675900  0.440200  0.396800  1.0  0.1701
  H  H137  1  0.475400  0.693200  0.285500  1.0  0.2333
  H  H138  1  0.479700  0.644100  0.267200  1.0  0.234
  H  H139  1  0.513500  0.724700  0.231300  1.0  0.2941
  H  H140  1  0.528300  0.769900  0.250700  1.0  0.2469
  H  H141  1  0.707500  0.791200  0.413100  1.0  0.2539
  H  H142  1  0.719300  0.832100  0.390900  1.0  0.228
  H  H143  1  0.817100  0.800500  0.408700  1.0  0.2895
  H  H144  1  0.810600  0.745800  0.421400  1.0  0.2064
  H  H145  1  0.674500  0.562400  0.158200  1.0  0.0726
  H  H146  1  0.589100  0.518200  0.230100  1.0  0.0566
  H  H147  1  0.620600  0.470800  0.213500  1.0  0.0663
  H  H148  1  0.569500  0.499900  0.198900  1.0  0.0493
  H  H149  1  0.629900  0.630600  0.185600  1.0  0.0948
  H  H150  1  0.592500  0.617900  0.212800  1.0  0.0915
  H  H151  1  0.573500  0.599100  0.181600  1.0  0.0808
  H  H152  1  0.844300  0.400800  0.223000  1.0  0.0671
  H  H153  1  0.875100  0.520500  0.180500  1.0  0.0737
  H  H154  1  0.934900  0.498000  0.186900  1.0  0.0865
  H  H155  1  0.913000  0.550500  0.203400  1.0  0.0793
  H  H156  1  0.903700  0.444100  0.257000  1.0  0.0921
  H  H157  1  0.931600  0.501900  0.251500  1.0  0.0948
  H  H158  1  0.952600  0.449400  0.234600  1.0  0.0841
  H  H159  1  0.770800  0.751300  0.176200  1.0  0.053
  H  H160  1  0.898000  0.637100  0.189100  1.0  0.0711
  H  H161  1  0.911800  0.699300  0.196000  1.0  0.0701
  H  H162  1  0.905400  0.679700  0.163600  1.0  0.0697
  H  H163  1  0.812300  0.605700  0.178700  1.0  0.0816
  H  H164  1  0.801500  0.640500  0.150400  1.0  0.0818
  H  H165  1  0.759100  0.642900  0.176300  1.0  0.0943
  H  H166  1  0.907000  0.847700  0.278700  1.0  0.0585
  H  H167  1  0.745600  0.861200  0.289300  1.0  0.087
  H  H168  1  0.769500  0.867200  0.257600  1.0  0.079
  H  H169  1  0.781700  0.913000  0.281000  1.0  0.0769
  H  H170  1  0.016300  0.677800  0.308100  1.0  0.0616
  H  H171  1  0.966300  0.621800  0.230600  1.0  0.069
  H  H172  1  0.998200  0.582500  0.252100  1.0  0.0693
  H  H173  1  0.029800  0.630800  0.236400  1.0  0.0695
  H  H174  1  0.961300  0.740600  0.273700  1.0  0.0978
  H  H175  1  0.939700  0.716100  0.244200  1.0  0.0944
  H  H176  1  0.002600  0.731000  0.247800  1.0  0.088
  H  H177  1  0.941100  0.441200  0.319800  1.0  0.0723
  H  H178  1  0.929700  0.526600  0.381500  1.0  0.0681
  H  H179  1  0.914000  0.468400  0.394200  1.0  0.0742
  H  H180  1  0.867800  0.513100  0.389100  1.0  0.0755
  H  H181  1  0.816500  0.448200  0.358000  1.0  0.0757
  H  H182  1  0.861900  0.402000  0.360700  1.0  0.0747
  H  H183  1  0.844200  0.423600  0.329900  1.0  0.0791
  H  H184  1  0.736100  0.373300  0.319100  1.0  0.0595
  H  H185  1  0.611600  0.431200  0.299900  1.0  0.0562
  H  H186  1  0.616900  0.387000  0.274900  1.0  0.0516
  H  H187  1  0.626800  0.450000  0.268100  1.0  0.0575
  H  H188  1  0.760100  0.396100  0.269700  1.0  0.0818
  H  H189  1  0.719100  0.427100  0.248700  1.0  0.0786
  H  H190  1  0.709800  0.364200  0.256000  1.0  0.0801
  H  H191  1  0.626800  0.541700  0.402900  1.0  0.0787
  H  H192  1  0.754900  0.490800  0.402000  1.0  0.0494
  H  H193  1  0.752700  0.524300  0.431300  1.0  0.0566
  H  H194  1  0.785900  0.547800  0.404600  1.0  0.0793
  H  H195  1  0.663800  0.622600  0.406000  1.0  0.0694
  H  H196  1  0.728200  0.631600  0.407300  1.0  0.0764
  H  H197  1  0.697100  0.604800  0.433900  1.0  0.0768
  H  H198  1  0.504200  0.649200  0.326000  1.0  0.0595
  H  H199  1  0.555200  0.518400  0.276000  1.0  0.0597
  H  H200  1  0.528100  0.569400  0.260300  1.0  0.064
  H  H201  1  0.491300  0.528900  0.278800  1.0  0.0605
  H  H202  1  0.569100  0.516900  0.328200  1.0  0.0931
  H  H203  1  0.505700  0.525800  0.334100  1.0  0.0768
  H  H204  1  0.549400  0.564800  0.348900  1.0  0.0934
  H  H205  1  0.590000  0.729900  0.206400  1.0  0.0533
  H  H206  1  0.658200  0.838600  0.260300  1.0  0.0817
  H  H207  1  0.598100  0.817000  0.266900  1.0  0.0779
  H  H208  1  0.608500  0.857100  0.240600  1.0  0.0717
  H  H209  1  0.711900  0.798200  0.223700  1.0  0.0865
  H  H210  1  0.670900  0.814300  0.198500  1.0  0.0772
  H  H211  1  0.688700  0.752300  0.202700  1.0  0.0785
  H  H212  1  0.632000  0.764300  0.394100  1.0  0.0696
  H  H213  1  0.663600  0.830200  0.315900  1.0  0.083
  H  H214  1  0.703500  0.846000  0.341500  1.0  0.07
  H  H215  1  0.642100  0.867500  0.341500  1.0  0.0672
  H  H216  1  0.594300  0.765800  0.320300  1.0  0.0805
  H  H217  1  0.565400  0.796900  0.346200  1.0  0.077
  H  H218  1  0.582900  0.734600  0.349700  1.0  0.0868
  H  H219  1  0.889700  0.773200  0.381200  1.0  0.0718
  H  H220  1  0.854300  0.614900  0.403800  1.0  0.0708
  H  H221  1  0.820800  0.662100  0.419400  1.0  0.0989
  H  H222  1  0.883600  0.652800  0.427000  1.0  0.0592
  H  H223  1  0.941800  0.699600  0.363300  1.0  0.0838
  H  H224  1  0.930400  0.637200  0.370800  1.0  0.0885
  H  H225  1  0.956200  0.676600  0.394400  1.0  0.0739
  H  H226  1  0.810700  0.466100  0.034500  1.0  0.1191
  H  H227  1  0.864200  0.445800  0.018300  1.0  0.1009
  H  H228  1  0.864500  0.502700  0.034900  1.0  0.1028
  H  H229  1  0.279800  0.513900  0.656200  1.0  0.2743
  H  H230  1  0.316300  0.543100  0.676000  1.0  0.2353
  H  H231  1  0.216900  0.591100  0.687700  1.0  0.2385
  H  H232  1  0.184900  0.550300  0.671400  1.0  0.2201
  H  H233  1  0.170700  0.177900  0.685200  1.0  0.2847
  H  H234  1  0.121700  0.213400  0.684600  1.0  0.2362
  H  H235  1  0.097000  0.153200  0.733400  1.0  0.2323
  H  H236  1  0.151000  0.127100  0.731400  1.0  0.2089
  H  H237  1  0.951400  0.401100  0.818900  1.0  0.2169
  H  H238  1  0.957300  0.422900  0.789500  1.0  0.1962
  H  H239  1  0.982400  0.507900  0.826200  1.0  0.2357
  H  H240  1  0.002200  0.484000  0.853500  1.0  0.2328
  H  H241  1  0.322600  0.623100  0.855300  1.0  0.2396
  H  H242  1  0.368700  0.606800  0.836800  1.0  0.227
  H  H243  1  0.379300  0.543400  0.887400  1.0  0.2605
  H  H244  1  0.324100  0.559800  0.896800  1.0  0.1698
  H  H245  1  0.524600  0.306800  0.785500  1.0  0.2314
  H  H246  1  0.520300  0.355900  0.767200  1.0  0.2333
  H  H247  1  0.486500  0.275300  0.731300  1.0  0.2907
  H  H248  1  0.471700  0.230100  0.750700  1.0  0.2467
  H  H249  1  0.292500  0.208800  0.913100  1.0  0.2536
  H  H250  1  0.280700  0.167900  0.890900  1.0  0.2293
  H  H251  1  0.182900  0.199500  0.908700  1.0  0.2871
  H  H252  1  0.189400  0.254200  0.921400  1.0  0.2065
  H  H253  1  0.325500  0.437600  0.658200  1.0  0.0728
  H  H254  1  0.410900  0.481800  0.730100  1.0  0.0563
  H  H255  1  0.379400  0.529200  0.713500  1.0  0.0672
  H  H256  1  0.430500  0.500100  0.698900  1.0  0.0482
  H  H257  1  0.370100  0.369400  0.685600  1.0  0.0947
  H  H258  1  0.407500  0.382100  0.712800  1.0  0.0907
  H  H259  1  0.426500  0.400900  0.681600  1.0  0.0837
  H  H260  1  0.155700  0.599200  0.723000  1.0  0.0653
  H  H261  1  0.124900  0.479500  0.680500  1.0  0.0738
  H  H262  1  0.065100  0.502000  0.686900  1.0  0.0875
  H  H263  1  0.087000  0.449500  0.703400  1.0  0.0794
  H  H264  1  0.096300  0.555900  0.757000  1.0  0.092
  H  H265  1  0.068400  0.498100  0.751500  1.0  0.094
  H  H266  1  0.047400  0.550600  0.734600  1.0  0.0837
  H  H267  1  0.229200  0.248700  0.676200  1.0  0.0567
  H  H268  1  0.102000  0.362900  0.689100  1.0  0.0711
  H  H269  1  0.088200  0.300700  0.696000  1.0  0.0698
  H  H270  1  0.094600  0.320300  0.663600  1.0  0.0703
  H  H271  1  0.187700  0.394300  0.678700  1.0  0.0817
  H  H272  1  0.198500  0.359500  0.650400  1.0  0.0831
  H  H273  1  0.240900  0.357100  0.676300  1.0  0.0929
  H  H274  1  0.093000  0.152300  0.778700  1.0  0.059
  H  H275  1  0.254400  0.138800  0.789300  1.0  0.0877
  H  H276  1  0.230500  0.132800  0.757600  1.0  0.0794
  H  H277  1  0.218300  0.087000  0.781000  1.0  0.076
  H  H278  1  0.983700  0.322200  0.808100  1.0  0.0625
  H  H279  1  0.033700  0.378200  0.730600  1.0  0.069
  H  H280  1  0.001800  0.417500  0.752100  1.0  0.0679
  H  H281  1  0.970200  0.369200  0.736400  1.0  0.0702
  H  H282  1  0.038700  0.259400  0.773700  1.0  0.0985
  H  H283  1  0.060300  0.283900  0.744200  1.0  0.0947
  H  H284  1  0.997400  0.269000  0.747800  1.0  0.0874
  H  H285  1  0.058900  0.558800  0.819800  1.0  0.0727
  H  H286  1  0.070300  0.473400  0.881500  1.0  0.0692
  H  H287  1  0.086000  0.531600  0.894200  1.0  0.0735
  H  H288  1  0.132200  0.486900  0.889100  1.0  0.0767
  H  H289  1  0.183500  0.551800  0.858000  1.0  0.0772
  H  H290  1  0.138100  0.598000  0.860700  1.0  0.0742
  H  H291  1  0.155800  0.576400  0.829900  1.0  0.0787
  H  H292  1  0.263900  0.626700  0.819100  1.0  0.0615
  H  H293  1  0.388400  0.568800  0.799900  1.0  0.0563
  H  H294  1  0.383100  0.613000  0.774900  1.0  0.0511
  H  H295  1  0.373200  0.550000  0.768100  1.0  0.0553
  H  H296  1  0.239900  0.603900  0.769700  1.0  0.0824
  H  H297  1  0.280900  0.572900  0.748700  1.0  0.0779
  H  H298  1  0.290200  0.635800  0.756000  1.0  0.0809
  H  H299  1  0.373200  0.458300  0.902900  1.0  0.078
  H  H300  1  0.245100  0.509200  0.902000  1.0  0.0505
  H  H301  1  0.247300  0.475700  0.931300  1.0  0.0556
  H  H302  1  0.214100  0.452200  0.904600  1.0  0.0784
  H  H303  1  0.336200  0.377400  0.906000  1.0  0.068
  H  H304  1  0.271800  0.368400  0.907300  1.0  0.0754
  H  H305  1  0.302900  0.395200  0.933900  1.0  0.0747
  H  H306  1  0.495800  0.350800  0.826000  1.0  0.0601
  H  H307  1  0.444800  0.481600  0.776000  1.0  0.0593
  H  H308  1  0.471900  0.430600  0.760300  1.0  0.0637
  H  H309  1  0.508700  0.471100  0.778800  1.0  0.0628
  H  H310  1  0.430900  0.483100  0.828200  1.0  0.0936
  H  H311  1  0.494300  0.474200  0.834100  1.0  0.0759
  H  H312  1  0.450600  0.435200  0.848900  1.0  0.0927
  H  H313  1  0.410000  0.270100  0.706400  1.0  0.0534
  H  H314  1  0.341800  0.161400  0.760300  1.0  0.0808
  H  H315  1  0.401900  0.183000  0.766900  1.0  0.0767
  H  H316  1  0.391500  0.142900  0.740600  1.0  0.0712
  H  H317  1  0.288100  0.201800  0.723700  1.0  0.0862
  H  H318  1  0.329100  0.185700  0.698500  1.0  0.0775
  H  H319  1  0.311300  0.247700  0.702700  1.0  0.0795
  H  H320  1  0.368000  0.235700  0.894100  1.0  0.0686
  H  H321  1  0.336400  0.169800  0.815900  1.0  0.0818
  H  H322  1  0.296500  0.154000  0.841500  1.0  0.0694
  H  H323  1  0.357900  0.132500  0.841500  1.0  0.0667
  H  H324  1  0.405700  0.234200  0.820300  1.0  0.0802
  H  H325  1  0.434600  0.203100  0.846200  1.0  0.0794
  H  H326  1  0.417100  0.265400  0.849700  1.0  0.0878
  H  H327  1  0.110300  0.226800  0.881200  1.0  0.0724
  H  H328  1  0.145700  0.385100  0.903800  1.0  0.0711
  H  H329  1  0.179200  0.337900  0.919400  1.0  0.1012
  H  H330  1  0.116400  0.347200  0.927000  1.0  0.0596
  H  H331  1  0.058200  0.300400  0.863300  1.0  0.0839
  H  H332  1  0.069600  0.362800  0.870800  1.0  0.0904
  H  H333  1  0.043800  0.323400  0.894400  1.0  0.0737
  H  H334  1  0.189300  0.533900  0.534500  1.0  0.1189
  H  H335  1  0.135800  0.554200  0.518300  1.0  0.1012
  H  H336  1  0.135500  0.497300  0.534900  1.0  0.1017
  H  H337  1  0.013900  0.220200  0.406200  1.0  0.2742
  H  H338  1  0.043100  0.183700  0.426000  1.0  0.237
  H  H339  1  0.091100  0.283100  0.437700  1.0  0.2384
  H  H340  1  0.050300  0.315100  0.421400  1.0  0.2221
  H  H341  1  0.677900  0.329300  0.435200  1.0  0.291
  H  H342  1  0.713400  0.378300  0.434600  1.0  0.2346
  H  H343  1  0.653200  0.403000  0.483400  1.0  0.2312
  H  H344  1  0.627100  0.349000  0.481400  1.0  0.2105
  H  H345  1  0.901100  0.548600  0.568900  1.0  0.2161
  H  H346  1  0.922900  0.542700  0.539500  1.0  0.1953
  H  H347  1  0.007900  0.517600  0.576200  1.0  0.2351
  H  H348  1  0.984000  0.497800  0.603500  1.0  0.2309
  H  H349  1  0.123100  0.177400  0.605300  1.0  0.2395
  H  H350  1  0.106800  0.131300  0.586800  1.0  0.2266
  H  H351  1  0.043400  0.120700  0.637400  1.0  0.2516
  H  H352  1  0.059800  0.175900  0.646800  1.0  0.1683
  H  H353  1  0.806800  0.975400  0.535500  1.0  0.2301
  H  H354  1  0.855900  0.979700  0.517200  1.0  0.2336
  H  H355  1  0.775300  0.013500  0.481300  1.0  0.2894
  H  H356  1  0.730100  0.028300  0.500700  1.0  0.2454
  H  H357  1  0.708800  0.207500  0.663100  1.0  0.2547
  H  H358  1  0.667900  0.219300  0.640900  1.0  0.2276
  H  H359  1  0.699500  0.317100  0.658700  1.0  0.2992
  H  H360  1  0.754200  0.310600  0.671400  1.0  0.2083
  H  H361  1  0.937600  0.174500  0.408200  1.0  0.0717
  H  H362  1  0.981800  0.089100  0.480100  1.0  0.0573
  H  H363  1  0.029200  0.120600  0.463500  1.0  0.0647
  H  H364  1  0.000100  0.069500  0.448900  1.0  0.048
  H  H365  1  0.869400  0.129900  0.435600  1.0  0.0952
  H  H366  1  0.882100  0.092500  0.462800  1.0  0.0925
  H  H367  1  0.900900  0.073500  0.431600  1.0  0.0852
  H  H368  1  0.099200  0.344300  0.473000  1.0  0.0658
  H  H369  1  0.979500  0.375100  0.430500  1.0  0.0749
  H  H370  1  0.002000  0.434900  0.436900  1.0  0.0878
  H  H371  1  0.949500  0.413000  0.453400  1.0  0.0778
  H  H372  1  0.055900  0.403700  0.507000  1.0  0.0918
  H  H373  1  0.998100  0.431600  0.501500  1.0  0.0926
  H  H374  1  0.050600  0.452600  0.484600  1.0  0.0834
  H  H375  1  0.748700  0.270800  0.426200  1.0  0.0565
  H  H376  1  0.862900  0.398000  0.439100  1.0  0.0715
  H  H377  1  0.800700  0.411800  0.446000  1.0  0.0697
  H  H378  1  0.820300  0.405400  0.413600  1.0  0.0703
  H  H379  1  0.894300  0.312300  0.428700  1.0  0.0802
  H  H380  1  0.859500  0.301500  0.400400  1.0  0.0801
  H  H381  1  0.857100  0.259100  0.426300  1.0  0.0941
  H  H382  1  0.652300  0.407000  0.528700  1.0  0.0595
  H  H383  1  0.638800  0.245600  0.539300  1.0  0.088
  H  H384  1  0.632800  0.269500  0.507600  1.0  0.0805
  H  H385  1  0.587000  0.281700  0.531000  1.0  0.0797
  H  H386  1  0.822200  0.516300  0.558100  1.0  0.0626
  H  H387  1  0.878200  0.466300  0.480600  1.0  0.0702
  H  H388  1  0.917500  0.498200  0.502100  1.0  0.0679
  H  H389  1  0.869200  0.529800  0.486400  1.0  0.0715
  H  H390  1  0.759400  0.461300  0.523700  1.0  0.0986
  H  H391  1  0.783900  0.439700  0.494200  1.0  0.0943
  H  H392  1  0.769000  0.502600  0.497800  1.0  0.0885
  H  H393  1  0.058800  0.441100  0.569800  1.0  0.0727
  H  H394  1  0.973400  0.429700  0.631500  1.0  0.069
  H  H395  1  0.031600  0.414000  0.644200  1.0  0.0723
  H  H396  1  0.986900  0.367800  0.639100  1.0  0.0763
  H  H397  1  0.051800  0.316500  0.608000  1.0  0.0809
  H  H398  1  0.098000  0.361900  0.610700  1.0  0.0749
  H  H399  1  0.076400  0.344200  0.579900  1.0  0.0799
  H  H400  1  0.126700  0.236100  0.569100  1.0  0.0603
  H  H401  1  0.068800  0.111600  0.549900  1.0  0.0571
  H  H402  1  0.113000  0.116900  0.524900  1.0  0.0497
  H  H403  1  0.050000  0.126800  0.518100  1.0  0.0577
  H  H404  1  0.103900  0.260100  0.519700  1.0  0.0835
  H  H405  1  0.072900  0.219100  0.498700  1.0  0.0775
  H  H406  1  0.135800  0.209800  0.506000  1.0  0.0792
  H  H407  1  0.958300  0.126800  0.652900  1.0  0.0683
  H  H408  1  0.009200  0.254900  0.652000  1.0  0.0465
  H  H409  1  0.975700  0.252700  0.681300  1.0  0.0578
  H  H410  1  0.952200  0.285900  0.654600  1.0  0.0824
  H  H411  1  0.877400  0.163800  0.656000  1.0  0.069
  H  H412  1  0.868400  0.228200  0.657300  1.0  0.0759
  H  H413  1  0.895200  0.197100  0.683900  1.0  0.0758
  H  H414  1  0.850800  0.004200  0.576000  1.0  0.0596
  H  H415  1  0.981600  0.055200  0.526000  1.0  0.0587
  H  H416  1  0.930600  0.028100  0.510300  1.0  0.0639
  H  H417  1  0.971100  0.991300  0.528800  1.0  0.0605
  H  H418  1  0.983100  0.069100  0.578200  1.0  0.094
  H  H419  1  0.974200  0.005700  0.584100  1.0  0.077
  H  H420  1  0.935200  0.049400  0.598900  1.0  0.093
  H  H421  1  0.770100  0.090000  0.456400  1.0  0.0541
  H  H422  1  0.661400  0.158200  0.510300  1.0  0.0834
  H  H423  1  0.683000  0.098100  0.516900  1.0  0.0797
  H  H424  1  0.642900  0.108500  0.490600  1.0  0.0728
  H  H425  1  0.701800  0.211900  0.473700  1.0  0.0893
  H  H426  1  0.685700  0.170900  0.448500  1.0  0.0761
  H  H427  1  0.747700  0.188700  0.452700  1.0  0.0768
  H  H428  1  0.735700  0.132000  0.644100  1.0  0.0691
  H  H429  1  0.669800  0.163600  0.565900  1.0  0.083
  H  H430  1  0.654000  0.203500  0.591500  1.0  0.0709
  H  H431  1  0.632500  0.142100  0.591500  1.0  0.0675
  H  H432  1  0.734200  0.094300  0.570300  1.0  0.0806
  H  H433  1  0.703100  0.065400  0.596200  1.0  0.0801
  H  H434  1  0.765400  0.082900  0.599700  1.0  0.083
  H  H435  1  0.726800  0.389700  0.631200  1.0  0.0729
  H  H436  1  0.885100  0.354300  0.653800  1.0  0.0685
  H  H437  1  0.837900  0.320800  0.669400  1.0  0.0995
  H  H438  1  0.847200  0.383600  0.677000  1.0  0.0611
  H  H439  1  0.800400  0.441800  0.613300  1.0  0.0835
  H  H440  1  0.862800  0.430400  0.620800  1.0  0.0883
  H  H441  1  0.823400  0.456200  0.644400  1.0  0.073
  H  H442  1  0.033900  0.310700  0.284500  1.0  0.1152
  H  H443  1  0.054200  0.364200  0.268300  1.0  0.1013
  H  H444  1  0.997300  0.364500  0.284900  1.0  0.1005
  H  H445  1  0.986100  0.779800  0.906200  1.0  0.2745
  H  H446  1  0.956900  0.816300  0.926000  1.0  0.2345
  H  H447  1  0.908900  0.716900  0.937700  1.0  0.237
  H  H448  1  0.949700  0.684900  0.921400  1.0  0.2226
  H  H449  1  0.322100  0.670700  0.935200  1.0  0.2928
  H  H450  1  0.286600  0.621700  0.934600  1.0  0.2348
  H  H451  1  0.346800  0.597000  0.983400  1.0  0.2291
  H  H452  1  0.372900  0.651000  0.981400  1.0  0.2092
  H  H453  1  0.098900  0.451400  0.068900  1.0  0.2167
  H  H454  1  0.077100  0.457300  0.039500  1.0  0.1909
  H  H455  1  0.992100  0.482400  0.076200  1.0  0.2347
  H  H456  1  0.016000  0.502200  0.103500  1.0  0.2326
  H  H457  1  0.876900  0.822600  0.105300  1.0  0.2407
  H  H458  1  0.893200  0.868700  0.086800  1.0  0.2271
  H  H459  1  0.956600  0.879300  0.137400  1.0  0.2531
  H  H460  1  0.940200  0.824100  0.146800  1.0  0.1703
  H  H461  1  0.193200  0.024600  0.035500  1.0  0.2354
  H  H462  1  0.144100  0.020300  0.017200  1.0  0.2328
  H  H463  1  0.224700  0.986500  0.981300  1.0  0.2891
  H  H464  1  0.269900  0.971700  0.000700  1.0  0.246
  H  H465  1  0.291200  0.792500  0.163100  1.0  0.2538
  H  H466  1  0.332100  0.780700  0.140900  1.0  0.2277
  H  H467  1  0.300500  0.682900  0.158700  1.0  0.3015
  H  H468  1  0.245800  0.689400  0.171400  1.0  0.2079
  H  H469  1  0.062400  0.825500  0.908200  1.0  0.0715
  H  H470  1  0.018200  0.910900  0.980100  1.0  0.058
  H  H471  1  0.970800  0.879400  0.963500  1.0  0.0661
  H  H472  1  0.999900  0.930500  0.948900  1.0  0.0491
  H  H473  1  0.130600  0.870100  0.935600  1.0  0.0969
  H  H474  1  0.117900  0.907500  0.962800  1.0  0.0921
  H  H475  1  0.099100  0.926500  0.931600  1.0  0.0853
  H  H476  1  0.900800  0.655700  0.973000  1.0  0.0651
  H  H477  1  0.020500  0.624900  0.930500  1.0  0.0743
  H  H478  1  0.998000  0.565100  0.936900  1.0  0.0851
  H  H479  1  0.050500  0.587000  0.953400  1.0  0.0801
  H  H480  1  0.944100  0.596300  0.007000  1.0  0.0921
  H  H481  1  0.001900  0.568400  0.001500  1.0  0.0936
  H  H482  1  0.949400  0.547400  0.984600  1.0  0.0837
  H  H483  1  0.251300  0.729200  0.926200  1.0  0.0571
  H  H484  1  0.137100  0.602000  0.939100  1.0  0.0718
  H  H485  1  0.199300  0.588200  0.946000  1.0  0.0699
  H  H486  1  0.179700  0.594600  0.913600  1.0  0.0709
  H  H487  1  0.105700  0.687700  0.928700  1.0  0.0776
  H  H488  1  0.140500  0.698500  0.900400  1.0  0.0805
  H  H489  1  0.142900  0.740900  0.926300  1.0  0.0953
  H  H490  1  0.347700  0.593000  0.028700  1.0  0.0594
  H  H491  1  0.361200  0.754400  0.039300  1.0  0.0879
  H  H492  1  0.367200  0.730500  0.007600  1.0  0.0814
  H  H493  1  0.413000  0.718300  0.031000  1.0  0.0791
  H  H494  1  0.177800  0.483700  0.058100  1.0  0.063
  H  H495  1  0.121800  0.533700  0.980600  1.0  0.0701
  H  H496  1  0.082500  0.501800  0.002100  1.0  0.0668
  H  H497  1  0.130800  0.470200  0.986400  1.0  0.0711
  H  H498  1  0.240600  0.538700  0.023700  1.0  0.0988
  H  H499  1  0.216100  0.560300  0.994200  1.0  0.0939
  H  H500  1  0.231000  0.497400  0.997800  1.0  0.0871
  H  H501  1  0.941200  0.558900  0.069800  1.0  0.0729
  H  H502  1  0.026600  0.570300  0.131500  1.0  0.0688
  H  H503  1  0.968400  0.586000  0.144200  1.0  0.0733
  H  H504  1  0.013100  0.632200  0.139100  1.0  0.0762
  H  H505  1  0.948200  0.683500  0.108000  1.0  0.0799
  H  H506  1  0.902000  0.638100  0.110700  1.0  0.0747
  H  H507  1  0.923600  0.655800  0.079900  1.0  0.0791
  H  H508  1  0.873300  0.763900  0.069100  1.0  0.0576
  H  H509  1  0.931200  0.888400  0.049900  1.0  0.0557
  H  H510  1  0.887000  0.883100  0.024900  1.0  0.0497
  H  H511  1  0.950000  0.873200  0.018100  1.0  0.0573
  H  H512  1  0.896100  0.739900  0.019700  1.0  0.0814
  H  H513  1  0.927100  0.780900  0.998700  1.0  0.0783
  H  H514  1  0.864200  0.790200  0.006000  1.0  0.0776
  H  H515  1  0.041700  0.873200  0.152900  1.0  0.0717
  H  H516  1  0.990800  0.745100  0.152000  1.0  0.0466
  H  H517  1  0.024300  0.747300  0.181300  1.0  0.0571
  H  H518  1  0.047800  0.714100  0.154600  1.0  0.0813
  H  H519  1  0.122600  0.836200  0.156000  1.0  0.0698
  H  H520  1  0.131600  0.771800  0.157300  1.0  0.0756
  H  H521  1  0.104800  0.802900  0.183900  1.0  0.0748
  H  H522  1  0.149200  0.995800  0.076000  1.0  0.0601
  H  H523  1  0.018400  0.944800  0.026000  1.0  0.06
  H  H524  1  0.069400  0.971900  0.010300  1.0  0.0635
  H  H525  1  0.028900  0.008700  0.028800  1.0  0.0605
  H  H526  1  0.016900  0.930900  0.078200  1.0  0.0948
  H  H527  1  0.025800  0.994300  0.084100  1.0  0.0761
  H  H528  1  0.064800  0.950600  0.098900  1.0  0.092
  H  H529  1  0.229900  0.910000  0.956400  1.0  0.0531
  H  H530  1  0.338600  0.841800  0.010300  1.0  0.0832
  H  H531  1  0.317000  0.901900  0.016900  1.0  0.0779
  H  H532  1  0.357100  0.891500  0.990600  1.0  0.072
  H  H533  1  0.298200  0.788100  0.973700  1.0  0.0897
  H  H534  1  0.314300  0.829100  0.948500  1.0  0.0766
  H  H535  1  0.252300  0.811300  0.952700  1.0  0.0758
  H  H536  1  0.264300  0.868000  0.144100  1.0  0.0703
  H  H537  1  0.330200  0.836400  0.065900  1.0  0.0845
  H  H538  1  0.346000  0.796500  0.091500  1.0  0.0704
  H  H539  1  0.367500  0.857900  0.091500  1.0  0.0687
  H  H540  1  0.265800  0.905700  0.070300  1.0  0.0804
  H  H541  1  0.296900  0.934600  0.096200  1.0  0.0788
  H  H542  1  0.234600  0.917100  0.099700  1.0  0.0846
  H  H543  1  0.273200  0.610300  0.131200  1.0  0.0726
  H  H544  1  0.114900  0.645700  0.153800  1.0  0.0677
  H  H545  1  0.162100  0.679200  0.169400  1.0  0.1012
  H  H546  1  0.152800  0.616400  0.177000  1.0  0.0604
  H  H547  1  0.199600  0.558200  0.113300  1.0  0.0829
  H  H548  1  0.137200  0.569600  0.120800  1.0  0.086
  H  H549  1  0.176600  0.543800  0.144400  1.0  0.074
  H  H550  1  0.966100  0.689300  0.784500  1.0  0.1214
  H  H551  1  0.945800  0.635800  0.768300  1.0  0.103
  H  H552  1  0.002700  0.635500  0.784900  1.0  0.0969
  H  H553  1  0.779800  0.986100  0.093800  1.0  0.2735
  H  H554  1  0.816300  0.956900  0.074000  1.0  0.2368
  H  H555  1  0.716900  0.908900  0.062300  1.0  0.2371
  H  H556  1  0.684900  0.949700  0.078600  1.0  0.2218
  H  H557  1  0.670700  0.322100  0.064800  1.0  0.2836
  H  H558  1  0.621700  0.286600  0.065400  1.0  0.2358
  H  H559  1  0.597000  0.346800  0.016600  1.0  0.2308
  H  H560  1  0.651000  0.372900  0.018600  1.0  0.2088
  H  H561  1  0.451400  0.098900  0.931100  1.0  0.2185
  H  H562  1  0.457300  0.077100  0.960500  1.0  0.1966
  H  H563  1  0.482400  0.992100  0.923800  1.0  0.2353
  H  H564  1  0.502200  0.016000  0.896500  1.0  0.2329
  H  H565  1  0.822600  0.876900  0.894700  1.0  0.2399
  H  H566  1  0.868700  0.893200  0.913200  1.0  0.2276
  H  H567  1  0.879300  0.956600  0.862600  1.0  0.2611
  H  H568  1  0.824100  0.940200  0.853200  1.0  0.1695
  H  H569  1  0.024600  0.193200  0.964500  1.0  0.2318
  H  H570  1  0.020300  0.144100  0.982800  1.0  0.2342
  H  H571  1  0.986500  0.224700  0.018700  1.0  0.289
  H  H572  1  0.971700  0.269900  0.999300  1.0  0.2476
  H  H573  1  0.792500  0.291200  0.836900  1.0  0.253
  H  H574  1  0.780700  0.332100  0.859100  1.0  0.2296
  H  H575  1  0.682900  0.300500  0.841300  1.0  0.2897
  H  H576  1  0.689400  0.245800  0.828600  1.0  0.2075
  H  H577  1  0.825500  0.062400  0.091800  1.0  0.0724
  H  H578  1  0.910900  0.018200  0.019900  1.0  0.058
  H  H579  1  0.879400  0.970800  0.036500  1.0  0.0669
  H  H580  1  0.930500  0.999900  0.051100  1.0  0.0481
  H  H581  1  0.870100  0.130600  0.064400  1.0  0.0956
  H  H582  1  0.907500  0.117900  0.037200  1.0  0.0912
  H  H583  1  0.926500  0.099100  0.068400  1.0  0.0827
  H  H584  1  0.655700  0.900800  0.027000  1.0  0.0653
  H  H585  1  0.624900  0.020500  0.069500  1.0  0.0731
  H  H586  1  0.565100  0.998000  0.063100  1.0  0.0869
  H  H587  1  0.587000  0.050500  0.046600  1.0  0.0792
  H  H588  1  0.596300  0.944100  0.993000  1.0  0.0911
  H  H589  1  0.568400  0.001900  0.998500  1.0  0.0943
  H  H590  1  0.547400  0.949400  0.015400  1.0  0.084
  H  H591  1  0.729200  0.251300  0.073800  1.0  0.0563
  H  H592  1  0.602000  0.137100  0.060900  1.0  0.0707
  H  H593  1  0.588200  0.199300  0.054000  1.0  0.0699
  H  H594  1  0.594600  0.179700  0.086400  1.0  0.0695
  H  H595  1  0.687700  0.105700  0.071300  1.0  0.0811
  H  H596  1  0.698500  0.140500  0.099600  1.0  0.0808
  H  H597  1  0.740900  0.142900  0.073700  1.0  0.0927
  H  H598  1  0.593000  0.347700  0.971300  1.0  0.0582
  H  H599  1  0.754400  0.361200  0.960700  1.0  0.0865
  H  H600  1  0.730500  0.367200  0.992400  1.0  0.0776
  H  H601  1  0.718300  0.413000  0.969000  1.0  0.0765
  H  H602  1  0.483700  0.177800  0.941900  1.0  0.0616
  H  H603  1  0.533700  0.121800  0.019400  1.0  0.0689
  H  H604  1  0.501800  0.082500  0.997900  1.0  0.0683
  H  H605  1  0.470200  0.130800  0.013600  1.0  0.0698
  H  H606  1  0.538700  0.240600  0.976300  1.0  0.0978
  H  H607  1  0.560300  0.216100  0.005800  1.0  0.0944
  H  H608  1  0.497400  0.231000  0.002200  1.0  0.088
  H  H609  1  0.558900  0.941200  0.930200  1.0  0.0723
  H  H610  1  0.570300  0.026600  0.868500  1.0  0.0695
  H  H611  1  0.586000  0.968400  0.855800  1.0  0.0738
  H  H612  1  0.632200  0.013100  0.860900  1.0  0.0762
  H  H613  1  0.683500  0.948200  0.892000  1.0  0.0783
  H  H614  1  0.638100  0.902000  0.889300  1.0  0.0744
  H  H615  1  0.655800  0.923600  0.920100  1.0  0.0786
  H  H616  1  0.763900  0.873300  0.930900  1.0  0.0614
  H  H617  1  0.888400  0.931200  0.950100  1.0  0.0575
  H  H618  1  0.883100  0.887000  0.975100  1.0  0.0519
  H  H619  1  0.873200  0.950000  0.981900  1.0  0.0562
  H  H620  1  0.739900  0.896100  0.980300  1.0  0.0826
  H  H621  1  0.780900  0.927100  0.001300  1.0  0.0783
  H  H622  1  0.790200  0.864200  0.994000  1.0  0.081
  H  H623  1  0.873200  0.041700  0.847100  1.0  0.0782
  H  H624  1  0.745100  0.990800  0.848000  1.0  0.0499
  H  H625  1  0.747300  0.024300  0.818700  1.0  0.0566
  H  H626  1  0.714100  0.047800  0.845400  1.0  0.0791
  H  H627  1  0.836200  0.122600  0.844000  1.0  0.0699
  H  H628  1  0.771800  0.131600  0.842700  1.0  0.0758
  H  H629  1  0.802900  0.104800  0.816100  1.0  0.0765
  H  H630  1  0.995800  0.149200  0.924000  1.0  0.06
  H  H631  1  0.944800  0.018400  0.974000  1.0  0.0602
  H  H632  1  0.971900  0.069400  0.989700  1.0  0.0636
  H  H633  1  0.008700  0.028900  0.971200  1.0  0.0627
  H  H634  1  0.930900  0.016900  0.921800  1.0  0.0938
  H  H635  1  0.994300  0.025800  0.915900  1.0  0.0773
  H  H636  1  0.950600  0.064800  0.901100  1.0  0.0932
  H  H637  1  0.910000  0.229900  0.043600  1.0  0.0544
  H  H638  1  0.841800  0.338600  0.989700  1.0  0.0818
  H  H639  1  0.901900  0.317000  0.983100  1.0  0.0787
  H  H640  1  0.891500  0.357100  0.009400  1.0  0.0708
  H  H641  1  0.788100  0.298200  0.026300  1.0  0.0862
  H  H642  1  0.829100  0.314300  0.051500  1.0  0.0772
  H  H643  1  0.811300  0.252300  0.047300  1.0  0.0799
  H  H644  1  0.868000  0.264300  0.855900  1.0  0.0694
  H  H645  1  0.836400  0.330200  0.934100  1.0  0.0809
  H  H646  1  0.796500  0.346000  0.908500  1.0  0.0692
  H  H647  1  0.857900  0.367500  0.908500  1.0  0.0664
  H  H648  1  0.905700  0.265800  0.929700  1.0  0.0779
  H  H649  1  0.934600  0.296900  0.903800  1.0  0.0787
  H  H650  1  0.917100  0.234600  0.900300  1.0  0.0872
  H  H651  1  0.610300  0.273200  0.868800  1.0  0.0711
  H  H652  1  0.645700  0.114900  0.846200  1.0  0.0704
  H  H653  1  0.679200  0.162100  0.830600  1.0  0.1018
  H  H654  1  0.616400  0.152800  0.823000  1.0  0.0566
  H  H655  1  0.558200  0.199600  0.886700  1.0  0.0842
  H  H656  1  0.569600  0.137200  0.879200  1.0  0.0899
  H  H657  1  0.543800  0.176600  0.855600  1.0  0.0725
  H  H658  1  0.689300  0.966100  0.215500  1.0  0.121
  H  H659  1  0.635800  0.945800  0.231700  1.0  0.1017
  H  H660  1  0.635500  0.002700  0.215100  1.0  0.1035
  H  H661  1  0.220200  0.013900  0.593800  1.0  0.2728
  H  H662  1  0.183700  0.043100  0.574000  1.0  0.2335
  H  H663  1  0.283100  0.091100  0.562300  1.0  0.237
  H  H664  1  0.315100  0.050300  0.578600  1.0  0.2215
  H  H665  1  0.329300  0.677900  0.564800  1.0  0.2844
  H  H666  1  0.378300  0.713400  0.565400  1.0  0.237
  H  H667  1  0.403000  0.653200  0.516600  1.0  0.2324
  H  H668  1  0.349000  0.627100  0.518600  1.0  0.2091
  H  H669  1  0.548600  0.901100  0.431100  1.0  0.2174
  H  H670  1  0.542700  0.922900  0.460500  1.0  0.1969
  H  H671  1  0.517600  0.007900  0.423800  1.0  0.2357
  H  H672  1  0.497800  0.984000  0.396500  1.0  0.2332
  H  H673  1  0.177400  0.123100  0.394700  1.0  0.24
  H  H674  1  0.131300  0.106800  0.413200  1.0  0.2267
  H  H675  1  0.120700  0.043400  0.362600  1.0  0.2585
  H  H676  1  0.175900  0.059800  0.353200  1.0  0.1696
  H  H677  1  0.975400  0.806800  0.464500  1.0  0.2306
  H  H678  1  0.979700  0.855900  0.482800  1.0  0.2345
  H  H679  1  0.013500  0.775300  0.518700  1.0  0.2921
  H  H680  1  0.028300  0.730100  0.499300  1.0  0.2471
  H  H681  1  0.207500  0.708800  0.336900  1.0  0.253
  H  H682  1  0.219300  0.667900  0.359100  1.0  0.2283
  H  H683  1  0.317100  0.699500  0.341300  1.0  0.2865
  H  H684  1  0.310600  0.754200  0.328600  1.0  0.2078
  H  H685  1  0.174500  0.937600  0.591800  1.0  0.0735
  H  H686  1  0.089100  0.981800  0.519900  1.0  0.0591
  H  H687  1  0.120600  0.029200  0.536500  1.0  0.0655
  H  H688  1  0.069500  0.000100  0.551100  1.0  0.0478
  H  H689  1  0.129900  0.869400  0.564400  1.0  0.0956
  H  H690  1  0.092500  0.882100  0.537200  1.0  0.0918
  H  H691  1  0.073500  0.900900  0.568400  1.0  0.0834
  H  H692  1  0.344300  0.099200  0.527000  1.0  0.0656
  H  H693  1  0.375100  0.979500  0.569500  1.0  0.0735
  H  H694  1  0.434900  0.002000  0.563100  1.0  0.0859
  H  H695  1  0.413000  0.949500  0.546600  1.0  0.0795
  H  H696  1  0.403700  0.055900  0.493000  1.0  0.0906
  H  H697  1  0.431600  0.998100  0.498500  1.0  0.094
  H  H698  1  0.452600  0.050600  0.515400  1.0  0.0844
  H  H699  1  0.270800  0.748700  0.573800  1.0  0.0544
  H  H700  1  0.398000  0.862900  0.560900  1.0  0.0716
  H  H701  1  0.411800  0.800700  0.554000  1.0  0.07
  H  H702  1  0.405400  0.820300  0.586400  1.0  0.0698
  H  H703  1  0.312300  0.894300  0.571300  1.0  0.0815
  H  H704  1  0.301500  0.859500  0.599600  1.0  0.0806
  H  H705  1  0.259100  0.857100  0.573700  1.0  0.0945
  H  H706  1  0.407000  0.652300  0.471300  1.0  0.0596
  H  H707  1  0.245600  0.638800  0.460700  1.0  0.0877
  H  H708  1  0.269500  0.632800  0.492400  1.0  0.0791
  H  H709  1  0.281700  0.587000  0.469000  1.0  0.0758
  H  H710  1  0.516300  0.822200  0.441900  1.0  0.0619
  H  H711  1  0.466300  0.878200  0.519400  1.0  0.0686
  H  H712  1  0.498200  0.917500  0.497900  1.0  0.068
  H  H713  1  0.529800  0.869200  0.513600  1.0  0.069
  H  H714  1  0.461300  0.759400  0.476300  1.0  0.098
  H  H715  1  0.439700  0.783900  0.505800  1.0  0.0938
  H  H716  1  0.502600  0.769000  0.502200  1.0  0.0872
  H  H717  1  0.441100  0.058800  0.430200  1.0  0.0723
  H  H718  1  0.429700  0.973400  0.368500  1.0  0.0695
  H  H719  1  0.414000  0.031600  0.355800  1.0  0.0734
  H  H720  1  0.367800  0.986900  0.360900  1.0  0.0763
  H  H721  1  0.316500  0.051800  0.392000  1.0  0.0769
  H  H722  1  0.361900  0.098000  0.389300  1.0  0.0758
  H  H723  1  0.344200  0.076400  0.420100  1.0  0.0776
  H  H724  1  0.236100  0.126700  0.430900  1.0  0.0597
  H  H725  1  0.111600  0.068800  0.450100  1.0  0.0578
  H  H726  1  0.116900  0.113000  0.475100  1.0  0.0516
  H  H727  1  0.126800  0.050000  0.481900  1.0  0.0567
  H  H728  1  0.260100  0.103900  0.480300  1.0  0.0825
  H  H729  1  0.219100  0.072900  0.501300  1.0  0.0794
  H  H730  1  0.209800  0.135800  0.494000  1.0  0.0801
  H  H731  1  0.126800  0.958300  0.347100  1.0  0.0782
  H  H732  1  0.254900  0.009200  0.348000  1.0  0.05
  H  H733  1  0.252700  0.975700  0.318700  1.0  0.0572
  H  H734  1  0.285900  0.952200  0.345400  1.0  0.0794
  H  H735  1  0.163800  0.877400  0.344000  1.0  0.0691
  H  H736  1  0.228200  0.868400  0.342700  1.0  0.0754
  H  H737  1  0.197100  0.895200  0.316100  1.0  0.0766
  H  H738  1  0.004200  0.850800  0.424000  1.0  0.0603
  H  H739  1  0.055200  0.981600  0.474000  1.0  0.0588
  H  H740  1  0.028100  0.930600  0.489700  1.0  0.0633
  H  H741  1  0.991300  0.971100  0.471200  1.0  0.061
  H  H742  1  0.069100  0.983100  0.421800  1.0  0.0939
  H  H743  1  0.005700  0.974200  0.415900  1.0  0.0744
  H  H744  1  0.049400  0.935200  0.401100  1.0  0.0924
  H  H745  1  0.090000  0.770100  0.543600  1.0  0.0543
  H  H746  1  0.158200  0.661400  0.489700  1.0  0.0822
  H  H747  1  0.098100  0.683000  0.483100  1.0  0.0782
  H  H748  1  0.108500  0.642900  0.509400  1.0  0.0716
  H  H749  1  0.211900  0.701800  0.526300  1.0  0.0864
  H  H750  1  0.170900  0.685700  0.551500  1.0  0.0792
  H  H751  1  0.188700  0.747700  0.547300  1.0  0.0793
  H  H752  1  0.132000  0.735700  0.355900  1.0  0.07
  H  H753  1  0.163600  0.669800  0.434100  1.0  0.0806
  H  H754  1  0.203500  0.654000  0.408500  1.0  0.0703
  H  H755  1  0.142100  0.632500  0.408500  1.0  0.0658
  H  H756  1  0.094300  0.734200  0.429700  1.0  0.0785
  H  H757  1  0.065400  0.703100  0.403800  1.0  0.0782
  H  H758  1  0.082900  0.765400  0.400300  1.0  0.0895
  H  H759  1  0.389700  0.726800  0.368800  1.0  0.073
  H  H760  1  0.354300  0.885100  0.346200  1.0  0.0714
  H  H761  1  0.320800  0.837900  0.330600  1.0  0.1001
  H  H762  1  0.383600  0.847200  0.323000  1.0  0.0589
  H  H763  1  0.441800  0.800400  0.386700  1.0  0.0843
  H  H764  1  0.430400  0.862800  0.379200  1.0  0.0892
  H  H765  1  0.456200  0.823400  0.355600  1.0  0.0738
  H  H766  1  0.310700  0.033900  0.715500  1.0  0.1194
  H  H767  1  0.364200  0.054200  0.731700  1.0  0.1021
  H  H768  1  0.364500  0.997300  0.715100  1.0  0.0999
  H  H769  1  0.486100  0.720200  0.843800  1.0  0.2731
  H  H770  1  0.456900  0.683700  0.824000  1.0  0.2361
  H  H771  1  0.408900  0.783100  0.812300  1.0  0.2353
  H  H772  1  0.449700  0.815100  0.828600  1.0  0.223
  H  H773  1  0.822100  0.829300  0.814800  1.0  0.2917
  H  H774  1  0.786600  0.878300  0.815400  1.0  0.2341
  H  H775  1  0.846800  0.903000  0.766600  1.0  0.2296
  H  H776  1  0.872900  0.849000  0.768600  1.0  0.208
  H  H777  1  0.598900  0.048600  0.681100  1.0  0.2181
  H  H778  1  0.577100  0.042700  0.710500  1.0  0.1952
  H  H779  1  0.492100  0.017600  0.673800  1.0  0.2336
  H  H780  1  0.516000  0.997800  0.646500  1.0  0.2322
  H  H781  1  0.376900  0.677400  0.644700  1.0  0.2415
  H  H782  1  0.393200  0.631300  0.663200  1.0  0.2261
  H  H783  1  0.456600  0.620700  0.612600  1.0  0.2515
  H  H784  1  0.440200  0.675900  0.603200  1.0  0.169
  H  H785  1  0.693200  0.475400  0.714500  1.0  0.235
  H  H786  1  0.644100  0.479700  0.732800  1.0  0.2332
  H  H787  1  0.724700  0.513500  0.768700  1.0  0.2876
  H  H788  1  0.769900  0.528300  0.749300  1.0  0.2452
  H  H789  1  0.791200  0.707500  0.586900  1.0  0.2538
  H  H790  1  0.832100  0.719300  0.609100  1.0  0.2287
  H  H791  1  0.800500  0.817100  0.591300  1.0  0.3019
  H  H792  1  0.745800  0.810600  0.578600  1.0  0.208
  H  H793  1  0.562400  0.674500  0.841800  1.0  0.0707
  H  H794  1  0.518200  0.589100  0.769900  1.0  0.0599
  H  H795  1  0.470800  0.620600  0.786500  1.0  0.0662
  H  H796  1  0.499900  0.569500  0.801100  1.0  0.0487
  H  H797  1  0.630600  0.629900  0.814400  1.0  0.0954
  H  H798  1  0.617900  0.592500  0.787200  1.0  0.092
  H  H799  1  0.599100  0.573500  0.818400  1.0  0.086
  H  H800  1  0.400800  0.844300  0.777000  1.0  0.0649
  H  H801  1  0.520500  0.875100  0.819500  1.0  0.0743
  H  H802  1  0.498000  0.934900  0.813100  1.0  0.0866
  H  H803  1  0.550500  0.913000  0.796600  1.0  0.0788
  H  H804  1  0.444100  0.903700  0.743000  1.0  0.0917
  H  H805  1  0.501900  0.931600  0.748500  1.0  0.093
  H  H806  1  0.449400  0.952600  0.765400  1.0  0.0832
  H  H807  1  0.751300  0.770800  0.823800  1.0  0.0574
  H  H808  1  0.637100  0.898000  0.810900  1.0  0.0716
  H  H809  1  0.699300  0.911800  0.804000  1.0  0.0701
  H  H810  1  0.679700  0.905400  0.836400  1.0  0.0708
  H  H811  1  0.605700  0.812300  0.821300  1.0  0.0771
  H  H812  1  0.640500  0.801500  0.849600  1.0  0.0792
  H  H813  1  0.642900  0.759100  0.823700  1.0  0.0947
  H  H814  1  0.847700  0.907000  0.721300  1.0  0.0589
  H  H815  1  0.861200  0.745600  0.710700  1.0  0.0888
  H  H816  1  0.867200  0.769500  0.742400  1.0  0.081
  H  H817  1  0.913000  0.781700  0.719000  1.0  0.0799
  H  H818  1  0.677800  0.016300  0.691900  1.0  0.0629
  H  H819  1  0.621800  0.966300  0.769400  1.0  0.0696
  H  H820  1  0.582500  0.998200  0.747900  1.0  0.0682
  H  H821  1  0.630800  0.029800  0.763600  1.0  0.0709
  H  H822  1  0.740600  0.961300  0.726300  1.0  0.0982
  H  H823  1  0.716100  0.939700  0.755800  1.0  0.095
  H  H824  1  0.731000  0.002600  0.752200  1.0  0.0875
  H  H825  1  0.441200  0.941100  0.680200  1.0  0.0727
  H  H826  1  0.526600  0.929700  0.618500  1.0  0.069
  H  H827  1  0.468400  0.914000  0.605800  1.0  0.073
  H  H828  1  0.513100  0.867800  0.610900  1.0  0.077
  H  H829  1  0.448200  0.816500  0.642000  1.0  0.0811
  H  H830  1  0.402000  0.861900  0.639300  1.0  0.0755
  H  H831  1  0.423600  0.844200  0.670100  1.0  0.0791
  H  H832  1  0.373300  0.736100  0.680900  1.0  0.0608
  H  H833  1  0.431200  0.611600  0.700100  1.0  0.0571
  H  H834  1  0.387000  0.616900  0.725100  1.0  0.0504
  H  H835  1  0.450000  0.626800  0.731900  1.0  0.0578
  H  H836  1  0.396100  0.760100  0.730300  1.0  0.0843
  H  H837  1  0.427100  0.719100  0.751300  1.0  0.0771
  H  H838  1  0.364200  0.709800  0.744000  1.0  0.0803
  H  H839  1  0.541700  0.626800  0.597100  1.0  0.0683
  H  H840  1  0.490800  0.754900  0.598000  1.0  0.047
  H  H841  1  0.524300  0.752700  0.568700  1.0  0.0582
  H  H842  1  0.547800  0.785900  0.595400  1.0  0.082
  H  H843  1  0.622600  0.663800  0.594000  1.0  0.0698
  H  H844  1  0.631600  0.728200  0.592700  1.0  0.0751
  H  H845  1  0.604800  0.697100  0.566100  1.0  0.0759
  H  H846  1  0.649200  0.504200  0.674000  1.0  0.0595
  H  H847  1  0.518400  0.555200  0.724000  1.0  0.0596
  H  H848  1  0.569400  0.528100  0.739700  1.0  0.0625
  H  H849  1  0.528900  0.491300  0.721200  1.0  0.0606
  H  H850  1  0.516900  0.569100  0.671800  1.0  0.0955
  H  H851  1  0.525800  0.505700  0.665900  1.0  0.0766
  H  H852  1  0.564800  0.549400  0.651100  1.0  0.0927
  H  H853  1  0.729900  0.590000  0.793600  1.0  0.0547
  H  H854  1  0.838600  0.658200  0.739700  1.0  0.0835
  H  H855  1  0.817000  0.598100  0.733100  1.0  0.0794
  H  H856  1  0.857100  0.608500  0.759400  1.0  0.0723
  H  H857  1  0.798200  0.711900  0.776300  1.0  0.0894
  H  H858  1  0.814300  0.670900  0.801500  1.0  0.0774
  H  H859  1  0.752300  0.688700  0.797300  1.0  0.0764
  H  H860  1  0.764300  0.632000  0.605900  1.0  0.0705
  H  H861  1  0.830200  0.663600  0.684100  1.0  0.0829
  H  H862  1  0.846000  0.703500  0.658500  1.0  0.0709
  H  H863  1  0.867500  0.642100  0.658500  1.0  0.0673
  H  H864  1  0.765800  0.594300  0.679700  1.0  0.0784
  H  H865  1  0.796900  0.565400  0.653800  1.0  0.0805
  H  H866  1  0.734600  0.582900  0.650300  1.0  0.0851
  H  H867  1  0.773200  0.889700  0.618800  1.0  0.0714
  H  H868  1  0.614900  0.854300  0.596200  1.0  0.067
  H  H869  1  0.662100  0.820800  0.580600  1.0  0.1
  H  H870  1  0.652800  0.883600  0.573000  1.0  0.0585
  H  H871  1  0.699600  0.941800  0.636700  1.0  0.0834
  H  H872  1  0.637200  0.930400  0.629200  1.0  0.086
  H  H873  1  0.676600  0.956200  0.605600  1.0  0.0734
  H  H874  1  0.466100  0.810700  0.965500  1.0  0.1157
  H  H875  1  0.445800  0.864200  0.981700  1.0  0.1032
  H  H876  1  0.502700  0.864500  0.965100  1.0  0.0972
  H  H877  1  0.513900  0.279800  0.343800  1.0  0.2736
  H  H878  1  0.543100  0.316300  0.324000  1.0  0.2387
  H  H879  1  0.591100  0.216900  0.312300  1.0  0.2385
  H  H880  1  0.550300  0.184900  0.328600  1.0  0.2222
  H  H881  1  0.177900  0.170700  0.314800  1.0  0.2904
  H  H882  1  0.213400  0.121700  0.315400  1.0  0.2343
  H  H883  1  0.153200  0.097000  0.266600  1.0  0.2282
  H  H884  1  0.127100  0.151000  0.268600  1.0  0.2108
  H  H885  1  0.401100  0.951400  0.181100  1.0  0.2181
  H  H886  1  0.422900  0.957300  0.210500  1.0  0.1967
  H  H887  1  0.507900  0.982400  0.173800  1.0  0.2347
  H  H888  1  0.484000  0.002200  0.146500  1.0  0.2335
  H  H889  1  0.623100  0.322600  0.144700  1.0  0.239
  H  H890  1  0.606800  0.368700  0.163200  1.0  0.2257
  H  H891  1  0.543400  0.379300  0.112600  1.0  0.2533
  H  H892  1  0.559800  0.324100  0.103200  1.0  0.1685
  H  H893  1  0.306800  0.524600  0.214500  1.0  0.2315
  H  H894  1  0.355900  0.520300  0.232800  1.0  0.2341
  H  H895  1  0.275300  0.486500  0.268700  1.0  0.287
  H  H896  1  0.230100  0.471700  0.249300  1.0  0.2465
  H  H897  1  0.208800  0.292500  0.086900  1.0  0.2538
  H  H898  1  0.167900  0.280700  0.109100  1.0  0.2275
  H  H899  1  0.199500  0.182900  0.091300  1.0  0.2993
  H  H900  1  0.254200  0.189400  0.078600  1.0  0.2096
  H  H901  1  0.437600  0.325500  0.341800  1.0  0.0714
  H  H902  1  0.481800  0.410900  0.269900  1.0  0.0591
  H  H903  1  0.529200  0.379400  0.286500  1.0  0.0643
  H  H904  1  0.500100  0.430500  0.301100  1.0  0.0483
  H  H905  1  0.369400  0.370100  0.314400  1.0  0.0968
  H  H906  1  0.382100  0.407500  0.287200  1.0  0.093
  H  H907  1  0.400900  0.426500  0.318400  1.0  0.0854
  H  H908  1  0.599200  0.155700  0.277000  1.0  0.0648
  H  H909  1  0.479500  0.124900  0.319500  1.0  0.0741
  H  H910  1  0.502000  0.065100  0.313100  1.0  0.0854
  H  H911  1  0.449500  0.087000  0.296600  1.0  0.0787
  H  H912  1  0.555900  0.096300  0.243000  1.0  0.0909
  H  H913  1  0.498100  0.068400  0.248500  1.0  0.0929
  H  H914  1  0.550600  0.047400  0.265400  1.0  0.0846
  H  H915  1  0.248700  0.229200  0.323800  1.0  0.0572
  H  H916  1  0.362900  0.102000  0.310900  1.0  0.0715
  H  H917  1  0.300700  0.088200  0.304000  1.0  0.07
  H  H918  1  0.320300  0.094600  0.336400  1.0  0.07
  H  H919  1  0.394300  0.187700  0.321300  1.0  0.08
  H  H920  1  0.359500  0.198500  0.349600  1.0  0.0795
  H  H921  1  0.357100  0.240900  0.323700  1.0  0.0949
  H  H922  1  0.152300  0.093000  0.221300  1.0  0.0588
  H  H923  1  0.138800  0.254400  0.210700  1.0  0.089
  H  H924  1  0.132800  0.230500  0.242400  1.0  0.0804
  H  H925  1  0.087000  0.218300  0.219000  1.0  0.0781
  H  H926  1  0.322200  0.983700  0.191900  1.0  0.0628
  H  H927  1  0.378200  0.033700  0.269400  1.0  0.0699
  H  H928  1  0.417500  0.001800  0.247900  1.0  0.0675
  H  H929  1  0.369200  0.970200  0.263600  1.0  0.0716
  H  H930  1  0.259400  0.038700  0.226300  1.0  0.0976
  H  H931  1  0.283900  0.060300  0.255800  1.0  0.0937
  H  H932  1  0.269000  0.997400  0.252200  1.0  0.088
  H  H933  1  0.558800  0.058900  0.180200  1.0  0.0724
  H  H934  1  0.473400  0.070300  0.118500  1.0  0.0691
  H  H935  1  0.531600  0.086000  0.105800  1.0  0.0722
  H  H936  1  0.486900  0.132200  0.110900  1.0  0.077
  H  H937  1  0.551800  0.183500  0.142000  1.0  0.0809
  H  H938  1  0.598000  0.138100  0.139300  1.0  0.0752
  H  H939  1  0.576400  0.155800  0.170100  1.0  0.0791
  H  H940  1  0.626700  0.263900  0.180900  1.0  0.0566
  H  H941  1  0.568800  0.388400  0.200100  1.0  0.0582
  H  H942  1  0.613000  0.383100  0.225100  1.0  0.0505
  H  H943  1  0.550000  0.373200  0.231900  1.0  0.0571
  H  H944  1  0.603900  0.239900  0.230300  1.0  0.0826
  H  H945  1  0.572900  0.280900  0.251300  1.0  0.0779
  H  H946  1  0.635800  0.290200  0.244000  1.0  0.0777
  H  H947  1  0.458300  0.373200  0.097100  1.0  0.073
  H  H948  1  0.509200  0.245100  0.098000  1.0  0.0461
  H  H949  1  0.475700  0.247300  0.068700  1.0  0.058
  H  H950  1  0.452200  0.214100  0.095400  1.0  0.0821
  H  H951  1  0.377400  0.336200  0.094000  1.0  0.0702
  H  H952  1  0.368400  0.271800  0.092700  1.0  0.0761
  H  H953  1  0.395200  0.302900  0.066100  1.0  0.0767
  H  H954  1  0.350800  0.495800  0.174000  1.0  0.0599
  H  H955  1  0.481600  0.444800  0.224000  1.0  0.0592
  H  H956  1  0.430600  0.471900  0.239700  1.0  0.0629
  H  H957  1  0.471100  0.508700  0.221200  1.0  0.0595
  H  H958  1  0.483100  0.430900  0.171800  1.0  0.0936
  H  H959  1  0.474200  0.494300  0.165900  1.0  0.0759
  H  H960  1  0.435200  0.450600  0.151100  1.0  0.0923
  H  H961  1  0.270100  0.410000  0.293600  1.0  0.0547
  H  H962  1  0.161400  0.341800  0.239700  1.0  0.0834
  H  H963  1  0.183000  0.401900  0.233100  1.0  0.0809
  H  H964  1  0.142900  0.391500  0.259400  1.0  0.072
  H  H965  1  0.201800  0.288100  0.276300  1.0  0.089
  H  H966  1  0.185700  0.329100  0.301500  1.0  0.0771
  H  H967  1  0.247700  0.311300  0.297300  1.0  0.0771
  H  H968  1  0.235700  0.368000  0.105900  1.0  0.0707
  H  H969  1  0.169800  0.336400  0.184100  1.0  0.0822
  H  H970  1  0.154000  0.296500  0.158500  1.0  0.0696
  H  H971  1  0.132500  0.357900  0.158500  1.0  0.068
  H  H972  1  0.234200  0.405700  0.179700  1.0  0.0784
  H  H973  1  0.203100  0.434600  0.153800  1.0  0.0791
  H  H974  1  0.265400  0.417100  0.150300  1.0  0.0833
  H  H975  1  0.226800  0.110300  0.118800  1.0  0.0722
  H  H976  1  0.385100  0.145700  0.096200  1.0  0.0693
  H  H977  1  0.337900  0.179200  0.080600  1.0  0.1028
  H  H978  1  0.347200  0.116400  0.073000  1.0  0.0597
  H  H979  1  0.300400  0.058200  0.136700  1.0  0.0839
  H  H980  1  0.362800  0.069600  0.129200  1.0  0.0878
  H  H981  1  0.323400  0.043800  0.105600  1.0  0.0732
  H  H982  1  0.533900  0.189300  0.465500  1.0  0.1214
  H  H983  1  0.554200  0.135800  0.481700  1.0  0.103
  H  H984  1  0.497300  0.135500  0.465100  1.0  0.0992
  Pt  Pt985  1  0.756100  0.500050  0.205250  1.0  0.1315
  Pt  Pt986  1  0.835120  0.775420  0.232810  1.0  0.2466
  Pt  Pt987  1  0.953330  0.567550  0.313560  1.0  0.0969
  Pt  Pt988  1  0.684180  0.477550  0.348080  1.0  0.1784
  Pt  Pt989  1  0.571830  0.686110  0.269610  1.0  0.0908
  Pt  Pt990  1  0.761550  0.746670  0.376140  1.0  0.1433
  Pt  Pt991  1  0.243900  0.499950  0.705250  1.0  0.1382
  Pt  Pt992  1  0.164880  0.224580  0.732810  1.0  0.2417
  Pt  Pt993  1  0.046670  0.432450  0.813560  1.0  0.094
  Pt  Pt994  1  0.315820  0.522450  0.848080  1.0  0.1838
  Pt  Pt995  1  0.428170  0.313890  0.769610  1.0  0.0932
  Pt  Pt996  1  0.238450  0.253330  0.876140  1.0  0.1434
  Pt  Pt997  1  0.999950  0.256100  0.455250  1.0  0.1378
  Pt  Pt998  1  0.724580  0.335120  0.482810  1.0  0.2473
  Pt  Pt999  1  0.932450  0.453330  0.563560  1.0  0.0948
  Pt  Pt1000  1  0.022450  0.184180  0.598080  1.0  0.1844
  Pt  Pt1001  1  0.813890  0.071830  0.519610  1.0  0.0859
  Pt  Pt1002  1  0.753330  0.261550  0.626140  1.0  0.1442
  Pt  Pt1003  1  0.000050  0.743900  0.955250  1.0  0.1345
  Pt  Pt1004  1  0.275420  0.664880  0.982810  1.0  0.248
  Pt  Pt1005  1  0.067550  0.546670  0.063560  1.0  0.089
  Pt  Pt1006  1  0.977550  0.815820  0.098080  1.0  0.1813
  Pt  Pt1007  1  0.186110  0.928170  0.019610  1.0  0.0939
  Pt  Pt1008  1  0.246670  0.738450  0.126140  1.0  0.1454
  Pt  Pt1009  1  0.743900  0.000050  0.044750  1.0  0.1344
  Pt  Pt1010  1  0.664880  0.275420  0.017190  1.0  0.2438
  Pt  Pt1011  1  0.546670  0.067550  0.936440  1.0  0.0936
  Pt  Pt1012  1  0.815820  0.977550  0.901920  1.0  0.181
  Pt  Pt1013  1  0.928170  0.186110  0.980390  1.0  0.0935
  Pt  Pt1014  1  0.738450  0.246670  0.873860  1.0  0.1448
  Pt  Pt1015  1  0.256100  0.999950  0.544750  1.0  0.1389
  Pt  Pt1016  1  0.335120  0.724580  0.517190  1.0  0.2429
  Pt  Pt1017  1  0.453330  0.932450  0.436440  1.0  0.0961
  Pt  Pt1018  1  0.184180  0.022450  0.401920  1.0  0.1813
  Pt  Pt1019  1  0.071830  0.813890  0.480390  1.0  0.0904
  Pt  Pt1020  1  0.261550  0.753330  0.373860  1.0  0.1404
  Pt  Pt1021  1  0.500050  0.756100  0.794750  1.0  0.1355
  Pt  Pt1022  1  0.775420  0.835120  0.767190  1.0  0.2477
  Pt  Pt1023  1  0.567550  0.953330  0.686440  1.0  0.091
  Pt  Pt1024  1  0.477550  0.684180  0.651920  1.0  0.1839
  Pt  Pt1025  1  0.686110  0.571830  0.730390  1.0  0.0883
  Pt  Pt1026  1  0.746670  0.761550  0.623860  1.0  0.1452
  Pt  Pt1027  1  0.499950  0.243900  0.294750  1.0  0.1387
  Pt  Pt1028  1  0.224580  0.164880  0.267190  1.0  0.2459
  Pt  Pt1029  1  0.432450  0.046670  0.186440  1.0  0.0915
  Pt  Pt1030  1  0.522450  0.315820  0.151920  1.0  0.1837
  Pt  Pt1031  1  0.313890  0.428170  0.230390  1.0  0.0903
  Pt  Pt1032  1  0.253330  0.238450  0.123860  1.0  0.1445
  C  C1033  1  0.636800  0.545000  0.198750  1.0  0.0159
  C  C1034  1  0.659100  0.529700  0.167900  1.0  0.0282
  C  C1035  1  0.614500  0.504900  0.150290  1.0  0.1059
  C  C1036  1  0.601200  0.505300  0.211330  1.0  -0.3886
  C  C1037  1  0.604900  0.604200  0.194200  1.0  -0.3968
  C  C1038  1  0.880100  0.479000  0.218820  1.0  0.0848
  C  C1039  1  0.853600  0.426300  0.207090  1.0  -0.0351
  C  C1040  1  0.889400  0.398700  0.185050  1.0  0.1489
  C  C1041  1  0.902800  0.515200  0.195310  1.0  -0.4104
  C  C1042  1  0.920600  0.467600  0.242590  1.0  -0.4084
  C  C1043  1  0.829200  0.688300  0.184300  1.0  -0.0389
  C  C1044  1  0.810900  0.745900  0.174430  1.0  0.0109
  C  C1045  1  0.832000  0.749800  0.140810  1.0  0.4952
  C  C1046  1  0.892100  0.674800  0.183130  1.0  -0.4065
  C  C1047  1  0.797600  0.639900  0.171210  1.0  -0.4017
  C  C1048  1  0.827100  0.843900  0.286930  1.0  -0.1245
  C  C1049  1  0.873700  0.865200  0.270680  1.0  -0.0224
  C  C1050  1  0.883900  0.927900  0.270890  1.0  0.5964
  C  C1051  1  0.776600  0.873900  0.277900  1.0  -0.4033
  C  C1052  1  0.982100  0.656600  0.268940  1.0  0.1358
  C  C1053  1  0.025400  0.652100  0.292300  1.0  0.0357
  C  C1054  1  0.084200  0.664100  0.281600  1.0  0.5888
  C  C1055  1  0.995200  0.619900  0.245020  1.0  -0.4214
  C  C1056  1  0.970300  0.717000  0.257540  1.0  -0.3952
  C  C1057  1  0.893000  0.476300  0.351300  1.0  0.1117
  C  C1058  1  0.947700  0.457400  0.339090  1.0  -0.0274
  C  C1059  1  0.915100  0.522700  0.107520  1.0  0.6144
  C  C1060  1  0.901900  0.498100  0.381800  1.0  -0.3887
  C  C1061  1  0.850300  0.433900  0.349840  1.0  -0.4092
  C  C1062  1  0.687200  0.415000  0.288800  1.0  0.0923
  C  C1063  1  0.696400  0.375100  0.314800  1.0  0.0206
  C  C1064  1  0.674900  0.316100  0.308620  1.0  0.6219
  C  C1065  1  0.631400  0.421300  0.282440  1.0  -0.4179
  C  C1066  1  0.722100  0.399200  0.263590  1.0  -0.3868
  C  C1067  1  0.706600  0.554400  0.400850  1.0  0.1232
  C  C1068  1  0.659800  0.519600  0.407600  1.0  -0.0786
  C  C1069  1  0.651900  0.500600  0.438820  1.0  0.602
  C  C1070  1  0.753600  0.527200  0.410400  1.0  -0.4081
  C  C1071  1  0.698300  0.607600  0.413000  1.0  -0.4278
  C  C1072  1  0.537600  0.583300  0.305640  1.0  -0.0468
  C  C1073  1  0.495500  0.626500  0.308850  1.0  -0.0495
  C  C1074  1  0.436800  0.601500  0.312390  1.0  0.5804
  C  C1075  1  0.527000  0.546300  0.277390  1.0  -0.3949
  C  C1076  1  0.540700  0.544100  0.331590  1.0  -0.3787
  C  C1077  1  0.633700  0.777800  0.232100  1.0  0.1051
  C  C1078  1  0.581400  0.761600  0.219010  1.0  -0.0267
  C  C1079  1  0.940100  0.305800  0.050770  1.0  0.5659
  C  C1080  1  0.623700  0.827100  0.251770  1.0  -0.4009
  C  C1081  1  0.680200  0.786400  0.212610  1.0  -0.4204
  C  C1082  1  0.648700  0.787600  0.352310  1.0  0.1337
  C  C1083  1  0.650700  0.795500  0.384600  1.0  0.0223
  C  C1084  1  0.621600  0.849100  0.392970  1.0  0.5427
  C  C1085  1  0.665900  0.837000  0.336450  1.0  -0.3969
  C  C1086  1  0.592800  0.769600  0.341100  1.0  -0.397
  C  C1087  1  0.871900  0.689600  0.389090  1.0  0.0719
  C  C1088  1  0.878100  0.751400  0.398190  1.0  -0.0261
  C  C1089  1  0.920900  0.758200  0.422530  1.0  0.0778
  C  C1090  1  0.856400  0.651800  0.411670  1.0  -0.4279
  C  C1091  1  0.930600  0.674300  0.378400  1.0  -0.3888
  C  C1092  1  0.867500  0.439500  0.059500  1.0  0.1057
  C  C1093  1  0.850500  0.465400  0.035000  1.0  -0.425
  C  C1094  1  0.363200  0.455000  0.698750  1.0  0.0161
  C  C1095  1  0.340900  0.470300  0.667900  1.0  0.0262
  C  C1096  1  0.385500  0.495100  0.650290  1.0  0.1057
  C  C1097  1  0.398800  0.494700  0.711330  1.0  -0.3879
  C  C1098  1  0.395100  0.395800  0.694200  1.0  -0.3979
  C  C1099  1  0.119900  0.521000  0.718820  1.0  0.0857
  C  C1100  1  0.146400  0.573700  0.707090  1.0  -0.0338
  C  C1101  1  0.110600  0.601300  0.685050  1.0  0.148
  C  C1102  1  0.097200  0.484800  0.695310  1.0  -0.4097
  C  C1103  1  0.079400  0.532400  0.742590  1.0  -0.4074
  C  C1104  1  0.170800  0.311700  0.684300  1.0  -0.0398
  C  C1105  1  0.189100  0.254100  0.674430  1.0  0.0109
  C  C1106  1  0.168000  0.250200  0.640810  1.0  0.4976
  C  C1107  1  0.107900  0.325200  0.683130  1.0  -0.4067
  C  C1108  1  0.202400  0.360100  0.671210  1.0  -0.4032
  C  C1109  1  0.172900  0.156100  0.786930  1.0  -0.1267
  C  C1110  1  0.126300  0.134800  0.770680  1.0  -0.0232
  C  C1111  1  0.116100  0.072100  0.770890  1.0  0.5966
  C  C1112  1  0.223400  0.126100  0.777900  1.0  -0.4013
  C  C1113  1  0.017900  0.343400  0.768940  1.0  0.1367
  C  C1114  1  0.974600  0.347900  0.792300  1.0  0.0346
  C  C1115  1  0.915800  0.335900  0.781600  1.0  0.5853
  C  C1116  1  0.004800  0.380100  0.745020  1.0  -0.4209
  C  C1117  1  0.029700  0.283000  0.757540  1.0  -0.3958
  C  C1118  1  0.107000  0.523700  0.851300  1.0  0.1125
  C  C1119  1  0.052300  0.542600  0.839090  1.0  -0.0267
  C  C1120  1  0.084900  0.477300  0.607520  1.0  0.6177
  C  C1121  1  0.098100  0.501900  0.881800  1.0  -0.3899
  C  C1122  1  0.149700  0.566100  0.849840  1.0  -0.4087
  C  C1123  1  0.312800  0.585000  0.788800  1.0  0.0895
  C  C1124  1  0.303600  0.624900  0.814800  1.0  0.0177
  C  C1125  1  0.325100  0.683900  0.808620  1.0  0.6184
  C  C1126  1  0.368600  0.578700  0.782440  1.0  -0.4193
  C  C1127  1  0.277900  0.600800  0.763590  1.0  -0.3871
  C  C1128  1  0.293400  0.445600  0.900850  1.0  0.1236
  C  C1129  1  0.340200  0.480400  0.907600  1.0  -0.0762
  C  C1130  1  0.348100  0.499400  0.938820  1.0  0.6022
  C  C1131  1  0.246400  0.472800  0.910400  1.0  -0.4096
  C  C1132  1  0.301700  0.392400  0.913000  1.0  -0.4288
  C  C1133  1  0.462400  0.416700  0.805640  1.0  -0.0469
  C  C1134  1  0.504500  0.373500  0.808850  1.0  -0.0489
  C  C1135  1  0.563200  0.398500  0.812390  1.0  0.5828
  C  C1136  1  0.473000  0.453700  0.777390  1.0  -0.3954
  C  C1137  1  0.459300  0.455900  0.831590  1.0  -0.377
  C  C1138  1  0.366300  0.222200  0.732100  1.0  0.1048
  C  C1139  1  0.418600  0.238400  0.719010  1.0  -0.0254
  C  C1140  1  0.059900  0.694200  0.550770  1.0  0.5657
  C  C1141  1  0.376300  0.172900  0.751770  1.0  -0.4012
  C  C1142  1  0.319800  0.213600  0.712610  1.0  -0.4201
  C  C1143  1  0.351300  0.212400  0.852310  1.0  0.1341
  C  C1144  1  0.349300  0.204500  0.884600  1.0  0.024
  C  C1145  1  0.378400  0.150900  0.892970  1.0  0.5444
  C  C1146  1  0.334100  0.163000  0.836450  1.0  -0.395
  C  C1147  1  0.407200  0.230400  0.841100  1.0  -0.3969
  C  C1148  1  0.128100  0.310400  0.889090  1.0  0.0718
  C  C1149  1  0.121900  0.248600  0.898190  1.0  -0.0268
  C  C1150  1  0.079100  0.241800  0.922530  1.0  0.0785
  C  C1151  1  0.143600  0.348200  0.911670  1.0  -0.429
  C  C1152  1  0.069400  0.325700  0.878400  1.0  -0.3905
  C  C1153  1  0.132500  0.560500  0.559500  1.0  0.1055
  C  C1154  1  0.149500  0.534600  0.535000  1.0  -0.4265
  C  C1155  1  0.955000  0.136800  0.448750  1.0  0.0168
  C  C1156  1  0.970300  0.159100  0.417900  1.0  0.0275
  C  C1157  1  0.995100  0.114500  0.400290  1.0  0.1059
  C  C1158  1  0.994700  0.101200  0.461330  1.0  -0.3882
  C  C1159  1  0.895800  0.104900  0.444200  1.0  -0.3984
  C  C1160  1  0.021000  0.380100  0.468820  1.0  0.085
  C  C1161  1  0.073700  0.353600  0.457090  1.0  -0.0344
  C  C1162  1  0.101300  0.389400  0.435050  1.0  0.1477
  C  C1163  1  0.984800  0.402800  0.445310  1.0  -0.4094
  C  C1164  1  0.032400  0.420600  0.492590  1.0  -0.4095
  C  C1165  1  0.811700  0.329200  0.434300  1.0  -0.0389
  C  C1166  1  0.754100  0.310900  0.424430  1.0  0.0131
  C  C1167  1  0.750200  0.332000  0.390810  1.0  0.492
  C  C1168  1  0.825200  0.392100  0.433130  1.0  -0.4072
  C  C1169  1  0.860100  0.297600  0.421210  1.0  -0.3993
  C  C1170  1  0.656100  0.327100  0.536930  1.0  -0.1256
  C  C1171  1  0.634800  0.373700  0.520680  1.0  -0.0268
  C  C1172  1  0.572100  0.383900  0.520890  1.0  0.596
  C  C1173  1  0.626100  0.276600  0.527900  1.0  -0.4021
  C  C1174  1  0.843400  0.482100  0.518940  1.0  0.1359
  C  C1175  1  0.847900  0.525400  0.542300  1.0  0.0319
  C  C1176  1  0.835900  0.584200  0.531600  1.0  0.5884
  C  C1177  1  0.880100  0.495200  0.495020  1.0  -0.4204
  C  C1178  1  0.783000  0.470300  0.507540  1.0  -0.3977
  C  C1179  1  0.023700  0.393000  0.601300  1.0  0.1128
  C  C1180  1  0.042600  0.447700  0.589090  1.0  -0.0294
  C  C1181  1  0.977300  0.415100  0.357520  1.0  0.614
  C  C1182  1  0.001900  0.401900  0.631800  1.0  -0.3889
  C  C1183  1  0.066100  0.350300  0.599840  1.0  -0.4115
  C  C1184  1  0.085000  0.187200  0.538800  1.0  0.0895
  C  C1185  1  0.124900  0.196400  0.564800  1.0  0.0198
  C  C1186  1  0.183900  0.174900  0.558620  1.0  0.6144
  C  C1187  1  0.078700  0.131400  0.532440  1.0  -0.4183
  C  C1188  1  0.100800  0.222100  0.513590  1.0  -0.3834
  C  C1189  1  0.945600  0.206600  0.650850  1.0  0.1236
  C  C1190  1  0.980400  0.159800  0.657600  1.0  -0.0782
  C  C1191  1  0.999400  0.151900  0.688820  1.0  0.6029
  C  C1192  1  0.972800  0.253600  0.660400  1.0  -0.4055
  C  C1193  1  0.892400  0.198300  0.663000  1.0  -0.428
  C  C1194  1  0.916700  0.037600  0.555640  1.0  -0.046
  C  C1195  1  0.873500  0.995500  0.558850  1.0  -0.0475
  C  C1196  1  0.898500  0.936800  0.562390  1.0  0.5765
  C  C1197  1  0.953700  0.027000  0.527390  1.0  -0.3959
  C  C1198  1  0.955900  0.040700  0.581590  1.0  -0.3796
  C  C1199  1  0.722200  0.133700  0.482100  1.0  0.1059
  C  C1200  1  0.738400  0.081400  0.469010  1.0  -0.0255
  C  C1201  1  0.194200  0.440100  0.300770  1.0  0.5611
  C  C1202  1  0.672900  0.123700  0.501770  1.0  -0.4009
  C  C1203  1  0.713600  0.180200  0.462610  1.0  -0.419
  C  C1204  1  0.712400  0.148700  0.602310  1.0  0.1337
  C  C1205  1  0.704500  0.150700  0.634600  1.0  0.0235
  C  C1206  1  0.650900  0.121600  0.642970  1.0  0.5433
  C  C1207  1  0.663000  0.165900  0.586450  1.0  -0.3941
  C  C1208  1  0.730400  0.092800  0.591100  1.0  -0.3963
  C  C1209  1  0.810400  0.371900  0.639090  1.0  0.0717
  C  C1210  1  0.748600  0.378100  0.648190  1.0  -0.0289
  C  C1211  1  0.741800  0.420900  0.672530  1.0  0.0784
  C  C1212  1  0.848200  0.356400  0.661670  1.0  -0.4308
  C  C1213  1  0.825700  0.430600  0.628400  1.0  -0.3909
  C  C1214  1  0.060500  0.367500  0.309500  1.0  0.1054
  C  C1215  1  0.034600  0.350500  0.285000  1.0  -0.4256
  C  C1216  1  0.045000  0.863200  0.948750  1.0  0.0172
  C  C1217  1  0.029700  0.840900  0.917900  1.0  0.0289
  C  C1218  1  0.004900  0.885500  0.900290  1.0  0.1054
  C  C1219  1  0.005300  0.898800  0.961330  1.0  -0.388
  C  C1220  1  0.104200  0.895100  0.944200  1.0  -0.3954
  C  C1221  1  0.979000  0.619900  0.968820  1.0  0.0852
  C  C1222  1  0.926300  0.646400  0.957090  1.0  -0.0371
  C  C1223  1  0.898700  0.610600  0.935050  1.0  0.1452
  C  C1224  1  0.015200  0.597200  0.945310  1.0  -0.4117
  C  C1225  1  0.967600  0.579400  0.992590  1.0  -0.4095
  C  C1226  1  0.188300  0.670800  0.934300  1.0  -0.0389
  C  C1227  1  0.245900  0.689100  0.924430  1.0  0.0117
  C  C1228  1  0.249800  0.668000  0.890810  1.0  0.4883
  C  C1229  1  0.174800  0.607900  0.933130  1.0  -0.4073
  C  C1230  1  0.139900  0.702400  0.921210  1.0  -0.3995
  C  C1231  1  0.343900  0.672900  0.036930  1.0  -0.125
  C  C1232  1  0.365200  0.626300  0.020680  1.0  -0.0238
  C  C1233  1  0.427900  0.616100  0.020890  1.0  0.5964
  C  C1234  1  0.373900  0.723400  0.027900  1.0  -0.4031
  C  C1235  1  0.156600  0.517900  0.018940  1.0  0.1351
  C  C1236  1  0.152100  0.474600  0.042300  1.0  0.035
  C  C1237  1  0.164100  0.415800  0.031600  1.0  0.5866
  C  C1238  1  0.119900  0.504800  0.995020  1.0  -0.4196
  C  C1239  1  0.217000  0.529700  0.007540  1.0  -0.3971
  C  C1240  1  0.976300  0.607000  0.101300  1.0  0.1122
  C  C1241  1  0.957400  0.552300  0.089090  1.0  -0.0288
  C  C1242  1  0.022700  0.584900  0.857520  1.0  0.6124
  C  C1243  1  0.998100  0.598100  0.131800  1.0  -0.3894
  C  C1244  1  0.933900  0.649700  0.099840  1.0  -0.4094
  C  C1245  1  0.915000  0.812800  0.038800  1.0  0.0922
  C  C1246  1  0.875100  0.803600  0.064800  1.0  0.0212
  C  C1247  1  0.816100  0.825100  0.058620  1.0  0.611
  C  C1248  1  0.921300  0.868600  0.032440  1.0  -0.4194
  C  C1249  1  0.899200  0.777900  0.013590  1.0  -0.3847
  C  C1250  1  0.054400  0.793400  0.150850  1.0  0.1248
  C  C1251  1  0.019600  0.840200  0.157600  1.0  -0.0769
  C  C1252  1  0.000600  0.848100  0.188820  1.0  0.604
  C  C1253  1  0.027200  0.746400  0.160400  1.0  -0.407
  C  C1254  1  0.107600  0.801700  0.163000  1.0  -0.4282
  C  C1255  1  0.083300  0.962400  0.055640  1.0  -0.046
  C  C1256  1  0.126500  0.004500  0.058850  1.0  -0.0472
  C  C1257  1  0.101500  0.063200  0.062390  1.0  0.5781
  C  C1258  1  0.046300  0.973000  0.027390  1.0  -0.395
  C  C1259  1  0.044100  0.959300  0.081590  1.0  -0.3779
  C  C1260  1  0.277800  0.866300  0.982100  1.0  0.1057
  C  C1261  1  0.261600  0.918600  0.969010  1.0  -0.0231
  C  C1262  1  0.805800  0.559900  0.800770  1.0  0.5644
  C  C1263  1  0.327100  0.876300  0.001770  1.0  -0.4008
  C  C1264  1  0.286400  0.819800  0.962610  1.0  -0.4193
  C  C1265  1  0.287600  0.851300  0.102310  1.0  0.1342
  C  C1266  1  0.295500  0.849300  0.134600  1.0  0.0238
  C  C1267  1  0.349100  0.878400  0.142970  1.0  0.5448
  C  C1268  1  0.337000  0.834100  0.086450  1.0  -0.3936
  C  C1269  1  0.269600  0.907200  0.091100  1.0  -0.3956
  C  C1270  1  0.189600  0.628100  0.139090  1.0  0.0724
  C  C1271  1  0.251400  0.621900  0.148190  1.0  -0.0275
  C  C1272  1  0.258200  0.579100  0.172530  1.0  0.0788
  C  C1273  1  0.151800  0.643600  0.161670  1.0  -0.431
  C  C1274  1  0.174300  0.569400  0.128400  1.0  -0.3916
  C  C1275  1  0.939500  0.632500  0.809500  1.0  0.1043
  C  C1276  1  0.965400  0.649500  0.785000  1.0  -0.4272
  C  C1277  1  0.863200  0.045000  0.051250  1.0  0.0138
  C  C1278  1  0.840900  0.029700  0.082100  1.0  0.0234
  C  C1279  1  0.885500  0.004900  0.099710  1.0  0.1081
  C  C1280  1  0.898800  0.005300  0.038670  1.0  -0.3885
  C  C1281  1  0.895100  0.104200  0.055800  1.0  -0.3978
  C  C1282  1  0.619900  0.979000  0.031180  1.0  0.0846
  C  C1283  1  0.646400  0.926300  0.042910  1.0  -0.0356
  C  C1284  1  0.610600  0.898700  0.064950  1.0  0.1508
  C  C1285  1  0.597200  0.015200  0.054690  1.0  -0.4102
  C  C1286  1  0.579400  0.967600  0.007410  1.0  -0.4078
  C  C1287  1  0.670800  0.188300  0.065700  1.0  -0.0424
  C  C1288  1  0.689100  0.245900  0.075570  1.0  0.0134
  C  C1289  1  0.668000  0.249800  0.109190  1.0  0.4964
  C  C1290  1  0.607900  0.174800  0.066870  1.0  -0.4067
  C  C1291  1  0.702400  0.139900  0.078790  1.0  -0.4021
  C  C1292  1  0.672900  0.343900  0.963070  1.0  -0.1246
  C  C1293  1  0.626300  0.365200  0.979320  1.0  -0.0232
  C  C1294  1  0.616100  0.427900  0.979110  1.0  0.5988
  C  C1295  1  0.723400  0.373900  0.972100  1.0  -0.4018
  C  C1296  1  0.517900  0.156600  0.981060  1.0  0.135
  C  C1297  1  0.474600  0.152100  0.957700  1.0  0.0381
  C  C1298  1  0.415800  0.164100  0.968400  1.0  0.5862
  C  C1299  1  0.504800  0.119900  0.004980  1.0  -0.4217
  C  C1300  1  0.529700  0.217000  0.992460  1.0  -0.3955
  C  C1301  1  0.607000  0.976300  0.898700  1.0  0.1144
  C  C1302  1  0.552300  0.957400  0.910910  1.0  -0.0264
  C  C1303  1  0.584900  0.022700  0.142480  1.0  0.6193
  C  C1304  1  0.598100  0.998100  0.868200  1.0  -0.3877
  C  C1305  1  0.649700  0.933900  0.900160  1.0  -0.4091
  C  C1306  1  0.812800  0.915000  0.961200  1.0  0.0908
  C  C1307  1  0.803600  0.875100  0.935200  1.0  0.0183
  C  C1308  1  0.825100  0.816100  0.941380  1.0  0.6179
  C  C1309  1  0.868600  0.921300  0.967560  1.0  -0.4177
  C  C1310  1  0.777900  0.899200  0.986410  1.0  -0.3893
  C  C1311  1  0.793400  0.054400  0.849150  1.0  0.1256
  C  C1312  1  0.840200  0.019600  0.842400  1.0  -0.0782
  C  C1313  1  0.848100  0.000600  0.811180  1.0  0.6007
  C  C1314  1  0.746400  0.027200  0.839600  1.0  -0.4085
  C  C1315  1  0.801700  0.107600  0.837000  1.0  -0.4302
  C  C1316  1  0.962400  0.083300  0.944360  1.0  -0.0482
  C  C1317  1  0.004500  0.126500  0.941150  1.0  -0.0485
  C  C1318  1  0.063200  0.101500  0.937610  1.0  0.5844
  C  C1319  1  0.973000  0.046300  0.972610  1.0  -0.3955
  C  C1320  1  0.959300  0.044100  0.918410  1.0  -0.3769
  C  C1321  1  0.866300  0.277800  0.017900  1.0  0.1051
  C  C1322  1  0.918600  0.261600  0.030990  1.0  -0.0238
  C  C1323  1  0.559900  0.805800  0.199230  1.0  0.5645
  C  C1324  1  0.876300  0.327100  0.998230  1.0  -0.4018
  C  C1325  1  0.819800  0.286400  0.037390  1.0  -0.4201
  C  C1326  1  0.851300  0.287600  0.897690  1.0  0.1337
  C  C1327  1  0.849300  0.295500  0.865400  1.0  0.0221
  C  C1328  1  0.878400  0.349100  0.857030  1.0  0.5447
  C  C1329  1  0.834100  0.337000  0.913550  1.0  -0.3956
  C  C1330  1  0.907200  0.269600  0.908900  1.0  -0.3979
  C  C1331  1  0.628100  0.189600  0.860910  1.0  0.0742
  C  C1332  1  0.621900  0.251400  0.851810  1.0  -0.0261
  C  C1333  1  0.579100  0.258200  0.827470  1.0  0.0784
  C  C1334  1  0.643600  0.151800  0.838330  1.0  -0.4293
  C  C1335  1  0.569400  0.174300  0.871600  1.0  -0.3907
  C  C1336  1  0.632500  0.939500  0.190500  1.0  0.105
  C  C1337  1  0.649500  0.965400  0.215000  1.0  -0.4256
  C  C1338  1  0.136800  0.955000  0.551250  1.0  0.0175
  C  C1339  1  0.159100  0.970300  0.582100  1.0  0.0252
  C  C1340  1  0.114500  0.995100  0.599710  1.0  0.1059
  C  C1341  1  0.101200  0.994700  0.538670  1.0  -0.3878
  C  C1342  1  0.104900  0.895800  0.555800  1.0  -0.3967
  C  C1343  1  0.380100  0.021000  0.531180  1.0  0.0831
  C  C1344  1  0.353600  0.073700  0.542910  1.0  -0.0334
  C  C1345  1  0.389400  0.101300  0.564950  1.0  0.1466
  C  C1346  1  0.402800  0.984800  0.554690  1.0  -0.4105
  C  C1347  1  0.420600  0.032400  0.507410  1.0  -0.4088
  C  C1348  1  0.329200  0.811700  0.565700  1.0  -0.0399
  C  C1349  1  0.310900  0.754100  0.575570  1.0  0.0123
  C  C1350  1  0.332000  0.750200  0.609190  1.0  0.4927
  C  C1351  1  0.392100  0.825200  0.566870  1.0  -0.4062
  C  C1352  1  0.297600  0.860100  0.578790  1.0  -0.4021
  C  C1353  1  0.327100  0.656100  0.463070  1.0  -0.1253
  C  C1354  1  0.373700  0.634800  0.479320  1.0  -0.0237
  C  C1355  1  0.383900  0.572100  0.479110  1.0  0.5979
  C  C1356  1  0.276600  0.626100  0.472100  1.0  -0.4017
  C  C1357  1  0.482100  0.843400  0.481060  1.0  0.1348
  C  C1358  1  0.525400  0.847900  0.457700  1.0  0.0369
  C  C1359  1  0.584200  0.835900  0.468400  1.0  0.591
  C  C1360  1  0.495200  0.880100  0.504980  1.0  -0.422
  C  C1361  1  0.470300  0.783000  0.492460  1.0  -0.394
  C  C1362  1  0.393000  0.023700  0.398700  1.0  0.1151
  C  C1363  1  0.447700  0.042600  0.410910  1.0  -0.0259
  C  C1364  1  0.415100  0.977300  0.642480  1.0  0.6172
  C  C1365  1  0.401900  0.001900  0.368200  1.0  -0.3891
  C  C1366  1  0.350300  0.066100  0.400160  1.0  -0.408
  C  C1367  1  0.187200  0.085000  0.461200  1.0  0.0914
  C  C1368  1  0.196400  0.124900  0.435200  1.0  0.021
  C  C1369  1  0.174900  0.183900  0.441380  1.0  0.6194
  C  C1370  1  0.131400  0.078700  0.467560  1.0  -0.4184
  C  C1371  1  0.222100  0.100800  0.486410  1.0  -0.3879
  C  C1372  1  0.206600  0.945600  0.349150  1.0  0.125
  C  C1373  1  0.159800  0.980400  0.342400  1.0  -0.0794
  C  C1374  1  0.151900  0.999400  0.311180  1.0  0.602
  C  C1375  1  0.253600  0.972800  0.339600  1.0  -0.4069
  C  C1376  1  0.198300  0.892400  0.337000  1.0  -0.4278
  C  C1377  1  0.037600  0.916700  0.444360  1.0  -0.0463
  C  C1378  1  0.995500  0.873500  0.441150  1.0  -0.0488
  C  C1379  1  0.936800  0.898500  0.437610  1.0  0.5799
  C  C1380  1  0.027000  0.953700  0.472610  1.0  -0.3957
  C  C1381  1  0.040700  0.955900  0.418410  1.0  -0.3776
  C  C1382  1  0.133700  0.722200  0.517900  1.0  0.1026
  C  C1383  1  0.081400  0.738400  0.530990  1.0  -0.0239
  C  C1384  1  0.440100  0.194200  0.699230  1.0  0.5643
  C  C1385  1  0.123700  0.672900  0.498230  1.0  -0.4006
  C  C1386  1  0.180200  0.713600  0.537390  1.0  -0.4191
  C  C1387  1  0.148700  0.712400  0.397690  1.0  0.1337
  C  C1388  1  0.150700  0.704500  0.365400  1.0  0.0212
  C  C1389  1  0.121600  0.650900  0.357030  1.0  0.5452
  C  C1390  1  0.165900  0.663000  0.413550  1.0  -0.3951
  C  C1391  1  0.092800  0.730400  0.408900  1.0  -0.3973
  C  C1392  1  0.371900  0.810400  0.360910  1.0  0.0746
  C  C1393  1  0.378100  0.748600  0.351810  1.0  -0.0256
  C  C1394  1  0.420900  0.741800  0.327470  1.0  0.0788
  C  C1395  1  0.356400  0.848200  0.338330  1.0  -0.4283
  C  C1396  1  0.430600  0.825700  0.371600  1.0  -0.3881
  C  C1397  1  0.367500  0.060500  0.690500  1.0  0.1065
  C  C1398  1  0.350500  0.034600  0.715000  1.0  -0.4237
  C  C1399  1  0.545000  0.636800  0.801250  1.0  0.0189
  C  C1400  1  0.529700  0.659100  0.832100  1.0  0.0255
  C  C1401  1  0.504900  0.614500  0.849710  1.0  0.1076
  C  C1402  1  0.505300  0.601200  0.788670  1.0  -0.3883
  C  C1403  1  0.604200  0.604900  0.805800  1.0  -0.3969
  C  C1404  1  0.479000  0.880100  0.781180  1.0  0.0836
  C  C1405  1  0.426300  0.853600  0.792910  1.0  -0.0368
  C  C1406  1  0.398700  0.889400  0.814950  1.0  0.1472
  C  C1407  1  0.515200  0.902800  0.804690  1.0  -0.4109
  C  C1408  1  0.467600  0.920600  0.757410  1.0  -0.4089
  C  C1409  1  0.688300  0.829200  0.815700  1.0  -0.0404
  C  C1410  1  0.745900  0.810900  0.825570  1.0  0.0136
  C  C1411  1  0.749800  0.832000  0.859190  1.0  0.4891
  C  C1412  1  0.674800  0.892100  0.816870  1.0  -0.4065
  C  C1413  1  0.639900  0.797600  0.828790  1.0  -0.4
  C  C1414  1  0.843900  0.827100  0.713070  1.0  -0.1231
  C  C1415  1  0.865200  0.873700  0.729320  1.0  -0.025
  C  C1416  1  0.927900  0.883900  0.729110  1.0  0.5952
  C  C1417  1  0.873900  0.776600  0.722100  1.0  -0.4025
  C  C1418  1  0.656600  0.982100  0.731060  1.0  0.1346
  C  C1419  1  0.652100  0.025400  0.707700  1.0  0.0379
  C  C1420  1  0.664100  0.084200  0.718400  1.0  0.5875
  C  C1421  1  0.619900  0.995200  0.754980  1.0  -0.4201
  C  C1422  1  0.717000  0.970300  0.742460  1.0  -0.3965
  C  C1423  1  0.476300  0.893000  0.648700  1.0  0.1148
  C  C1424  1  0.457400  0.947700  0.660910  1.0  -0.0279
  C  C1425  1  0.522700  0.915100  0.892480  1.0  0.6153
  C  C1426  1  0.498100  0.901900  0.618200  1.0  -0.3885
  C  C1427  1  0.433900  0.850300  0.650160  1.0  -0.4102
  C  C1428  1  0.415000  0.687200  0.711200  1.0  0.0915
  C  C1429  1  0.375100  0.696400  0.685200  1.0  0.0203
  C  C1430  1  0.316100  0.674900  0.691380  1.0  0.6109
  C  C1431  1  0.421300  0.631400  0.717560  1.0  -0.419
  C  C1432  1  0.399200  0.722100  0.736410  1.0  -0.3844
  C  C1433  1  0.554400  0.706600  0.599150  1.0  0.1266
  C  C1434  1  0.519600  0.659800  0.592400  1.0  -0.0787
  C  C1435  1  0.500600  0.651900  0.561180  1.0  0.6063
  C  C1436  1  0.527200  0.753600  0.589600  1.0  -0.4044
  C  C1437  1  0.607600  0.698300  0.587000  1.0  -0.43
  C  C1438  1  0.583300  0.537600  0.694360  1.0  -0.0465
  C  C1439  1  0.626500  0.495500  0.691150  1.0  -0.0475
  C  C1440  1  0.601500  0.436800  0.687610  1.0  0.5775
  C  C1441  1  0.546300  0.527000  0.722610  1.0  -0.3955
  C  C1442  1  0.544100  0.540700  0.668410  1.0  -0.3774
  C  C1443  1  0.777800  0.633700  0.767900  1.0  0.105
  C  C1444  1  0.761600  0.581400  0.780990  1.0  -0.0234
  C  C1445  1  0.305800  0.940100  0.949230  1.0  0.5624
  C  C1446  1  0.827100  0.623700  0.748230  1.0  -0.4011
  C  C1447  1  0.786400  0.680200  0.787390  1.0  -0.4184
  C  C1448  1  0.787600  0.648700  0.647690  1.0  0.1341
  C  C1449  1  0.795500  0.650700  0.615400  1.0  0.0221
  C  C1450  1  0.849100  0.621600  0.607030  1.0  0.5461
  C  C1451  1  0.837000  0.665900  0.663550  1.0  -0.3932
  C  C1452  1  0.769600  0.592800  0.658900  1.0  -0.3964
  C  C1453  1  0.689600  0.871900  0.610910  1.0  0.0745
  C  C1454  1  0.751400  0.878100  0.601810  1.0  -0.0258
  C  C1455  1  0.758200  0.920900  0.577470  1.0  0.0781
  C  C1456  1  0.651800  0.856400  0.588330  1.0  -0.4308
  C  C1457  1  0.674300  0.930600  0.621600  1.0  -0.3908
  C  C1458  1  0.439500  0.867500  0.940500  1.0  0.1052
  C  C1459  1  0.465400  0.850500  0.965000  1.0  -0.4252
  C  C1460  1  0.455000  0.363200  0.301250  1.0  0.0141
  C  C1461  1  0.470300  0.340900  0.332100  1.0  0.0253
  C  C1462  1  0.495100  0.385500  0.349710  1.0  0.1063
  C  C1463  1  0.494700  0.398800  0.288670  1.0  -0.3876
  C  C1464  1  0.395800  0.395100  0.305800  1.0  -0.3983
  C  C1465  1  0.521000  0.119900  0.281180  1.0  0.0833
  C  C1466  1  0.573700  0.146400  0.292910  1.0  -0.035
  C  C1467  1  0.601300  0.110600  0.314950  1.0  0.1483
  C  C1468  1  0.484800  0.097200  0.304690  1.0  -0.4106
  C  C1469  1  0.532400  0.079400  0.257410  1.0  -0.4102
  C  C1470  1  0.311700  0.170800  0.315700  1.0  -0.0414
  C  C1471  1  0.254100  0.189100  0.325570  1.0  0.0141
  C  C1472  1  0.250200  0.168000  0.359190  1.0  0.4857
  C  C1473  1  0.325200  0.107900  0.316870  1.0  -0.4077
  C  C1474  1  0.360100  0.202400  0.328790  1.0  -0.3988
  C  C1475  1  0.156100  0.172900  0.213070  1.0  -0.1248
  C  C1476  1  0.134800  0.126300  0.229320  1.0  -0.0269
  C  C1477  1  0.072100  0.116100  0.229110  1.0  0.5948
  C  C1478  1  0.126100  0.223400  0.222100  1.0  -0.4012
  C  C1479  1  0.343400  0.017900  0.231060  1.0  0.1337
  C  C1480  1  0.347900  0.974600  0.207700  1.0  0.0334
  C  C1481  1  0.335900  0.915800  0.218400  1.0  0.5871
  C  C1482  1  0.380100  0.004800  0.254980  1.0  -0.4216
  C  C1483  1  0.283000  0.029700  0.242460  1.0  -0.3976
  C  C1484  1  0.523700  0.107000  0.148700  1.0  0.115
  C  C1485  1  0.542600  0.052300  0.160910  1.0  -0.0279
  C  C1486  1  0.477300  0.084900  0.392480  1.0  0.6138
  C  C1487  1  0.501900  0.098100  0.118200  1.0  -0.3885
  C  C1488  1  0.566100  0.149700  0.150160  1.0  -0.409
  C  C1489  1  0.585000  0.312800  0.211200  1.0  0.0913
  C  C1490  1  0.624900  0.303600  0.185200  1.0  0.0209
  C  C1491  1  0.683900  0.325100  0.191380  1.0  0.6168
  C  C1492  1  0.578700  0.368600  0.217560  1.0  -0.4186
  C  C1493  1  0.600800  0.277900  0.236410  1.0  -0.3857
  C  C1494  1  0.445600  0.293400  0.099150  1.0  0.1251
  C  C1495  1  0.480400  0.340200  0.092400  1.0  -0.0789
  C  C1496  1  0.499400  0.348100  0.061180  1.0  0.6057
  C  C1497  1  0.472800  0.246400  0.089600  1.0  -0.408
  C  C1498  1  0.392400  0.301700  0.087000  1.0  -0.4274
  C  C1499  1  0.416700  0.462400  0.194360  1.0  -0.0471
  C  C1500  1  0.373500  0.504500  0.191150  1.0  -0.0459
  C  C1501  1  0.398500  0.563200  0.187610  1.0  0.5787
  C  C1502  1  0.453700  0.473000  0.222610  1.0  -0.3973
  C  C1503  1  0.455900  0.459300  0.168410  1.0  -0.3782
  C  C1504  1  0.222200  0.366300  0.267900  1.0  0.1043
  C  C1505  1  0.238400  0.418600  0.280990  1.0  -0.0208
  C  C1506  1  0.694200  0.059900  0.449230  1.0  0.5617
  C  C1507  1  0.172900  0.376300  0.248230  1.0  -0.4012
  C  C1508  1  0.213600  0.319800  0.287390  1.0  -0.4191
  C  C1509  1  0.212400  0.351300  0.147690  1.0  0.1345
  C  C1510  1  0.204500  0.349300  0.115400  1.0  0.0228
  C  C1511  1  0.150900  0.378400  0.107030  1.0  0.5456
  C  C1512  1  0.163000  0.334100  0.163550  1.0  -0.3939
  C  C1513  1  0.230400  0.407200  0.158900  1.0  -0.3964
  C  C1514  1  0.310400  0.128100  0.110910  1.0  0.0749
  C  C1515  1  0.248600  0.121900  0.101810  1.0  -0.0286
  C  C1516  1  0.241800  0.079100  0.077470  1.0  0.0799
  C  C1517  1  0.348200  0.143600  0.088330  1.0  -0.4309
  C  C1518  1  0.325700  0.069400  0.121600  1.0  -0.391
  C  C1519  1  0.560500  0.132500  0.440500  1.0  0.1059
  C  C1520  1  0.534600  0.149500  0.465000  1.0  -0.4255
  S  S1521  1  0.696190  0.562700  0.221040  1.0  0.0314
  S  S1522  1  0.824660  0.515560  0.236590  1.0  0.0491
  S  S1523  1  0.811930  0.690260  0.222880  1.0  0.0447
  S  S1524  1  0.819850  0.772530  0.280750  1.0  0.0172
  S  S1525  1  0.920830  0.636890  0.286860  1.0  -0.0542
  S  S1526  1  0.873160  0.531980  0.327200  1.0  -0.0456
  S  S1527  1  0.713790  0.481000  0.302350  1.0  0.0434
  S  S1528  1  0.705940  0.562160  0.361590  1.0  0.0286
  S  S1529  1  0.602520  0.619260  0.298430  1.0  0.0201
  S  S1530  1  0.653560  0.719000  0.256160  1.0  0.0373
  S  S1531  1  0.695230  0.730730  0.343470  1.0  0.021
  S  S1532  1  0.825650  0.690050  0.359240  1.0  0.0124
  S  S1533  1  0.303810  0.437300  0.721040  1.0  0.0292
  S  S1534  1  0.175340  0.484440  0.736590  1.0  0.0476
  S  S1535  1  0.188070  0.309740  0.722880  1.0  0.0458
  S  S1536  1  0.180150  0.227470  0.780750  1.0  0.0199
  S  S1537  1  0.079170  0.363110  0.786860  1.0  -0.0534
  S  S1538  1  0.126840  0.468020  0.827200  1.0  -0.0452
  S  S1539  1  0.286210  0.519000  0.802350  1.0  0.0369
  S  S1540  1  0.294060  0.437840  0.861590  1.0  0.0297
  S  S1541  1  0.397480  0.380740  0.798430  1.0  0.0196
  S  S1542  1  0.346440  0.281000  0.756160  1.0  0.0436
  S  S1543  1  0.304770  0.269270  0.843470  1.0  0.0284
  S  S1544  1  0.174350  0.309950  0.859240  1.0  0.0121
  S  S1545  1  0.937300  0.196190  0.471040  1.0  0.0309
  S  S1546  1  0.984440  0.324660  0.486590  1.0  0.0474
  S  S1547  1  0.809740  0.311930  0.472880  1.0  0.0464
  S  S1548  1  0.727470  0.319850  0.530750  1.0  0.0184
  S  S1549  1  0.863110  0.420830  0.536860  1.0  -0.055
  S  S1550  1  0.968020  0.373160  0.577200  1.0  -0.0451
  S  S1551  1  0.019000  0.213790  0.552350  1.0  0.0381
  S  S1552  1  0.937840  0.205940  0.611590  1.0  0.0293
  S  S1553  1  0.880740  0.102520  0.548430  1.0  0.0197
  S  S1554  1  0.781000  0.153560  0.506160  1.0  0.0414
  S  S1555  1  0.769270  0.195230  0.593470  1.0  0.0249
  S  S1556  1  0.809950  0.325650  0.609240  1.0  0.0106
  S  S1557  1  0.062700  0.803810  0.971040  1.0  0.0272
  S  S1558  1  0.015560  0.675340  0.986590  1.0  0.0504
  S  S1559  1  0.190260  0.688070  0.972880  1.0  0.0433
  S  S1560  1  0.272530  0.680150  0.030750  1.0  0.0172
  S  S1561  1  0.136890  0.579170  0.036860  1.0  -0.0575
  S  S1562  1  0.031980  0.626840  0.077200  1.0  -0.0447
  S  S1563  1  0.981000  0.786210  0.052350  1.0  0.0361
  S  S1564  1  0.062160  0.794060  0.111590  1.0  0.0282
  S  S1565  1  0.119260  0.897480  0.048430  1.0  0.0168
  S  S1566  1  0.219000  0.846440  0.006160  1.0  0.0398
  S  S1567  1  0.230730  0.804770  0.093470  1.0  0.023
  S  S1568  1  0.190050  0.674350  0.109240  1.0  0.0115
  S  S1569  1  0.803810  0.062700  0.028960  1.0  0.031
  S  S1570  1  0.675340  0.015560  0.013410  1.0  0.0513
  S  S1571  1  0.688070  0.190260  0.027120  1.0  0.0462
  S  S1572  1  0.680150  0.272530  0.969250  1.0  0.0172
  S  S1573  1  0.579170  0.136890  0.963140  1.0  -0.053
  S  S1574  1  0.626840  0.031980  0.922800  1.0  -0.0454
  S  S1575  1  0.786210  0.981000  0.947650  1.0  0.0436
  S  S1576  1  0.794060  0.062160  0.888410  1.0  0.0266
  S  S1577  1  0.897480  0.119260  0.951570  1.0  0.0208
  S  S1578  1  0.846440  0.219000  0.993840  1.0  0.0379
  S  S1579  1  0.804770  0.230730  0.906530  1.0  0.0233
  S  S1580  1  0.674350  0.190050  0.890760  1.0  0.0136
  S  S1581  1  0.196190  0.937300  0.528960  1.0  0.0292
  S  S1582  1  0.324660  0.984440  0.513410  1.0  0.0476
  S  S1583  1  0.311930  0.809740  0.527120  1.0  0.0492
  S  S1584  1  0.319850  0.727470  0.469250  1.0  0.0205
  S  S1585  1  0.420830  0.863110  0.463140  1.0  -0.051
  S  S1586  1  0.373160  0.968020  0.422800  1.0  -0.0447
  S  S1587  1  0.213790  0.019000  0.447650  1.0  0.0371
  S  S1588  1  0.205940  0.937840  0.388410  1.0  0.0271
  S  S1589  1  0.102520  0.880740  0.451570  1.0  0.0199
  S  S1590  1  0.153560  0.781000  0.493840  1.0  0.0422
  S  S1591  1  0.195230  0.769270  0.406530  1.0  0.0278
  S  S1592  1  0.325650  0.809950  0.390760  1.0  0.0131
  S  S1593  1  0.562700  0.696190  0.778960  1.0  0.0317
  S  S1594  1  0.515560  0.824660  0.763410  1.0  0.0492
  S  S1595  1  0.690260  0.811930  0.777120  1.0  0.0494
  S  S1596  1  0.772530  0.819850  0.719250  1.0  0.0173
  S  S1597  1  0.636890  0.920830  0.713140  1.0  -0.053
  S  S1598  1  0.531980  0.873160  0.672800  1.0  -0.0434
  S  S1599  1  0.481000  0.713790  0.697650  1.0  0.0384
  S  S1600  1  0.562160  0.705940  0.638410  1.0  0.027
  S  S1601  1  0.619260  0.602520  0.701570  1.0  0.0212
  S  S1602  1  0.719000  0.653560  0.743840  1.0  0.0429
  S  S1603  1  0.730730  0.695230  0.656530  1.0  0.0276
  S  S1604  1  0.690050  0.825650  0.640760  1.0  0.0111
  S  S1605  1  0.437300  0.303810  0.278960  1.0  0.0271
  S  S1606  1  0.484440  0.175340  0.263410  1.0  0.0523
  S  S1607  1  0.309740  0.188070  0.277120  1.0  0.0457
  S  S1608  1  0.227470  0.180150  0.219250  1.0  0.0178
  S  S1609  1  0.363110  0.079170  0.213140  1.0  -0.0576
  S  S1610  1  0.468020  0.126840  0.172800  1.0  -0.0457
  S  S1611  1  0.519000  0.286210  0.197650  1.0  0.0346
  S  S1612  1  0.437840  0.294060  0.138410  1.0  0.0276
  S  S1613  1  0.380740  0.397480  0.201570  1.0  0.016
  S  S1614  1  0.281000  0.346440  0.243840  1.0  0.0373
  S  S1615  1  0.269270  0.304770  0.156530  1.0  0.0245
  S  S1616  1  0.309950  0.174350  0.140760  1.0  0.0125
  N  N1617  1  0.700800  0.489600  0.172870  1.0  -0.6312
  N  N1618  1  0.803900  0.439900  0.189480  1.0  -0.5996
  N  N1619  1  0.842300  0.788200  0.189830  1.0  -0.5951
  N  N1620  1  0.868600  0.847000  0.241140  1.0  -0.5833
  N  N1621  1  0.026800  0.599300  0.302990  1.0  -0.5836
  N  N1622  1  0.987200  0.504100  0.335720  1.0  -0.592
  N  N1623  1  0.668100  0.397100  0.339560  1.0  -0.6221
  N  N1624  1  0.656400  0.467600  0.388260  1.0  -0.6257
  N  N1625  1  0.495900  0.662700  0.282010  1.0  -0.6003
  N  N1626  1  0.542100  0.740700  0.240760  1.0  -0.6063
  N  N1627  1  0.707040  0.797200  0.393740  1.0  -0.5999
  N  N1628  1  0.819300  0.763900  0.404800  1.0  -0.5737
  N  N1629  1  0.299200  0.510400  0.672870  1.0  -0.6338
  N  N1630  1  0.196100  0.560100  0.689480  1.0  -0.5981
  N  N1631  1  0.157700  0.211800  0.689830  1.0  -0.596
  N  N1632  1  0.131400  0.153000  0.741140  1.0  -0.581
  N  N1633  1  0.973200  0.400700  0.802990  1.0  -0.5871
  N  N1634  1  0.012800  0.495900  0.835720  1.0  -0.5944
  N  N1635  1  0.331900  0.602900  0.839560  1.0  -0.6216
  N  N1636  1  0.343600  0.532400  0.888260  1.0  -0.6249
  N  N1637  1  0.504100  0.337300  0.782010  1.0  -0.5971
  N  N1638  1  0.457900  0.259300  0.740760  1.0  -0.6041
  N  N1639  1  0.292960  0.202800  0.893740  1.0  -0.5998
  N  N1640  1  0.180700  0.236100  0.904800  1.0  -0.5755
  N  N1641  1  0.010400  0.200800  0.422870  1.0  -0.6303
  N  N1642  1  0.060100  0.303900  0.439480  1.0  -0.5973
  N  N1643  1  0.711800  0.342300  0.439830  1.0  -0.5973
  N  N1644  1  0.653000  0.368600  0.491140  1.0  -0.5813
  N  N1645  1  0.900700  0.526800  0.552990  1.0  -0.5833
  N  N1646  1  0.995900  0.487200  0.585720  1.0  -0.5942
  N  N1647  1  0.102900  0.168100  0.589560  1.0  -0.6218
  N  N1648  1  0.032400  0.156400  0.638260  1.0  -0.6231
  N  N1649  1  0.837300  0.995900  0.532010  1.0  -0.6001
  N  N1650  1  0.759300  0.042100  0.490760  1.0  -0.606
  N  N1651  1  0.702800  0.207040  0.643740  1.0  -0.5994
  N  N1652  1  0.736100  0.319300  0.654800  1.0  -0.5757
  N  N1653  1  0.989600  0.799200  0.922870  1.0  -0.6337
  N  N1654  1  0.939900  0.696100  0.939480  1.0  -0.5944
  N  N1655  1  0.288200  0.657700  0.939830  1.0  -0.5954
  N  N1656  1  0.347000  0.631400  0.991140  1.0  -0.5819
  N  N1657  1  0.099300  0.473200  0.052990  1.0  -0.5831
  N  N1658  1  0.004100  0.512800  0.085720  1.0  -0.5949
  N  N1659  1  0.897100  0.831900  0.089560  1.0  -0.6205
  N  N1660  1  0.967600  0.843600  0.138260  1.0  -0.6262
  N  N1661  1  0.162700  0.004100  0.032010  1.0  -0.6001
  N  N1662  1  0.240700  0.957900  0.990760  1.0  -0.6054
  N  N1663  1  0.297200  0.792960  0.143740  1.0  -0.5977
  N  N1664  1  0.263900  0.680700  0.154800  1.0  -0.5755
  N  N1665  1  0.799200  0.989600  0.077130  1.0  -0.6331
  N  N1666  1  0.696100  0.939900  0.060520  1.0  -0.5969
  N  N1667  1  0.657700  0.288200  0.060170  1.0  -0.5974
  N  N1668  1  0.631400  0.347000  0.008860  1.0  -0.5841
  N  N1669  1  0.473200  0.099300  0.947010  1.0  -0.5866
  N  N1670  1  0.512800  0.004100  0.914280  1.0  -0.5949
  N  N1671  1  0.831900  0.897100  0.910440  1.0  -0.621
  N  N1672  1  0.843600  0.967600  0.861740  1.0  -0.6239
  N  N1673  1  0.004100  0.162700  0.967990  1.0  -0.5955
  N  N1674  1  0.957900  0.240700  0.009240  1.0  -0.6034
  N  N1675  1  0.792960  0.297200  0.856260  1.0  -0.5982
  N  N1676  1  0.680700  0.263900  0.845200  1.0  -0.5727
  N  N1677  1  0.200800  0.010400  0.577130  1.0  -0.6318
  N  N1678  1  0.303900  0.060100  0.560520  1.0  -0.5946
  N  N1679  1  0.342300  0.711800  0.560170  1.0  -0.5963
  N  N1680  1  0.368600  0.653000  0.508860  1.0  -0.5842
  N  N1681  1  0.526800  0.900700  0.447010  1.0  -0.5848
  N  N1682  1  0.487200  0.995900  0.414280  1.0  -0.5912
  N  N1683  1  0.168100  0.102900  0.410440  1.0  -0.6212
  N  N1684  1  0.156400  0.032400  0.361740  1.0  -0.6247
  N  N1685  1  0.995900  0.837300  0.467990  1.0  -0.5997
  N  N1686  1  0.042100  0.759300  0.509240  1.0  -0.6056
  N  N1687  1  0.207040  0.702800  0.356260  1.0  -0.5997
  N  N1688  1  0.319300  0.736100  0.345200  1.0  -0.5741
  N  N1689  1  0.489600  0.700800  0.827130  1.0  -0.6336
  N  N1690  1  0.439900  0.803900  0.810520  1.0  -0.5952
  N  N1691  1  0.788200  0.842300  0.810170  1.0  -0.5981
  N  N1692  1  0.847000  0.868600  0.758860  1.0  -0.5841
  N  N1693  1  0.599300  0.026800  0.697010  1.0  -0.5834
  N  N1694  1  0.504100  0.987200  0.664280  1.0  -0.5926
  N  N1695  1  0.397100  0.668100  0.660440  1.0  -0.6191
  N  N1696  1  0.467600  0.656400  0.611740  1.0  -0.6254
  N  N1697  1  0.662700  0.495900  0.717990  1.0  -0.5983
  N  N1698  1  0.740700  0.542100  0.759240  1.0  -0.6052
  N  N1699  1  0.797200  0.707040  0.606260  1.0  -0.5991
  N  N1700  1  0.763900  0.819300  0.595200  1.0  -0.5734
  N  N1701  1  0.510400  0.299200  0.327130  1.0  -0.6312
  N  N1702  1  0.560100  0.196100  0.310520  1.0  -0.5917
  N  N1703  1  0.211800  0.157700  0.310170  1.0  -0.5978
  N  N1704  1  0.153000  0.131400  0.258860  1.0  -0.5845
  N  N1705  1  0.400700  0.973200  0.197010  1.0  -0.584
  N  N1706  1  0.495900  0.012800  0.164280  1.0  -0.5949
  N  N1707  1  0.602900  0.331900  0.160440  1.0  -0.6208
  N  N1708  1  0.532400  0.343600  0.111740  1.0  -0.6232
  N  N1709  1  0.337300  0.504100  0.217990  1.0  -0.5999
  N  N1710  1  0.259300  0.457900  0.259240  1.0  -0.6056
  N  N1711  1  0.202800  0.292960  0.106260  1.0  -0.5984
  N  N1712  1  0.236100  0.180700  0.095200  1.0  -0.573
  O  O1713  1  0.607400  0.462600  0.147040  1.0  -0.4788
  O  O1714  1  0.588500  0.541300  0.135660  1.0  -0.5648
  O  O1715  1  0.882730  0.395000  0.161290  1.0  -0.6221
  O  O1716  1  0.935400  0.374500  0.201020  1.0  -0.659
  O  O1717  1  0.869100  0.773500  0.135800  1.0  -0.5327
  O  O1718  1  0.798400  0.729000  0.124160  1.0  -0.5615
  O  O1719  1  0.859100  0.954600  0.252340  1.0  -0.6789
  O  O1720  1  0.901800  0.950200  0.292870  1.0  -0.6307
  O  O1721  1  0.114250  0.627400  0.272580  1.0  -0.651
  O  O1722  1  0.101100  0.710900  0.278940  1.0  -0.5924
  O  O1723  1  0.925560  0.480330  0.120140  1.0  -0.663
  O  O1724  1  0.868820  0.545340  0.106470  1.0  -0.5767
  O  O1725  1  0.632380  0.301520  0.316960  1.0  -0.5411
  O  O1726  1  0.710000  0.289150  0.294830  1.0  -0.6236
  O  O1727  1  0.671700  0.452200  0.445180  1.0  -0.6581
  O  O1728  1  0.636100  0.532200  0.456520  1.0  -0.4997
  O  O1729  1  0.409100  0.591400  0.293150  1.0  -0.4969
  O  O1730  1  0.425000  0.592100  0.340000  1.0  -0.5698
  O  O1731  1  0.987000  0.330040  0.041930  1.0  -0.5918
  O  O1732  1  0.918730  0.314310  0.072580  1.0  -0.6403
  O  O1733  1  0.645900  0.890420  0.396900  1.0  -0.5055
  O  O1734  1  0.566200  0.843600  0.393530  1.0  -0.5997
  O  O1735  1  0.893800  0.766200  0.447270  1.0  -0.7747
  O  O1736  1  0.962300  0.755700  0.421940  1.0  -0.6997
  O  O1737  1  0.913000  0.435900  0.062870  1.0  -0.6574
  O  O1738  1  0.837100  0.416000  0.080090  1.0  -0.6943
  O  O1739  1  0.787800  0.713200  0.546200  1.0  -0.7545
  O  O1740  1  0.392600  0.537400  0.647040  1.0  -0.4817
  O  O1741  1  0.411500  0.458700  0.635660  1.0  -0.5595
  O  O1742  1  0.117270  0.605000  0.661290  1.0  -0.6218
  O  O1743  1  0.064600  0.625500  0.701020  1.0  -0.6553
  O  O1744  1  0.130900  0.226500  0.635800  1.0  -0.5302
  O  O1745  1  0.201600  0.271000  0.624160  1.0  -0.5587
  O  O1746  1  0.140900  0.045400  0.752340  1.0  -0.6797
  O  O1747  1  0.098200  0.049800  0.792870  1.0  -0.6332
  O  O1748  1  0.885750  0.372600  0.772580  1.0  -0.6504
  O  O1749  1  0.898900  0.289100  0.778940  1.0  -0.5937
  O  O1750  1  0.074440  0.519670  0.620140  1.0  -0.6633
  O  O1751  1  0.131180  0.454660  0.606470  1.0  -0.5735
  O  O1752  1  0.367620  0.698480  0.816960  1.0  -0.5409
  O  O1753  1  0.290000  0.710850  0.794830  1.0  -0.6239
  O  O1754  1  0.328300  0.547800  0.945180  1.0  -0.66
  O  O1755  1  0.363900  0.467800  0.956520  1.0  -0.501
  O  O1756  1  0.590900  0.408600  0.793150  1.0  -0.495
  O  O1757  1  0.575000  0.407900  0.840000  1.0  -0.5703
  O  O1758  1  0.013000  0.669960  0.541930  1.0  -0.5904
  O  O1759  1  0.081270  0.685690  0.572580  1.0  -0.6398
  O  O1760  1  0.354100  0.109580  0.896900  1.0  -0.5054
  O  O1761  1  0.433800  0.156400  0.893530  1.0  -0.6008
  O  O1762  1  0.106200  0.233800  0.947270  1.0  -0.7732
  O  O1763  1  0.037700  0.244300  0.921940  1.0  -0.7012
  O  O1764  1  0.087000  0.564100  0.562870  1.0  -0.6579
  O  O1765  1  0.162900  0.584000  0.580090  1.0  -0.6987
  O  O1766  1  0.212200  0.286800  0.046200  1.0  -0.7547
  O  O1767  1  0.037400  0.107400  0.397040  1.0  -0.4857
  O  O1768  1  0.958700  0.088500  0.385660  1.0  -0.5658
  O  O1769  1  0.105000  0.382730  0.411290  1.0  -0.6221
  O  O1770  1  0.125500  0.435400  0.451020  1.0  -0.6579
  O  O1771  1  0.726500  0.369100  0.385800  1.0  -0.5311
  O  O1772  1  0.771000  0.298400  0.374160  1.0  -0.5606
  O  O1773  1  0.545400  0.359100  0.502340  1.0  -0.683
  O  O1774  1  0.549800  0.401800  0.542870  1.0  -0.6321
  O  O1775  1  0.872600  0.614250  0.522580  1.0  -0.6475
  O  O1776  1  0.789100  0.601100  0.528940  1.0  -0.5907
  O  O1777  1  0.019670  0.425560  0.370140  1.0  -0.6666
  O  O1778  1  0.954660  0.368820  0.356470  1.0  -0.5876
  O  O1779  1  0.198480  0.132380  0.566960  1.0  -0.5401
  O  O1780  1  0.210850  0.210000  0.544830  1.0  -0.6166
  O  O1781  1  0.047800  0.171700  0.695180  1.0  -0.6623
  O  O1782  1  0.967800  0.136100  0.706520  1.0  -0.5008
  O  O1783  1  0.908600  0.909100  0.543150  1.0  -0.4983
  O  O1784  1  0.907900  0.925000  0.590000  1.0  -0.5697
  O  O1785  1  0.169960  0.487000  0.291930  1.0  -0.5974
  O  O1786  1  0.185690  0.418730  0.322580  1.0  -0.6398
  O  O1787  1  0.609580  0.145900  0.646900  1.0  -0.5057
  O  O1788  1  0.656400  0.066200  0.643530  1.0  -0.6
  O  O1789  1  0.733800  0.393800  0.697270  1.0  -0.7755
  O  O1790  1  0.744300  0.462300  0.671940  1.0  -0.6992
  O  O1791  1  0.064100  0.413000  0.312870  1.0  -0.6579
  O  O1792  1  0.084000  0.337100  0.330090  1.0  -0.6934
  O  O1793  1  0.786800  0.287800  0.796200  1.0  -0.7555
  O  O1794  1  0.962600  0.892600  0.897040  1.0  -0.4842
  O  O1795  1  0.041300  0.911500  0.885660  1.0  -0.563
  O  O1796  1  0.895000  0.617270  0.911290  1.0  -0.621
  O  O1797  1  0.874500  0.564600  0.951020  1.0  -0.6561
  O  O1798  1  0.273500  0.630900  0.885800  1.0  -0.5314
  O  O1799  1  0.229000  0.701600  0.874160  1.0  -0.5618
  O  O1800  1  0.454600  0.640900  0.002340  1.0  -0.6817
  O  O1801  1  0.450200  0.598200  0.042870  1.0  -0.633
  O  O1802  1  0.127400  0.385750  0.022580  1.0  -0.648
  O  O1803  1  0.210900  0.398900  0.028940  1.0  -0.5862
  O  O1804  1  0.980330  0.574440  0.870140  1.0  -0.6656
  O  O1805  1  0.045340  0.631180  0.856470  1.0  -0.5855
  O  O1806  1  0.801520  0.867620  0.066960  1.0  -0.5413
  O  O1807  1  0.789150  0.790000  0.044830  1.0  -0.6153
  O  O1808  1  0.952200  0.828300  0.195180  1.0  -0.662
  O  O1809  1  0.032200  0.863900  0.206520  1.0  -0.5015
  O  O1810  1  0.091400  0.090900  0.043150  1.0  -0.4959
  O  O1811  1  0.092100  0.075000  0.090000  1.0  -0.5704
  O  O1812  1  0.830040  0.513000  0.791930  1.0  -0.5977
  O  O1813  1  0.814310  0.581270  0.822580  1.0  -0.6396
  O  O1814  1  0.390420  0.854100  0.146900  1.0  -0.5031
  O  O1815  1  0.343600  0.933800  0.143530  1.0  -0.6003
  O  O1816  1  0.266200  0.606200  0.197270  1.0  -0.7748
  O  O1817  1  0.255700  0.537700  0.171940  1.0  -0.6983
  O  O1818  1  0.935900  0.587000  0.812870  1.0  -0.6574
  O  O1819  1  0.916000  0.662900  0.830090  1.0  -0.6948
  O  O1820  1  0.213200  0.712200  0.296200  1.0  -0.755
  O  O1821  1  0.892600  0.962600  0.102960  1.0  -0.4777
  O  O1822  1  0.911500  0.041300  0.114340  1.0  -0.5645
  O  O1823  1  0.617270  0.895000  0.088710  1.0  -0.6245
  O  O1824  1  0.564600  0.874500  0.048980  1.0  -0.6581
  O  O1825  1  0.630900  0.273500  0.114200  1.0  -0.5311
  O  O1826  1  0.701600  0.229000  0.125840  1.0  -0.5593
  O  O1827  1  0.640900  0.454600  0.997660  1.0  -0.6807
  O  O1828  1  0.598200  0.450200  0.957130  1.0  -0.6334
  O  O1829  1  0.385750  0.127400  0.977420  1.0  -0.6503
  O  O1830  1  0.398900  0.210900  0.971060  1.0  -0.5925
  O  O1831  1  0.574440  0.980330  0.129860  1.0  -0.6632
  O  O1832  1  0.631180  0.045340  0.143530  1.0  -0.5749
  O  O1833  1  0.867620  0.801520  0.933040  1.0  -0.5415
  O  O1834  1  0.790000  0.789150  0.955170  1.0  -0.6214
  O  O1835  1  0.828300  0.952200  0.804820  1.0  -0.6586
  O  O1836  1  0.863900  0.032200  0.793480  1.0  -0.4994
  O  O1837  1  0.090900  0.091400  0.956850  1.0  -0.4966
  O  O1838  1  0.075000  0.092100  0.910000  1.0  -0.5705
  O  O1839  1  0.513000  0.830040  0.208070  1.0  -0.5924
  O  O1840  1  0.581270  0.814310  0.177420  1.0  -0.6423
  O  O1841  1  0.854100  0.390420  0.853100  1.0  -0.5071
  O  O1842  1  0.933800  0.343600  0.856470  1.0  -0.5993
  O  O1843  1  0.606200  0.266200  0.802730  1.0  -0.7724
  O  O1844  1  0.537700  0.255700  0.828060  1.0  -0.7026
  O  O1845  1  0.587000  0.935900  0.187130  1.0  -0.658
  O  O1846  1  0.662900  0.916000  0.169910  1.0  -0.6978
  O  O1847  1  0.712200  0.213200  0.703800  1.0  -0.754
  O  O1848  1  0.107400  0.037400  0.602960  1.0  -0.4804
  O  O1849  1  0.088500  0.958700  0.614340  1.0  -0.5645
  O  O1850  1  0.382730  0.105000  0.588710  1.0  -0.6236
  O  O1851  1  0.435400  0.125500  0.548980  1.0  -0.6591
  O  O1852  1  0.369100  0.726500  0.614200  1.0  -0.5331
  O  O1853  1  0.298400  0.771000  0.625840  1.0  -0.5589
  O  O1854  1  0.359100  0.545400  0.497660  1.0  -0.6813
  O  O1855  1  0.401800  0.549800  0.457130  1.0  -0.6306
  O  O1856  1  0.614250  0.872600  0.477420  1.0  -0.6508
  O  O1857  1  0.601100  0.789100  0.471060  1.0  -0.5922
  O  O1858  1  0.425560  0.019670  0.629860  1.0  -0.6635
  O  O1859  1  0.368820  0.954660  0.643530  1.0  -0.5769
  O  O1860  1  0.132380  0.198480  0.433040  1.0  -0.5416
  O  O1861  1  0.210000  0.210850  0.455170  1.0  -0.6234
  O  O1862  1  0.171700  0.047800  0.304820  1.0  -0.6574
  O  O1863  1  0.136100  0.967800  0.293480  1.0  -0.5009
  O  O1864  1  0.909100  0.908600  0.456850  1.0  -0.4984
  O  O1865  1  0.925000  0.907900  0.410000  1.0  -0.5723
  O  O1866  1  0.487000  0.169960  0.708070  1.0  -0.5923
  O  O1867  1  0.418730  0.185690  0.677420  1.0  -0.64
  O  O1868  1  0.145900  0.609580  0.353100  1.0  -0.506
  O  O1869  1  0.066200  0.656400  0.356470  1.0  -0.5987
  O  O1870  1  0.393800  0.733800  0.302730  1.0  -0.7738
  O  O1871  1  0.462300  0.744300  0.328060  1.0  -0.701
  O  O1872  1  0.413000  0.064100  0.687130  1.0  -0.6573
  O  O1873  1  0.337100  0.084000  0.669910  1.0  -0.6947
  O  O1874  1  0.287800  0.786800  0.203800  1.0  -0.7543
  O  O1875  1  0.462600  0.607400  0.852960  1.0  -0.4838
  O  O1876  1  0.541300  0.588500  0.864340  1.0  -0.5693
  O  O1877  1  0.395000  0.882730  0.838710  1.0  -0.6233
  O  O1878  1  0.374500  0.935400  0.798980  1.0  -0.6567
  O  O1879  1  0.773500  0.869100  0.864200  1.0  -0.5314
  O  O1880  1  0.729000  0.798400  0.875840  1.0  -0.5623
  O  O1881  1  0.954600  0.859100  0.747660  1.0  -0.6838
  O  O1882  1  0.950200  0.901800  0.707130  1.0  -0.6334
  O  O1883  1  0.627400  0.114250  0.727420  1.0  -0.6468
  O  O1884  1  0.710900  0.101100  0.721060  1.0  -0.5882
  O  O1885  1  0.480330  0.925560  0.879860  1.0  -0.666
  O  O1886  1  0.545340  0.868820  0.893530  1.0  -0.5865
  O  O1887  1  0.301520  0.632380  0.683040  1.0  -0.5403
  O  O1888  1  0.289150  0.710000  0.705170  1.0  -0.6178
  O  O1889  1  0.452200  0.671700  0.554820  1.0  -0.6625
  O  O1890  1  0.532200  0.636100  0.543480  1.0  -0.4984
  O  O1891  1  0.591400  0.409100  0.706850  1.0  -0.4994
  O  O1892  1  0.592100  0.425000  0.660000  1.0  -0.5694
  O  O1893  1  0.330040  0.987000  0.958070  1.0  -0.5989
  O  O1894  1  0.314310  0.918730  0.927420  1.0  -0.6423
  O  O1895  1  0.890420  0.645900  0.603100  1.0  -0.5045
  O  O1896  1  0.843600  0.566200  0.606470  1.0  -0.5983
  O  O1897  1  0.766200  0.893800  0.552730  1.0  -0.775
  O  O1898  1  0.755700  0.962300  0.578060  1.0  -0.7001
  O  O1899  1  0.435900  0.913000  0.937130  1.0  -0.6582
  O  O1900  1  0.416000  0.837100  0.919910  1.0  -0.6924
  O  O1901  1  0.713200  0.787800  0.453800  1.0  -0.7538
  O  O1902  1  0.537400  0.392600  0.352960  1.0  -0.4833
  O  O1903  1  0.458700  0.411500  0.364340  1.0  -0.5663
  O  O1904  1  0.605000  0.117270  0.338710  1.0  -0.624
  O  O1905  1  0.625500  0.064600  0.298980  1.0  -0.658
  O  O1906  1  0.226500  0.130900  0.364200  1.0  -0.5328
  O  O1907  1  0.271000  0.201600  0.375840  1.0  -0.5592
  O  O1908  1  0.045400  0.140900  0.247660  1.0  -0.6829
  O  O1909  1  0.049800  0.098200  0.207130  1.0  -0.6324
  O  O1910  1  0.372600  0.885750  0.227420  1.0  -0.6481
  O  O1911  1  0.289100  0.898900  0.221060  1.0  -0.5885
  O  O1912  1  0.519670  0.074440  0.379860  1.0  -0.6649
  O  O1913  1  0.454660  0.131180  0.393530  1.0  -0.585
  O  O1914  1  0.698480  0.367620  0.183040  1.0  -0.5414
  O  O1915  1  0.710850  0.290000  0.205170  1.0  -0.6158
  O  O1916  1  0.547800  0.328300  0.054820  1.0  -0.6602
  O  O1917  1  0.467800  0.363900  0.043480  1.0  -0.5024
  O  O1918  1  0.408600  0.590900  0.206850  1.0  -0.4968
  O  O1919  1  0.407900  0.575000  0.160000  1.0  -0.5724
  O  O1920  1  0.669960  0.013000  0.458070  1.0  -0.5971
  O  O1921  1  0.685690  0.081270  0.427420  1.0  -0.6393
  O  O1922  1  0.109580  0.354100  0.103100  1.0  -0.506
  O  O1923  1  0.156400  0.433800  0.106470  1.0  -0.5996
  O  O1924  1  0.233800  0.106200  0.052730  1.0  -0.7736
  O  O1925  1  0.244300  0.037700  0.078060  1.0  -0.6999
  O  O1926  1  0.564100  0.087000  0.437130  1.0  -0.6573
  O  O1927  1  0.584000  0.162900  0.419910  1.0  -0.6958
  O  O1928  1  0.286800  0.212200  0.953800  1.0  -0.7544
  O  O1929  1  0.959400  0.040600  0.250000  1.0  -0.8743
  O  O1930  1  0.040600  0.959400  0.750000  1.0  -0.8747
  O  O1931  1  0.459400  0.459400  0.500000  1.0  -0.8747
  O  O1932  1  0.540600  0.540600  0.000000  1.0  -0.8743
