# generated using pymatgen
data_La4Ag8H111Pd6C62S12Br(N3O7)4
_symmetry_space_group_name_H-M   'P 1'
_cell_length_a   24.84460000
_cell_length_b   24.84460000
_cell_length_c   47.24090000
_cell_angle_alpha   90.00000000
_cell_angle_beta   90.00000000
_cell_angle_gamma   90.00000000
_symmetry_Int_Tables_number   1
_chemical_formula_structural   La4Ag8H111Pd6C62S12Br(N3O7)4
_chemical_formula_sum   'La32 Ag64 H888 Pd48 C496 S96 Br8 N96 O224'
_cell_volume   29159.64153505
_cell_formula_units_Z   8
loop_
 _symmetry_equiv_pos_site_id
 _symmetry_equiv_pos_as_xyz
  1  'x, y, z'
loop_
 _atom_site_type_symbol
 _atom_site_label
 _atom_site_symmetry_multiplicity
 _atom_site_fract_x
 _atom_site_fract_y
 _atom_site_fract_z
 _atom_site_occupancy
 _atom_site_charge
  La  La1  1  0.923370  0.377380  0.112760  1.0  2.1534
  La  La2  1  0.840610  0.774510  0.489700  1.0  1.7074
  La  La3  1  0.890850  0.047520  0.271270  1.0  2.0028
  La  La4  1  0.933220  0.030060  0.291730  1.0  1.8947
  La  La5  1  0.076630  0.622620  0.612760  1.0  2.1538
  La  La6  1  0.159390  0.225490  0.989700  1.0  1.707
  La  La7  1  0.109150  0.952480  0.771270  1.0  2.0006
  La  La8  1  0.066780  0.969940  0.791730  1.0  1.9016
  La  La9  1  0.122620  0.423370  0.362760  1.0  2.1522
  La  La10  1  0.725490  0.340610  0.739700  1.0  1.7069
  La  La11  1  0.452480  0.390850  0.521270  1.0  1.9894
  La  La12  1  0.469940  0.433220  0.541730  1.0  1.8919
  La  La13  1  0.877380  0.576630  0.862760  1.0  2.1532
  La  La14  1  0.274510  0.659390  0.239700  1.0  1.7083
  La  La15  1  0.547520  0.609150  0.021270  1.0  1.9873
  La  La16  1  0.530060  0.566780  0.041730  1.0  1.8909
  La  La17  1  0.576630  0.877380  0.137240  1.0  2.1525
  La  La18  1  0.659390  0.274510  0.760300  1.0  1.706
  La  La19  1  0.609150  0.547520  0.978730  1.0  1.9987
  La  La20  1  0.566780  0.530060  0.958270  1.0  1.9169
  La  La21  1  0.423370  0.122620  0.637240  1.0  2.1527
  La  La22  1  0.340610  0.725490  0.260300  1.0  1.7072
  La  La23  1  0.390850  0.452480  0.478730  1.0  2.0026
  La  La24  1  0.433220  0.469940  0.458270  1.0  1.9101
  La  La25  1  0.377380  0.923370  0.887240  1.0  2.1521
  La  La26  1  0.774510  0.840610  0.510300  1.0  1.7069
  La  La27  1  0.047520  0.890850  0.728730  1.0  1.9851
  La  La28  1  0.030060  0.933220  0.708270  1.0  1.909
  La  La29  1  0.622620  0.076630  0.387240  1.0  2.1515
  La  La30  1  0.225490  0.159390  0.010300  1.0  1.7061
  La  La31  1  0.952480  0.109150  0.228730  1.0  1.9889
  La  La32  1  0.969940  0.066780  0.208270  1.0  1.9028
  Ag  Ag33  1  0.717200  0.655500  0.227890  1.0  0.2084
  Ag  Ag34  1  0.850820  0.609590  0.248730  1.0  0.3367
  Ag  Ag35  1  0.814540  0.497030  0.286830  1.0  0.3211
  Ag  Ag36  1  0.675370  0.556430  0.272390  1.0  0.3041
  Ag  Ag37  1  0.728630  0.735800  0.289250  1.0  0.302
  Ag  Ag38  1  0.875060  0.715230  0.310080  1.0  0.1466
  Ag  Ag39  1  0.802430  0.592220  0.344060  1.0  0.3729
  Ag  Ag40  1  0.653430  0.639790  0.343650  1.0  -0.0047
  Ag  Ag41  1  0.282800  0.344500  0.727890  1.0  0.2097
  Ag  Ag42  1  0.149180  0.390410  0.748730  1.0  0.3373
  Ag  Ag43  1  0.185460  0.502970  0.786830  1.0  0.3204
  Ag  Ag44  1  0.324630  0.443570  0.772390  1.0  0.3017
  Ag  Ag45  1  0.271370  0.264200  0.789250  1.0  0.3058
  Ag  Ag46  1  0.124940  0.284770  0.810080  1.0  0.1471
  Ag  Ag47  1  0.197570  0.407780  0.844060  1.0  0.3718
  Ag  Ag48  1  0.346570  0.360210  0.843650  1.0  -0.0033
  Ag  Ag49  1  0.844500  0.217200  0.477890  1.0  0.2079
  Ag  Ag50  1  0.890410  0.350820  0.498730  1.0  0.3349
  Ag  Ag51  1  0.002970  0.314540  0.536830  1.0  0.3193
  Ag  Ag52  1  0.943570  0.175370  0.522390  1.0  0.3032
  Ag  Ag53  1  0.764200  0.228630  0.539250  1.0  0.3062
  Ag  Ag54  1  0.784770  0.375060  0.560080  1.0  0.1476
  Ag  Ag55  1  0.907780  0.302430  0.594060  1.0  0.3723
  Ag  Ag56  1  0.860210  0.153430  0.593650  1.0  -0.002
  Ag  Ag57  1  0.155500  0.782800  0.977890  1.0  0.207
  Ag  Ag58  1  0.109590  0.649180  0.998730  1.0  0.3367
  Ag  Ag59  1  0.997030  0.685460  0.036830  1.0  0.3193
  Ag  Ag60  1  0.056430  0.824630  0.022390  1.0  0.3024
  Ag  Ag61  1  0.235800  0.771370  0.039250  1.0  0.3053
  Ag  Ag62  1  0.215230  0.624940  0.060080  1.0  0.1484
  Ag  Ag63  1  0.092220  0.697570  0.094060  1.0  0.3716
  Ag  Ag64  1  0.139790  0.846570  0.093650  1.0  -0.0031
  Ag  Ag65  1  0.782800  0.155500  0.022110  1.0  0.2047
  Ag  Ag66  1  0.649180  0.109590  0.001270  1.0  0.3298
  Ag  Ag67  1  0.685460  0.997030  0.963170  1.0  0.322
  Ag  Ag68  1  0.824630  0.056430  0.977610  1.0  0.303
  Ag  Ag69  1  0.771370  0.235800  0.960750  1.0  0.3021
  Ag  Ag70  1  0.624940  0.215230  0.939920  1.0  0.1458
  Ag  Ag71  1  0.697570  0.092220  0.905940  1.0  0.3779
  Ag  Ag72  1  0.846570  0.139790  0.906350  1.0  -0.003
  Ag  Ag73  1  0.217200  0.844500  0.522110  1.0  0.2051
  Ag  Ag74  1  0.350820  0.890410  0.501270  1.0  0.3292
  Ag  Ag75  1  0.314540  0.002970  0.463170  1.0  0.3201
  Ag  Ag76  1  0.175370  0.943570  0.477610  1.0  0.3028
  Ag  Ag77  1  0.228630  0.764200  0.460750  1.0  0.3063
  Ag  Ag78  1  0.375060  0.784770  0.439920  1.0  0.1474
  Ag  Ag79  1  0.302430  0.907780  0.405940  1.0  0.3761
  Ag  Ag80  1  0.153430  0.860210  0.406350  1.0  -0.005
  Ag  Ag81  1  0.655500  0.717200  0.772110  1.0  0.2037
  Ag  Ag82  1  0.609590  0.850820  0.751270  1.0  0.3256
  Ag  Ag83  1  0.497030  0.814540  0.713170  1.0  0.3194
  Ag  Ag84  1  0.556430  0.675370  0.727610  1.0  0.3039
  Ag  Ag85  1  0.735800  0.728630  0.710750  1.0  0.3052
  Ag  Ag86  1  0.715230  0.875060  0.689920  1.0  0.1476
  Ag  Ag87  1  0.592220  0.802430  0.655940  1.0  0.3772
  Ag  Ag88  1  0.639790  0.653430  0.656350  1.0  -0.0021
  Ag  Ag89  1  0.344500  0.282800  0.272110  1.0  0.2028
  Ag  Ag90  1  0.390410  0.149180  0.251270  1.0  0.3285
  Ag  Ag91  1  0.502970  0.185460  0.213170  1.0  0.32
  Ag  Ag92  1  0.443570  0.324630  0.227610  1.0  0.3012
  Ag  Ag93  1  0.264200  0.271370  0.210750  1.0  0.3063
  Ag  Ag94  1  0.284770  0.124940  0.189920  1.0  0.148
  Ag  Ag95  1  0.407780  0.197570  0.155940  1.0  0.3761
  Ag  Ag96  1  0.360210  0.346570  0.156350  1.0  -0.0031
  H  H97  1  0.722900  0.475500  0.157600  1.0  0.3042
  H  H98  1  0.686800  0.450200  0.178800  1.0  0.2592
  H  H99  1  0.789400  0.404200  0.188900  1.0  0.2688
  H  H100  1  0.818700  0.444100  0.171400  1.0  0.2268
  H  H101  1  0.825600  0.812000  0.179000  1.0  0.2961
  H  H102  1  0.876900  0.781200  0.179500  1.0  0.2052
  H  H103  1  0.900800  0.851600  0.226300  1.0  0.264
  H  H104  1  0.845600  0.874900  0.227000  1.0  0.2352
  H  H105  1  0.044700  0.608900  0.321200  1.0  0.2599
  H  H106  1  0.046300  0.582500  0.293000  1.0  0.2359
  H  H107  1  0.021300  0.501000  0.328000  1.0  0.2754
  H  H108  1  0.994000  0.521700  0.353700  1.0  0.2169
  H  H109  1  0.680500  0.377200  0.353300  1.0  0.2688
  H  H110  1  0.635900  0.393800  0.334300  1.0  0.2243
  H  H111  1  0.629100  0.452300  0.387700  1.0  0.2812
  H  H112  1  0.685800  0.443900  0.396800  1.0  0.1817
  H  H113  1  0.478600  0.689800  0.290000  1.0  0.2451
  H  H114  1  0.478700  0.643500  0.270100  1.0  0.2535
  H  H115  1  0.511200  0.722900  0.230900  1.0  0.2923
  H  H116  1  0.526600  0.768300  0.249800  1.0  0.2592
  H  H117  1  0.709300  0.788900  0.409500  1.0  0.2758
  H  H118  1  0.722200  0.830700  0.388300  1.0  0.2563
  H  H119  1  0.821700  0.805200  0.402400  1.0  0.2705
  H  H120  1  0.808900  0.756400  0.419100  1.0  0.2428
  H  H121  1  0.681200  0.556400  0.159900  1.0  0.0647
  H  H122  1  0.589200  0.519300  0.227100  1.0  0.0634
  H  H123  1  0.625100  0.471700  0.214300  1.0  0.0704
  H  H124  1  0.575000  0.494600  0.196700  1.0  0.0651
  H  H125  1  0.632500  0.621100  0.181500  1.0  0.1026
  H  H126  1  0.594200  0.610500  0.208200  1.0  0.0983
  H  H127  1  0.577700  0.588100  0.177600  1.0  0.0788
  H  H128  1  0.848200  0.403400  0.222900  1.0  0.0694
  H  H129  1  0.914800  0.546700  0.197500  1.0  0.0808
  H  H130  1  0.866800  0.521400  0.179200  1.0  0.0759
  H  H131  1  0.925000  0.493800  0.179000  1.0  0.0864
  H  H132  1  0.940300  0.507000  0.244500  1.0  0.0982
  H  H133  1  0.955700  0.448900  0.232300  1.0  0.0946
  H  H134  1  0.910800  0.454400  0.256400  1.0  0.099
  H  H135  1  0.774400  0.738700  0.170100  1.0  0.06
  H  H136  1  0.911400  0.701900  0.188900  1.0  0.0653
  H  H137  1  0.903800  0.668000  0.160300  1.0  0.0671
  H  H138  1  0.901700  0.638300  0.190400  1.0  0.0893
  H  H139  1  0.814000  0.602600  0.177600  1.0  0.0715
  H  H140  1  0.807400  0.635800  0.148800  1.0  0.0781
  H  H141  1  0.763000  0.641000  0.173200  1.0  0.0822
  H  H142  1  0.907000  0.843200  0.274100  1.0  0.0647
  H  H143  1  0.764900  0.866400  0.251500  1.0  0.0774
  H  H144  1  0.768100  0.909500  0.276600  1.0  0.0803
  H  H145  1  0.738500  0.853100  0.281600  1.0  0.086
  H  H146  1  0.795600  0.841300  0.320800  1.0  0.073
  H  H147  1  0.835300  0.891000  0.315500  1.0  0.0899
  H  H148  1  0.859200  0.831500  0.318900  1.0  0.0977
  H  H149  1  0.013800  0.687100  0.304600  1.0  0.0708
  H  H150  1  0.002700  0.583200  0.252900  1.0  0.084
  H  H151  1  0.024700  0.629800  0.232600  1.0  0.0918
  H  H152  1  0.962300  0.613800  0.231900  1.0  0.0931
  H  H153  1  0.958200  0.739000  0.267000  1.0  0.1088
  H  H154  1  0.936800  0.707000  0.239900  1.0  0.0886
  H  H155  1  0.998300  0.725700  0.241500  1.0  0.0882
  H  H156  1  0.953200  0.444700  0.317800  1.0  0.0729
  H  H157  1  0.866400  0.505800  0.385900  1.0  0.0658
  H  H158  1  0.925400  0.529000  0.380000  1.0  0.0809
  H  H159  1  0.918200  0.468800  0.391500  1.0  0.0756
  H  H160  1  0.822700  0.450700  0.355400  1.0  0.0897
  H  H161  1  0.866000  0.403200  0.357800  1.0  0.0784
  H  H162  1  0.848800  0.425600  0.327400  1.0  0.1051
  H  H163  1  0.741500  0.371400  0.317000  1.0  0.0627
  H  H164  1  0.612700  0.427700  0.297200  1.0  0.0689
  H  H165  1  0.618300  0.384800  0.272100  1.0  0.0875
  H  H166  1  0.628200  0.447400  0.266000  1.0  0.0695
  H  H167  1  0.716000  0.424300  0.246800  1.0  0.0791
  H  H168  1  0.714500  0.361900  0.255200  1.0  0.0777
  H  H169  1  0.763200  0.399000  0.265600  1.0  0.0829
  H  H170  1  0.627700  0.536800  0.398100  1.0  0.0567
  H  H171  1  0.762400  0.484600  0.399900  1.0  0.0644
  H  H172  1  0.763900  0.518800  0.428600  1.0  0.0768
  H  H173  1  0.794000  0.540700  0.400900  1.0  0.0895
  H  H174  1  0.737200  0.625800  0.406500  1.0  0.0878
  H  H175  1  0.698900  0.602800  0.431000  1.0  0.0796
  H  H176  1  0.673400  0.624300  0.402000  1.0  0.0965
  H  H177  1  0.512900  0.640800  0.327000  1.0  0.0665
  H  H178  1  0.557600  0.517000  0.275000  1.0  0.0732
  H  H179  1  0.525900  0.566200  0.260900  1.0  0.0748
  H  H180  1  0.494700  0.524700  0.281000  1.0  0.0825
  H  H181  1  0.577900  0.514700  0.326100  1.0  0.0909
  H  H182  1  0.517400  0.526000  0.336100  1.0  0.0844
  H  H183  1  0.564900  0.565300  0.345900  1.0  0.0954
  H  H184  1  0.588200  0.725100  0.206900  1.0  0.075
  H  H185  1  0.596600  0.814800  0.264900  1.0  0.0804
  H  H186  1  0.615600  0.853200  0.239700  1.0  0.0809
  H  H187  1  0.658900  0.829500  0.261400  1.0  0.0764
  H  H188  1  0.676600  0.747800  0.200500  1.0  0.077
  H  H189  1  0.708500  0.788000  0.220900  1.0  0.0709
  H  H190  1  0.664700  0.811100  0.199300  1.0  0.0668
  H  H191  1  0.636800  0.760900  0.387900  1.0  0.0818
  H  H192  1  0.678900  0.836200  0.314000  1.0  0.0862
  H  H193  1  0.713700  0.848200  0.341700  1.0  0.0696
  H  H194  1  0.653700  0.871100  0.339200  1.0  0.0809
  H  H195  1  0.601700  0.770000  0.315200  1.0  0.0982
  H  H196  1  0.573100  0.803200  0.340100  1.0  0.0844
  H  H197  1  0.584800  0.740300  0.343900  1.0  0.0974
  H  H198  1  0.894400  0.765800  0.379300  1.0  0.0806
  H  H199  1  0.854900  0.617100  0.402500  1.0  0.0812
  H  H200  1  0.820200  0.666100  0.414900  1.0  0.0635
  H  H201  1  0.881000  0.657300  0.425200  1.0  0.0707
  H  H202  1  0.945500  0.697700  0.359300  1.0  0.093
  H  H203  1  0.935400  0.636000  0.367400  1.0  0.1118
  H  H204  1  0.961800  0.676000  0.390000  1.0  0.0834
  H  H205  1  0.797700  0.453500  0.039700  1.0  0.1207
  H  H206  1  0.844200  0.429400  0.019900  1.0  0.1092
  H  H207  1  0.847900  0.490200  0.030800  1.0  0.1237
  H  H208  1  0.277100  0.524500  0.657600  1.0  0.3042
  H  H209  1  0.313200  0.549800  0.678800  1.0  0.2596
  H  H210  1  0.210600  0.595800  0.688900  1.0  0.2677
  H  H211  1  0.181300  0.555900  0.671400  1.0  0.2259
  H  H212  1  0.174400  0.188000  0.679000  1.0  0.293
  H  H213  1  0.123100  0.218800  0.679500  1.0  0.2036
  H  H214  1  0.099200  0.148400  0.726300  1.0  0.2618
  H  H215  1  0.154400  0.125100  0.727000  1.0  0.2336
  H  H216  1  0.955300  0.391100  0.821200  1.0  0.2593
  H  H217  1  0.953700  0.417500  0.793000  1.0  0.2365
  H  H218  1  0.978700  0.499000  0.828000  1.0  0.2729
  H  H219  1  0.006000  0.478300  0.853700  1.0  0.2168
  H  H220  1  0.319500  0.622800  0.853300  1.0  0.2681
  H  H221  1  0.364100  0.606200  0.834300  1.0  0.2275
  H  H222  1  0.370900  0.547700  0.887700  1.0  0.2836
  H  H223  1  0.314200  0.556100  0.896800  1.0  0.1845
  H  H224  1  0.521400  0.310200  0.790000  1.0  0.245
  H  H225  1  0.521300  0.356500  0.770100  1.0  0.253
  H  H226  1  0.488800  0.277100  0.730900  1.0  0.2935
  H  H227  1  0.473400  0.231700  0.749800  1.0  0.2575
  H  H228  1  0.290700  0.211100  0.909500  1.0  0.2756
  H  H229  1  0.277800  0.169300  0.888300  1.0  0.2568
  H  H230  1  0.178300  0.194800  0.902400  1.0  0.265
  H  H231  1  0.191100  0.243600  0.919100  1.0  0.242
  H  H232  1  0.318800  0.443600  0.659900  1.0  0.0646
  H  H233  1  0.410800  0.480700  0.727100  1.0  0.064
  H  H234  1  0.374900  0.528300  0.714300  1.0  0.0705
  H  H235  1  0.425000  0.505400  0.696700  1.0  0.0642
  H  H236  1  0.367500  0.378900  0.681500  1.0  0.102
  H  H237  1  0.405800  0.389500  0.708200  1.0  0.0994
  H  H238  1  0.422300  0.411900  0.677600  1.0  0.0814
  H  H239  1  0.151800  0.596600  0.722900  1.0  0.068
  H  H240  1  0.085200  0.453300  0.697500  1.0  0.0802
  H  H241  1  0.133200  0.478600  0.679200  1.0  0.0762
  H  H242  1  0.075000  0.506200  0.679000  1.0  0.0863
  H  H243  1  0.059700  0.493000  0.744500  1.0  0.0987
  H  H244  1  0.044300  0.551100  0.732300  1.0  0.0956
  H  H245  1  0.089200  0.545600  0.756400  1.0  0.0993
  H  H246  1  0.225600  0.261300  0.670100  1.0  0.0638
  H  H247  1  0.088600  0.298100  0.688900  1.0  0.0665
  H  H248  1  0.096200  0.332000  0.660300  1.0  0.0671
  H  H249  1  0.098300  0.361700  0.690400  1.0  0.0888
  H  H250  1  0.186000  0.397400  0.677600  1.0  0.0707
  H  H251  1  0.192600  0.364200  0.648800  1.0  0.0807
  H  H252  1  0.237000  0.359000  0.673200  1.0  0.0828
  H  H253  1  0.093000  0.156800  0.774100  1.0  0.063
  H  H254  1  0.235100  0.133600  0.751500  1.0  0.0779
  H  H255  1  0.231900  0.090500  0.776600  1.0  0.0823
  H  H256  1  0.261500  0.146900  0.781600  1.0  0.0863
  H  H257  1  0.204400  0.158700  0.820800  1.0  0.0731
  H  H258  1  0.164700  0.109000  0.815500  1.0  0.0898
  H  H259  1  0.140800  0.168500  0.818900  1.0  0.0973
  H  H260  1  0.986200  0.312900  0.804600  1.0  0.071
  H  H261  1  0.997300  0.416800  0.752900  1.0  0.0806
  H  H262  1  0.975300  0.370200  0.732600  1.0  0.0917
  H  H263  1  0.037700  0.386200  0.731900  1.0  0.0937
  H  H264  1  0.041800  0.261000  0.767000  1.0  0.1095
  H  H265  1  0.063200  0.293000  0.739900  1.0  0.089
  H  H266  1  0.001700  0.274300  0.741500  1.0  0.088
  H  H267  1  0.046800  0.555300  0.817800  1.0  0.0732
  H  H268  1  0.133600  0.494200  0.885900  1.0  0.0675
  H  H269  1  0.074600  0.471000  0.880000  1.0  0.0819
  H  H270  1  0.081800  0.531200  0.891500  1.0  0.0753
  H  H271  1  0.177300  0.549300  0.855400  1.0  0.0912
  H  H272  1  0.134000  0.596800  0.857800  1.0  0.0789
  H  H273  1  0.151200  0.574400  0.827400  1.0  0.1044
  H  H274  1  0.258500  0.628600  0.817000  1.0  0.0637
  H  H275  1  0.387300  0.572300  0.797200  1.0  0.0686
  H  H276  1  0.381700  0.615200  0.772100  1.0  0.0869
  H  H277  1  0.371800  0.552600  0.766000  1.0  0.0686
  H  H278  1  0.284000  0.575700  0.746800  1.0  0.079
  H  H279  1  0.285500  0.638100  0.755200  1.0  0.0794
  H  H280  1  0.236800  0.601000  0.765600  1.0  0.0832
  H  H281  1  0.372300  0.463200  0.898100  1.0  0.06
  H  H282  1  0.237600  0.515400  0.899900  1.0  0.0634
  H  H283  1  0.236100  0.481200  0.928600  1.0  0.0768
  H  H284  1  0.206000  0.459300  0.900900  1.0  0.088
  H  H285  1  0.262800  0.374200  0.906500  1.0  0.0893
  H  H286  1  0.301100  0.397200  0.931000  1.0  0.0784
  H  H287  1  0.326600  0.375700  0.902000  1.0  0.0961
  H  H288  1  0.487100  0.359200  0.827000  1.0  0.0667
  H  H289  1  0.442400  0.483000  0.775000  1.0  0.0724
  H  H290  1  0.474100  0.433800  0.760900  1.0  0.0751
  H  H291  1  0.505300  0.475300  0.781000  1.0  0.084
  H  H292  1  0.422100  0.485300  0.826100  1.0  0.0907
  H  H293  1  0.482600  0.474000  0.836100  1.0  0.081
  H  H294  1  0.435100  0.434700  0.845900  1.0  0.0951
  H  H295  1  0.411800  0.274900  0.706900  1.0  0.0756
  H  H296  1  0.403400  0.185200  0.764900  1.0  0.0804
  H  H297  1  0.384400  0.146800  0.739700  1.0  0.0804
  H  H298  1  0.341100  0.170500  0.761400  1.0  0.0764
  H  H299  1  0.323400  0.252200  0.700500  1.0  0.0795
  H  H300  1  0.291500  0.212000  0.720900  1.0  0.0695
  H  H301  1  0.335300  0.188900  0.699300  1.0  0.0656
  H  H302  1  0.363200  0.239100  0.887900  1.0  0.0811
  H  H303  1  0.321100  0.163800  0.814000  1.0  0.0858
  H  H304  1  0.286300  0.151800  0.841700  1.0  0.0684
  H  H305  1  0.346300  0.128900  0.839200  1.0  0.0809
  H  H306  1  0.398300  0.230000  0.815200  1.0  0.0977
  H  H307  1  0.426900  0.196800  0.840100  1.0  0.0841
  H  H308  1  0.415200  0.259700  0.843900  1.0  0.0976
  H  H309  1  0.105600  0.234200  0.879300  1.0  0.0815
  H  H310  1  0.145100  0.382900  0.902500  1.0  0.0812
  H  H311  1  0.179800  0.333900  0.914900  1.0  0.0623
  H  H312  1  0.119000  0.342700  0.925200  1.0  0.0709
  H  H313  1  0.054500  0.302300  0.859300  1.0  0.0927
  H  H314  1  0.064600  0.364000  0.867400  1.0  0.1122
  H  H315  1  0.038200  0.324000  0.890000  1.0  0.0839
  H  H316  1  0.202300  0.546500  0.539700  1.0  0.1188
  H  H317  1  0.155800  0.570600  0.519900  1.0  0.1084
  H  H318  1  0.152100  0.509800  0.530800  1.0  0.126
  H  H319  1  0.024500  0.222900  0.407600  1.0  0.3031
  H  H320  1  0.049800  0.186800  0.428800  1.0  0.2574
  H  H321  1  0.095800  0.289400  0.438900  1.0  0.2688
  H  H322  1  0.055900  0.318700  0.421400  1.0  0.2283
  H  H323  1  0.688000  0.325600  0.429000  1.0  0.298
  H  H324  1  0.718800  0.376900  0.429500  1.0  0.2018
  H  H325  1  0.648400  0.400800  0.476300  1.0  0.2629
  H  H326  1  0.625100  0.345600  0.477000  1.0  0.2329
  H  H327  1  0.891100  0.544700  0.571200  1.0  0.257
  H  H328  1  0.917500  0.546300  0.543000  1.0  0.2363
  H  H329  1  0.999000  0.521300  0.578000  1.0  0.2672
  H  H330  1  0.978300  0.494000  0.603700  1.0  0.2142
  H  H331  1  0.122800  0.180500  0.603300  1.0  0.2694
  H  H332  1  0.106200  0.135900  0.584300  1.0  0.2257
  H  H333  1  0.047700  0.129100  0.637700  1.0  0.2768
  H  H334  1  0.056100  0.185800  0.646800  1.0  0.1802
  H  H335  1  0.810200  0.978600  0.540000  1.0  0.2451
  H  H336  1  0.856500  0.978700  0.520100  1.0  0.2536
  H  H337  1  0.777100  0.011200  0.480900  1.0  0.2912
  H  H338  1  0.731700  0.026600  0.499800  1.0  0.2582
  H  H339  1  0.711100  0.209300  0.659500  1.0  0.2769
  H  H340  1  0.669300  0.222200  0.638300  1.0  0.2589
  H  H341  1  0.694800  0.321700  0.652400  1.0  0.2765
  H  H342  1  0.743600  0.308900  0.669100  1.0  0.2434
  H  H343  1  0.943600  0.181200  0.409900  1.0  0.0647
  H  H344  1  0.980700  0.089200  0.477100  1.0  0.065
  H  H345  1  0.028300  0.125100  0.464300  1.0  0.0695
  H  H346  1  0.005400  0.075000  0.446700  1.0  0.0655
  H  H347  1  0.878900  0.132500  0.431500  1.0  0.1014
  H  H348  1  0.889500  0.094200  0.458200  1.0  0.1
  H  H349  1  0.911900  0.077700  0.427600  1.0  0.0818
  H  H350  1  0.096600  0.348200  0.472900  1.0  0.069
  H  H351  1  0.953300  0.414800  0.447500  1.0  0.0811
  H  H352  1  0.978600  0.366800  0.429200  1.0  0.0768
  H  H353  1  0.006200  0.425000  0.429000  1.0  0.085
  H  H354  1  0.993000  0.440300  0.494500  1.0  0.0983
  H  H355  1  0.051100  0.455700  0.482300  1.0  0.0934
  H  H356  1  0.045600  0.410800  0.506400  1.0  0.0992
  H  H357  1  0.761300  0.274400  0.420100  1.0  0.0557
  H  H358  1  0.798100  0.411400  0.438900  1.0  0.0655
  H  H359  1  0.832000  0.403800  0.410300  1.0  0.0677
  H  H360  1  0.861700  0.401700  0.440400  1.0  0.0895
  H  H361  1  0.897400  0.314000  0.427600  1.0  0.07
  H  H362  1  0.864200  0.307400  0.398800  1.0  0.0777
  H  H363  1  0.859000  0.263000  0.423200  1.0  0.0831
  H  H364  1  0.656800  0.407000  0.524100  1.0  0.0651
  H  H365  1  0.633600  0.264900  0.501500  1.0  0.0793
  H  H366  1  0.590500  0.268100  0.526600  1.0  0.0825
  H  H367  1  0.646900  0.238500  0.531600  1.0  0.0877
  H  H368  1  0.658700  0.295600  0.570800  1.0  0.0752
  H  H369  1  0.609000  0.335300  0.565500  1.0  0.088
  H  H370  1  0.668500  0.359200  0.568900  1.0  0.0979
  H  H371  1  0.812900  0.513800  0.554600  1.0  0.0712
  H  H372  1  0.916800  0.502700  0.502900  1.0  0.083
  H  H373  1  0.870200  0.524700  0.482600  1.0  0.0919
  H  H374  1  0.886200  0.462300  0.481900  1.0  0.0932
  H  H375  1  0.761000  0.458200  0.517000  1.0  0.1084
  H  H376  1  0.793000  0.436800  0.489900  1.0  0.088
  H  H377  1  0.774300  0.498300  0.491500  1.0  0.0879
  H  H378  1  0.055300  0.453200  0.567800  1.0  0.0731
  H  H379  1  0.994200  0.366400  0.635900  1.0  0.0678
  H  H380  1  0.971000  0.425400  0.630000  1.0  0.0795
  H  H381  1  0.031200  0.418200  0.641500  1.0  0.0737
  H  H382  1  0.049300  0.322700  0.605400  1.0  0.0941
  H  H383  1  0.096800  0.366000  0.607800  1.0  0.0811
  H  H384  1  0.074400  0.348800  0.577400  1.0  0.1053
  H  H385  1  0.128600  0.241500  0.567000  1.0  0.067
  H  H386  1  0.072300  0.112700  0.547200  1.0  0.0694
  H  H387  1  0.115200  0.118300  0.522100  1.0  0.0888
  H  H388  1  0.052600  0.128200  0.516000  1.0  0.0691
  H  H389  1  0.075700  0.216000  0.496800  1.0  0.0782
  H  H390  1  0.138100  0.214500  0.505200  1.0  0.0761
  H  H391  1  0.101000  0.263200  0.515600  1.0  0.0848
  H  H392  1  0.963200  0.127700  0.648100  1.0  0.0583
  H  H393  1  0.015400  0.262400  0.649900  1.0  0.0629
  H  H394  1  0.981200  0.263900  0.678600  1.0  0.0796
  H  H395  1  0.959300  0.294000  0.650900  1.0  0.0905
  H  H396  1  0.874200  0.237200  0.656500  1.0  0.09
  H  H397  1  0.897200  0.198900  0.681000  1.0  0.0799
  H  H398  1  0.875700  0.173400  0.652000  1.0  0.0959
  H  H399  1  0.859200  0.012900  0.577000  1.0  0.0655
  H  H400  1  0.983000  0.057600  0.525000  1.0  0.0718
  H  H401  1  0.933800  0.025900  0.510900  1.0  0.0741
  H  H402  1  0.975300  0.994700  0.531000  1.0  0.0832
  H  H403  1  0.985300  0.077900  0.576100  1.0  0.0914
  H  H404  1  0.974000  0.017400  0.586100  1.0  0.0847
  H  H405  1  0.934700  0.064900  0.595900  1.0  0.095
  H  H406  1  0.774900  0.088200  0.456900  1.0  0.0761
  H  H407  1  0.685200  0.096600  0.514900  1.0  0.0821
  H  H408  1  0.646800  0.115600  0.489700  1.0  0.0809
  H  H409  1  0.670500  0.158900  0.511400  1.0  0.0785
  H  H410  1  0.752200  0.176600  0.450500  1.0  0.0753
  H  H411  1  0.712000  0.208500  0.470900  1.0  0.0755
  H  H412  1  0.688900  0.164700  0.449300  1.0  0.0653
  H  H413  1  0.739100  0.136800  0.637900  1.0  0.0798
  H  H414  1  0.663800  0.178900  0.564000  1.0  0.0877
  H  H415  1  0.651800  0.213700  0.591700  1.0  0.0734
  H  H416  1  0.628900  0.153700  0.589200  1.0  0.081
  H  H417  1  0.730000  0.101700  0.565200  1.0  0.0968
  H  H418  1  0.696800  0.073100  0.590100  1.0  0.0835
  H  H419  1  0.759700  0.084800  0.593900  1.0  0.0959
  H  H420  1  0.734200  0.394400  0.629300  1.0  0.0818
  H  H421  1  0.882900  0.354900  0.652500  1.0  0.0782
  H  H422  1  0.833900  0.320200  0.664900  1.0  0.0678
  H  H423  1  0.842700  0.381000  0.675200  1.0  0.0713
  H  H424  1  0.802300  0.445500  0.609300  1.0  0.0921
  H  H425  1  0.864000  0.435400  0.617400  1.0  0.1113
  H  H426  1  0.824000  0.461800  0.640000  1.0  0.0836
  H  H427  1  0.046500  0.297700  0.289700  1.0  0.12
  H  H428  1  0.070600  0.344200  0.269900  1.0  0.1101
  H  H429  1  0.009800  0.347900  0.280800  1.0  0.1196
  H  H430  1  0.975500  0.777100  0.907600  1.0  0.3042
  H  H431  1  0.950200  0.813200  0.928800  1.0  0.259
  H  H432  1  0.904200  0.710600  0.938900  1.0  0.2703
  H  H433  1  0.944100  0.681300  0.921400  1.0  0.2282
  H  H434  1  0.312000  0.674400  0.929000  1.0  0.303
  H  H435  1  0.281200  0.623100  0.929500  1.0  0.2005
  H  H436  1  0.351600  0.599200  0.976300  1.0  0.2629
  H  H437  1  0.374900  0.654400  0.977000  1.0  0.2337
  H  H438  1  0.108900  0.455300  0.071200  1.0  0.258
  H  H439  1  0.082500  0.453700  0.043000  1.0  0.2361
  H  H440  1  0.001000  0.478700  0.078000  1.0  0.2698
  H  H441  1  0.021700  0.506000  0.103700  1.0  0.2158
  H  H442  1  0.877200  0.819500  0.103300  1.0  0.2694
  H  H443  1  0.893800  0.864100  0.084300  1.0  0.227
  H  H444  1  0.952300  0.870900  0.137700  1.0  0.2772
  H  H445  1  0.943900  0.814200  0.146800  1.0  0.1819
  H  H446  1  0.189800  0.021400  0.040000  1.0  0.2481
  H  H447  1  0.143500  0.021300  0.020100  1.0  0.2538
  H  H448  1  0.222900  0.988800  0.980900  1.0  0.2911
  H  H449  1  0.268300  0.973400  0.999800  1.0  0.2578
  H  H450  1  0.288900  0.790700  0.159500  1.0  0.276
  H  H451  1  0.330700  0.777800  0.138300  1.0  0.2597
  H  H452  1  0.305200  0.678300  0.152400  1.0  0.2837
  H  H453  1  0.256400  0.691100  0.169100  1.0  0.2419
  H  H454  1  0.056400  0.818800  0.909900  1.0  0.0644
  H  H455  1  0.019300  0.910800  0.977100  1.0  0.0647
  H  H456  1  0.971700  0.874900  0.964300  1.0  0.0699
  H  H457  1  0.994600  0.925000  0.946700  1.0  0.0672
  H  H458  1  0.121100  0.867500  0.931500  1.0  0.1033
  H  H459  1  0.110500  0.905800  0.958200  1.0  0.1003
  H  H460  1  0.088100  0.922300  0.927600  1.0  0.0827
  H  H461  1  0.903400  0.651800  0.972900  1.0  0.0691
  H  H462  1  0.046700  0.585200  0.947500  1.0  0.0815
  H  H463  1  0.021400  0.633200  0.929200  1.0  0.0766
  H  H464  1  0.993800  0.575000  0.929000  1.0  0.0847
  H  H465  1  0.007000  0.559700  0.994500  1.0  0.0994
  H  H466  1  0.948900  0.544300  0.982300  1.0  0.0939
  H  H467  1  0.954400  0.589200  0.006400  1.0  0.0986
  H  H468  1  0.238700  0.725600  0.920100  1.0  0.0586
  H  H469  1  0.201900  0.588600  0.938900  1.0  0.0658
  H  H470  1  0.168000  0.596200  0.910300  1.0  0.0683
  H  H471  1  0.138300  0.598300  0.940400  1.0  0.0891
  H  H472  1  0.102600  0.686000  0.927600  1.0  0.0687
  H  H473  1  0.135800  0.692600  0.898800  1.0  0.078
  H  H474  1  0.141000  0.737000  0.923200  1.0  0.0852
  H  H475  1  0.343200  0.593000  0.024100  1.0  0.0652
  H  H476  1  0.366400  0.735100  0.001500  1.0  0.0799
  H  H477  1  0.409500  0.731900  0.026600  1.0  0.0824
  H  H478  1  0.353100  0.761500  0.031600  1.0  0.0872
  H  H479  1  0.341300  0.704400  0.070800  1.0  0.0744
  H  H480  1  0.391000  0.664700  0.065500  1.0  0.0884
  H  H481  1  0.331500  0.640800  0.068900  1.0  0.0988
  H  H482  1  0.187100  0.486200  0.054600  1.0  0.0718
  H  H483  1  0.083200  0.497300  0.002900  1.0  0.082
  H  H484  1  0.129800  0.475300  0.982600  1.0  0.0923
  H  H485  1  0.113800  0.537700  0.981900  1.0  0.0933
  H  H486  1  0.239000  0.541800  0.017000  1.0  0.1085
  H  H487  1  0.207000  0.563200  0.989900  1.0  0.0894
  H  H488  1  0.225700  0.501700  0.991500  1.0  0.087
  H  H489  1  0.944700  0.546800  0.067800  1.0  0.0725
  H  H490  1  0.005800  0.633600  0.135900  1.0  0.0674
  H  H491  1  0.029000  0.574600  0.130000  1.0  0.0809
  H  H492  1  0.968800  0.581800  0.141500  1.0  0.0754
  H  H493  1  0.950700  0.677300  0.105400  1.0  0.0939
  H  H494  1  0.903200  0.634000  0.107800  1.0  0.0791
  H  H495  1  0.925600  0.651200  0.077400  1.0  0.105
  H  H496  1  0.871400  0.758500  0.067000  1.0  0.0651
  H  H497  1  0.927700  0.887300  0.047200  1.0  0.0684
  H  H498  1  0.884800  0.881700  0.022100  1.0  0.0868
  H  H499  1  0.947400  0.871800  0.016000  1.0  0.0694
  H  H500  1  0.924300  0.784000  0.996800  1.0  0.0779
  H  H501  1  0.861900  0.785500  0.005200  1.0  0.0784
  H  H502  1  0.899000  0.736800  0.015600  1.0  0.0816
  H  H503  1  0.036800  0.872300  0.148100  1.0  0.0586
  H  H504  1  0.984600  0.737600  0.149900  1.0  0.0629
  H  H505  1  0.018800  0.736100  0.178600  1.0  0.0795
  H  H506  1  0.040700  0.706000  0.150900  1.0  0.0901
  H  H507  1  0.125800  0.762800  0.156500  1.0  0.0903
  H  H508  1  0.102800  0.801100  0.181000  1.0  0.0783
  H  H509  1  0.124300  0.826600  0.152000  1.0  0.0968
  H  H510  1  0.140800  0.987100  0.077000  1.0  0.0662
  H  H511  1  0.017000  0.942400  0.025000  1.0  0.0745
  H  H512  1  0.066200  0.974100  0.010900  1.0  0.0744
  H  H513  1  0.024700  0.005300  0.031000  1.0  0.0832
  H  H514  1  0.014700  0.922100  0.076100  1.0  0.0922
  H  H515  1  0.026000  0.982600  0.086100  1.0  0.0832
  H  H516  1  0.065300  0.935100  0.095900  1.0  0.0949
  H  H517  1  0.225100  0.911800  0.956900  1.0  0.0779
  H  H518  1  0.314800  0.903400  0.014900  1.0  0.0823
  H  H519  1  0.353200  0.884400  0.989700  1.0  0.0814
  H  H520  1  0.329500  0.841100  0.011400  1.0  0.0777
  H  H521  1  0.247800  0.823400  0.950500  1.0  0.0737
  H  H522  1  0.288000  0.791500  0.970900  1.0  0.0745
  H  H523  1  0.311100  0.835300  0.949300  1.0  0.0649
  H  H524  1  0.260900  0.863200  0.137900  1.0  0.081
  H  H525  1  0.336200  0.821100  0.064000  1.0  0.0878
  H  H526  1  0.348200  0.786300  0.091700  1.0  0.0725
  H  H527  1  0.371100  0.846300  0.089200  1.0  0.0811
  H  H528  1  0.270000  0.898300  0.065200  1.0  0.0975
  H  H529  1  0.303200  0.926900  0.090100  1.0  0.0832
  H  H530  1  0.240300  0.915200  0.093900  1.0  0.0952
  H  H531  1  0.265800  0.605600  0.129300  1.0  0.0807
  H  H532  1  0.117100  0.645100  0.152500  1.0  0.0771
  H  H533  1  0.166100  0.679800  0.164900  1.0  0.067
  H  H534  1  0.157300  0.619000  0.175200  1.0  0.0718
  H  H535  1  0.197700  0.554500  0.109300  1.0  0.0922
  H  H536  1  0.136000  0.564600  0.117400  1.0  0.1099
  H  H537  1  0.176000  0.538200  0.140000  1.0  0.0835
  H  H538  1  0.953500  0.702300  0.789700  1.0  0.1216
  H  H539  1  0.929400  0.655800  0.769900  1.0  0.1114
  H  H540  1  0.990200  0.652100  0.780800  1.0  0.1215
  H  H541  1  0.777100  0.975500  0.092400  1.0  0.3008
  H  H542  1  0.813200  0.950200  0.071200  1.0  0.2608
  H  H543  1  0.710600  0.904200  0.061100  1.0  0.2681
  H  H544  1  0.681300  0.944100  0.078600  1.0  0.226
  H  H545  1  0.674400  0.312000  0.071000  1.0  0.2952
  H  H546  1  0.623100  0.281200  0.070500  1.0  0.2046
  H  H547  1  0.599200  0.351600  0.023700  1.0  0.2627
  H  H548  1  0.654400  0.374900  0.023000  1.0  0.2347
  H  H549  1  0.455300  0.108900  0.928800  1.0  0.2608
  H  H550  1  0.453700  0.082500  0.957000  1.0  0.2353
  H  H551  1  0.478700  0.001000  0.922000  1.0  0.2726
  H  H552  1  0.506000  0.021700  0.896300  1.0  0.2166
  H  H553  1  0.819500  0.877200  0.896700  1.0  0.2693
  H  H554  1  0.864100  0.893800  0.915700  1.0  0.2275
  H  H555  1  0.870900  0.952300  0.862300  1.0  0.2838
  H  H556  1  0.814200  0.943900  0.853200  1.0  0.1836
  H  H557  1  0.021400  0.189800  0.960000  1.0  0.2446
  H  H558  1  0.021300  0.143500  0.979900  1.0  0.2516
  H  H559  1  0.988800  0.222900  0.019100  1.0  0.2945
  H  H560  1  0.973400  0.268300  0.000200  1.0  0.2587
  H  H561  1  0.790700  0.288900  0.840500  1.0  0.2758
  H  H562  1  0.777800  0.330700  0.861700  1.0  0.2562
  H  H563  1  0.678300  0.305200  0.847600  1.0  0.2709
  H  H564  1  0.691100  0.256400  0.830900  1.0  0.2426
  H  H565  1  0.818800  0.056400  0.090100  1.0  0.064
  H  H566  1  0.910800  0.019300  0.022900  1.0  0.0644
  H  H567  1  0.874900  0.971700  0.035700  1.0  0.0718
  H  H568  1  0.925000  0.994600  0.053300  1.0  0.0637
  H  H569  1  0.867500  0.121100  0.068500  1.0  0.1019
  H  H570  1  0.905800  0.110500  0.041800  1.0  0.0993
  H  H571  1  0.922300  0.088100  0.072400  1.0  0.0814
  H  H572  1  0.651800  0.903400  0.027100  1.0  0.0702
  H  H573  1  0.585200  0.046700  0.052500  1.0  0.0807
  H  H574  1  0.633200  0.021400  0.070800  1.0  0.0757
  H  H575  1  0.575000  0.993800  0.071000  1.0  0.086
  H  H576  1  0.559700  0.007000  0.005500  1.0  0.0983
  H  H577  1  0.544300  0.948900  0.017700  1.0  0.0956
  H  H578  1  0.589200  0.954400  0.993600  1.0  0.0994
  H  H579  1  0.725600  0.238700  0.079900  1.0  0.063
  H  H580  1  0.588600  0.201900  0.061100  1.0  0.0666
  H  H581  1  0.596200  0.168000  0.089700  1.0  0.067
  H  H582  1  0.598300  0.138300  0.059600  1.0  0.0902
  H  H583  1  0.686000  0.102600  0.072400  1.0  0.0699
  H  H584  1  0.692600  0.135800  0.101200  1.0  0.0785
  H  H585  1  0.737000  0.141000  0.076800  1.0  0.0828
  H  H586  1  0.593000  0.343200  0.975900  1.0  0.0639
  H  H587  1  0.735100  0.366400  0.998500  1.0  0.0769
  H  H588  1  0.731900  0.409500  0.973400  1.0  0.0805
  H  H589  1  0.761500  0.353100  0.968400  1.0  0.0857
  H  H590  1  0.704400  0.341300  0.929200  1.0  0.0733
  H  H591  1  0.664700  0.391000  0.934500  1.0  0.0888
  H  H592  1  0.640800  0.331500  0.931100  1.0  0.097
  H  H593  1  0.486200  0.187100  0.945400  1.0  0.0699
  H  H594  1  0.497300  0.083200  0.997100  1.0  0.0825
  H  H595  1  0.475300  0.129800  0.017400  1.0  0.0913
  H  H596  1  0.537700  0.113800  0.018100  1.0  0.0937
  H  H597  1  0.541800  0.239000  0.983000  1.0  0.1083
  H  H598  1  0.563200  0.207000  0.010100  1.0  0.0886
  H  H599  1  0.501700  0.225700  0.008500  1.0  0.0874
  H  H600  1  0.546800  0.944700  0.932200  1.0  0.0742
  H  H601  1  0.633600  0.005800  0.864100  1.0  0.0661
  H  H602  1  0.574600  0.029000  0.870000  1.0  0.0832
  H  H603  1  0.581800  0.968800  0.858500  1.0  0.0752
  H  H604  1  0.677300  0.950700  0.894600  1.0  0.0903
  H  H605  1  0.634000  0.903200  0.892200  1.0  0.0791
  H  H606  1  0.651200  0.925600  0.922600  1.0  0.1047
  H  H607  1  0.758500  0.871400  0.933000  1.0  0.0638
  H  H608  1  0.887300  0.927700  0.952800  1.0  0.0685
  H  H609  1  0.881700  0.884800  0.977900  1.0  0.0871
  H  H610  1  0.871800  0.947400  0.984000  1.0  0.0686
  H  H611  1  0.784000  0.924300  0.003200  1.0  0.0795
  H  H612  1  0.785500  0.861900  0.994800  1.0  0.0802
  H  H613  1  0.736800  0.899000  0.984400  1.0  0.082
  H  H614  1  0.872300  0.036800  0.851900  1.0  0.0599
  H  H615  1  0.737600  0.984600  0.850100  1.0  0.0644
  H  H616  1  0.736100  0.018800  0.821400  1.0  0.0789
  H  H617  1  0.706000  0.040700  0.849100  1.0  0.0893
  H  H618  1  0.762800  0.125800  0.843500  1.0  0.0887
  H  H619  1  0.801100  0.102800  0.819000  1.0  0.0808
  H  H620  1  0.826600  0.124300  0.848000  1.0  0.0969
  H  H621  1  0.987100  0.140800  0.923000  1.0  0.066
  H  H622  1  0.942400  0.017000  0.975000  1.0  0.0729
  H  H623  1  0.974100  0.066200  0.989100  1.0  0.0749
  H  H624  1  0.005300  0.024700  0.969000  1.0  0.084
  H  H625  1  0.922100  0.014700  0.923900  1.0  0.0913
  H  H626  1  0.982600  0.026000  0.913900  1.0  0.0825
  H  H627  1  0.935100  0.065300  0.904100  1.0  0.0956
  H  H628  1  0.911800  0.225100  0.043100  1.0  0.0758
  H  H629  1  0.903400  0.314800  0.985100  1.0  0.0823
  H  H630  1  0.884400  0.353200  0.010300  1.0  0.079
  H  H631  1  0.841100  0.329500  0.988600  1.0  0.0769
  H  H632  1  0.823400  0.247800  0.049500  1.0  0.0776
  H  H633  1  0.791500  0.288000  0.029100  1.0  0.071
  H  H634  1  0.835300  0.311100  0.050700  1.0  0.0669
  H  H635  1  0.863200  0.260900  0.862100  1.0  0.0812
  H  H636  1  0.821100  0.336200  0.936000  1.0  0.0846
  H  H637  1  0.786300  0.348200  0.908300  1.0  0.0687
  H  H638  1  0.846300  0.371100  0.910800  1.0  0.0798
  H  H639  1  0.898300  0.270000  0.934800  1.0  0.0968
  H  H640  1  0.926900  0.303200  0.909900  1.0  0.0836
  H  H641  1  0.915200  0.240300  0.906100  1.0  0.0974
  H  H642  1  0.605600  0.265800  0.870700  1.0  0.0812
  H  H643  1  0.645100  0.117100  0.847500  1.0  0.0802
  H  H644  1  0.679800  0.166100  0.835100  1.0  0.0635
  H  H645  1  0.619000  0.157300  0.824800  1.0  0.0696
  H  H646  1  0.554500  0.197700  0.890700  1.0  0.0939
  H  H647  1  0.564600  0.136000  0.882600  1.0  0.1116
  H  H648  1  0.538200  0.176000  0.860000  1.0  0.0841
  H  H649  1  0.702300  0.953500  0.210300  1.0  0.1208
  H  H650  1  0.655800  0.929400  0.230100  1.0  0.111
  H  H651  1  0.652100  0.990200  0.219200  1.0  0.1251
  H  H652  1  0.222900  0.024500  0.592400  1.0  0.3001
  H  H653  1  0.186800  0.049800  0.571200  1.0  0.2587
  H  H654  1  0.289400  0.095800  0.561100  1.0  0.2679
  H  H655  1  0.318700  0.055900  0.578600  1.0  0.2261
  H  H656  1  0.325600  0.688000  0.571000  1.0  0.2929
  H  H657  1  0.376900  0.718800  0.570500  1.0  0.2061
  H  H658  1  0.400800  0.648400  0.523700  1.0  0.2639
  H  H659  1  0.345600  0.625100  0.523000  1.0  0.2344
  H  H660  1  0.544700  0.891100  0.428800  1.0  0.2601
  H  H661  1  0.546300  0.917500  0.457000  1.0  0.2344
  H  H662  1  0.521300  0.999000  0.422000  1.0  0.2733
  H  H663  1  0.494000  0.978300  0.396300  1.0  0.2173
  H  H664  1  0.180500  0.122800  0.396700  1.0  0.2693
  H  H665  1  0.135900  0.106200  0.415700  1.0  0.2253
  H  H666  1  0.129100  0.047700  0.362300  1.0  0.2817
  H  H667  1  0.185800  0.056100  0.353200  1.0  0.181
  H  H668  1  0.978600  0.810200  0.460000  1.0  0.2448
  H  H669  1  0.978700  0.856500  0.479900  1.0  0.2519
  H  H670  1  0.011200  0.777100  0.519100  1.0  0.2948
  H  H671  1  0.026600  0.731700  0.500200  1.0  0.2587
  H  H672  1  0.209300  0.711100  0.340500  1.0  0.2759
  H  H673  1  0.222200  0.669300  0.361700  1.0  0.2547
  H  H674  1  0.321700  0.694800  0.347600  1.0  0.2643
  H  H675  1  0.308900  0.743600  0.330900  1.0  0.2425
  H  H676  1  0.181200  0.943600  0.590100  1.0  0.0641
  H  H677  1  0.089200  0.980700  0.522900  1.0  0.0648
  H  H678  1  0.125100  0.028300  0.535700  1.0  0.0698
  H  H679  1  0.075000  0.005400  0.553300  1.0  0.0637
  H  H680  1  0.132500  0.878900  0.568500  1.0  0.1026
  H  H681  1  0.094200  0.889500  0.541800  1.0  0.0997
  H  H682  1  0.077700  0.911900  0.572400  1.0  0.0811
  H  H683  1  0.348200  0.096600  0.527100  1.0  0.0696
  H  H684  1  0.414800  0.953300  0.552500  1.0  0.0806
  H  H685  1  0.366800  0.978600  0.570800  1.0  0.0753
  H  H686  1  0.425000  0.006200  0.571000  1.0  0.0864
  H  H687  1  0.440300  0.993000  0.505500  1.0  0.0991
  H  H688  1  0.455700  0.051100  0.517700  1.0  0.0954
  H  H689  1  0.410800  0.045600  0.493600  1.0  0.0994
  H  H690  1  0.274400  0.761300  0.579900  1.0  0.0612
  H  H691  1  0.411400  0.798100  0.561100  1.0  0.0659
  H  H692  1  0.403800  0.832000  0.589700  1.0  0.0668
  H  H693  1  0.401700  0.861700  0.559600  1.0  0.0893
  H  H694  1  0.314000  0.897400  0.572400  1.0  0.0718
  H  H695  1  0.307400  0.864200  0.601200  1.0  0.0783
  H  H696  1  0.263000  0.859000  0.576800  1.0  0.0832
  H  H697  1  0.407000  0.656800  0.475900  1.0  0.0656
  H  H698  1  0.264900  0.633600  0.498500  1.0  0.0772
  H  H699  1  0.268100  0.590500  0.473400  1.0  0.0795
  H  H700  1  0.238500  0.646900  0.468400  1.0  0.0866
  H  H701  1  0.295600  0.658700  0.429200  1.0  0.0736
  H  H702  1  0.335300  0.609000  0.434500  1.0  0.0886
  H  H703  1  0.359200  0.668500  0.431100  1.0  0.098
  H  H704  1  0.513800  0.812900  0.445400  1.0  0.0694
  H  H705  1  0.502700  0.916800  0.497100  1.0  0.0813
  H  H706  1  0.524700  0.870200  0.517400  1.0  0.0916
  H  H707  1  0.462300  0.886200  0.518100  1.0  0.0934
  H  H708  1  0.458200  0.761000  0.483000  1.0  0.1091
  H  H709  1  0.436800  0.793000  0.510100  1.0  0.0888
  H  H710  1  0.498300  0.774300  0.508500  1.0  0.0883
  H  H711  1  0.453200  0.055300  0.432200  1.0  0.0737
  H  H712  1  0.366400  0.994200  0.364100  1.0  0.0659
  H  H713  1  0.425400  0.971000  0.370000  1.0  0.0825
  H  H714  1  0.418200  0.031200  0.358500  1.0  0.0751
  H  H715  1  0.322700  0.049300  0.394600  1.0  0.0903
  H  H716  1  0.366000  0.096800  0.392200  1.0  0.0801
  H  H717  1  0.348800  0.074400  0.422600  1.0  0.1045
  H  H718  1  0.241500  0.128600  0.433000  1.0  0.0626
  H  H719  1  0.112700  0.072300  0.452800  1.0  0.0682
  H  H720  1  0.118300  0.115200  0.477900  1.0  0.0874
  H  H721  1  0.128200  0.052600  0.484000  1.0  0.0692
  H  H722  1  0.216000  0.075700  0.503200  1.0  0.0794
  H  H723  1  0.214500  0.138100  0.494800  1.0  0.0777
  H  H724  1  0.263200  0.101000  0.484400  1.0  0.0831
  H  H725  1  0.127700  0.963200  0.351900  1.0  0.0574
  H  H726  1  0.262400  0.015400  0.350100  1.0  0.0629
  H  H727  1  0.263900  0.981200  0.321400  1.0  0.0782
  H  H728  1  0.294000  0.959300  0.349100  1.0  0.0888
  H  H729  1  0.237200  0.874200  0.343500  1.0  0.0871
  H  H730  1  0.198900  0.897200  0.319000  1.0  0.0796
  H  H731  1  0.173400  0.875700  0.348000  1.0  0.0966
  H  H732  1  0.012900  0.859200  0.423000  1.0  0.0664
  H  H733  1  0.057600  0.983000  0.475000  1.0  0.0724
  H  H734  1  0.025900  0.933800  0.489100  1.0  0.0744
  H  H735  1  0.994700  0.975300  0.469000  1.0  0.0817
  H  H736  1  0.077900  0.985300  0.423900  1.0  0.0914
  H  H737  1  0.017400  0.974000  0.413900  1.0  0.0824
  H  H738  1  0.064900  0.934700  0.404100  1.0  0.0953
  H  H739  1  0.088200  0.774900  0.543100  1.0  0.0756
  H  H740  1  0.096600  0.685200  0.485100  1.0  0.0818
  H  H741  1  0.115600  0.646800  0.510300  1.0  0.0793
  H  H742  1  0.158900  0.670500  0.488600  1.0  0.0775
  H  H743  1  0.176600  0.752200  0.549500  1.0  0.078
  H  H744  1  0.208500  0.712000  0.529100  1.0  0.0719
  H  H745  1  0.164700  0.688900  0.550700  1.0  0.0682
  H  H746  1  0.136800  0.739100  0.362100  1.0  0.082
  H  H747  1  0.178900  0.663800  0.436000  1.0  0.0847
  H  H748  1  0.213700  0.651800  0.408300  1.0  0.0688
  H  H749  1  0.153700  0.628900  0.410800  1.0  0.0794
  H  H750  1  0.101700  0.730000  0.434800  1.0  0.0972
  H  H751  1  0.073100  0.696800  0.409900  1.0  0.0836
  H  H752  1  0.084800  0.759700  0.406100  1.0  0.0983
  H  H753  1  0.394400  0.734200  0.370700  1.0  0.0818
  H  H754  1  0.354900  0.882900  0.347500  1.0  0.0813
  H  H755  1  0.320200  0.833900  0.335100  1.0  0.0615
  H  H756  1  0.381000  0.842700  0.324800  1.0  0.0713
  H  H757  1  0.445500  0.802300  0.390700  1.0  0.0941
  H  H758  1  0.435400  0.864000  0.382600  1.0  0.1119
  H  H759  1  0.461800  0.824000  0.360000  1.0  0.0842
  H  H760  1  0.297700  0.046500  0.710300  1.0  0.1213
  H  H761  1  0.344200  0.070600  0.730100  1.0  0.1109
  H  H762  1  0.347900  0.009800  0.719200  1.0  0.1245
  H  H763  1  0.475500  0.722900  0.842400  1.0  0.2992
  H  H764  1  0.450200  0.686800  0.821200  1.0  0.2592
  H  H765  1  0.404200  0.789400  0.811100  1.0  0.2695
  H  H766  1  0.444100  0.818700  0.828600  1.0  0.2285
  H  H767  1  0.812000  0.825600  0.821000  1.0  0.3036
  H  H768  1  0.781200  0.876900  0.820500  1.0  0.2019
  H  H769  1  0.851600  0.900800  0.773700  1.0  0.2617
  H  H770  1  0.874900  0.845600  0.773000  1.0  0.234
  H  H771  1  0.608900  0.044700  0.678800  1.0  0.2581
  H  H772  1  0.582500  0.046300  0.707000  1.0  0.2364
  H  H773  1  0.501000  0.021300  0.672000  1.0  0.2658
  H  H774  1  0.521700  0.994000  0.646300  1.0  0.2155
  H  H775  1  0.377200  0.680500  0.646700  1.0  0.2706
  H  H776  1  0.393800  0.635900  0.665700  1.0  0.2257
  H  H777  1  0.452300  0.629100  0.612300  1.0  0.2774
  H  H778  1  0.443900  0.685800  0.603200  1.0  0.1807
  H  H779  1  0.689800  0.478600  0.710000  1.0  0.249
  H  H780  1  0.643500  0.478700  0.729900  1.0  0.2522
  H  H781  1  0.722900  0.511200  0.769100  1.0  0.2932
  H  H782  1  0.768300  0.526600  0.750200  1.0  0.2585
  H  H783  1  0.788900  0.709300  0.590500  1.0  0.2764
  H  H784  1  0.830700  0.722200  0.611700  1.0  0.2588
  H  H785  1  0.805200  0.821700  0.597600  1.0  0.2843
  H  H786  1  0.756400  0.808900  0.580900  1.0  0.2423
  H  H787  1  0.556400  0.681200  0.840100  1.0  0.0634
  H  H788  1  0.519300  0.589200  0.772900  1.0  0.0658
  H  H789  1  0.471700  0.625100  0.785700  1.0  0.0705
  H  H790  1  0.494600  0.575000  0.803300  1.0  0.0662
  H  H791  1  0.621100  0.632500  0.818500  1.0  0.102
  H  H792  1  0.610500  0.594200  0.791800  1.0  0.1002
  H  H793  1  0.588100  0.577700  0.822400  1.0  0.0843
  H  H794  1  0.403400  0.848200  0.777100  1.0  0.0707
  H  H795  1  0.546700  0.914800  0.802500  1.0  0.0805
  H  H796  1  0.521400  0.866800  0.820800  1.0  0.0765
  H  H797  1  0.493800  0.925000  0.821000  1.0  0.0844
  H  H798  1  0.507000  0.940300  0.755500  1.0  0.0995
  H  H799  1  0.448900  0.955700  0.767700  1.0  0.0937
  H  H800  1  0.454400  0.910800  0.743600  1.0  0.0991
  H  H801  1  0.738700  0.774400  0.829900  1.0  0.0566
  H  H802  1  0.701900  0.911400  0.811100  1.0  0.0661
  H  H803  1  0.668000  0.903800  0.839700  1.0  0.0676
  H  H804  1  0.638300  0.901700  0.809600  1.0  0.0898
  H  H805  1  0.602600  0.814000  0.822400  1.0  0.0686
  H  H806  1  0.635800  0.807400  0.851200  1.0  0.0772
  H  H807  1  0.641000  0.763000  0.826800  1.0  0.0831
  H  H808  1  0.843200  0.907000  0.725900  1.0  0.0655
  H  H809  1  0.866400  0.764900  0.748500  1.0  0.079
  H  H810  1  0.909500  0.768100  0.723400  1.0  0.0824
  H  H811  1  0.853100  0.738500  0.718400  1.0  0.0882
  H  H812  1  0.841300  0.795600  0.679200  1.0  0.075
  H  H813  1  0.891000  0.835300  0.684500  1.0  0.0895
  H  H814  1  0.831500  0.859200  0.681100  1.0  0.0987
  H  H815  1  0.687100  0.013800  0.695400  1.0  0.071
  H  H816  1  0.583200  0.002700  0.747100  1.0  0.0823
  H  H817  1  0.629800  0.024700  0.767400  1.0  0.092
  H  H818  1  0.613800  0.962300  0.768100  1.0  0.093
  H  H819  1  0.739000  0.958200  0.733000  1.0  0.1089
  H  H820  1  0.707000  0.936800  0.760100  1.0  0.0889
  H  H821  1  0.725700  0.998300  0.758500  1.0  0.0875
  H  H822  1  0.444700  0.953200  0.682200  1.0  0.0736
  H  H823  1  0.505800  0.866400  0.614100  1.0  0.0672
  H  H824  1  0.529000  0.925400  0.620000  1.0  0.0821
  H  H825  1  0.468800  0.918200  0.608500  1.0  0.075
  H  H826  1  0.450700  0.822700  0.644600  1.0  0.0929
  H  H827  1  0.403200  0.866000  0.642200  1.0  0.0809
  H  H828  1  0.425600  0.848800  0.672600  1.0  0.105
  H  H829  1  0.371400  0.741500  0.683000  1.0  0.0671
  H  H830  1  0.427700  0.612700  0.702800  1.0  0.0679
  H  H831  1  0.384800  0.618300  0.727900  1.0  0.0873
  H  H832  1  0.447400  0.628200  0.734000  1.0  0.0693
  H  H833  1  0.424300  0.716000  0.753200  1.0  0.0773
  H  H834  1  0.361900  0.714500  0.744800  1.0  0.0781
  H  H835  1  0.399000  0.763200  0.734400  1.0  0.0849
  H  H836  1  0.536800  0.627700  0.601900  1.0  0.0589
  H  H837  1  0.484600  0.762400  0.600100  1.0  0.0622
  H  H838  1  0.518800  0.763900  0.571400  1.0  0.0802
  H  H839  1  0.540700  0.794000  0.599100  1.0  0.0914
  H  H840  1  0.625800  0.737200  0.593500  1.0  0.0891
  H  H841  1  0.602800  0.698900  0.569000  1.0  0.0801
  H  H842  1  0.624300  0.673400  0.598000  1.0  0.0977
  H  H843  1  0.640800  0.512900  0.673000  1.0  0.0653
  H  H844  1  0.517000  0.557600  0.725000  1.0  0.074
  H  H845  1  0.566200  0.525900  0.739100  1.0  0.0738
  H  H846  1  0.524700  0.494700  0.719000  1.0  0.0832
  H  H847  1  0.514700  0.577900  0.673900  1.0  0.0931
  H  H848  1  0.526000  0.517400  0.663900  1.0  0.083
  H  H849  1  0.565300  0.564900  0.654100  1.0  0.0952
  H  H850  1  0.725100  0.588200  0.793100  1.0  0.0784
  H  H851  1  0.814800  0.596600  0.735100  1.0  0.0841
  H  H852  1  0.853200  0.615600  0.760300  1.0  0.0801
  H  H853  1  0.829500  0.658900  0.738600  1.0  0.0786
  H  H854  1  0.747800  0.676600  0.799500  1.0  0.0743
  H  H855  1  0.788000  0.708500  0.779100  1.0  0.076
  H  H856  1  0.811100  0.664700  0.800700  1.0  0.0665
  H  H857  1  0.760900  0.636800  0.612100  1.0  0.08
  H  H858  1  0.836200  0.678900  0.686000  1.0  0.0869
  H  H859  1  0.848200  0.713700  0.658300  1.0  0.0736
  H  H860  1  0.871100  0.653700  0.660800  1.0  0.0807
  H  H861  1  0.770000  0.601700  0.684800  1.0  0.0965
  H  H862  1  0.803200  0.573100  0.659900  1.0  0.0837
  H  H863  1  0.740300  0.584800  0.656100  1.0  0.0956
  H  H864  1  0.765800  0.894400  0.620700  1.0  0.081
  H  H865  1  0.617100  0.854900  0.597500  1.0  0.0771
  H  H866  1  0.666100  0.820200  0.585100  1.0  0.0661
  H  H867  1  0.657300  0.881000  0.574800  1.0  0.0709
  H  H868  1  0.697700  0.945500  0.640700  1.0  0.0931
  H  H869  1  0.636000  0.935400  0.632600  1.0  0.1092
  H  H870  1  0.676000  0.961800  0.610000  1.0  0.0847
  H  H871  1  0.453500  0.797700  0.960300  1.0  0.1207
  H  H872  1  0.429400  0.844200  0.980100  1.0  0.1126
  H  H873  1  0.490200  0.847900  0.969200  1.0  0.1216
  H  H874  1  0.524500  0.277100  0.342400  1.0  0.3001
  H  H875  1  0.549800  0.313200  0.321200  1.0  0.2594
  H  H876  1  0.595800  0.210600  0.311100  1.0  0.269
  H  H877  1  0.555900  0.181300  0.328600  1.0  0.227
  H  H878  1  0.188000  0.174400  0.321000  1.0  0.2973
  H  H879  1  0.218800  0.123100  0.320500  1.0  0.2017
  H  H880  1  0.148400  0.099200  0.273700  1.0  0.2623
  H  H881  1  0.125100  0.154400  0.273000  1.0  0.2339
  H  H882  1  0.391100  0.955300  0.178800  1.0  0.2581
  H  H883  1  0.417500  0.953700  0.207000  1.0  0.2353
  H  H884  1  0.499000  0.978700  0.172000  1.0  0.2682
  H  H885  1  0.478300  0.006000  0.146300  1.0  0.2145
  H  H886  1  0.622800  0.319500  0.146700  1.0  0.2697
  H  H887  1  0.606200  0.364100  0.165700  1.0  0.2264
  H  H888  1  0.547700  0.370900  0.112300  1.0  0.2769
  H  H889  1  0.556100  0.314200  0.103200  1.0  0.1798
  H  H890  1  0.310200  0.521400  0.210000  1.0  0.2461
  H  H891  1  0.356500  0.521300  0.229900  1.0  0.2521
  H  H892  1  0.277100  0.488800  0.269100  1.0  0.2924
  H  H893  1  0.231700  0.473400  0.250200  1.0  0.2581
  H  H894  1  0.211100  0.290700  0.090500  1.0  0.2771
  H  H895  1  0.169300  0.277800  0.111700  1.0  0.2556
  H  H896  1  0.194800  0.178300  0.097600  1.0  0.2767
  H  H897  1  0.243600  0.191100  0.080900  1.0  0.2434
  H  H898  1  0.443600  0.318800  0.340100  1.0  0.0637
  H  H899  1  0.480700  0.410800  0.272900  1.0  0.0662
  H  H900  1  0.528300  0.374900  0.285700  1.0  0.0699
  H  H901  1  0.505400  0.425000  0.303300  1.0  0.0659
  H  H902  1  0.378900  0.367500  0.318500  1.0  0.1022
  H  H903  1  0.389500  0.405800  0.291800  1.0  0.1002
  H  H904  1  0.411900  0.422300  0.322400  1.0  0.0824
  H  H905  1  0.596600  0.151800  0.277100  1.0  0.0704
  H  H906  1  0.453300  0.085200  0.302500  1.0  0.0816
  H  H907  1  0.478600  0.133200  0.320800  1.0  0.0759
  H  H908  1  0.506200  0.075000  0.321000  1.0  0.0855
  H  H909  1  0.493000  0.059700  0.255500  1.0  0.0989
  H  H910  1  0.551100  0.044300  0.267700  1.0  0.0938
  H  H911  1  0.545600  0.089200  0.243600  1.0  0.0991
  H  H912  1  0.261300  0.225600  0.329900  1.0  0.0582
  H  H913  1  0.298100  0.088600  0.311100  1.0  0.0659
  H  H914  1  0.332000  0.096200  0.339700  1.0  0.0674
  H  H915  1  0.361700  0.098300  0.309600  1.0  0.0906
  H  H916  1  0.397400  0.186000  0.322400  1.0  0.0695
  H  H917  1  0.364200  0.192600  0.351200  1.0  0.0785
  H  H918  1  0.359000  0.237000  0.326800  1.0  0.0856
  H  H919  1  0.156800  0.093000  0.225900  1.0  0.0655
  H  H920  1  0.133600  0.235100  0.248500  1.0  0.0783
  H  H921  1  0.090500  0.231900  0.223400  1.0  0.0825
  H  H922  1  0.146900  0.261500  0.218400  1.0  0.0874
  H  H923  1  0.158700  0.204400  0.179200  1.0  0.0756
  H  H924  1  0.109000  0.164700  0.184500  1.0  0.0847
  H  H925  1  0.168500  0.140800  0.181100  1.0  0.0989
  H  H926  1  0.312900  0.986200  0.195400  1.0  0.07
  H  H927  1  0.416800  0.997300  0.247100  1.0  0.0823
  H  H928  1  0.370200  0.975300  0.267400  1.0  0.0926
  H  H929  1  0.386200  0.037700  0.268100  1.0  0.0926
  H  H930  1  0.261000  0.041800  0.233000  1.0  0.1078
  H  H931  1  0.293000  0.063200  0.260100  1.0  0.0888
  H  H932  1  0.274300  0.001700  0.258500  1.0  0.0879
  H  H933  1  0.555300  0.046800  0.182200  1.0  0.0738
  H  H934  1  0.494200  0.133600  0.114100  1.0  0.0669
  H  H935  1  0.471000  0.074600  0.120000  1.0  0.0793
  H  H936  1  0.531200  0.081800  0.108500  1.0  0.0738
  H  H937  1  0.549300  0.177300  0.144600  1.0  0.0932
  H  H938  1  0.596800  0.134000  0.142200  1.0  0.0811
  H  H939  1  0.574400  0.151200  0.172600  1.0  0.105
  H  H940  1  0.628600  0.258500  0.183000  1.0  0.0644
  H  H941  1  0.572300  0.387300  0.202800  1.0  0.0684
  H  H942  1  0.615200  0.381700  0.227900  1.0  0.0891
  H  H943  1  0.552600  0.371800  0.234000  1.0  0.0688
  H  H944  1  0.575700  0.284000  0.253200  1.0  0.0775
  H  H945  1  0.638100  0.285500  0.244800  1.0  0.0766
  H  H946  1  0.601000  0.236800  0.234400  1.0  0.0823
  H  H947  1  0.463200  0.372300  0.101900  1.0  0.0587
  H  H948  1  0.515400  0.237600  0.100100  1.0  0.0632
  H  H949  1  0.481200  0.236100  0.071400  1.0  0.0806
  H  H950  1  0.459300  0.206000  0.099100  1.0  0.0895
  H  H951  1  0.374200  0.262800  0.093500  1.0  0.0888
  H  H952  1  0.397200  0.301100  0.069000  1.0  0.0791
  H  H953  1  0.375700  0.326600  0.098000  1.0  0.0963
  H  H954  1  0.359200  0.487100  0.173000  1.0  0.0655
  H  H955  1  0.483000  0.442400  0.225000  1.0  0.072
  H  H956  1  0.433800  0.474100  0.239100  1.0  0.0741
  H  H957  1  0.475300  0.505300  0.219000  1.0  0.0823
  H  H958  1  0.485300  0.422100  0.173900  1.0  0.0913
  H  H959  1  0.474000  0.482600  0.163900  1.0  0.0831
  H  H960  1  0.434700  0.435100  0.154100  1.0  0.095
  H  H961  1  0.274900  0.411800  0.293100  1.0  0.0756
  H  H962  1  0.185200  0.403400  0.235100  1.0  0.0833
  H  H963  1  0.146800  0.384400  0.260300  1.0  0.0792
  H  H964  1  0.170500  0.341100  0.238600  1.0  0.0782
  H  H965  1  0.252200  0.323400  0.299500  1.0  0.0739
  H  H966  1  0.212000  0.291500  0.279100  1.0  0.075
  H  H967  1  0.188900  0.335300  0.300700  1.0  0.0657
  H  H968  1  0.239100  0.363200  0.112100  1.0  0.0807
  H  H969  1  0.163800  0.321100  0.186000  1.0  0.0867
  H  H970  1  0.151800  0.286300  0.158300  1.0  0.0729
  H  H971  1  0.128900  0.346300  0.160800  1.0  0.0809
  H  H972  1  0.230000  0.398300  0.184800  1.0  0.0962
  H  H973  1  0.196800  0.426900  0.159900  1.0  0.083
  H  H974  1  0.259700  0.415200  0.156100  1.0  0.0963
  H  H975  1  0.234200  0.105600  0.120700  1.0  0.0818
  H  H976  1  0.382900  0.145100  0.097500  1.0  0.0784
  H  H977  1  0.333900  0.179800  0.085100  1.0  0.0675
  H  H978  1  0.342700  0.119000  0.074800  1.0  0.0709
  H  H979  1  0.302300  0.054500  0.140700  1.0  0.0934
  H  H980  1  0.364000  0.064600  0.132600  1.0  0.1112
  H  H981  1  0.324000  0.038200  0.110000  1.0  0.0841
  H  H982  1  0.546500  0.202300  0.460300  1.0  0.1209
  H  H983  1  0.570600  0.155800  0.480100  1.0  0.1126
  H  H984  1  0.509800  0.152100  0.469200  1.0  0.119
  Pd  Pd985  1  0.758740  0.496010  0.204440  1.0  0.49
  Pd  Pd986  1  0.834990  0.772350  0.228660  1.0  0.3675
  Pd  Pd987  1  0.955080  0.570070  0.312370  1.0  0.3709
  Pd  Pd988  1  0.688480  0.475790  0.345860  1.0  0.4259
  Pd  Pd989  1  0.573710  0.683460  0.269380  1.0  0.3841
  Pd  Pd990  1  0.764830  0.747090  0.372900  1.0  0.3938
  Pd  Pd991  1  0.241260  0.503990  0.704440  1.0  0.4905
  Pd  Pd992  1  0.165010  0.227650  0.728660  1.0  0.365
  Pd  Pd993  1  0.044920  0.429930  0.812370  1.0  0.3674
  Pd  Pd994  1  0.311520  0.524210  0.845860  1.0  0.4295
  Pd  Pd995  1  0.426290  0.316540  0.769380  1.0  0.3857
  Pd  Pd996  1  0.235170  0.252910  0.872900  1.0  0.3934
  Pd  Pd997  1  0.003990  0.258740  0.454440  1.0  0.4937
  Pd  Pd998  1  0.727650  0.334990  0.478660  1.0  0.3694
  Pd  Pd999  1  0.929930  0.455080  0.562370  1.0  0.3661
  Pd  Pd1000  1  0.024210  0.188480  0.595860  1.0  0.4352
  Pd  Pd1001  1  0.816540  0.073710  0.519380  1.0  0.3791
  Pd  Pd1002  1  0.752910  0.264830  0.622900  1.0  0.3932
  Pd  Pd1003  1  0.996010  0.741260  0.954440  1.0  0.4916
  Pd  Pd1004  1  0.272350  0.665010  0.978660  1.0  0.3694
  Pd  Pd1005  1  0.070070  0.544920  0.062370  1.0  0.3649
  Pd  Pd1006  1  0.975790  0.811520  0.095860  1.0  0.4297
  Pd  Pd1007  1  0.183460  0.926290  0.019380  1.0  0.384
  Pd  Pd1008  1  0.247090  0.735170  0.122900  1.0  0.3966
  Pd  Pd1009  1  0.741260  0.996010  0.045560  1.0  0.4899
  Pd  Pd1010  1  0.665010  0.272350  0.021340  1.0  0.3663
  Pd  Pd1011  1  0.544920  0.070070  0.937630  1.0  0.3669
  Pd  Pd1012  1  0.811520  0.975790  0.904140  1.0  0.4269
  Pd  Pd1013  1  0.926290  0.183460  0.980620  1.0  0.386
  Pd  Pd1014  1  0.735170  0.247090  0.877100  1.0  0.3921
  Pd  Pd1015  1  0.258740  0.003990  0.545560  1.0  0.4904
  Pd  Pd1016  1  0.334990  0.727650  0.521340  1.0  0.3671
  Pd  Pd1017  1  0.455080  0.929930  0.437630  1.0  0.37
  Pd  Pd1018  1  0.188480  0.024210  0.404140  1.0  0.4257
  Pd  Pd1019  1  0.073710  0.816540  0.480620  1.0  0.3835
  Pd  Pd1020  1  0.264830  0.752910  0.377100  1.0  0.3914
  Pd  Pd1021  1  0.496010  0.758740  0.795560  1.0  0.4931
  Pd  Pd1022  1  0.772350  0.834990  0.771340  1.0  0.3695
  Pd  Pd1023  1  0.570070  0.955080  0.687630  1.0  0.3642
  Pd  Pd1024  1  0.475790  0.688480  0.654140  1.0  0.4289
  Pd  Pd1025  1  0.683460  0.573710  0.730620  1.0  0.3798
  Pd  Pd1026  1  0.747090  0.764830  0.627100  1.0  0.3945
  Pd  Pd1027  1  0.503990  0.241260  0.295560  1.0  0.4929
  Pd  Pd1028  1  0.227650  0.165010  0.271340  1.0  0.3699
  Pd  Pd1029  1  0.429930  0.044920  0.187630  1.0  0.366
  Pd  Pd1030  1  0.524210  0.311520  0.154140  1.0  0.4332
  Pd  Pd1031  1  0.316540  0.426290  0.230620  1.0  0.3832
  Pd  Pd1032  1  0.252910  0.235170  0.127100  1.0  0.3915
  C  C1033  1  0.638200  0.542200  0.196670  1.0  0.1028
  C  C1034  1  0.663900  0.524800  0.169320  1.0  -0.0187
  C  C1035  1  0.616700  0.498800  0.148220  1.0  0.5453
  C  C1036  1  0.604300  0.504000  0.209670  1.0  -0.3824
  C  C1037  1  0.607900  0.595400  0.190440  1.0  -0.4031
  C  C1038  1  0.882100  0.477200  0.216460  1.0  0.1133
  C  C1039  1  0.857740  0.426040  0.206160  1.0  0.0226
  C  C1040  1  0.895500  0.394800  0.187590  1.0  0.6181
  C  C1041  1  0.898700  0.513100  0.190600  1.0  -0.4069
  C  C1042  1  0.926300  0.471300  0.239580  1.0  -0.4128
  C  C1043  1  0.831000  0.681000  0.181560  1.0  0.0922
  C  C1044  1  0.814400  0.734600  0.169200  1.0  -0.0306
  C  C1045  1  0.835200  0.743800  0.137360  1.0  0.4501
  C  C1046  1  0.892650  0.671400  0.180160  1.0  -0.3798
  C  C1047  1  0.801500  0.636500  0.169320  1.0  -0.3996
  C  C1048  1  0.824600  0.845000  0.282460  1.0  0.1023
  C  C1049  1  0.873900  0.860600  0.266210  1.0  -0.0073
  C  C1050  1  0.878900  0.925900  0.266060  1.0  0.3752
  C  C1051  1  0.768500  0.871100  0.272040  1.0  -0.3856
  C  C1052  1  0.829000  0.852800  0.311600  1.0  -0.4183
  C  C1053  1  0.982700  0.658800  0.266720  1.0  0.1007
  C  C1054  1  0.023780  0.659200  0.290300  1.0  0.0285
  C  C1055  1  0.077000  0.672200  0.278130  1.0  0.602
  C  C1056  1  0.994100  0.617800  0.244040  1.0  -0.3991
  C  C1057  1  0.967600  0.712500  0.252490  1.0  -0.3989
  C  C1058  1  0.899800  0.476000  0.348490  1.0  0.1132
  C  C1059  1  0.956610  0.460700  0.337130  1.0  0.047
  C  C1060  1  0.920300  0.511500  0.107120  1.0  0.3912
  C  C1061  1  0.902700  0.496800  0.379280  1.0  -0.3855
  C  C1062  1  0.855500  0.435400  0.347160  1.0  -0.3599
  C  C1063  1  0.694800  0.411200  0.287220  1.0  0.1222
  C  C1064  1  0.702300  0.373600  0.312320  1.0  0.0045
  C  C1065  1  0.682200  0.318900  0.305610  1.0  0.6739
  C  C1066  1  0.632460  0.418500  0.279890  1.0  -0.3774
  C  C1067  1  0.724500  0.398000  0.261600  1.0  -0.4048
  C  C1068  1  0.708500  0.551900  0.398410  1.0  0.0984
  C  C1069  1  0.661400  0.516700  0.402960  1.0  0.0169
  C  C1070  1  0.656600  0.492100  0.434670  1.0  0.3714
  C  C1071  1  0.762500  0.521000  0.407870  1.0  -0.3758
  C  C1072  1  0.704200  0.605590  0.410460  1.0  -0.405
  C  C1073  1  0.541900  0.578500  0.303410  1.0  0.0695
  C  C1074  1  0.500400  0.620100  0.310090  1.0  -0.0693
  C  C1075  1  0.447700  0.598800  0.316190  1.0  0.6407
  C  C1076  1  0.528900  0.543400  0.277770  1.0  -0.3964
  C  C1077  1  0.551400  0.542800  0.330430  1.0  -0.4071
  C  C1078  1  0.632730  0.774600  0.232860  1.0  0.0945
  C  C1079  1  0.579800  0.756900  0.219110  1.0  -0.0068
  C  C1080  1  0.946100  0.298500  0.049580  1.0  0.6355
  C  C1081  1  0.625300  0.822000  0.251260  1.0  -0.3928
  C  C1082  1  0.673900  0.780900  0.211690  1.0  -0.4007
  C  C1083  1  0.654870  0.787300  0.348780  1.0  0.0663
  C  C1084  1  0.652500  0.795000  0.380200  1.0  -0.0252
  C  C1085  1  0.615500  0.838200  0.389300  1.0  0.5294
  C  C1086  1  0.677500  0.840900  0.334540  1.0  -0.3816
  C  C1087  1  0.598300  0.773900  0.335770  1.0  -0.3933
  C  C1088  1  0.875100  0.688450  0.386500  1.0  0.0966
  C  C1089  1  0.880300  0.745400  0.395970  1.0  -0.1018
  C  C1090  1  0.919500  0.758500  0.421180  1.0  0.6004
  C  C1091  1  0.856300  0.654500  0.409080  1.0  -0.4066
  C  C1092  1  0.935600  0.673000  0.374610  1.0  -0.391
  C  C1093  1  0.869190  0.433400  0.063820  1.0  0.5475
  C  C1094  1  0.836500  0.453700  0.035740  1.0  -0.4456
  C  C1095  1  0.361800  0.457800  0.696670  1.0  0.1025
  C  C1096  1  0.336100  0.475200  0.669320  1.0  -0.02
  C  C1097  1  0.383300  0.501200  0.648220  1.0  0.5436
  C  C1098  1  0.395700  0.496000  0.709670  1.0  -0.3815
  C  C1099  1  0.392100  0.404600  0.690440  1.0  -0.4045
  C  C1100  1  0.117900  0.522800  0.716460  1.0  0.1128
  C  C1101  1  0.142260  0.573960  0.706160  1.0  0.0237
  C  C1102  1  0.104500  0.605200  0.687590  1.0  0.6201
  C  C1103  1  0.101300  0.486900  0.690600  1.0  -0.4042
  C  C1104  1  0.073700  0.528700  0.739580  1.0  -0.4115
  C  C1105  1  0.169000  0.319000  0.681560  1.0  0.0912
  C  C1106  1  0.185600  0.265400  0.669200  1.0  -0.0304
  C  C1107  1  0.164800  0.256200  0.637360  1.0  0.4538
  C  C1108  1  0.107350  0.328600  0.680160  1.0  -0.3801
  C  C1109  1  0.198500  0.363500  0.669320  1.0  -0.3977
  C  C1110  1  0.175400  0.155000  0.782460  1.0  0.1014
  C  C1111  1  0.126100  0.139400  0.766210  1.0  -0.0071
  C  C1112  1  0.121100  0.074100  0.766060  1.0  0.3755
  C  C1113  1  0.231500  0.128900  0.772040  1.0  -0.3848
  C  C1114  1  0.171000  0.147200  0.811600  1.0  -0.4183
  C  C1115  1  0.017300  0.341200  0.766720  1.0  0.0997
  C  C1116  1  0.976220  0.340800  0.790300  1.0  0.0287
  C  C1117  1  0.923000  0.327800  0.778130  1.0  0.6018
  C  C1118  1  0.005900  0.382200  0.744040  1.0  -0.3974
  C  C1119  1  0.032400  0.287500  0.752490  1.0  -0.4001
  C  C1120  1  0.100200  0.524000  0.848490  1.0  0.1139
  C  C1121  1  0.043390  0.539300  0.837130  1.0  0.0485
  C  C1122  1  0.079700  0.488500  0.607120  1.0  0.3952
  C  C1123  1  0.097300  0.503200  0.879280  1.0  -0.3861
  C  C1124  1  0.144500  0.564600  0.847160  1.0  -0.3574
  C  C1125  1  0.305200  0.588800  0.787220  1.0  0.1238
  C  C1126  1  0.297700  0.626400  0.812320  1.0  0.0016
  C  C1127  1  0.317800  0.681100  0.805610  1.0  0.6714
  C  C1128  1  0.367540  0.581500  0.779890  1.0  -0.3795
  C  C1129  1  0.275500  0.602000  0.761600  1.0  -0.4065
  C  C1130  1  0.291500  0.448100  0.898410  1.0  0.0966
  C  C1131  1  0.338600  0.483300  0.902960  1.0  0.0193
  C  C1132  1  0.343400  0.507900  0.934670  1.0  0.3731
  C  C1133  1  0.237500  0.479000  0.907870  1.0  -0.3755
  C  C1134  1  0.295800  0.394410  0.910460  1.0  -0.4048
  C  C1135  1  0.458100  0.421500  0.803410  1.0  0.069
  C  C1136  1  0.499600  0.379900  0.810090  1.0  -0.0687
  C  C1137  1  0.552300  0.401200  0.816190  1.0  0.6403
  C  C1138  1  0.471100  0.456600  0.777770  1.0  -0.3971
  C  C1139  1  0.448600  0.457200  0.830430  1.0  -0.4066
  C  C1140  1  0.367270  0.225400  0.732860  1.0  0.095
  C  C1141  1  0.420200  0.243100  0.719110  1.0  -0.0059
  C  C1142  1  0.053900  0.701500  0.549580  1.0  0.6316
  C  C1143  1  0.374700  0.178000  0.751260  1.0  -0.3938
  C  C1144  1  0.326100  0.219100  0.711690  1.0  -0.4004
  C  C1145  1  0.345130  0.212700  0.848780  1.0  0.0636
  C  C1146  1  0.347500  0.205000  0.880200  1.0  -0.0237
  C  C1147  1  0.384500  0.161800  0.889300  1.0  0.5301
  C  C1148  1  0.322500  0.159100  0.834540  1.0  -0.3799
  C  C1149  1  0.401700  0.226100  0.835770  1.0  -0.3928
  C  C1150  1  0.124900  0.311550  0.886500  1.0  0.0967
  C  C1151  1  0.119700  0.254600  0.895970  1.0  -0.103
  C  C1152  1  0.080500  0.241500  0.921180  1.0  0.6014
  C  C1153  1  0.143700  0.345500  0.909080  1.0  -0.4065
  C  C1154  1  0.064400  0.327000  0.874610  1.0  -0.3902
  C  C1155  1  0.130810  0.566600  0.563820  1.0  0.5469
  C  C1156  1  0.163500  0.546300  0.535740  1.0  -0.4461
  C  C1157  1  0.957800  0.138200  0.446670  1.0  0.1037
  C  C1158  1  0.975200  0.163900  0.419320  1.0  -0.0199
  C  C1159  1  0.001200  0.116700  0.398220  1.0  0.5435
  C  C1160  1  0.996000  0.104300  0.459670  1.0  -0.3833
  C  C1161  1  0.904600  0.107900  0.440440  1.0  -0.4042
  C  C1162  1  0.022800  0.382100  0.466460  1.0  0.1126
  C  C1163  1  0.073960  0.357740  0.456160  1.0  0.023
  C  C1164  1  0.105200  0.395500  0.437590  1.0  0.6081
  C  C1165  1  0.986900  0.398700  0.440600  1.0  -0.4052
  C  C1166  1  0.028700  0.426300  0.489580  1.0  -0.413
  C  C1167  1  0.819000  0.331000  0.431560  1.0  0.0902
  C  C1168  1  0.765400  0.314400  0.419200  1.0  -0.0283
  C  C1169  1  0.756200  0.335200  0.387360  1.0  0.4521
  C  C1170  1  0.828600  0.392650  0.430160  1.0  -0.3811
  C  C1171  1  0.863500  0.301500  0.419320  1.0  -0.3978
  C  C1172  1  0.655000  0.324600  0.532460  1.0  0.1042
  C  C1173  1  0.639400  0.373900  0.516210  1.0  -0.0063
  C  C1174  1  0.574100  0.378900  0.516060  1.0  0.3731
  C  C1175  1  0.628900  0.268500  0.522040  1.0  -0.3858
  C  C1176  1  0.647200  0.329000  0.561600  1.0  -0.4193
  C  C1177  1  0.841200  0.482700  0.516720  1.0  0.0992
  C  C1178  1  0.840800  0.523780  0.540300  1.0  0.0283
  C  C1179  1  0.827800  0.577000  0.528130  1.0  0.6054
  C  C1180  1  0.882200  0.494100  0.494040  1.0  -0.3982
  C  C1181  1  0.787500  0.467600  0.502490  1.0  -0.4004
  C  C1182  1  0.024000  0.399800  0.598490  1.0  0.1136
  C  C1183  1  0.039300  0.456610  0.587130  1.0  0.0473
  C  C1184  1  0.988500  0.420300  0.357120  1.0  0.393
  C  C1185  1  0.003200  0.402700  0.629280  1.0  -0.3875
  C  C1186  1  0.064600  0.355500  0.597160  1.0  -0.3609
  C  C1187  1  0.088800  0.194800  0.537220  1.0  0.1239
  C  C1188  1  0.126400  0.202300  0.562320  1.0  0.0046
  C  C1189  1  0.181100  0.182200  0.555610  1.0  0.6721
  C  C1190  1  0.081500  0.132460  0.529890  1.0  -0.3793
  C  C1191  1  0.102000  0.224500  0.511600  1.0  -0.4018
  C  C1192  1  0.948100  0.208500  0.648410  1.0  0.0987
  C  C1193  1  0.983300  0.161400  0.652960  1.0  0.0169
  C  C1194  1  0.007900  0.156600  0.684670  1.0  0.373
  C  C1195  1  0.979000  0.262500  0.657870  1.0  -0.3789
  C  C1196  1  0.894410  0.204200  0.660460  1.0  -0.405
  C  C1197  1  0.921500  0.041900  0.553410  1.0  0.0698
  C  C1198  1  0.879900  0.000400  0.560090  1.0  -0.0676
  C  C1199  1  0.901200  0.947700  0.566190  1.0  0.6429
  C  C1200  1  0.956600  0.028900  0.527770  1.0  -0.3973
  C  C1201  1  0.957200  0.051400  0.580430  1.0  -0.4064
  C  C1202  1  0.725400  0.132730  0.482860  1.0  0.095
  C  C1203  1  0.743100  0.079800  0.469110  1.0  -0.0046
  C  C1204  1  0.201500  0.446100  0.299580  1.0  0.6354
  C  C1205  1  0.678000  0.125300  0.501260  1.0  -0.3925
  C  C1206  1  0.719100  0.173900  0.461690  1.0  -0.3998
  C  C1207  1  0.712700  0.154870  0.598780  1.0  0.065
  C  C1208  1  0.705000  0.152500  0.630200  1.0  -0.0222
  C  C1209  1  0.661800  0.115500  0.639300  1.0  0.5314
  C  C1210  1  0.659100  0.177500  0.584540  1.0  -0.3798
  C  C1211  1  0.726100  0.098300  0.585770  1.0  -0.3936
  C  C1212  1  0.811550  0.375100  0.636500  1.0  0.0965
  C  C1213  1  0.754600  0.380300  0.645970  1.0  -0.1048
  C  C1214  1  0.741500  0.419500  0.671180  1.0  0.6014
  C  C1215  1  0.845500  0.356300  0.659080  1.0  -0.4081
  C  C1216  1  0.827000  0.435600  0.624610  1.0  -0.3898
  C  C1217  1  0.066600  0.369190  0.313820  1.0  0.5469
  C  C1218  1  0.046300  0.336500  0.285740  1.0  -0.4463
  C  C1219  1  0.042200  0.861800  0.946670  1.0  0.1018
  C  C1220  1  0.024800  0.836100  0.919320  1.0  -0.0204
  C  C1221  1  0.998800  0.883300  0.898220  1.0  0.542
  C  C1222  1  0.004000  0.895700  0.959670  1.0  -0.3825
  C  C1223  1  0.095400  0.892100  0.940440  1.0  -0.4021
  C  C1224  1  0.977200  0.617900  0.966460  1.0  0.1139
  C  C1225  1  0.926040  0.642260  0.956160  1.0  0.0208
  C  C1226  1  0.894800  0.604500  0.937590  1.0  0.6067
  C  C1227  1  0.013100  0.601300  0.940600  1.0  -0.4062
  C  C1228  1  0.971300  0.573700  0.989580  1.0  -0.4124
  C  C1229  1  0.181000  0.669000  0.931560  1.0  0.0925
  C  C1230  1  0.234600  0.685600  0.919200  1.0  -0.027
  C  C1231  1  0.243800  0.664800  0.887360  1.0  0.4491
  C  C1232  1  0.171400  0.607350  0.930160  1.0  -0.3814
  C  C1233  1  0.136500  0.698500  0.919320  1.0  -0.3962
  C  C1234  1  0.345000  0.675400  0.032460  1.0  0.1031
  C  C1235  1  0.360600  0.626100  0.016210  1.0  -0.0055
  C  C1236  1  0.425900  0.621100  0.016060  1.0  0.3732
  C  C1237  1  0.371100  0.731500  0.022040  1.0  -0.3869
  C  C1238  1  0.352800  0.671000  0.061600  1.0  -0.4184
  C  C1239  1  0.158800  0.517300  0.016720  1.0  0.098
  C  C1240  1  0.159200  0.476220  0.040300  1.0  0.0308
  C  C1241  1  0.172200  0.423000  0.028130  1.0  0.6087
  C  C1242  1  0.117800  0.505900  0.994040  1.0  -0.3971
  C  C1243  1  0.212500  0.532400  0.002490  1.0  -0.3993
  C  C1244  1  0.976000  0.600200  0.098490  1.0  0.1133
  C  C1245  1  0.960700  0.543390  0.087130  1.0  0.048
  C  C1246  1  0.011500  0.579700  0.857120  1.0  0.3889
  C  C1247  1  0.996800  0.597300  0.129280  1.0  -0.3889
  C  C1248  1  0.935400  0.644500  0.097160  1.0  -0.3597
  C  C1249  1  0.911200  0.805200  0.037220  1.0  0.1233
  C  C1250  1  0.873600  0.797700  0.062320  1.0  0.0051
  C  C1251  1  0.818900  0.817800  0.055610  1.0  0.668
  C  C1252  1  0.918500  0.867540  0.029890  1.0  -0.3799
  C  C1253  1  0.898000  0.775500  0.011600  1.0  -0.4025
  C  C1254  1  0.051900  0.791500  0.148410  1.0  0.0985
  C  C1255  1  0.016700  0.838600  0.152960  1.0  0.0199
  C  C1256  1  0.992100  0.843400  0.184670  1.0  0.3716
  C  C1257  1  0.021000  0.737500  0.157870  1.0  -0.3777
  C  C1258  1  0.105590  0.795800  0.160460  1.0  -0.4037
  C  C1259  1  0.078500  0.958100  0.053410  1.0  0.0689
  C  C1260  1  0.120100  0.999600  0.060090  1.0  -0.0684
  C  C1261  1  0.098800  0.052300  0.066190  1.0  0.6423
  C  C1262  1  0.043400  0.971100  0.027770  1.0  -0.3961
  C  C1263  1  0.042800  0.948600  0.080430  1.0  -0.4061
  C  C1264  1  0.274600  0.867270  0.982860  1.0  0.0951
  C  C1265  1  0.256900  0.920200  0.969110  1.0  -0.0039
  C  C1266  1  0.798500  0.553900  0.799580  1.0  0.6344
  C  C1267  1  0.322000  0.874700  0.001260  1.0  -0.3925
  C  C1268  1  0.280900  0.826100  0.961690  1.0  -0.3997
  C  C1269  1  0.287300  0.845130  0.098780  1.0  0.0621
  C  C1270  1  0.295000  0.847500  0.130200  1.0  -0.0231
  C  C1271  1  0.338200  0.884500  0.139300  1.0  0.5316
  C  C1272  1  0.340900  0.822500  0.084540  1.0  -0.3793
  C  C1273  1  0.273900  0.901700  0.085770  1.0  -0.3938
  C  C1274  1  0.188450  0.624900  0.136500  1.0  0.0969
  C  C1275  1  0.245400  0.619700  0.145970  1.0  -0.1036
  C  C1276  1  0.258500  0.580500  0.171180  1.0  0.6039
  C  C1277  1  0.154500  0.643700  0.159080  1.0  -0.4081
  C  C1278  1  0.173000  0.564400  0.124610  1.0  -0.3903
  C  C1279  1  0.933400  0.630810  0.813820  1.0  0.5466
  C  C1280  1  0.953700  0.663500  0.785740  1.0  -0.4472
  C  C1281  1  0.861800  0.042200  0.053330  1.0  0.1003
  C  C1282  1  0.836100  0.024800  0.080680  1.0  -0.0216
  C  C1283  1  0.883300  0.998800  0.101780  1.0  0.5423
  C  C1284  1  0.895700  0.004000  0.040330  1.0  -0.3817
  C  C1285  1  0.892100  0.095400  0.059560  1.0  -0.4038
  C  C1286  1  0.617900  0.977200  0.033540  1.0  0.1143
  C  C1287  1  0.642260  0.926040  0.043840  1.0  0.0219
  C  C1288  1  0.604500  0.894800  0.062410  1.0  0.6169
  C  C1289  1  0.601300  0.013100  0.059400  1.0  -0.4057
  C  C1290  1  0.573700  0.971300  0.010420  1.0  -0.4127
  C  C1291  1  0.669000  0.181000  0.068440  1.0  0.0882
  C  C1292  1  0.685600  0.234600  0.080800  1.0  -0.0293
  C  C1293  1  0.664800  0.243800  0.112640  1.0  0.4522
  C  C1294  1  0.607350  0.171400  0.069840  1.0  -0.3794
  C  C1295  1  0.698500  0.136500  0.080680  1.0  -0.3978
  C  C1296  1  0.675400  0.345000  0.967540  1.0  0.1038
  C  C1297  1  0.626100  0.360600  0.983790  1.0  -0.0074
  C  C1298  1  0.621100  0.425900  0.983940  1.0  0.3776
  C  C1299  1  0.731500  0.371100  0.977960  1.0  -0.3838
  C  C1300  1  0.671000  0.352800  0.938400  1.0  -0.4175
  C  C1301  1  0.517300  0.158800  0.983280  1.0  0.0982
  C  C1302  1  0.476220  0.159200  0.959700  1.0  0.0278
  C  C1303  1  0.423000  0.172200  0.971870  1.0  0.6018
  C  C1304  1  0.505900  0.117800  0.005960  1.0  -0.3996
  C  C1305  1  0.532400  0.212500  0.997510  1.0  -0.3989
  C  C1306  1  0.600200  0.976000  0.901510  1.0  0.115
  C  C1307  1  0.543390  0.960700  0.912870  1.0  0.0471
  C  C1308  1  0.579700  0.011500  0.142880  1.0  0.3953
  C  C1309  1  0.597300  0.996800  0.870720  1.0  -0.385
  C  C1310  1  0.644500  0.935400  0.902840  1.0  -0.3584
  C  C1311  1  0.805200  0.911200  0.962780  1.0  0.1225
  C  C1312  1  0.797700  0.873600  0.937680  1.0  0.0019
  C  C1313  1  0.817800  0.818900  0.944390  1.0  0.6709
  C  C1314  1  0.867540  0.918500  0.970110  1.0  -0.3783
  C  C1315  1  0.775500  0.898000  0.988400  1.0  -0.4076
  C  C1316  1  0.791500  0.051900  0.851590  1.0  0.1004
  C  C1317  1  0.838600  0.016700  0.847040  1.0  0.0204
  C  C1318  1  0.843400  0.992100  0.815330  1.0  0.3705
  C  C1319  1  0.737500  0.021000  0.842130  1.0  -0.3756
  C  C1320  1  0.795800  0.105590  0.839540  1.0  -0.4062
  C  C1321  1  0.958100  0.078500  0.946590  1.0  0.067
  C  C1322  1  0.999600  0.120100  0.939910  1.0  -0.0689
  C  C1323  1  0.052300  0.098800  0.933810  1.0  0.6424
  C  C1324  1  0.971100  0.043400  0.972230  1.0  -0.3972
  C  C1325  1  0.948600  0.042800  0.919570  1.0  -0.4058
  C  C1326  1  0.867270  0.274600  0.017140  1.0  0.0917
  C  C1327  1  0.920200  0.256900  0.030890  1.0  -0.005
  C  C1328  1  0.553900  0.798500  0.200420  1.0  0.6342
  C  C1329  1  0.874700  0.322000  0.998740  1.0  -0.3939
  C  C1330  1  0.826100  0.280900  0.038310  1.0  -0.4014
  C  C1331  1  0.845130  0.287300  0.901220  1.0  0.0672
  C  C1332  1  0.847500  0.295000  0.869800  1.0  -0.0242
  C  C1333  1  0.884500  0.338200  0.860700  1.0  0.5277
  C  C1334  1  0.822500  0.340900  0.915460  1.0  -0.3809
  C  C1335  1  0.901700  0.273900  0.914230  1.0  -0.3931
  C  C1336  1  0.624900  0.188450  0.863500  1.0  0.0971
  C  C1337  1  0.619700  0.245400  0.854030  1.0  -0.1015
  C  C1338  1  0.580500  0.258500  0.828820  1.0  0.6005
  C  C1339  1  0.643700  0.154500  0.840920  1.0  -0.4064
  C  C1340  1  0.564400  0.173000  0.875390  1.0  -0.391
  C  C1341  1  0.630810  0.933400  0.186180  1.0  0.5478
  C  C1342  1  0.663500  0.953700  0.214260  1.0  -0.447
  C  C1343  1  0.138200  0.957800  0.553330  1.0  0.1009
  C  C1344  1  0.163900  0.975200  0.580680  1.0  -0.0192
  C  C1345  1  0.116700  0.001200  0.601780  1.0  0.5419
  C  C1346  1  0.104300  0.996000  0.540330  1.0  -0.3811
  C  C1347  1  0.107900  0.904600  0.559560  1.0  -0.4028
  C  C1348  1  0.382100  0.022800  0.533540  1.0  0.1126
  C  C1349  1  0.357740  0.073960  0.543840  1.0  0.0237
  C  C1350  1  0.395500  0.105200  0.562410  1.0  0.6194
  C  C1351  1  0.398700  0.986900  0.559400  1.0  -0.4055
  C  C1352  1  0.426300  0.028700  0.510420  1.0  -0.4135
  C  C1353  1  0.331000  0.819000  0.568440  1.0  0.0894
  C  C1354  1  0.314400  0.765400  0.580800  1.0  -0.0313
  C  C1355  1  0.335200  0.756200  0.612640  1.0  0.448
  C  C1356  1  0.392650  0.828600  0.569840  1.0  -0.3792
  C  C1357  1  0.301500  0.863500  0.580680  1.0  -0.3978
  C  C1358  1  0.324600  0.655000  0.467540  1.0  0.1021
  C  C1359  1  0.373900  0.639400  0.483790  1.0  -0.0075
  C  C1360  1  0.378900  0.574100  0.483940  1.0  0.3773
  C  C1361  1  0.268500  0.628900  0.477960  1.0  -0.3866
  C  C1362  1  0.329000  0.647200  0.438400  1.0  -0.4186
  C  C1363  1  0.482700  0.841200  0.483280  1.0  0.0988
  C  C1364  1  0.523780  0.840800  0.459700  1.0  0.0283
  C  C1365  1  0.577000  0.827800  0.471870  1.0  0.6051
  C  C1366  1  0.494100  0.882200  0.505960  1.0  -0.3991
  C  C1367  1  0.467600  0.787500  0.497510  1.0  -0.3982
  C  C1368  1  0.399800  0.024000  0.401510  1.0  0.1153
  C  C1369  1  0.456610  0.039300  0.412870  1.0  0.048
  C  C1370  1  0.420300  0.988500  0.642880  1.0  0.3915
  C  C1371  1  0.402700  0.003200  0.370720  1.0  -0.386
  C  C1372  1  0.355500  0.064600  0.402840  1.0  -0.3588
  C  C1373  1  0.194800  0.088800  0.462780  1.0  0.1231
  C  C1374  1  0.202300  0.126400  0.437680  1.0  0.0047
  C  C1375  1  0.182200  0.181100  0.444390  1.0  0.6719
  C  C1376  1  0.132460  0.081500  0.470110  1.0  -0.3777
  C  C1377  1  0.224500  0.102000  0.488400  1.0  -0.4056
  C  C1378  1  0.208500  0.948100  0.351590  1.0  0.1002
  C  C1379  1  0.161400  0.983300  0.347040  1.0  0.0162
  C  C1380  1  0.156600  0.007900  0.315330  1.0  0.3738
  C  C1381  1  0.262500  0.979000  0.342130  1.0  -0.3755
  C  C1382  1  0.204200  0.894410  0.339540  1.0  -0.4045
  C  C1383  1  0.041900  0.921500  0.446590  1.0  0.0682
  C  C1384  1  0.000400  0.879900  0.439910  1.0  -0.0694
  C  C1385  1  0.947700  0.901200  0.433810  1.0  0.6419
  C  C1386  1  0.028900  0.956600  0.472230  1.0  -0.3963
  C  C1387  1  0.051400  0.957200  0.419570  1.0  -0.4074
  C  C1388  1  0.132730  0.725400  0.517140  1.0  0.0942
  C  C1389  1  0.079800  0.743100  0.530890  1.0  -0.0061
  C  C1390  1  0.446100  0.201500  0.700420  1.0  0.6342
  C  C1391  1  0.125300  0.678000  0.498740  1.0  -0.3944
  C  C1392  1  0.173900  0.719100  0.538310  1.0  -0.3998
  C  C1393  1  0.154870  0.712700  0.401220  1.0  0.0658
  C  C1394  1  0.152500  0.705000  0.369800  1.0  -0.025
  C  C1395  1  0.115500  0.661800  0.360700  1.0  0.5304
  C  C1396  1  0.177500  0.659100  0.415460  1.0  -0.381
  C  C1397  1  0.098300  0.726100  0.414230  1.0  -0.3933
  C  C1398  1  0.375100  0.811550  0.363500  1.0  0.0965
  C  C1399  1  0.380300  0.754600  0.354030  1.0  -0.1023
  C  C1400  1  0.419500  0.741500  0.328820  1.0  0.5996
  C  C1401  1  0.356300  0.845500  0.340920  1.0  -0.4057
  C  C1402  1  0.435600  0.827000  0.375390  1.0  -0.392
  C  C1403  1  0.369190  0.066600  0.686180  1.0  0.5483
  C  C1404  1  0.336500  0.046300  0.714260  1.0  -0.4451
  C  C1405  1  0.542200  0.638200  0.803330  1.0  0.102
  C  C1406  1  0.524800  0.663900  0.830680  1.0  -0.02
  C  C1407  1  0.498800  0.616700  0.851780  1.0  0.5408
  C  C1408  1  0.504000  0.604300  0.790330  1.0  -0.3822
  C  C1409  1  0.595400  0.607900  0.809560  1.0  -0.4034
  C  C1410  1  0.477200  0.882100  0.783540  1.0  0.1128
  C  C1411  1  0.426040  0.857740  0.793840  1.0  0.0211
  C  C1412  1  0.394800  0.895500  0.812410  1.0  0.6094
  C  C1413  1  0.513100  0.898700  0.809400  1.0  -0.4068
  C  C1414  1  0.471300  0.926300  0.760420  1.0  -0.4123
  C  C1415  1  0.681000  0.831000  0.818440  1.0  0.0892
  C  C1416  1  0.734600  0.814400  0.830800  1.0  -0.0285
  C  C1417  1  0.743800  0.835200  0.862640  1.0  0.4497
  C  C1418  1  0.671400  0.892650  0.819840  1.0  -0.3803
  C  C1419  1  0.636500  0.801500  0.830680  1.0  -0.396
  C  C1420  1  0.845000  0.824600  0.717540  1.0  0.1045
  C  C1421  1  0.860600  0.873900  0.733790  1.0  -0.006
  C  C1422  1  0.925900  0.878900  0.733940  1.0  0.3736
  C  C1423  1  0.871100  0.768500  0.727960  1.0  -0.3867
  C  C1424  1  0.852800  0.829000  0.688400  1.0  -0.4189
  C  C1425  1  0.658800  0.982700  0.733280  1.0  0.0976
  C  C1426  1  0.659200  0.023780  0.709700  1.0  0.0296
  C  C1427  1  0.672200  0.077000  0.721870  1.0  0.6055
  C  C1428  1  0.617800  0.994100  0.755960  1.0  -0.3971
  C  C1429  1  0.712500  0.967600  0.747510  1.0  -0.3998
  C  C1430  1  0.476000  0.899800  0.651510  1.0  0.1155
  C  C1431  1  0.460700  0.956610  0.662870  1.0  0.0479
  C  C1432  1  0.511500  0.920300  0.892880  1.0  0.3908
  C  C1433  1  0.496800  0.902700  0.620720  1.0  -0.3885
  C  C1434  1  0.435400  0.855500  0.652840  1.0  -0.3602
  C  C1435  1  0.411200  0.694800  0.712780  1.0  0.1231
  C  C1436  1  0.373600  0.702300  0.687680  1.0  0.0045
  C  C1437  1  0.318900  0.682200  0.694390  1.0  0.6699
  C  C1438  1  0.418500  0.632460  0.720110  1.0  -0.3808
  C  C1439  1  0.398000  0.724500  0.738400  1.0  -0.403
  C  C1440  1  0.551900  0.708500  0.601590  1.0  0.1016
  C  C1441  1  0.516700  0.661400  0.597040  1.0  0.0182
  C  C1442  1  0.492100  0.656600  0.565330  1.0  0.3763
  C  C1443  1  0.521000  0.762500  0.592130  1.0  -0.3781
  C  C1444  1  0.605590  0.704200  0.589540  1.0  -0.4044
  C  C1445  1  0.578500  0.541900  0.696590  1.0  0.0674
  C  C1446  1  0.620100  0.500400  0.689910  1.0  -0.0684
  C  C1447  1  0.598800  0.447700  0.683810  1.0  0.6456
  C  C1448  1  0.543400  0.528900  0.722230  1.0  -0.3965
  C  C1449  1  0.542800  0.551400  0.669570  1.0  -0.4055
  C  C1450  1  0.774600  0.632730  0.767140  1.0  0.0936
  C  C1451  1  0.756900  0.579800  0.780890  1.0  -0.0035
  C  C1452  1  0.298500  0.946100  0.950420  1.0  0.6357
  C  C1453  1  0.822000  0.625300  0.748740  1.0  -0.3939
  C  C1454  1  0.780900  0.673900  0.788310  1.0  -0.3995
  C  C1455  1  0.787300  0.654870  0.651220  1.0  0.0636
  C  C1456  1  0.795000  0.652500  0.619800  1.0  -0.0229
  C  C1457  1  0.838200  0.615500  0.610700  1.0  0.5323
  C  C1458  1  0.840900  0.677500  0.665460  1.0  -0.3787
  C  C1459  1  0.773900  0.598300  0.664230  1.0  -0.3933
  C  C1460  1  0.688450  0.875100  0.613500  1.0  0.0968
  C  C1461  1  0.745400  0.880300  0.604030  1.0  -0.1034
  C  C1462  1  0.758500  0.919500  0.578820  1.0  0.6009
  C  C1463  1  0.654500  0.856300  0.590920  1.0  -0.4069
  C  C1464  1  0.673000  0.935600  0.625390  1.0  -0.3908
  C  C1465  1  0.433400  0.869190  0.936180  1.0  0.548
  C  C1466  1  0.453700  0.836500  0.964260  1.0  -0.4464
  C  C1467  1  0.457800  0.361800  0.303330  1.0  0.0989
  C  C1468  1  0.475200  0.336100  0.330680  1.0  -0.0212
  C  C1469  1  0.501200  0.383300  0.351780  1.0  0.541
  C  C1470  1  0.496000  0.395700  0.290330  1.0  -0.3818
  C  C1471  1  0.404600  0.392100  0.309560  1.0  -0.4036
  C  C1472  1  0.522800  0.117900  0.283540  1.0  0.1125
  C  C1473  1  0.573960  0.142260  0.293840  1.0  0.022
  C  C1474  1  0.605200  0.104500  0.312410  1.0  0.6108
  C  C1475  1  0.486900  0.101300  0.309400  1.0  -0.4039
  C  C1476  1  0.528700  0.073700  0.260420  1.0  -0.4137
  C  C1477  1  0.319000  0.169000  0.318440  1.0  0.0881
  C  C1478  1  0.265400  0.185600  0.330800  1.0  -0.0275
  C  C1479  1  0.256200  0.164800  0.362640  1.0  0.4464
  C  C1480  1  0.328600  0.107350  0.319840  1.0  -0.3811
  C  C1481  1  0.363500  0.198500  0.330680  1.0  -0.3961
  C  C1482  1  0.155000  0.175400  0.217540  1.0  0.1056
  C  C1483  1  0.139400  0.126100  0.233790  1.0  -0.0072
  C  C1484  1  0.074100  0.121100  0.233940  1.0  0.3721
  C  C1485  1  0.128900  0.231500  0.227960  1.0  -0.386
  C  C1486  1  0.147200  0.171000  0.188400  1.0  -0.4183
  C  C1487  1  0.341200  0.017300  0.233280  1.0  0.097
  C  C1488  1  0.340800  0.976220  0.209700  1.0  0.028
  C  C1489  1  0.327800  0.923000  0.221870  1.0  0.6075
  C  C1490  1  0.382200  0.005900  0.255960  1.0  -0.3993
  C  C1491  1  0.287500  0.032400  0.247510  1.0  -0.4002
  C  C1492  1  0.524000  0.100200  0.151510  1.0  0.115
  C  C1493  1  0.539300  0.043390  0.162870  1.0  0.0477
  C  C1494  1  0.488500  0.079700  0.392880  1.0  0.391
  C  C1495  1  0.503200  0.097300  0.120720  1.0  -0.3872
  C  C1496  1  0.564600  0.144500  0.152840  1.0  -0.3601
  C  C1497  1  0.588800  0.305200  0.212780  1.0  0.1227
  C  C1498  1  0.626400  0.297700  0.187680  1.0  0.0053
  C  C1499  1  0.681100  0.317800  0.194390  1.0  0.6737
  C  C1500  1  0.581500  0.367540  0.220110  1.0  -0.3796
  C  C1501  1  0.602000  0.275500  0.238400  1.0  -0.4029
  C  C1502  1  0.448100  0.291500  0.101590  1.0  0.101
  C  C1503  1  0.483300  0.338600  0.097040  1.0  0.0179
  C  C1504  1  0.507900  0.343400  0.065330  1.0  0.374
  C  C1505  1  0.479000  0.237500  0.092130  1.0  -0.3795
  C  C1506  1  0.394410  0.295800  0.089540  1.0  -0.4054
  C  C1507  1  0.421500  0.458100  0.196590  1.0  0.0677
  C  C1508  1  0.379900  0.499600  0.189910  1.0  -0.0674
  C  C1509  1  0.401200  0.552300  0.183810  1.0  0.6435
  C  C1510  1  0.456600  0.471100  0.222230  1.0  -0.3977
  C  C1511  1  0.457200  0.448600  0.169570  1.0  -0.4063
  C  C1512  1  0.225400  0.367270  0.267140  1.0  0.0924
  C  C1513  1  0.243100  0.420200  0.280890  1.0  -0.0031
  C  C1514  1  0.701500  0.053900  0.450420  1.0  0.6374
  C  C1515  1  0.178000  0.374700  0.248740  1.0  -0.3924
  C  C1516  1  0.219100  0.326100  0.288310  1.0  -0.4
  C  C1517  1  0.212700  0.345130  0.151220  1.0  0.0653
  C  C1518  1  0.205000  0.347500  0.119800  1.0  -0.0225
  C  C1519  1  0.161800  0.384500  0.110700  1.0  0.5307
  C  C1520  1  0.159100  0.322500  0.165460  1.0  -0.3805
  C  C1521  1  0.226100  0.401700  0.164230  1.0  -0.3936
  C  C1522  1  0.311550  0.124900  0.113500  1.0  0.0968
  C  C1523  1  0.254600  0.119700  0.104030  1.0  -0.1046
  C  C1524  1  0.241500  0.080500  0.078820  1.0  0.602
  C  C1525  1  0.345500  0.143700  0.090920  1.0  -0.4071
  C  C1526  1  0.327000  0.064400  0.125390  1.0  -0.3907
  C  C1527  1  0.566600  0.130810  0.436180  1.0  0.5478
  C  C1528  1  0.546300  0.163500  0.464260  1.0  -0.447
  S  S1529  1  0.698840  0.557920  0.219610  1.0  0.0415
  S  S1530  1  0.826660  0.514570  0.235040  1.0  0.0232
  S  S1531  1  0.811020  0.686650  0.220050  1.0  0.0424
  S  S1532  1  0.819840  0.771790  0.276090  1.0  0.0452
  S  S1533  1  0.919830  0.636600  0.284420  1.0  -0.0097
  S  S1534  1  0.875380  0.531390  0.324500  1.0  0.0606
  S  S1535  1  0.717520  0.480070  0.300610  1.0  0.0223
  S  S1536  1  0.710500  0.560020  0.358980  1.0  0.0305
  S  S1537  1  0.606910  0.615630  0.296940  1.0  0.0367
  S  S1538  1  0.653900  0.715160  0.254060  1.0  0.0632
  S  S1539  1  0.699450  0.730430  0.340330  1.0  0.0243
  S  S1540  1  0.827130  0.688340  0.356530  1.0  -0.0186
  S  S1541  1  0.301160  0.442080  0.719610  1.0  0.0415
  S  S1542  1  0.173340  0.485430  0.735040  1.0  0.0208
  S  S1543  1  0.188980  0.313350  0.720050  1.0  0.0442
  S  S1544  1  0.180160  0.228210  0.776090  1.0  0.0491
  S  S1545  1  0.080170  0.363400  0.784420  1.0  -0.0126
  S  S1546  1  0.124620  0.468610  0.824500  1.0  0.0557
  S  S1547  1  0.282480  0.519930  0.800610  1.0  0.0206
  S  S1548  1  0.289500  0.439980  0.858980  1.0  0.0302
  S  S1549  1  0.393090  0.384370  0.796940  1.0  0.0368
  S  S1550  1  0.346100  0.284840  0.754060  1.0  0.0675
  S  S1551  1  0.300550  0.269570  0.840330  1.0  0.0287
  S  S1552  1  0.172870  0.311660  0.856530  1.0  -0.0195
  S  S1553  1  0.942080  0.198840  0.469610  1.0  0.0414
  S  S1554  1  0.985430  0.326660  0.485040  1.0  0.0229
  S  S1555  1  0.813350  0.311020  0.470050  1.0  0.0435
  S  S1556  1  0.728210  0.319840  0.526090  1.0  0.0473
  S  S1557  1  0.863400  0.419830  0.534420  1.0  -0.0121
  S  S1558  1  0.968610  0.375380  0.574500  1.0  0.0571
  S  S1559  1  0.019930  0.217520  0.550610  1.0  0.0229
  S  S1560  1  0.939980  0.210500  0.608980  1.0  0.0317
  S  S1561  1  0.884370  0.106910  0.546940  1.0  0.0396
  S  S1562  1  0.784840  0.153900  0.504060  1.0  0.0667
  S  S1563  1  0.769570  0.199450  0.590330  1.0  0.0238
  S  S1564  1  0.811660  0.327130  0.606530  1.0  -0.0198
  S  S1565  1  0.057920  0.801160  0.969610  1.0  0.0399
  S  S1566  1  0.014570  0.673340  0.985040  1.0  0.0233
  S  S1567  1  0.186650  0.688980  0.970050  1.0  0.0425
  S  S1568  1  0.271790  0.680160  0.026090  1.0  0.0476
  S  S1569  1  0.136600  0.580170  0.034420  1.0  -0.0091
  S  S1570  1  0.031390  0.624620  0.074500  1.0  0.0582
  S  S1571  1  0.980070  0.782480  0.050610  1.0  0.02
  S  S1572  1  0.060020  0.789500  0.108980  1.0  0.0306
  S  S1573  1  0.115630  0.893090  0.046940  1.0  0.0357
  S  S1574  1  0.215160  0.846100  0.004060  1.0  0.065
  S  S1575  1  0.230430  0.800550  0.090330  1.0  0.0219
  S  S1576  1  0.188340  0.672870  0.106530  1.0  -0.0163
  S  S1577  1  0.801160  0.057920  0.030390  1.0  0.0422
  S  S1578  1  0.673340  0.014570  0.014960  1.0  0.0226
  S  S1579  1  0.688980  0.186650  0.029950  1.0  0.0448
  S  S1580  1  0.680160  0.271790  0.973910  1.0  0.0453
  S  S1581  1  0.580170  0.136600  0.965580  1.0  -0.0149
  S  S1582  1  0.624620  0.031390  0.925500  1.0  0.059
  S  S1583  1  0.782480  0.980070  0.949390  1.0  0.0233
  S  S1584  1  0.789500  0.060020  0.891020  1.0  0.03
  S  S1585  1  0.893090  0.115630  0.953060  1.0  0.0385
  S  S1586  1  0.846100  0.215160  0.995940  1.0  0.0618
  S  S1587  1  0.800550  0.230430  0.909670  1.0  0.0246
  S  S1588  1  0.672870  0.188340  0.893470  1.0  -0.019
  S  S1589  1  0.198840  0.942080  0.530390  1.0  0.0399
  S  S1590  1  0.326660  0.985430  0.514960  1.0  0.0229
  S  S1591  1  0.311020  0.813350  0.529950  1.0  0.0453
  S  S1592  1  0.319840  0.728210  0.473910  1.0  0.049
  S  S1593  1  0.419830  0.863400  0.465580  1.0  -0.0105
  S  S1594  1  0.375380  0.968610  0.425500  1.0  0.0558
  S  S1595  1  0.217520  0.019930  0.449390  1.0  0.0171
  S  S1596  1  0.210500  0.939980  0.391020  1.0  0.0297
  S  S1597  1  0.106910  0.884370  0.453060  1.0  0.0349
  S  S1598  1  0.153900  0.784840  0.495940  1.0  0.0682
  S  S1599  1  0.199450  0.769570  0.409670  1.0  0.0283
  S  S1600  1  0.327130  0.811660  0.393470  1.0  -0.0184
  S  S1601  1  0.557920  0.698840  0.780390  1.0  0.0415
  S  S1602  1  0.514570  0.826660  0.764960  1.0  0.0216
  S  S1603  1  0.686650  0.811020  0.779950  1.0  0.0439
  S  S1604  1  0.771790  0.819840  0.723910  1.0  0.0481
  S  S1605  1  0.636600  0.919830  0.715580  1.0  -0.0115
  S  S1606  1  0.531390  0.875380  0.675500  1.0  0.0564
  S  S1607  1  0.480070  0.717520  0.699390  1.0  0.0206
  S  S1608  1  0.560020  0.710500  0.641020  1.0  0.0306
  S  S1609  1  0.615630  0.606910  0.703060  1.0  0.039
  S  S1610  1  0.715160  0.653900  0.745940  1.0  0.0664
  S  S1611  1  0.730430  0.699450  0.659670  1.0  0.0265
  S  S1612  1  0.688340  0.827130  0.643470  1.0  -0.0183
  S  S1613  1  0.442080  0.301160  0.280390  1.0  0.0389
  S  S1614  1  0.485430  0.173340  0.264960  1.0  0.0243
  S  S1615  1  0.313350  0.188980  0.279950  1.0  0.044
  S  S1616  1  0.228210  0.180160  0.223910  1.0  0.0471
  S  S1617  1  0.363400  0.080170  0.215580  1.0  -0.0126
  S  S1618  1  0.468610  0.124620  0.175500  1.0  0.0575
  S  S1619  1  0.519930  0.282480  0.199390  1.0  0.0216
  S  S1620  1  0.439980  0.289500  0.141020  1.0  0.0312
  S  S1621  1  0.384370  0.393090  0.203060  1.0  0.0366
  S  S1622  1  0.284840  0.346100  0.245940  1.0  0.0675
  S  S1623  1  0.269570  0.300550  0.159670  1.0  0.0223
  S  S1624  1  0.311660  0.172870  0.143470  1.0  -0.0173
  Br  Br1625  1  0.764450  0.624350  0.289050  1.0  -0.1931
  Br  Br1626  1  0.235550  0.375650  0.789050  1.0  -0.1932
  Br  Br1627  1  0.875650  0.264450  0.539050  1.0  -0.1934
  Br  Br1628  1  0.124350  0.735550  0.039050  1.0  -0.193
  Br  Br1629  1  0.735550  0.124350  0.960950  1.0  -0.1926
  Br  Br1630  1  0.264450  0.875650  0.460950  1.0  -0.193
  Br  Br1631  1  0.624350  0.764450  0.710950  1.0  -0.1929
  Br  Br1632  1  0.375650  0.235550  0.210950  1.0  -0.1929
  N  N1633  1  0.704760  0.481500  0.174270  1.0  -0.6093
  N  N1634  1  0.808790  0.435680  0.189610  1.0  -0.6116
  N  N1635  1  0.841100  0.780080  0.184530  1.0  -0.6321
  N  N1636  1  0.867800  0.849400  0.234990  1.0  -0.6194
  N  N1637  1  0.026470  0.605220  0.304350  1.0  -0.5683
  N  N1638  1  0.988290  0.509380  0.335610  1.0  -0.6047
  N  N1639  1  0.672300  0.397230  0.337460  1.0  -0.5791
  N  N1640  1  0.663000  0.467350  0.387640  1.0  -0.5895
  N  N1641  1  0.497440  0.659680  0.284620  1.0  -0.6109
  N  N1642  1  0.539620  0.738930  0.240090  1.0  -0.59
  N  N1643  1  0.709860  0.796010  0.390370  1.0  -0.5414
  N  N1644  1  0.820130  0.768260  0.401660  1.0  -0.5682
  N  N1645  1  0.295240  0.518500  0.674270  1.0  -0.611
  N  N1646  1  0.191210  0.564320  0.689610  1.0  -0.6091
  N  N1647  1  0.158900  0.219920  0.684530  1.0  -0.6319
  N  N1648  1  0.132200  0.150600  0.734990  1.0  -0.6197
  N  N1649  1  0.973530  0.394780  0.804350  1.0  -0.5702
  N  N1650  1  0.011710  0.490620  0.835610  1.0  -0.6056
  N  N1651  1  0.327700  0.602770  0.837460  1.0  -0.5787
  N  N1652  1  0.337000  0.532650  0.887640  1.0  -0.5894
  N  N1653  1  0.502560  0.340320  0.784620  1.0  -0.609
  N  N1654  1  0.460380  0.261070  0.740090  1.0  -0.5894
  N  N1655  1  0.290140  0.203990  0.890370  1.0  -0.541
  N  N1656  1  0.179870  0.231740  0.901660  1.0  -0.5659
  N  N1657  1  0.018500  0.204760  0.424270  1.0  -0.6071
  N  N1658  1  0.064320  0.308790  0.439610  1.0  -0.6097
  N  N1659  1  0.719920  0.341100  0.434530  1.0  -0.6326
  N  N1660  1  0.650600  0.367800  0.484990  1.0  -0.6183
  N  N1661  1  0.894780  0.526470  0.554350  1.0  -0.5672
  N  N1662  1  0.990620  0.488290  0.585610  1.0  -0.6064
  N  N1663  1  0.102770  0.172300  0.587460  1.0  -0.579
  N  N1664  1  0.032650  0.163000  0.637640  1.0  -0.5886
  N  N1665  1  0.840320  0.997440  0.534620  1.0  -0.612
  N  N1666  1  0.761070  0.039620  0.490090  1.0  -0.5876
  N  N1667  1  0.703990  0.209860  0.640370  1.0  -0.5403
  N  N1668  1  0.731740  0.320130  0.651660  1.0  -0.5667
  N  N1669  1  0.981500  0.795240  0.924270  1.0  -0.6124
  N  N1670  1  0.935680  0.691210  0.939610  1.0  -0.6101
  N  N1671  1  0.280080  0.658900  0.934530  1.0  -0.6308
  N  N1672  1  0.349400  0.632200  0.984990  1.0  -0.6174
  N  N1673  1  0.105220  0.473530  0.054350  1.0  -0.5678
  N  N1674  1  0.009380  0.511710  0.085610  1.0  -0.6065
  N  N1675  1  0.897230  0.827700  0.087460  1.0  -0.5766
  N  N1676  1  0.967350  0.837000  0.137640  1.0  -0.5884
  N  N1677  1  0.159680  0.002560  0.034620  1.0  -0.6129
  N  N1678  1  0.238930  0.960380  0.990090  1.0  -0.5884
  N  N1679  1  0.296010  0.790140  0.140370  1.0  -0.5394
  N  N1680  1  0.268260  0.679870  0.151660  1.0  -0.5657
  N  N1681  1  0.795240  0.981500  0.075730  1.0  -0.6105
  N  N1682  1  0.691210  0.935680  0.060390  1.0  -0.6087
  N  N1683  1  0.658900  0.280080  0.065470  1.0  -0.6321
  N  N1684  1  0.632200  0.349400  0.015010  1.0  -0.6205
  N  N1685  1  0.473530  0.105220  0.945650  1.0  -0.5705
  N  N1686  1  0.511710  0.009380  0.914390  1.0  -0.6063
  N  N1687  1  0.827700  0.897230  0.912540  1.0  -0.5781
  N  N1688  1  0.837000  0.967350  0.862360  1.0  -0.5917
  N  N1689  1  0.002560  0.159680  0.965380  1.0  -0.6089
  N  N1690  1  0.960380  0.238930  0.009910  1.0  -0.5895
  N  N1691  1  0.790140  0.296010  0.859630  1.0  -0.5414
  N  N1692  1  0.679870  0.268260  0.848340  1.0  -0.5684
  N  N1693  1  0.204760  0.018500  0.575730  1.0  -0.6092
  N  N1694  1  0.308790  0.064320  0.560390  1.0  -0.6059
  N  N1695  1  0.341100  0.719920  0.565470  1.0  -0.6311
  N  N1696  1  0.367800  0.650600  0.515010  1.0  -0.6205
  N  N1697  1  0.526470  0.894780  0.445650  1.0  -0.568
  N  N1698  1  0.488290  0.990620  0.414390  1.0  -0.6045
  N  N1699  1  0.172300  0.102770  0.412540  1.0  -0.5781
  N  N1700  1  0.163000  0.032650  0.362360  1.0  -0.5907
  N  N1701  1  0.997440  0.840320  0.465380  1.0  -0.6095
  N  N1702  1  0.039620  0.761070  0.509910  1.0  -0.5901
  N  N1703  1  0.209860  0.703990  0.359630  1.0  -0.5413
  N  N1704  1  0.320130  0.731740  0.348340  1.0  -0.5693
  N  N1705  1  0.481500  0.704760  0.825730  1.0  -0.6103
  N  N1706  1  0.435680  0.808790  0.810390  1.0  -0.6089
  N  N1707  1  0.780080  0.841100  0.815470  1.0  -0.6313
  N  N1708  1  0.849400  0.867800  0.765010  1.0  -0.6193
  N  N1709  1  0.605220  0.026470  0.695650  1.0  -0.5683
  N  N1710  1  0.509380  0.988290  0.664390  1.0  -0.6056
  N  N1711  1  0.397230  0.672300  0.662540  1.0  -0.5765
  N  N1712  1  0.467350  0.663000  0.612360  1.0  -0.591
  N  N1713  1  0.659680  0.497440  0.715380  1.0  -0.6103
  N  N1714  1  0.738930  0.539620  0.759910  1.0  -0.5864
  N  N1715  1  0.796010  0.709860  0.609630  1.0  -0.5404
  N  N1716  1  0.768260  0.820130  0.598340  1.0  -0.5667
  N  N1717  1  0.518500  0.295240  0.325730  1.0  -0.6081
  N  N1718  1  0.564320  0.191210  0.310390  1.0  -0.6067
  N  N1719  1  0.219920  0.158900  0.315470  1.0  -0.6312
  N  N1720  1  0.150600  0.132200  0.265010  1.0  -0.6209
  N  N1721  1  0.394780  0.973530  0.195650  1.0  -0.5675
  N  N1722  1  0.490620  0.011710  0.164390  1.0  -0.6086
  N  N1723  1  0.602770  0.327700  0.162540  1.0  -0.5788
  N  N1724  1  0.532650  0.337000  0.112360  1.0  -0.5903
  N  N1725  1  0.340320  0.502560  0.215380  1.0  -0.6117
  N  N1726  1  0.261070  0.460380  0.259910  1.0  -0.5888
  N  N1727  1  0.203990  0.290140  0.109630  1.0  -0.5398
  N  N1728  1  0.231740  0.179870  0.098340  1.0  -0.5678
  O  O1729  1  0.609150  0.451470  0.149510  1.0  -0.5305
  O  O1730  1  0.593770  0.535600  0.133210  1.0  -0.5583
  O  O1731  1  0.887250  0.392730  0.161690  1.0  -0.6439
  O  O1732  1  0.935700  0.374100  0.198270  1.0  -0.4901
  O  O1733  1  0.874970  0.762480  0.130810  1.0  -0.5237
  O  O1734  1  0.797900  0.722800  0.122790  1.0  -0.5655
  O  O1735  1  0.859100  0.956300  0.243830  1.0  -0.6497
  O  O1736  1  0.902300  0.942000  0.288350  1.0  -0.6496
  O  O1737  1  0.113430  0.639000  0.274430  1.0  -0.4976
  O  O1738  1  0.089100  0.720400  0.276610  1.0  -0.499
  O  O1739  1  0.933720  0.474950  0.118670  1.0  -0.6222
  O  O1740  1  0.872360  0.536070  0.106550  1.0  -0.5928
  O  O1741  1  0.637520  0.302150  0.314730  1.0  -0.604
  O  O1742  1  0.713460  0.290440  0.292890  1.0  -0.516
  O  O1743  1  0.671860  0.452150  0.442230  1.0  -0.5225
  O  O1744  1  0.635900  0.530710  0.451420  1.0  -0.5593
  O  O1745  1  0.415440  0.589100  0.295810  1.0  -0.5681
  O  O1746  1  0.438100  0.585800  0.340100  1.0  -0.5011
  O  O1747  1  0.988940  0.321840  0.041240  1.0  -0.5917
  O  O1748  1  0.922790  0.310060  0.072700  1.0  -0.7158
  O  O1749  1  0.642790  0.881880  0.396870  1.0  -0.5551
  O  O1750  1  0.567800  0.838440  0.389920  1.0  -0.5298
  O  O1751  1  0.894610  0.765000  0.444360  1.0  -0.6664
  O  O1752  1  0.965660  0.755890  0.418800  1.0  -0.5331
  O  O1753  1  0.918770  0.429990  0.063180  1.0  -0.6682
  O  O1754  1  0.840900  0.409100  0.084760  1.0  -0.6741
  O  O1755  1  0.946100  0.128000  0.268500  1.0  -0.7772
  O  O1756  1  0.854000  0.010300  0.326740  1.0  -0.775
  O  O1757  1  0.390850  0.548530  0.649510  1.0  -0.5331
  O  O1758  1  0.406230  0.464400  0.633210  1.0  -0.5551
  O  O1759  1  0.112750  0.607270  0.661690  1.0  -0.6429
  O  O1760  1  0.064300  0.625900  0.698270  1.0  -0.4859
  O  O1761  1  0.125030  0.237520  0.630810  1.0  -0.5195
  O  O1762  1  0.202100  0.277200  0.622790  1.0  -0.5585
  O  O1763  1  0.140900  0.043700  0.743830  1.0  -0.648
  O  O1764  1  0.097700  0.058000  0.788350  1.0  -0.6483
  O  O1765  1  0.886570  0.361000  0.774430  1.0  -0.4993
  O  O1766  1  0.910900  0.279600  0.776610  1.0  -0.5004
  O  O1767  1  0.066280  0.525050  0.618670  1.0  -0.6238
  O  O1768  1  0.127640  0.463930  0.606550  1.0  -0.5959
  O  O1769  1  0.362480  0.697850  0.814730  1.0  -0.6027
  O  O1770  1  0.286540  0.709560  0.792890  1.0  -0.5162
  O  O1771  1  0.328140  0.547850  0.942230  1.0  -0.5207
  O  O1772  1  0.364100  0.469290  0.951420  1.0  -0.5604
  O  O1773  1  0.584560  0.410900  0.795810  1.0  -0.5632
  O  O1774  1  0.561900  0.414200  0.840100  1.0  -0.5017
  O  O1775  1  0.011060  0.678160  0.541240  1.0  -0.5916
  O  O1776  1  0.077210  0.689940  0.572700  1.0  -0.7151
  O  O1777  1  0.357210  0.118120  0.896870  1.0  -0.5581
  O  O1778  1  0.432200  0.161560  0.889920  1.0  -0.5305
  O  O1779  1  0.105390  0.235000  0.944360  1.0  -0.6665
  O  O1780  1  0.034340  0.244110  0.918800  1.0  -0.5341
  O  O1781  1  0.081230  0.570010  0.563180  1.0  -0.6693
  O  O1782  1  0.159100  0.590900  0.584760  1.0  -0.6761
  O  O1783  1  0.053900  0.872000  0.768500  1.0  -0.7731
  O  O1784  1  0.146000  0.989700  0.826740  1.0  -0.7754
  O  O1785  1  0.048530  0.109150  0.399510  1.0  -0.5363
  O  O1786  1  0.964400  0.093770  0.383210  1.0  -0.5616
  O  O1787  1  0.107270  0.387250  0.411690  1.0  -0.644
  O  O1788  1  0.125900  0.435700  0.448270  1.0  -0.4863
  O  O1789  1  0.737520  0.374970  0.380810  1.0  -0.5229
  O  O1790  1  0.777200  0.297900  0.372790  1.0  -0.5636
  O  O1791  1  0.543700  0.359100  0.493830  1.0  -0.6478
  O  O1792  1  0.558000  0.402300  0.538350  1.0  -0.6501
  O  O1793  1  0.861000  0.613430  0.524430  1.0  -0.5005
  O  O1794  1  0.779600  0.589100  0.526610  1.0  -0.4969
  O  O1795  1  0.025050  0.433720  0.368670  1.0  -0.6244
  O  O1796  1  0.963930  0.372360  0.356550  1.0  -0.5995
  O  O1797  1  0.197850  0.137520  0.564730  1.0  -0.5989
  O  O1798  1  0.209560  0.213460  0.542890  1.0  -0.5115
  O  O1799  1  0.047850  0.171860  0.692230  1.0  -0.5214
  O  O1800  1  0.969290  0.135900  0.701420  1.0  -0.5604
  O  O1801  1  0.910900  0.915440  0.545810  1.0  -0.5714
  O  O1802  1  0.914200  0.938100  0.590100  1.0  -0.4989
  O  O1803  1  0.178160  0.488940  0.291240  1.0  -0.5929
  O  O1804  1  0.189940  0.422790  0.322700  1.0  -0.7143
  O  O1805  1  0.618120  0.142790  0.646870  1.0  -0.5514
  O  O1806  1  0.661560  0.067800  0.639920  1.0  -0.5275
  O  O1807  1  0.735000  0.394610  0.694360  1.0  -0.6646
  O  O1808  1  0.744110  0.465660  0.668800  1.0  -0.5314
  O  O1809  1  0.070010  0.418770  0.313180  1.0  -0.6692
  O  O1810  1  0.090900  0.340900  0.334760  1.0  -0.6736
  O  O1811  1  0.372000  0.446100  0.518500  1.0  -0.7754
  O  O1812  1  0.489700  0.354000  0.576740  1.0  -0.7757
  O  O1813  1  0.951470  0.890850  0.899510  1.0  -0.5337
  O  O1814  1  0.035600  0.906230  0.883210  1.0  -0.556
  O  O1815  1  0.892730  0.612750  0.911690  1.0  -0.6441
  O  O1816  1  0.874100  0.564300  0.948270  1.0  -0.4818
  O  O1817  1  0.262480  0.625030  0.880810  1.0  -0.5196
  O  O1818  1  0.222800  0.702100  0.872790  1.0  -0.5663
  O  O1819  1  0.456300  0.640900  0.993830  1.0  -0.6471
  O  O1820  1  0.442000  0.597700  0.038350  1.0  -0.6546
  O  O1821  1  0.139000  0.386570  0.024430  1.0  -0.5008
  O  O1822  1  0.220400  0.410900  0.026610  1.0  -0.4947
  O  O1823  1  0.974950  0.566280  0.868670  1.0  -0.626
  O  O1824  1  0.036070  0.627640  0.856550  1.0  -0.5903
  O  O1825  1  0.802150  0.862480  0.064730  1.0  -0.6002
  O  O1826  1  0.790440  0.786540  0.042890  1.0  -0.5141
  O  O1827  1  0.952150  0.828140  0.192230  1.0  -0.521
  O  O1828  1  0.030710  0.864100  0.201420  1.0  -0.5611
  O  O1829  1  0.089100  0.084560  0.045810  1.0  -0.5702
  O  O1830  1  0.085800  0.061900  0.090100  1.0  -0.4984
  O  O1831  1  0.821840  0.511060  0.791240  1.0  -0.5957
  O  O1832  1  0.810060  0.577210  0.822700  1.0  -0.7146
  O  O1833  1  0.381880  0.857210  0.146870  1.0  -0.5528
  O  O1834  1  0.338440  0.932200  0.139920  1.0  -0.5276
  O  O1835  1  0.265000  0.605390  0.194360  1.0  -0.6645
  O  O1836  1  0.255890  0.534340  0.168800  1.0  -0.5312
  O  O1837  1  0.929990  0.581230  0.813180  1.0  -0.6681
  O  O1838  1  0.909100  0.659100  0.834760  1.0  -0.6723
  O  O1839  1  0.628000  0.553900  0.018500  1.0  -0.7727
  O  O1840  1  0.510300  0.646000  0.076740  1.0  -0.7771
  O  O1841  1  0.890850  0.951470  0.100490  1.0  -0.5312
  O  O1842  1  0.906230  0.035600  0.116790  1.0  -0.5607
  O  O1843  1  0.612750  0.892730  0.088310  1.0  -0.6492
  O  O1844  1  0.564300  0.874100  0.051730  1.0  -0.4859
  O  O1845  1  0.625030  0.262480  0.119190  1.0  -0.5213
  O  O1846  1  0.702100  0.222800  0.127210  1.0  -0.562
  O  O1847  1  0.640900  0.456300  0.006170  1.0  -0.6491
  O  O1848  1  0.597700  0.442000  0.961650  1.0  -0.6481
  O  O1849  1  0.386570  0.139000  0.975570  1.0  -0.5001
  O  O1850  1  0.410900  0.220400  0.973390  1.0  -0.4988
  O  O1851  1  0.566280  0.974950  0.131330  1.0  -0.6228
  O  O1852  1  0.627640  0.036070  0.143450  1.0  -0.5959
  O  O1853  1  0.862480  0.802150  0.935270  1.0  -0.6027
  O  O1854  1  0.786540  0.790440  0.957110  1.0  -0.5173
  O  O1855  1  0.828140  0.952150  0.807770  1.0  -0.522
  O  O1856  1  0.864100  0.030710  0.798580  1.0  -0.56
  O  O1857  1  0.084560  0.089100  0.954190  1.0  -0.5653
  O  O1858  1  0.061900  0.085800  0.909900  1.0  -0.5027
  O  O1859  1  0.511060  0.821840  0.208760  1.0  -0.591
  O  O1860  1  0.577210  0.810060  0.177300  1.0  -0.712
  O  O1861  1  0.857210  0.381880  0.853130  1.0  -0.5555
  O  O1862  1  0.932200  0.338440  0.860080  1.0  -0.53
  O  O1863  1  0.605390  0.265000  0.805640  1.0  -0.6671
  O  O1864  1  0.534340  0.255890  0.831200  1.0  -0.5341
  O  O1865  1  0.581230  0.929990  0.186820  1.0  -0.6693
  O  O1866  1  0.659100  0.909100  0.165240  1.0  -0.673
  O  O1867  1  0.553900  0.628000  0.981500  1.0  -0.7738
  O  O1868  1  0.646000  0.510300  0.923260  1.0  -0.7754
  O  O1869  1  0.109150  0.048530  0.600490  1.0  -0.5323
  O  O1870  1  0.093770  0.964400  0.616790  1.0  -0.5575
  O  O1871  1  0.387250  0.107270  0.588310  1.0  -0.6453
  O  O1872  1  0.435700  0.125900  0.551730  1.0  -0.4904
  O  O1873  1  0.374970  0.737520  0.619190  1.0  -0.5229
  O  O1874  1  0.297900  0.777200  0.627210  1.0  -0.5657
  O  O1875  1  0.359100  0.543700  0.506170  1.0  -0.6514
  O  O1876  1  0.402300  0.558000  0.461650  1.0  -0.6505
  O  O1877  1  0.613430  0.861000  0.475570  1.0  -0.4963
  O  O1878  1  0.589100  0.779600  0.473390  1.0  -0.5022
  O  O1879  1  0.433720  0.025050  0.631330  1.0  -0.6232
  O  O1880  1  0.372360  0.963930  0.643450  1.0  -0.5932
  O  O1881  1  0.137520  0.197850  0.435270  1.0  -0.6023
  O  O1882  1  0.213460  0.209560  0.457110  1.0  -0.5147
  O  O1883  1  0.171860  0.047850  0.307770  1.0  -0.5226
  O  O1884  1  0.135900  0.969290  0.298580  1.0  -0.56
  O  O1885  1  0.915440  0.910900  0.454190  1.0  -0.5679
  O  O1886  1  0.938100  0.914200  0.409900  1.0  -0.5037
  O  O1887  1  0.488940  0.178160  0.708760  1.0  -0.5876
  O  O1888  1  0.422790  0.189940  0.677300  1.0  -0.7121
  O  O1889  1  0.142790  0.618120  0.353130  1.0  -0.5585
  O  O1890  1  0.067800  0.661560  0.360080  1.0  -0.5302
  O  O1891  1  0.394610  0.735000  0.305640  1.0  -0.6664
  O  O1892  1  0.465660  0.744110  0.331200  1.0  -0.5331
  O  O1893  1  0.418770  0.070010  0.686820  1.0  -0.6683
  O  O1894  1  0.340900  0.090900  0.665240  1.0  -0.6726
  O  O1895  1  0.446100  0.372000  0.481500  1.0  -0.7745
  O  O1896  1  0.354000  0.489700  0.423260  1.0  -0.7735
  O  O1897  1  0.451470  0.609150  0.850490  1.0  -0.5338
  O  O1898  1  0.535600  0.593770  0.866790  1.0  -0.5626
  O  O1899  1  0.392730  0.887250  0.838310  1.0  -0.6458
  O  O1900  1  0.374100  0.935700  0.801730  1.0  -0.4839
  O  O1901  1  0.762480  0.874970  0.869190  1.0  -0.5226
  O  O1902  1  0.722800  0.797900  0.877210  1.0  -0.5689
  O  O1903  1  0.956300  0.859100  0.756170  1.0  -0.6472
  O  O1904  1  0.942000  0.902300  0.711650  1.0  -0.6533
  O  O1905  1  0.639000  0.113430  0.725570  1.0  -0.4979
  O  O1906  1  0.720400  0.089100  0.723390  1.0  -0.4951
  O  O1907  1  0.474950  0.933720  0.881330  1.0  -0.6264
  O  O1908  1  0.536070  0.872360  0.893450  1.0  -0.5991
  O  O1909  1  0.302150  0.637520  0.685270  1.0  -0.6011
  O  O1910  1  0.290440  0.713460  0.707110  1.0  -0.5141
  O  O1911  1  0.452150  0.671860  0.557770  1.0  -0.5223
  O  O1912  1  0.530710  0.635900  0.548580  1.0  -0.556
  O  O1913  1  0.589100  0.415440  0.704190  1.0  -0.5724
  O  O1914  1  0.585800  0.438100  0.659900  1.0  -0.4983
  O  O1915  1  0.321840  0.988940  0.958760  1.0  -0.5942
  O  O1916  1  0.310060  0.922790  0.927300  1.0  -0.7113
  O  O1917  1  0.881880  0.642790  0.603130  1.0  -0.5514
  O  O1918  1  0.838440  0.567800  0.610080  1.0  -0.528
  O  O1919  1  0.765000  0.894610  0.555640  1.0  -0.6649
  O  O1920  1  0.755890  0.965660  0.581200  1.0  -0.5318
  O  O1921  1  0.429990  0.918770  0.936820  1.0  -0.6696
  O  O1922  1  0.409100  0.840900  0.915240  1.0  -0.6707
  O  O1923  1  0.128000  0.946100  0.731500  1.0  -0.7725
  O  O1924  1  0.010300  0.854000  0.673260  1.0  -0.7764
  O  O1925  1  0.548530  0.390850  0.350490  1.0  -0.5352
  O  O1926  1  0.464400  0.406230  0.366790  1.0  -0.56
  O  O1927  1  0.607270  0.112750  0.338310  1.0  -0.6461
  O  O1928  1  0.625900  0.064300  0.301730  1.0  -0.4852
  O  O1929  1  0.237520  0.125030  0.369190  1.0  -0.5212
  O  O1930  1  0.277200  0.202100  0.377210  1.0  -0.5664
  O  O1931  1  0.043700  0.140900  0.256170  1.0  -0.6487
  O  O1932  1  0.058000  0.097700  0.211650  1.0  -0.6506
  O  O1933  1  0.361000  0.886570  0.225570  1.0  -0.5006
  O  O1934  1  0.279600  0.910900  0.223390  1.0  -0.4948
  O  O1935  1  0.525050  0.066280  0.381330  1.0  -0.6238
  O  O1936  1  0.463930  0.127640  0.393450  1.0  -0.5895
  O  O1937  1  0.697850  0.362480  0.185270  1.0  -0.6005
  O  O1938  1  0.709560  0.286540  0.207110  1.0  -0.5119
  O  O1939  1  0.547850  0.328140  0.057770  1.0  -0.5226
  O  O1940  1  0.469290  0.364100  0.048580  1.0  -0.5615
  O  O1941  1  0.410900  0.584560  0.204190  1.0  -0.5708
  O  O1942  1  0.414200  0.561900  0.159900  1.0  -0.5012
  O  O1943  1  0.678160  0.011060  0.458760  1.0  -0.5957
  O  O1944  1  0.689940  0.077210  0.427300  1.0  -0.7107
  O  O1945  1  0.118120  0.357210  0.103130  1.0  -0.5506
  O  O1946  1  0.161560  0.432200  0.110080  1.0  -0.5273
  O  O1947  1  0.235000  0.105390  0.055640  1.0  -0.664
  O  O1948  1  0.244110  0.034340  0.081200  1.0  -0.5306
  O  O1949  1  0.570010  0.081230  0.436820  1.0  -0.6674
  O  O1950  1  0.590900  0.159100  0.415240  1.0  -0.6723
  O  O1951  1  0.872000  0.053900  0.231500  1.0  -0.7741
  O  O1952  1  0.989700  0.146000  0.173260  1.0  -0.7766
