# generated using pymatgen
data_AgBH20C20(N3F)4
_symmetry_space_group_name_H-M   'P 1'
_cell_length_a   18.79700000
_cell_length_b   18.88300000
_cell_length_c   31.93400000
_cell_angle_alpha   90.00000000
_cell_angle_beta   90.69000000
_cell_angle_gamma   90.00000000
_symmetry_Int_Tables_number   1
_chemical_formula_structural   AgBH20C20(N3F)4
_chemical_formula_sum   'Ag16 B16 H320 C320 N192 F64'
_cell_volume   11333.95182258
_cell_formula_units_Z   16
loop_
 _symmetry_equiv_pos_site_id
 _symmetry_equiv_pos_as_xyz
  1  'x, y, z'
loop_
 _atom_site_type_symbol
 _atom_site_label
 _atom_site_symmetry_multiplicity
 _atom_site_fract_x
 _atom_site_fract_y
 _atom_site_fract_z
 _atom_site_occupancy
 _atom_site_charge
  Ag  Ag1  1  0.463840  0.175870  0.374960  1.0  0.3571
  Ag  Ag2  1  0.964760  0.213290  0.475900  1.0  0.2903
  Ag  Ag3  1  0.566810  0.282340  0.673700  1.0  0.3271
  Ag  Ag4  1  0.796510  0.042700  0.295160  1.0  0.311
  Ag  Ag5  1  0.036160  0.675870  0.125040  1.0  0.3571
  Ag  Ag6  1  0.535240  0.713290  0.024100  1.0  0.2885
  Ag  Ag7  1  0.933190  0.782340  0.826300  1.0  0.3266
  Ag  Ag8  1  0.703490  0.542700  0.204840  1.0  0.3105
  Ag  Ag9  1  0.536160  0.824130  0.625040  1.0  0.3574
  Ag  Ag10  1  0.035240  0.786710  0.524100  1.0  0.2879
  Ag  Ag11  1  0.433190  0.717660  0.326300  1.0  0.3268
  Ag  Ag12  1  0.203490  0.957300  0.704840  1.0  0.3104
  Ag  Ag13  1  0.963840  0.324130  0.874960  1.0  0.3572
  Ag  Ag14  1  0.464760  0.286710  0.975900  1.0  0.2898
  Ag  Ag15  1  0.066810  0.217660  0.173700  1.0  0.3273
  Ag  Ag16  1  0.296510  0.457300  0.795160  1.0  0.311
  B  B17  1  0.994300  0.482100  0.185900  1.0  0.952
  B  B18  1  0.178500  0.108600  0.996800  1.0  0.8723
  B  B19  1  0.989700  0.986900  0.166700  1.0  0.9741
  B  B20  1  0.327300  0.633200  0.166800  1.0  0.9887
  B  B21  1  0.505700  0.982100  0.314100  1.0  0.9501
  B  B22  1  0.321500  0.608600  0.503200  1.0  0.8712
  B  B23  1  0.510300  0.486900  0.333333  1.0  0.9677
  B  B24  1  0.172700  0.133200  0.333200  1.0  0.9873
  B  B25  1  0.005700  0.517900  0.814100  1.0  0.9504
  B  B26  1  0.821500  0.891400  0.003200  1.0  0.8716
  B  B27  1  0.010300  0.013100  0.833300  1.0  0.974
  B  B28  1  0.672700  0.366800  0.833200  1.0  0.9867
  B  B29  1  0.494300  0.017900  0.685900  1.0  0.9523
  B  B30  1  0.678500  0.391400  0.496800  1.0  0.8727
  B  B31  1  0.489700  0.513100  0.666667  1.0  0.9683
  B  B32  1  0.827300  0.866800  0.666800  1.0  0.9879
  H  H33  1  0.524100  0.355100  0.593500  1.0  0.114
  H  H34  1  0.524300  0.152500  0.613400  1.0  0.0657
  H  H35  1  0.451700  0.007200  0.555200  1.0  0.0806
  H  H36  1  0.520700  0.043300  0.573100  1.0  0.0819
  H  H37  1  0.448300  0.052300  0.596300  1.0  0.0786
  H  H38  1  0.496800  0.118600  0.467700  1.0  0.0447
  H  H39  1  0.313700  0.100500  0.410800  1.0  0.0441
  H  H40  1  0.154300  0.031600  0.502700  1.0  0.0762
  H  H41  1  0.223700  0.986500  0.497700  1.0  0.0828
  H  H42  1  0.219500  0.044200  0.532900  1.0  0.0895
  H  H43  1  0.092700  0.107500  0.476200  1.0  0.0766
  H  H44  1  0.094200  0.311100  0.454100  1.0  0.1202
  H  H45  1  0.153800  0.397000  0.464500  1.0  0.0806
  H  H46  1  0.221200  0.405400  0.493500  1.0  0.0913
  H  H47  1  0.222100  0.434400  0.447500  1.0  0.0883
  H  H48  1  0.315400  0.276200  0.392000  1.0  0.0576
  H  H49  1  0.499800  0.303800  0.448300  1.0  0.0762
  H  H50  1  0.499500  0.430800  0.552400  1.0  0.0795
  H  H51  1  0.496500  0.445600  0.504100  1.0  0.0637
  H  H52  1  0.427400  0.452600  0.530900  1.0  0.091
  H  H53  1  0.585800  0.285900  0.380300  1.0  0.1605
  H  H54  1  0.604300  0.081900  0.385300  1.0  0.055
  H  H55  1  0.754900  0.967600  0.388600  1.0  0.0883
  H  H56  1  0.687500  0.991200  0.413500  1.0  0.0764
  H  H57  1  0.686600  0.993800  0.364500  1.0  0.0728
  H  H58  1  0.826700  0.117700  0.451600  1.0  0.053
  H  H59  1  0.006500  0.122500  0.390000  1.0  0.0575
  H  H60  1  0.968500  0.975600  0.321200  1.0  0.0958
  H  H61  1  0.972800  0.003000  0.275000  1.0  0.0881
  H  H62  1  0.037600  0.013400  0.305700  1.0  0.095
  H  H63  1  0.022700  0.101400  0.245000  1.0  0.0664
  H  H64  1  0.005200  0.307800  0.240100  1.0  0.0875
  H  H65  1  0.911700  0.425900  0.306800  1.0  0.0753
  H  H66  1  0.969900  0.404900  0.274400  1.0  0.0745
  H  H67  1  0.891000  0.379800  0.267700  1.0  0.0696
  H  H68  1  0.990000  0.294600  0.386800  1.0  0.0697
  H  H69  1  0.811900  0.292200  0.446700  1.0  0.0441
  H  H70  1  0.635600  0.373300  0.371000  1.0  0.0863
  H  H71  1  0.699700  0.420200  0.386100  1.0  0.0721
  H  H72  1  0.699500  0.387400  0.341000  1.0  0.0835
  H  H73  1  0.370800  0.380700  0.039400  1.0  0.0802
  H  H74  1  0.394900  0.173200  0.028700  1.0  0.0792
  H  H75  1  0.385700  0.085300  0.053800  1.0  0.0855
  H  H76  1  0.393200  0.058300  0.100100  1.0  0.0859
  H  H77  1  0.328300  0.034300  0.072300  1.0  0.0541
  H  H78  1  0.185600  0.168300  0.106200  1.0  0.0406
  H  H79  1  0.172000  0.111800  0.222500  1.0  0.013
  H  H80  1  0.293200  0.983900  0.229300  1.0  0.071
  H  H81  1  0.363600  0.003300  0.253500  1.0  0.0842
  H  H82  1  0.290400  0.006500  0.276500  1.0  0.0662
  H  H83  1  0.377800  0.089900  0.310800  1.0  0.0702
  H  H84  1  0.388100  0.296100  0.321800  1.0  0.0835
  H  H85  1  0.388900  0.383800  0.287700  1.0  0.0738
  H  H86  1  0.395200  0.401100  0.239900  1.0  0.0882
  H  H87  1  0.333100  0.433800  0.265900  1.0  0.0953
  H  H88  1  0.189300  0.281900  0.239500  1.0  0.0437
  H  H89  1  0.161400  0.340200  0.123000  1.0  0.062
  H  H90  1  0.290600  0.484200  0.118700  1.0  0.0921
  H  H91  1  0.365800  0.453600  0.108100  1.0  0.0948
  H  H92  1  0.309200  0.465300  0.072300  1.0  0.079
  H  H93  1  0.689700  0.914800  0.305700  1.0  0.1188
  H  H94  1  0.870600  0.914100  0.247300  1.0  0.1319
  H  H95  1  0.947200  0.856000  0.226800  1.0  0.091
  H  H96  1  0.978200  0.795200  0.255000  1.0  0.0888
  H  H97  1  0.971800  0.784800  0.206400  1.0  0.0886
  H  H98  1  0.798900  0.686300  0.197500  1.0  0.0445
  H  H99  1  0.847300  0.517800  0.260500  1.0  0.0486
  H  H100  1  0.036200  0.595900  0.285600  1.0  0.0803
  H  H101  1  0.030600  0.616000  0.333100  1.0  0.0901
  H  H102  1  0.042900  0.537000  0.320000  1.0  0.0768
  H  H103  1  0.986700  0.502900  0.378000  1.0  0.0937
  H  H104  1  0.804400  0.489800  0.436200  1.0  0.047
  H  H105  1  0.642500  0.590600  0.413900  1.0  0.0709
  H  H106  1  0.691700  0.532200  0.433700  1.0  0.0781
  H  H107  1  0.715400  0.611800  0.434600  1.0  0.0822
  H  H108  1  0.697500  0.515500  0.304300  1.0  0.0455
  H  H109  1  0.651200  0.691000  0.246600  1.0  0.07
  H  H110  1  0.625000  0.860700  0.338600  1.0  0.0857
  H  H111  1  0.578500  0.792000  0.342100  1.0  0.0869
  H  H112  1  0.647800  0.800100  0.369500  1.0  0.0954
  H  H113  1  0.975900  0.855100  0.906500  1.0  0.1143
  H  H114  1  0.975700  0.652500  0.886600  1.0  0.066
  H  H115  1  0.048300  0.507200  0.944800  1.0  0.0814
  H  H116  1  0.979300  0.543300  0.926900  1.0  0.0819
  H  H117  1  0.051700  0.552300  0.903700  1.0  0.0793
  H  H118  1  0.003200  0.618600  0.032300  1.0  0.0454
  H  H119  1  0.186300  0.600500  0.089200  1.0  0.0442
  H  H120  1  0.345700  0.531600  0.997300  1.0  0.0791
  H  H121  1  0.276300  0.486500  0.002300  1.0  0.0832
  H  H122  1  0.280500  0.544200  0.967100  1.0  0.089
  H  H123  1  0.407300  0.607500  0.023800  1.0  0.0759
  H  H124  1  0.405800  0.811100  0.045900  1.0  0.1205
  H  H125  1  0.346200  0.897000  0.035500  1.0  0.0816
  H  H126  1  0.278800  0.905400  0.006500  1.0  0.0912
  H  H127  1  0.277900  0.934400  0.052500  1.0  0.0876
  H  H128  1  0.184600  0.776200  0.108000  1.0  0.058
  H  H129  1  0.000200  0.803800  0.051700  1.0  0.0755
  H  H130  1  0.000500  0.930800  0.947600  1.0  0.081
  H  H131  1  0.003500  0.945600  0.995900  1.0  0.0661
  H  H132  1  0.072600  0.952600  0.969100  1.0  0.0917
  H  H133  1  0.914200  0.785900  0.119700  1.0  0.159
  H  H134  1  0.895700  0.581900  0.114700  1.0  0.0547
  H  H135  1  0.745100  0.467600  0.111400  1.0  0.0866
  H  H136  1  0.812500  0.491200  0.086500  1.0  0.075
  H  H137  1  0.813400  0.493800  0.135500  1.0  0.071
  H  H138  1  0.673300  0.617700  0.048400  1.0  0.053
  H  H139  1  0.493500  0.622500  0.110000  1.0  0.0567
  H  H140  1  0.531500  0.475600  0.178800  1.0  0.0947
  H  H141  1  0.527200  0.503000  0.225000  1.0  0.0889
  H  H142  1  0.462400  0.513400  0.194300  1.0  0.0949
  H  H143  1  0.477300  0.601400  0.255000  1.0  0.0667
  H  H144  1  0.494800  0.807800  0.259900  1.0  0.0881
  H  H145  1  0.588300  0.925900  0.193200  1.0  0.0754
  H  H146  1  0.530100  0.904900  0.225600  1.0  0.0733
  H  H147  1  0.609000  0.879800  0.232300  1.0  0.0698
  H  H148  1  0.510000  0.794600  0.113200  1.0  0.0692
  H  H149  1  0.688100  0.792200  0.053300  1.0  0.0452
  H  H150  1  0.864400  0.873300  0.129000  1.0  0.0875
  H  H151  1  0.800300  0.920200  0.113900  1.0  0.0733
  H  H152  1  0.800500  0.887400  0.159000  1.0  0.0832
  H  H153  1  0.129200  0.880700  0.460600  1.0  0.0801
  H  H154  1  0.105100  0.673200  0.471300  1.0  0.0781
  H  H155  1  0.114300  0.585300  0.446200  1.0  0.0869
  H  H156  1  0.106800  0.558300  0.399900  1.0  0.0854
  H  H157  1  0.171700  0.534300  0.427700  1.0  0.0533
  H  H158  1  0.314400  0.668300  0.393800  1.0  0.0412
  H  H159  1  0.328000  0.611800  0.277500  1.0  0.0126
  H  H160  1  0.206800  0.483900  0.270700  1.0  0.0717
  H  H161  1  0.136400  0.503300  0.246500  1.0  0.0825
  H  H162  1  0.209600  0.506500  0.223500  1.0  0.0646
  H  H163  1  0.122200  0.589900  0.189200  1.0  0.0702
  H  H164  1  0.111900  0.796100  0.178200  1.0  0.0846
  H  H165  1  0.111100  0.883800  0.212300  1.0  0.0743
  H  H166  1  0.104800  0.901100  0.260100  1.0  0.0888
  H  H167  1  0.166900  0.933800  0.234100  1.0  0.0945
  H  H168  1  0.310700  0.781900  0.260500  1.0  0.0437
  H  H169  1  0.338600  0.840200  0.377000  1.0  0.0626
  H  H170  1  0.209400  0.984200  0.381300  1.0  0.0921
  H  H171  1  0.134200  0.953600  0.391900  1.0  0.094
  H  H172  1  0.190800  0.965300  0.427700  1.0  0.078
  H  H173  1  0.810300  0.414800  0.194300  1.0  0.1194
  H  H174  1  0.629400  0.414100  0.252700  1.0  0.1312
  H  H175  1  0.552800  0.356000  0.273200  1.0  0.091
  H  H176  1  0.521800  0.295200  0.245000  1.0  0.0887
  H  H177  1  0.528200  0.284800  0.293600  1.0  0.0884
  H  H178  1  0.701100  0.186300  0.302500  1.0  0.0446
  H  H179  1  0.652700  0.017800  0.239500  1.0  0.0483
  H  H180  1  0.463800  0.095900  0.214400  1.0  0.0805
  H  H181  1  0.469400  0.116000  0.166900  1.0  0.0909
  H  H182  1  0.457100  0.037000  0.180000  1.0  0.0755
  H  H183  1  0.513300  0.002900  0.122000  1.0  0.0965
  H  H184  1  0.695600  0.989800  0.063800  1.0  0.0477
  H  H185  1  0.857500  0.090600  0.086100  1.0  0.0706
  H  H186  1  0.808300  0.032200  0.066300  1.0  0.0777
  H  H187  1  0.784600  0.111800  0.065400  1.0  0.0833
  H  H188  1  0.802500  0.015500  0.195700  1.0  0.0454
  H  H189  1  0.848800  0.191000  0.253400  1.0  0.0691
  H  H190  1  0.875000  0.360700  0.161400  1.0  0.0854
  H  H191  1  0.921500  0.292000  0.157900  1.0  0.0869
  H  H192  1  0.852200  0.300100  0.130500  1.0  0.0947
  H  H193  1  0.475900  0.644900  0.406500  1.0  0.1141
  H  H194  1  0.475700  0.847500  0.386600  1.0  0.0665
  H  H195  1  0.548300  0.992800  0.444800  1.0  0.0811
  H  H196  1  0.479300  0.956700  0.426900  1.0  0.082
  H  H197  1  0.551700  0.947700  0.403700  1.0  0.0795
  H  H198  1  0.503200  0.881400  0.532300  1.0  0.0451
  H  H199  1  0.686300  0.899500  0.589200  1.0  0.0437
  H  H200  1  0.845700  0.968400  0.497300  1.0  0.0791
  H  H201  1  0.776300  0.013500  0.502300  1.0  0.0852
  H  H202  1  0.780500  0.955800  0.467100  1.0  0.0889
  H  H203  1  0.907300  0.892500  0.523800  1.0  0.0765
  H  H204  1  0.905800  0.688900  0.545900  1.0  0.1201
  H  H205  1  0.846200  0.603000  0.535500  1.0  0.081
  H  H206  1  0.778800  0.594600  0.506500  1.0  0.0915
  H  H207  1  0.777900  0.565600  0.552500  1.0  0.0878
  H  H208  1  0.684600  0.723800  0.608000  1.0  0.0582
  H  H209  1  0.500200  0.696200  0.551700  1.0  0.0756
  H  H210  1  0.500500  0.569200  0.447600  1.0  0.0807
  H  H211  1  0.503500  0.554400  0.495900  1.0  0.0663
  H  H212  1  0.572600  0.547400  0.469100  1.0  0.0916
  H  H213  1  0.414200  0.714100  0.619700  1.0  0.159
  H  H214  1  0.395700  0.918100  0.614700  1.0  0.0549
  H  H215  1  0.245100  0.032400  0.611400  1.0  0.0866
  H  H216  1  0.312500  0.008800  0.586500  1.0  0.0749
  H  H217  1  0.313400  0.006200  0.635500  1.0  0.0709
  H  H218  1  0.173300  0.882300  0.548400  1.0  0.0534
  H  H219  1  0.993500  0.877500  0.610000  1.0  0.0569
  H  H220  1  0.031500  0.024400  0.678800  1.0  0.0949
  H  H221  1  0.027200  0.997000  0.725000  1.0  0.0887
  H  H222  1  0.962400  0.986600  0.694300  1.0  0.0963
  H  H223  1  0.977300  0.898600  0.755000  1.0  0.0663
  H  H224  1  0.994800  0.692200  0.759900  1.0  0.0886
  H  H225  1  0.088300  0.574100  0.693200  1.0  0.0756
  H  H226  1  0.030100  0.595100  0.725600  1.0  0.0733
  H  H227  1  0.109000  0.620200  0.732300  1.0  0.0696
  H  H228  1  0.010000  0.705400  0.613200  1.0  0.0688
  H  H229  1  0.188100  0.707800  0.553300  1.0  0.0451
  H  H230  1  0.364400  0.626700  0.629000  1.0  0.0876
  H  H231  1  0.300300  0.579800  0.613900  1.0  0.0728
  H  H232  1  0.300500  0.612600  0.659000  1.0  0.0831
  H  H233  1  0.629200  0.619300  0.960600  1.0  0.08
  H  H234  1  0.605100  0.826800  0.971300  1.0  0.0782
  H  H235  1  0.614300  0.914700  0.946200  1.0  0.0865
  H  H236  1  0.606800  0.941700  0.899900  1.0  0.0864
  H  H237  1  0.671700  0.965700  0.927700  1.0  0.0536
  H  H238  1  0.814400  0.831700  0.893800  1.0  0.0412
  H  H239  1  0.828000  0.888200  0.777500  1.0  0.0129
  H  H240  1  0.706800  0.016100  0.770700  1.0  0.0722
  H  H241  1  0.636400  0.996700  0.746500  1.0  0.0835
  H  H242  1  0.709600  0.993500  0.723500  1.0  0.0652
  H  H243  1  0.622200  0.910100  0.689200  1.0  0.0704
  H  H244  1  0.611900  0.703900  0.678200  1.0  0.0833
  H  H245  1  0.611100  0.616200  0.712300  1.0  0.074
  H  H246  1  0.604800  0.598900  0.760100  1.0  0.0886
  H  H247  1  0.666900  0.566200  0.734100  1.0  0.0945
  H  H248  1  0.810700  0.718100  0.760500  1.0  0.0439
  H  H249  1  0.838600  0.659800  0.877000  1.0  0.0629
  H  H250  1  0.709400  0.515800  0.881300  1.0  0.092
  H  H251  1  0.634200  0.546400  0.891900  1.0  0.094
  H  H252  1  0.690800  0.534700  0.927700  1.0  0.0781
  H  H253  1  0.310300  0.085200  0.694300  1.0  0.1193
  H  H254  1  0.129400  0.085900  0.752700  1.0  0.1317
  H  H255  1  0.052800  0.144000  0.773200  1.0  0.09
  H  H256  1  0.021800  0.204800  0.745000  1.0  0.0888
  H  H257  1  0.028200  0.215200  0.793600  1.0  0.0883
  H  H258  1  0.201100  0.313700  0.802500  1.0  0.0449
  H  H259  1  0.152700  0.482200  0.739500  1.0  0.048
  H  H260  1  0.963800  0.404100  0.714400  1.0  0.0805
  H  H261  1  0.969400  0.384000  0.666900  1.0  0.0902
  H  H262  1  0.957100  0.463000  0.680000  1.0  0.077
  H  H263  1  0.013300  0.497100  0.622000  1.0  0.0965
  H  H264  1  0.195600  0.510200  0.563800  1.0  0.0477
  H  H265  1  0.357500  0.409400  0.586100  1.0  0.0711
  H  H266  1  0.308300  0.467800  0.566300  1.0  0.0784
  H  H267  1  0.284600  0.388200  0.565400  1.0  0.0827
  H  H268  1  0.302500  0.484500  0.695700  1.0  0.0449
  H  H269  1  0.348800  0.309000  0.753400  1.0  0.0695
  H  H270  1  0.375000  0.139300  0.661400  1.0  0.085
  H  H271  1  0.421500  0.208000  0.657900  1.0  0.0867
  H  H272  1  0.352200  0.199900  0.630500  1.0  0.095
  H  H273  1  0.024100  0.144900  0.093500  1.0  0.1141
  H  H274  1  0.024300  0.347500  0.113400  1.0  0.0653
  H  H275  1  0.951700  0.492800  0.055200  1.0  0.0819
  H  H276  1  0.020700  0.456700  0.073100  1.0  0.0821
  H  H277  1  0.948300  0.447700  0.096300  1.0  0.0786
  H  H278  1  0.996800  0.381400  0.967700  1.0  0.0448
  H  H279  1  0.813700  0.399500  0.910800  1.0  0.0442
  H  H280  1  0.654300  0.468400  0.002700  1.0  0.0766
  H  H281  1  0.723700  0.513500  0.997700  1.0  0.085
  H  H282  1  0.719500  0.455800  0.032900  1.0  0.0897
  H  H283  1  0.592700  0.392500  0.976200  1.0  0.077
  H  H284  1  0.594200  0.188900  0.954100  1.0  0.1189
  H  H285  1  0.653800  0.103000  0.964500  1.0  0.0807
  H  H286  1  0.721200  0.094600  0.993500  1.0  0.0914
  H  H287  1  0.722100  0.065600  0.947500  1.0  0.0884
  H  H288  1  0.815400  0.223800  0.892000  1.0  0.0577
  H  H289  1  0.999800  0.196200  0.948300  1.0  0.0762
  H  H290  1  0.999500  0.069200  0.052400  1.0  0.0793
  H  H291  1  0.996500  0.054400  0.004100  1.0  0.0639
  H  H292  1  0.927400  0.047400  0.030900  1.0  0.0908
  H  H293  1  0.085800  0.214100  0.880300  1.0  0.16
  H  H294  1  0.104300  0.418100  0.885300  1.0  0.0557
  H  H295  1  0.254900  0.532400  0.888600  1.0  0.0889
  H  H296  1  0.187500  0.508800  0.913500  1.0  0.076
  H  H297  1  0.186600  0.506200  0.864500  1.0  0.073
  H  H298  1  0.326700  0.382300  0.951600  1.0  0.0531
  H  H299  1  0.506500  0.377500  0.890000  1.0  0.057
  H  H300  1  0.468500  0.524400  0.821200  1.0  0.0946
  H  H301  1  0.472800  0.497000  0.775000  1.0  0.0879
  H  H302  1  0.537600  0.486600  0.805700  1.0  0.0949
  H  H303  1  0.522700  0.398600  0.745000  1.0  0.0667
  H  H304  1  0.505200  0.192200  0.740100  1.0  0.0878
  H  H305  1  0.411700  0.074100  0.806800  1.0  0.0758
  H  H306  1  0.469900  0.095100  0.774400  1.0  0.0743
  H  H307  1  0.391000  0.120200  0.767700  1.0  0.0697
  H  H308  1  0.490000  0.205400  0.886800  1.0  0.0696
  H  H309  1  0.311900  0.207800  0.946700  1.0  0.044
  H  H310  1  0.135600  0.126700  0.871000  1.0  0.0858
  H  H311  1  0.199700  0.079800  0.886100  1.0  0.0728
  H  H312  1  0.199500  0.112600  0.841000  1.0  0.0837
  H  H313  1  0.870800  0.119300  0.539400  1.0  0.0801
  H  H314  1  0.894900  0.326800  0.528700  1.0  0.0794
  H  H315  1  0.885700  0.414700  0.553800  1.0  0.0857
  H  H316  1  0.893200  0.441700  0.600100  1.0  0.0852
  H  H317  1  0.828300  0.465700  0.572300  1.0  0.0552
  H  H318  1  0.685600  0.331700  0.606200  1.0  0.0408
  H  H319  1  0.672000  0.388200  0.722500  1.0  0.0129
  H  H320  1  0.793200  0.516100  0.729300  1.0  0.0726
  H  H321  1  0.863600  0.496700  0.753500  1.0  0.0846
  H  H322  1  0.790400  0.493500  0.776500  1.0  0.0663
  H  H323  1  0.877800  0.410100  0.810800  1.0  0.0698
  H  H324  1  0.888100  0.203900  0.821800  1.0  0.0844
  H  H325  1  0.888900  0.116200  0.787700  1.0  0.0743
  H  H326  1  0.895200  0.098900  0.739900  1.0  0.0883
  H  H327  1  0.833100  0.066200  0.765900  1.0  0.0952
  H  H328  1  0.689300  0.218100  0.739500  1.0  0.0439
  H  H329  1  0.661400  0.159800  0.623000  1.0  0.0617
  H  H330  1  0.790600  0.015800  0.618700  1.0  0.0927
  H  H331  1  0.865800  0.046400  0.608100  1.0  0.0947
  H  H332  1  0.809200  0.034700  0.572300  1.0  0.0793
  H  H333  1  0.189700  0.585200  0.805700  1.0  0.1185
  H  H334  1  0.370600  0.585900  0.747300  1.0  0.1322
  H  H335  1  0.447200  0.644000  0.726800  1.0  0.0908
  H  H336  1  0.478200  0.704800  0.755000  1.0  0.0887
  H  H337  1  0.471800  0.715200  0.706400  1.0  0.0882
  H  H338  1  0.298900  0.813700  0.697500  1.0  0.0445
  H  H339  1  0.347300  0.982200  0.760500  1.0  0.0483
  H  H340  1  0.536200  0.904100  0.785600  1.0  0.0805
  H  H341  1  0.530600  0.884000  0.833100  1.0  0.091
  H  H342  1  0.542900  0.963000  0.820000  1.0  0.0758
  H  H343  1  0.486700  0.997100  0.878000  1.0  0.0934
  H  H344  1  0.304400  0.010200  0.936200  1.0  0.0472
  H  H345  1  0.142500  0.909400  0.913900  1.0  0.0709
  H  H346  1  0.191700  0.967800  0.933700  1.0  0.078
  H  H347  1  0.215400  0.888200  0.934600  1.0  0.0833
  H  H348  1  0.197500  0.984500  0.804300  1.0  0.0452
  H  H349  1  0.151200  0.809000  0.746600  1.0  0.07
  H  H350  1  0.125000  0.639300  0.838600  1.0  0.0858
  H  H351  1  0.078500  0.708000  0.842100  1.0  0.0873
  H  H352  1  0.147800  0.699900  0.869500  1.0  0.0955
  C  C353  1  0.475400  0.300000  0.545400  1.0  0.3219
  C  C354  1  0.512400  0.309800  0.584400  1.0  0.0852
  C  C355  1  0.513000  0.190400  0.596000  1.0  0.0598
  C  C356  1  0.477800  0.178800  0.557400  1.0  0.3672
  C  C357  1  0.470200  0.048100  0.569400  1.0  -0.2652
  C  C358  1  0.415300  0.104900  0.506600  1.0  0.3518
  C  C359  1  0.447600  0.113700  0.468200  1.0  0.1315
  C  C360  1  0.341400  0.103100  0.435100  1.0  0.1196
  C  C361  1  0.309600  0.094100  0.472500  1.0  0.3653
  C  C362  1  0.205300  0.032300  0.504700  1.0  -0.2209
  C  C363  1  0.191800  0.147000  0.467800  1.0  0.2214
  C  C364  1  0.117600  0.148900  0.470800  1.0  0.0381
  C  C365  1  0.118600  0.268800  0.458300  1.0  0.0833
  C  C366  1  0.195600  0.268600  0.456500  1.0  0.3852
  C  C367  1  0.204900  0.397300  0.465300  1.0  -0.2204
  C  C368  1  0.308800  0.322000  0.449800  1.0  0.2665
  C  C369  1  0.342600  0.290800  0.414900  1.0  0.1109
  C  C370  1  0.450400  0.306200  0.448200  1.0  0.099
  C  C371  1  0.413400  0.335700  0.483800  1.0  0.2769
  C  C372  1  0.470900  0.426700  0.527400  1.0  -0.2124
  C  C373  1  0.687800  0.252000  0.386800  1.0  0.3513
  C  C374  1  0.613500  0.245400  0.383200  1.0  0.0759
  C  C375  1  0.625600  0.126400  0.386200  1.0  0.0928
  C  C376  1  0.697900  0.130600  0.390000  1.0  0.3597
  C  C377  1  0.715600  0.000100  0.389200  1.0  -0.2296
  C  C378  1  0.815000  0.086100  0.390000  1.0  0.3278
  C  C379  1  0.852400  0.109500  0.427400  1.0  0.1168
  C  C380  1  0.958200  0.112100  0.391200  1.0  0.1087
  C  C381  1  0.921100  0.088400  0.353800  1.0  0.395
  C  C382  1  0.986600  0.012300  0.303500  1.0  -0.2428
  C  C383  1  0.975700  0.145200  0.295100  1.0  0.3495
  C  C384  1  0.008800  0.144300  0.256600  1.0  0.0993
  C  C385  1  0.998400  0.265200  0.254100  1.0  0.0673
  C  C386  1  0.965600  0.263900  0.293000  1.0  0.3396
  C  C387  1  0.927600  0.389500  0.288200  1.0  -0.2168
  C  C388  1  0.903000  0.316800  0.351200  1.0  0.3259
  C  C389  1  0.940700  0.299000  0.387200  1.0  0.1098
  C  C390  1  0.836300  0.297600  0.421800  1.0  0.1437
  C  C391  1  0.799100  0.314800  0.386100  1.0  0.3651
  C  C392  1  0.686100  0.379800  0.369600  1.0  -0.2138
  C  C393  1  0.318900  0.322200  0.085000  1.0  0.2405
  C  C394  1  0.361500  0.334800  0.048400  1.0  0.1332
  C  C395  1  0.375000  0.212100  0.042100  1.0  0.0533
  C  C396  1  0.331900  0.202700  0.077200  1.0  0.3635
  C  C397  1  0.360200  0.072700  0.078600  1.0  -0.2614
  C  C398  1  0.275900  0.128300  0.129500  1.0  0.3311
  C  C399  1  0.205800  0.148500  0.130200  1.0  0.1166
  C  C400  1  0.198700  0.117700  0.198400  1.0  0.1314
  C  C401  1  0.267600  0.102200  0.200600  1.0  0.293
  C  C402  1  0.313900  0.014100  0.250400  1.0  -0.2199
  C  C403  1  0.329100  0.142100  0.260500  1.0  0.385
  C  C404  1  0.368700  0.134600  0.299700  1.0  0.0889
  C  C405  1  0.374300  0.256500  0.306400  1.0  0.0604
  C  C406  1  0.333900  0.263700  0.268400  1.0  0.2565
  C  C407  1  0.362600  0.392800  0.262300  1.0  -0.2152
  C  C408  1  0.273900  0.332700  0.216300  1.0  0.2539
  C  C409  1  0.205500  0.304000  0.215400  1.0  0.1357
  C  C410  1  0.190400  0.336200  0.146600  1.0  0.0916
  C  C411  1  0.259600  0.359700  0.145500  1.0  0.3588
  C  C412  1  0.316000  0.452000  0.101100  1.0  -0.2318
  C  C413  1  0.724000  0.817100  0.290800  1.0  0.3279
  C  C414  1  0.726100  0.890200  0.292700  1.0  0.058
  C  C415  1  0.831700  0.890000  0.258000  1.0  0.0706
  C  C416  1  0.828100  0.815100  0.254800  1.0  0.4082
  C  C417  1  0.950100  0.805700  0.230500  1.0  -0.2293
  C  C418  1  0.874600  0.702200  0.240400  1.0  0.3325
  C  C419  1  0.826600  0.663500  0.217800  1.0  0.1365
  C  C420  1  0.854600  0.565300  0.254000  1.0  0.1378
  C  C421  1  0.905000  0.603800  0.277200  1.0  0.3942
  C  C422  1  0.019700  0.580500  0.312500  1.0  -0.2228
  C  C423  1  0.904500  0.547500  0.346800  1.0  0.3802
  C  C424  1  0.938300  0.512900  0.379100  1.0  0.0729
  C  C425  1  0.831100  0.505800  0.413700  1.0  0.1096
  C  C426  1  0.795700  0.545400  0.379000  1.0  0.3163
  C  C427  1  0.690900  0.576200  0.418600  1.0  -0.2189
  C  C428  1  0.702300  0.600900  0.342600  1.0  0.4272
  C  C429  1  0.691900  0.564400  0.304700  1.0  0.1184
  C  C430  1  0.665400  0.666900  0.270700  1.0  0.1067
  C  C431  1  0.677000  0.702700  0.307600  1.0  0.3541
  C  C432  1  0.626200  0.810300  0.342800  1.0  -0.2263
  C  C433  1  0.024600  0.800000  0.954600  1.0  0.3216
  C  C434  1  0.987600  0.809800  0.915600  1.0  0.0853
  C  C435  1  0.987000  0.690400  0.904000  1.0  0.0592
  C  C436  1  0.022200  0.678800  0.942600  1.0  0.3669
  C  C437  1  0.029800  0.548100  0.930600  1.0  -0.2659
  C  C438  1  0.084700  0.604900  0.993400  1.0  0.3514
  C  C439  1  0.052400  0.613700  0.031800  1.0  0.1315
  C  C440  1  0.158600  0.603100  0.064900  1.0  0.121
  C  C441  1  0.190400  0.594100  0.027500  1.0  0.3652
  C  C442  1  0.294700  0.532300  0.995300  1.0  -0.2222
  C  C443  1  0.308200  0.647000  0.032200  1.0  0.2215
  C  C444  1  0.382400  0.648900  0.029200  1.0  0.0375
  C  C445  1  0.381400  0.768800  0.041700  1.0  0.0832
  C  C446  1  0.304400  0.768600  0.043500  1.0  0.3863
  C  C447  1  0.295100  0.897300  0.034700  1.0  -0.2213
  C  C448  1  0.191200  0.822000  0.050200  1.0  0.2673
  C  C449  1  0.157400  0.790800  0.085100  1.0  0.1092
  C  C450  1  0.049600  0.806200  0.051800  1.0  0.0975
  C  C451  1  0.086600  0.835700  0.016200  1.0  0.2765
  C  C452  1  0.029100  0.926700  0.972600  1.0  -0.2113
  C  C453  1  0.812200  0.752000  0.113200  1.0  0.3514
  C  C454  1  0.886500  0.745400  0.116800  1.0  0.0758
  C  C455  1  0.874400  0.626400  0.113800  1.0  0.0927
  C  C456  1  0.802100  0.630600  0.110000  1.0  0.3609
  C  C457  1  0.784400  0.500100  0.110800  1.0  -0.2282
  C  C458  1  0.685000  0.586100  0.110000  1.0  0.3271
  C  C459  1  0.647600  0.609500  0.072600  1.0  0.1185
  C  C460  1  0.541800  0.612100  0.108800  1.0  0.1084
  C  C461  1  0.578900  0.588400  0.146200  1.0  0.3954
  C  C462  1  0.513400  0.512300  0.196500  1.0  -0.2438
  C  C463  1  0.524300  0.645200  0.204900  1.0  0.35
  C  C464  1  0.491200  0.644300  0.243400  1.0  0.1
  C  C465  1  0.501600  0.765200  0.245900  1.0  0.0682
  C  C466  1  0.534400  0.763900  0.207000  1.0  0.3401
  C  C467  1  0.572400  0.889500  0.211800  1.0  -0.2181
  C  C468  1  0.597000  0.816800  0.148800  1.0  0.3256
  C  C469  1  0.559300  0.799000  0.112800  1.0  0.1107
  C  C470  1  0.663700  0.797600  0.078200  1.0  0.1439
  C  C471  1  0.700900  0.814800  0.113900  1.0  0.3641
  C  C472  1  0.813900  0.879800  0.130400  1.0  -0.2142
  C  C473  1  0.181100  0.822200  0.415000  1.0  0.2407
  C  C474  1  0.138500  0.834800  0.451600  1.0  0.1342
  C  C475  1  0.125000  0.712100  0.457900  1.0  0.0532
  C  C476  1  0.168100  0.702700  0.422800  1.0  0.3641
  C  C477  1  0.139800  0.572700  0.421400  1.0  -0.2614
  C  C478  1  0.224100  0.628300  0.370500  1.0  0.3312
  C  C479  1  0.294200  0.648500  0.369800  1.0  0.1162
  C  C480  1  0.301300  0.617700  0.301600  1.0  0.1311
  C  C481  1  0.232400  0.602200  0.299400  1.0  0.2942
  C  C482  1  0.186100  0.514100  0.249600  1.0  -0.2202
  C  C483  1  0.170900  0.642100  0.239500  1.0  0.3847
  C  C484  1  0.131300  0.634600  0.200300  1.0  0.0901
  C  C485  1  0.125700  0.756500  0.193600  1.0  0.0592
  C  C486  1  0.166100  0.763700  0.231600  1.0  0.2567
  C  C487  1  0.137400  0.892800  0.237700  1.0  -0.2158
  C  C488  1  0.226100  0.832700  0.283700  1.0  0.2542
  C  C489  1  0.294500  0.804000  0.284600  1.0  0.1359
  C  C490  1  0.309600  0.836200  0.353400  1.0  0.0911
  C  C491  1  0.240400  0.859700  0.354500  1.0  0.3601
  C  C492  1  0.184000  0.952000  0.398900  1.0  -0.2319
  C  C493  1  0.776000  0.317100  0.209200  1.0  0.3278
  C  C494  1  0.773900  0.390200  0.207300  1.0  0.0587
  C  C495  1  0.668300  0.390000  0.242000  1.0  0.0678
  C  C496  1  0.671900  0.315100  0.245200  1.0  0.408
  C  C497  1  0.549900  0.305700  0.269500  1.0  -0.2277
  C  C498  1  0.625400  0.202200  0.259600  1.0  0.3319
  C  C499  1  0.673400  0.163500  0.282200  1.0  0.1371
  C  C500  1  0.645400  0.065300  0.246000  1.0  0.1384
  C  C501  1  0.595000  0.103800  0.222800  1.0  0.3927
  C  C502  1  0.480300  0.080500  0.187500  1.0  -0.2224
  C  C503  1  0.595500  0.047500  0.153200  1.0  0.3803
  C  C504  1  0.561700  0.012900  0.120900  1.0  0.0728
  C  C505  1  0.668900  0.005800  0.086300  1.0  0.1085
  C  C506  1  0.704300  0.045400  0.121000  1.0  0.3146
  C  C507  1  0.809100  0.076200  0.081400  1.0  -0.2187
  C  C508  1  0.797700  0.100900  0.157400  1.0  0.4277
  C  C509  1  0.808100  0.064400  0.195300  1.0  0.1176
  C  C510  1  0.834600  0.166900  0.229300  1.0  0.1082
  C  C511  1  0.823000  0.202700  0.192400  1.0  0.353
  C  C512  1  0.873800  0.310300  0.157200  1.0  -0.2273
  C  C513  1  0.524600  0.700000  0.454600  1.0  0.3219
  C  C514  1  0.487600  0.690200  0.415600  1.0  0.0849
  C  C515  1  0.487000  0.809600  0.404000  1.0  0.0594
  C  C516  1  0.522200  0.821200  0.442600  1.0  0.3667
  C  C517  1  0.529800  0.951900  0.430600  1.0  -0.2659
  C  C518  1  0.584700  0.895100  0.493400  1.0  0.3517
  C  C519  1  0.552400  0.886300  0.531800  1.0  0.1316
  C  C520  1  0.658600  0.896900  0.564900  1.0  0.1204
  C  C521  1  0.690400  0.905900  0.527500  1.0  0.3656
  C  C522  1  0.794700  0.967700  0.495300  1.0  -0.2216
  C  C523  1  0.808200  0.853000  0.532200  1.0  0.2223
  C  C524  1  0.882400  0.851100  0.529200  1.0  0.0357
  C  C525  1  0.881400  0.731200  0.541700  1.0  0.0844
  C  C526  1  0.804400  0.731400  0.543500  1.0  0.3868
  C  C527  1  0.795100  0.602700  0.534700  1.0  -0.221
  C  C528  1  0.691200  0.678000  0.550200  1.0  0.2675
  C  C529  1  0.657400  0.709200  0.585100  1.0  0.1091
  C  C530  1  0.549600  0.693800  0.551800  1.0  0.0974
  C  C531  1  0.586600  0.664300  0.516200  1.0  0.2767
  C  C532  1  0.529100  0.573300  0.472600  1.0  -0.2106
  C  C533  1  0.312200  0.748000  0.613200  1.0  0.3517
  C  C534  1  0.386500  0.754600  0.616800  1.0  0.0759
  C  C535  1  0.374400  0.873600  0.613800  1.0  0.0932
  C  C536  1  0.302100  0.869400  0.610000  1.0  0.3609
  C  C537  1  0.284400  0.999900  0.610800  1.0  -0.2276
  C  C538  1  0.185000  0.913900  0.610000  1.0  0.327
  C  C539  1  0.147600  0.890500  0.572600  1.0  0.119
  C  C540  1  0.041800  0.887900  0.608800  1.0  0.1088
  C  C541  1  0.078900  0.911600  0.646200  1.0  0.3963
  C  C542  1  0.013400  0.987700  0.696500  1.0  -0.2432
  C  C543  1  0.024300  0.854800  0.704900  1.0  0.3497
  C  C544  1  0.991200  0.855700  0.743400  1.0  0.0996
  C  C545  1  0.001600  0.734800  0.745900  1.0  0.0697
  C  C546  1  0.034400  0.736100  0.707000  1.0  0.3402
  C  C547  1  0.072400  0.610500  0.711800  1.0  -0.2178
  C  C548  1  0.097000  0.683200  0.648800  1.0  0.3258
  C  C549  1  0.059300  0.701000  0.612800  1.0  0.1107
  C  C550  1  0.163700  0.702400  0.578200  1.0  0.1437
  C  C551  1  0.200900  0.685200  0.613900  1.0  0.3639
  C  C552  1  0.313900  0.620200  0.630400  1.0  -0.215
  C  C553  1  0.681100  0.677800  0.915000  1.0  0.241
  C  C554  1  0.638500  0.665200  0.951600  1.0  0.1326
  C  C555  1  0.625000  0.787900  0.957900  1.0  0.0537
  C  C556  1  0.668100  0.797300  0.922800  1.0  0.3634
  C  C557  1  0.639800  0.927300  0.921400  1.0  -0.2622
  C  C558  1  0.724100  0.871700  0.870500  1.0  0.3312
  C  C559  1  0.794200  0.851500  0.869800  1.0  0.1164
  C  C560  1  0.801300  0.882300  0.801600  1.0  0.1309
  C  C561  1  0.732400  0.897800  0.799400  1.0  0.2943
  C  C562  1  0.686100  0.985900  0.749600  1.0  -0.2197
  C  C563  1  0.670900  0.857900  0.739500  1.0  0.3848
  C  C564  1  0.631300  0.865400  0.700300  1.0  0.088
  C  C565  1  0.625700  0.743500  0.693600  1.0  0.0601
  C  C566  1  0.666100  0.736300  0.731600  1.0  0.2576
  C  C567  1  0.637400  0.607200  0.737700  1.0  -0.2172
  C  C568  1  0.726100  0.667300  0.783700  1.0  0.2547
  C  C569  1  0.794500  0.696000  0.784600  1.0  0.1363
  C  C570  1  0.809600  0.663800  0.853400  1.0  0.0915
  C  C571  1  0.740400  0.640300  0.854500  1.0  0.3604
  C  C572  1  0.684000  0.548000  0.898900  1.0  -0.2323
  C  C573  1  0.276000  0.182900  0.709200  1.0  0.3278
  C  C574  1  0.273900  0.109800  0.707300  1.0  0.0583
  C  C575  1  0.168300  0.110000  0.742000  1.0  0.0687
  C  C576  1  0.171900  0.184900  0.745200  1.0  0.4084
  C  C577  1  0.049900  0.194300  0.769500  1.0  -0.2281
  C  C578  1  0.125400  0.297800  0.759600  1.0  0.3319
  C  C579  1  0.173400  0.336500  0.782200  1.0  0.137
  C  C580  1  0.145400  0.434700  0.746000  1.0  0.1393
  C  C581  1  0.095000  0.396200  0.722800  1.0  0.3921
  C  C582  1  0.980300  0.419500  0.687500  1.0  -0.2228
  C  C583  1  0.095500  0.452500  0.653200  1.0  0.3796
  C  C584  1  0.061700  0.487100  0.620900  1.0  0.0721
  C  C585  1  0.168900  0.494200  0.586300  1.0  0.1085
  C  C586  1  0.204300  0.454600  0.621000  1.0  0.3147
  C  C587  1  0.309100  0.423800  0.581400  1.0  -0.2208
  C  C588  1  0.297700  0.399100  0.657400  1.0  0.4273
  C  C589  1  0.308100  0.435600  0.695300  1.0  0.1176
  C  C590  1  0.334600  0.333100  0.729300  1.0  0.1086
  C  C591  1  0.323000  0.297300  0.692400  1.0  0.353
  C  C592  1  0.373800  0.189700  0.657200  1.0  -0.2273
  C  C593  1  0.975400  0.200000  0.045400  1.0  0.3221
  C  C594  1  0.012400  0.190200  0.084400  1.0  0.0849
  C  C595  1  0.013000  0.309600  0.096000  1.0  0.0598
  C  C596  1  0.977800  0.321200  0.057400  1.0  0.3671
  C  C597  1  0.970200  0.451900  0.069400  1.0  -0.2663
  C  C598  1  0.915300  0.395100  0.006600  1.0  0.3522
  C  C599  1  0.947600  0.386300  0.968200  1.0  0.1314
  C  C600  1  0.841400  0.396900  0.935100  1.0  0.1193
  C  C601  1  0.809600  0.405900  0.972500  1.0  0.3659
  C  C602  1  0.705300  0.467700  0.004700  1.0  -0.2213
  C  C603  1  0.691800  0.353000  0.967800  1.0  0.2219
  C  C604  1  0.617600  0.351100  0.970800  1.0  0.0367
  C  C605  1  0.618600  0.231200  0.958300  1.0  0.084
  C  C606  1  0.695600  0.231400  0.956500  1.0  0.3861
  C  C607  1  0.704900  0.102700  0.965300  1.0  -0.2205
  C  C608  1  0.808800  0.178000  0.949800  1.0  0.2662
  C  C609  1  0.842600  0.209200  0.914900  1.0  0.1109
  C  C610  1  0.950400  0.193800  0.948200  1.0  0.0986
  C  C611  1  0.913400  0.164300  0.983800  1.0  0.2768
  C  C612  1  0.970900  0.073300  0.027400  1.0  -0.2107
  C  C613  1  0.187800  0.248000  0.886800  1.0  0.3508
  C  C614  1  0.113500  0.254600  0.883200  1.0  0.0759
  C  C615  1  0.125600  0.373600  0.886200  1.0  0.0938
  C  C616  1  0.197900  0.369400  0.890000  1.0  0.3601
  C  C617  1  0.215600  0.499900  0.889200  1.0  -0.2301
  C  C618  1  0.315000  0.413900  0.890000  1.0  0.3276
  C  C619  1  0.352400  0.390500  0.927400  1.0  0.117
  C  C620  1  0.458200  0.387900  0.891200  1.0  0.1093
  C  C621  1  0.421100  0.411600  0.853800  1.0  0.3959
  C  C622  1  0.486600  0.487700  0.803500  1.0  -0.2425
  C  C623  1  0.475700  0.354800  0.795100  1.0  0.3491
  C  C624  1  0.508800  0.355700  0.756600  1.0  0.0984
  C  C625  1  0.498400  0.234800  0.754100  1.0  0.0686
  C  C626  1  0.465600  0.236100  0.793000  1.0  0.3398
  C  C627  1  0.427600  0.110500  0.788200  1.0  -0.2164
  C  C628  1  0.403000  0.183200  0.851200  1.0  0.3262
  C  C629  1  0.440700  0.201000  0.887200  1.0  0.1094
  C  C630  1  0.336300  0.202400  0.921800  1.0  0.1435
  C  C631  1  0.299100  0.185200  0.886100  1.0  0.3649
  C  C632  1  0.186100  0.120200  0.869600  1.0  -0.2149
  C  C633  1  0.818900  0.177800  0.585000  1.0  0.2407
  C  C634  1  0.861500  0.165200  0.548400  1.0  0.133
  C  C635  1  0.875000  0.287900  0.542100  1.0  0.0524
  C  C636  1  0.831900  0.297300  0.577200  1.0  0.3629
  C  C637  1  0.860200  0.427300  0.578600  1.0  -0.2624
  C  C638  1  0.775900  0.371700  0.629500  1.0  0.3311
  C  C639  1  0.705800  0.351500  0.630200  1.0  0.117
  C  C640  1  0.698700  0.382300  0.698400  1.0  0.1312
  C  C641  1  0.767600  0.397800  0.700600  1.0  0.2937
  C  C642  1  0.813900  0.485900  0.750400  1.0  -0.2199
  C  C643  1  0.829100  0.357900  0.760500  1.0  0.3852
  C  C644  1  0.868700  0.365400  0.799700  1.0  0.088
  C  C645  1  0.874300  0.243500  0.806400  1.0  0.0607
  C  C646  1  0.833900  0.236300  0.768400  1.0  0.2571
  C  C647  1  0.862600  0.107200  0.762300  1.0  -0.2169
  C  C648  1  0.773900  0.167300  0.716300  1.0  0.2545
  C  C649  1  0.705500  0.196000  0.715400  1.0  0.1361
  C  C650  1  0.690400  0.163800  0.646600  1.0  0.0919
  C  C651  1  0.759600  0.140300  0.645500  1.0  0.3591
  C  C652  1  0.816000  0.048000  0.601100  1.0  -0.2318
  C  C653  1  0.224000  0.682900  0.790800  1.0  0.3277
  C  C654  1  0.226100  0.609800  0.792700  1.0  0.058
  C  C655  1  0.331700  0.610000  0.758000  1.0  0.0709
  C  C656  1  0.328100  0.684900  0.754800  1.0  0.4082
  C  C657  1  0.450100  0.694300  0.730500  1.0  -0.2299
  C  C658  1  0.374600  0.797800  0.740400  1.0  0.3327
  C  C659  1  0.326600  0.836500  0.717800  1.0  0.1366
  C  C660  1  0.354600  0.934700  0.754000  1.0  0.1383
  C  C661  1  0.405000  0.896200  0.777200  1.0  0.3935
  C  C662  1  0.519700  0.919500  0.812500  1.0  -0.2234
  C  C663  1  0.404500  0.952500  0.846800  1.0  0.3801
  C  C664  1  0.438300  0.987100  0.879100  1.0  0.0727
  C  C665  1  0.331100  0.994200  0.913700  1.0  0.1095
  C  C666  1  0.295700  0.954600  0.879000  1.0  0.3159
  C  C667  1  0.190900  0.923800  0.918600  1.0  -0.2207
  C  C668  1  0.202300  0.899100  0.842600  1.0  0.4267
  C  C669  1  0.191900  0.935600  0.804700  1.0  0.1185
  C  C670  1  0.165400  0.833100  0.770700  1.0  0.1067
  C  C671  1  0.177000  0.797300  0.807600  1.0  0.3542
  C  C672  1  0.126200  0.689700  0.842800  1.0  -0.2271
  N  N673  1  0.456300  0.232800  0.534400  1.0  -0.5032
  N  N674  1  0.529700  0.254700  0.607200  1.0  -0.368
  N  N675  1  0.454500  0.112700  0.544100  1.0  -0.2133
  N  N676  1  0.345900  0.096100  0.509500  1.0  -0.488
  N  N677  1  0.411100  0.115600  0.431700  1.0  -0.3996
  N  N678  1  0.233900  0.086100  0.475300  1.0  -0.2231
  N  N679  1  0.230900  0.207900  0.459400  1.0  -0.5187
  N  N680  1  0.082200  0.210200  0.465800  1.0  -0.381
  N  N681  1  0.231900  0.328500  0.450500  1.0  -0.1704
  N  N682  1  0.343600  0.343400  0.484200  1.0  -0.4704
  N  N683  1  0.412200  0.282200  0.414800  1.0  -0.4098
  N  N684  1  0.454500  0.351900  0.519600  1.0  -0.0866
  N  N685  1  0.730500  0.195000  0.389900  1.0  -0.5564
  N  N686  1  0.583500  0.185000  0.383700  1.0  -0.3906
  N  N687  1  0.742500  0.072700  0.390600  1.0  -0.1699
  N  N688  1  0.852900  0.075200  0.355300  1.0  -0.3453
  N  N689  1  0.923100  0.119700  0.428300  1.0  -0.3676
  N  N690  1  0.957500  0.081100  0.316600  1.0  -0.1987
  N  N691  1  0.951200  0.203800  0.313500  1.0  -0.5933
  N  N692  1  0.020500  0.202600  0.236900  1.0  -0.3982
  N  N693  1  0.943300  0.323800  0.312600  1.0  -0.1865
  N  N694  1  0.833600  0.326000  0.349900  1.0  -0.4905
  N  N695  1  0.905500  0.288400  0.421700  1.0  -0.3991
  N  N696  1  0.722300  0.316600  0.385900  1.0  -0.1929
  N  N697  1  0.305700  0.255300  0.098100  1.0  -0.4225
  N  N698  1  0.387300  0.278700  0.027600  1.0  -0.3812
  N  N699  1  0.317600  0.136400  0.093700  1.0  -0.2016
  N  N700  1  0.311100  0.107800  0.164500  1.0  -0.5505
  N  N701  1  0.165300  0.140900  0.164300  1.0  -0.3785
  N  N702  1  0.305700  0.086600  0.238100  1.0  -0.052
  N  N703  1  0.313600  0.206400  0.246500  1.0  -0.5164
  N  N704  1  0.391300  0.191600  0.319000  1.0  -0.3358
  N  N705  1  0.317700  0.331000  0.252200  1.0  -0.2091
  N  N706  1  0.303800  0.359800  0.180000  1.0  -0.4972
  N  N707  1  0.163200  0.306200  0.183400  1.0  -0.3887
  N  N708  1  0.289100  0.379500  0.107500  1.0  -0.2247
  N  N709  1  0.773800  0.780500  0.271100  1.0  -0.5158
  N  N710  1  0.780100  0.925400  0.276000  1.0  -0.3877
  N  N711  1  0.877000  0.776100  0.235600  1.0  -0.1107
  N  N712  1  0.915600  0.670300  0.271100  1.0  -0.492
  N  N713  1  0.817700  0.593400  0.223600  1.0  -0.3968
  N  N714  1  0.943100  0.569500  0.310500  1.0  -0.1605
  N  N715  1  0.836400  0.562500  0.346300  1.0  -0.4917
  N  N716  1  0.898900  0.493400  0.412900  1.0  -0.4157
  N  N717  1  0.726600  0.566700  0.377600  1.0  -0.1069
  N  N718  1  0.693100  0.671100  0.344400  1.0  -0.498
  N  N719  1  0.674800  0.597200  0.270000  1.0  -0.3827
  N  N720  1  0.668200  0.776700  0.309000  1.0  -0.2129
  N  N721  1  0.043700  0.732800  0.965600  1.0  -0.5056
  N  N722  1  0.970300  0.754700  0.892800  1.0  -0.3729
  N  N723  1  0.045500  0.612700  0.955900  1.0  -0.214
  N  N724  1  0.154100  0.596100  0.990500  1.0  -0.4859
  N  N725  1  0.088900  0.615600  0.068300  1.0  -0.4031
  N  N726  1  0.266100  0.586100  0.024700  1.0  -0.2217
  N  N727  1  0.269100  0.707900  0.040600  1.0  -0.5185
  N  N728  1  0.417800  0.710200  0.034200  1.0  -0.3825
  N  N729  1  0.268100  0.828500  0.049500  1.0  -0.1696
  N  N730  1  0.156400  0.843400  0.015800  1.0  -0.4684
  N  N731  1  0.087800  0.782200  0.085200  1.0  -0.4099
  N  N732  1  0.045500  0.851900  0.980400  1.0  -0.0865
  N  N733  1  0.769500  0.695000  0.110100  1.0  -0.5575
  N  N734  1  0.916500  0.685000  0.116300  1.0  -0.3918
  N  N735  1  0.757500  0.572700  0.109400  1.0  -0.1713
  N  N736  1  0.647100  0.575200  0.144700  1.0  -0.3429
  N  N737  1  0.576900  0.619700  0.071700  1.0  -0.3685
  N  N738  1  0.542500  0.581100  0.183400  1.0  -0.1995
  N  N739  1  0.548800  0.703800  0.186500  1.0  -0.5929
  N  N740  1  0.479500  0.702600  0.263100  1.0  -0.3987
  N  N741  1  0.556700  0.823800  0.187400  1.0  -0.1859
  N  N742  1  0.666400  0.826000  0.150100  1.0  -0.4906
  N  N743  1  0.594500  0.788400  0.078300  1.0  -0.4009
  N  N744  1  0.777700  0.816600  0.114100  1.0  -0.1933
  N  N745  1  0.194300  0.755300  0.401900  1.0  -0.421
  N  N746  1  0.112700  0.778700  0.472400  1.0  -0.3814
  N  N747  1  0.182400  0.636400  0.406300  1.0  -0.2017
  N  N748  1  0.188900  0.607800  0.335500  1.0  -0.5516
  N  N749  1  0.334700  0.640900  0.335700  1.0  -0.3777
  N  N750  1  0.194300  0.586600  0.261900  1.0  -0.0514
  N  N751  1  0.186400  0.706400  0.253500  1.0  -0.5166
  N  N752  1  0.108700  0.691600  0.181000  1.0  -0.3411
  N  N753  1  0.182300  0.831000  0.247800  1.0  -0.2074
  N  N754  1  0.196200  0.859800  0.320000  1.0  -0.4973
  N  N755  1  0.336800  0.806200  0.316600  1.0  -0.3891
  N  N756  1  0.210900  0.879500  0.392500  1.0  -0.2236
  N  N757  1  0.726200  0.280500  0.228900  1.0  -0.5161
  N  N758  1  0.719900  0.425400  0.224000  1.0  -0.3883
  N  N759  1  0.623000  0.276100  0.264400  1.0  -0.1105
  N  N760  1  0.584400  0.170300  0.228900  1.0  -0.4922
  N  N761  1  0.682300  0.093400  0.276400  1.0  -0.3956
  N  N762  1  0.556900  0.069500  0.189500  1.0  -0.1618
  N  N763  1  0.663600  0.062500  0.153700  1.0  -0.4907
  N  N764  1  0.601100  0.993400  0.087100  1.0  -0.4142
  N  N765  1  0.773400  0.066700  0.122400  1.0  -0.1077
  N  N766  1  0.806900  0.171100  0.155600  1.0  -0.4984
  N  N767  1  0.825200  0.097200  0.230000  1.0  -0.3812
  N  N768  1  0.831800  0.276700  0.191000  1.0  -0.2145
  N  N769  1  0.543700  0.767200  0.465600  1.0  -0.5058
  N  N770  1  0.470300  0.745300  0.392800  1.0  -0.3733
  N  N771  1  0.545500  0.887300  0.455900  1.0  -0.2151
  N  N772  1  0.654100  0.903900  0.490500  1.0  -0.4859
  N  N773  1  0.588900  0.884400  0.568300  1.0  -0.4027
  N  N774  1  0.766100  0.913900  0.524700  1.0  -0.2219
  N  N775  1  0.769100  0.792100  0.540600  1.0  -0.5188
  N  N776  1  0.917800  0.789800  0.534200  1.0  -0.382
  N  N777  1  0.768100  0.671500  0.549500  1.0  -0.1695
  N  N778  1  0.656400  0.656600  0.515800  1.0  -0.469
  N  N779  1  0.587800  0.717800  0.585200  1.0  -0.4103
  N  N780  1  0.545500  0.648100  0.480400  1.0  -0.0863
  N  N781  1  0.269500  0.805000  0.610100  1.0  -0.5574
  N  N782  1  0.416500  0.815000  0.616300  1.0  -0.3919
  N  N783  1  0.257500  0.927300  0.609400  1.0  -0.1721
  N  N784  1  0.147100  0.924800  0.644700  1.0  -0.3436
  N  N785  1  0.076900  0.880300  0.571700  1.0  -0.3687
  N  N786  1  0.042500  0.918900  0.683400  1.0  -0.2004
  N  N787  1  0.048800  0.796200  0.686500  1.0  -0.5928
  N  N788  1  0.979500  0.797400  0.763100  1.0  -0.3981
  N  N789  1  0.056700  0.676200  0.687400  1.0  -0.1856
  N  N790  1  0.166400  0.674000  0.650100  1.0  -0.4909
  N  N791  1  0.094500  0.711600  0.578300  1.0  -0.4008
  N  N792  1  0.277700  0.683400  0.614100  1.0  -0.1923
  N  N793  1  0.694300  0.744700  0.901900  1.0  -0.4202
  N  N794  1  0.612700  0.721300  0.972400  1.0  -0.3821
  N  N795  1  0.682400  0.863600  0.906300  1.0  -0.2019
  N  N796  1  0.688900  0.892200  0.835500  1.0  -0.5514
  N  N797  1  0.834700  0.859100  0.835700  1.0  -0.3778
  N  N798  1  0.694300  0.913400  0.761900  1.0  -0.0522
  N  N799  1  0.686400  0.793600  0.753500  1.0  -0.5169
  N  N800  1  0.608700  0.808400  0.681000  1.0  -0.3405
  N  N801  1  0.682300  0.669000  0.747800  1.0  -0.2069
  N  N802  1  0.696200  0.640200  0.820000  1.0  -0.4972
  N  N803  1  0.836800  0.693800  0.816600  1.0  -0.3891
  N  N804  1  0.710900  0.620500  0.892500  1.0  -0.223
  N  N805  1  0.226200  0.219500  0.728900  1.0  -0.5156
  N  N806  1  0.219900  0.074600  0.724000  1.0  -0.3884
  N  N807  1  0.123000  0.223900  0.764400  1.0  -0.1102
  N  N808  1  0.084400  0.329700  0.728900  1.0  -0.4921
  N  N809  1  0.182300  0.406600  0.776400  1.0  -0.3964
  N  N810  1  0.056900  0.430500  0.689500  1.0  -0.1605
  N  N811  1  0.163600  0.437500  0.653700  1.0  -0.4927
  N  N812  1  0.101100  0.506600  0.587100  1.0  -0.4134
  N  N813  1  0.273400  0.433300  0.622400  1.0  -0.1081
  N  N814  1  0.306900  0.328900  0.655600  1.0  -0.4974
  N  N815  1  0.325200  0.402800  0.730000  1.0  -0.3814
  N  N816  1  0.331800  0.223300  0.691000  1.0  -0.2146
  N  N817  1  0.956300  0.267200  0.034400  1.0  -0.5032
  N  N818  1  0.029700  0.245300  0.107200  1.0  -0.3673
  N  N819  1  0.954500  0.387300  0.044100  1.0  -0.2148
  N  N820  1  0.845900  0.403900  0.009500  1.0  -0.488
  N  N821  1  0.911100  0.384400  0.931700  1.0  -0.3999
  N  N822  1  0.733900  0.413900  0.975300  1.0  -0.2234
  N  N823  1  0.730900  0.292100  0.959400  1.0  -0.5186
  N  N824  1  0.582200  0.289800  0.965800  1.0  -0.3808
  N  N825  1  0.731900  0.171500  0.950500  1.0  -0.1707
  N  N826  1  0.843600  0.156600  0.984200  1.0  -0.4706
  N  N827  1  0.912200  0.217800  0.914800  1.0  -0.4091
  N  N828  1  0.954500  0.148100  0.019600  1.0  -0.0864
  N  N829  1  0.230500  0.305000  0.889900  1.0  -0.5564
  N  N830  1  0.083500  0.315000  0.883700  1.0  -0.3899
  N  N831  1  0.242500  0.427300  0.890600  1.0  -0.1709
  N  N832  1  0.352900  0.424800  0.855300  1.0  -0.3448
  N  N833  1  0.423100  0.380300  0.928300  1.0  -0.3676
  N  N834  1  0.457500  0.418900  0.816600  1.0  -0.1991
  N  N835  1  0.451200  0.296200  0.813500  1.0  -0.5932
  N  N836  1  0.520500  0.297400  0.736900  1.0  -0.3988
  N  N837  1  0.443300  0.176200  0.812600  1.0  -0.1863
  N  N838  1  0.333600  0.174000  0.849900  1.0  -0.4906
  N  N839  1  0.405500  0.211600  0.921700  1.0  -0.4006
  N  N840  1  0.222300  0.183400  0.885900  1.0  -0.1925
  N  N841  1  0.805700  0.244700  0.598100  1.0  -0.4216
  N  N842  1  0.887300  0.221300  0.527600  1.0  -0.3815
  N  N843  1  0.817600  0.363600  0.593700  1.0  -0.2018
  N  N844  1  0.811100  0.392200  0.664500  1.0  -0.5504
  N  N845  1  0.665300  0.359100  0.664300  1.0  -0.3784
  N  N846  1  0.805700  0.413400  0.738100  1.0  -0.0529
  N  N847  1  0.813600  0.293600  0.746500  1.0  -0.517
  N  N848  1  0.891300  0.308400  0.819000  1.0  -0.3357
  N  N849  1  0.817700  0.169000  0.752200  1.0  -0.2089
  N  N850  1  0.803800  0.140200  0.680000  1.0  -0.4969
  N  N851  1  0.663200  0.193800  0.683400  1.0  -0.3885
  N  N852  1  0.789100  0.120500  0.607500  1.0  -0.2244
  N  N853  1  0.273800  0.719500  0.771100  1.0  -0.5142
  N  N854  1  0.280100  0.574600  0.776000  1.0  -0.388
  N  N855  1  0.377000  0.723900  0.735600  1.0  -0.1108
  N  N856  1  0.415600  0.829700  0.771100  1.0  -0.4909
  N  N857  1  0.317700  0.906600  0.723600  1.0  -0.3959
  N  N858  1  0.443100  0.930500  0.810500  1.0  -0.1594
  N  N859  1  0.336400  0.937500  0.846300  1.0  -0.4951
  N  N860  1  0.398900  0.006600  0.912900  1.0  -0.4163
  N  N861  1  0.226600  0.933300  0.877600  1.0  -0.1072
  N  N862  1  0.193100  0.828900  0.844400  1.0  -0.4959
  N  N863  1  0.174800  0.902800  0.770000  1.0  -0.3817
  N  N864  1  0.168200  0.723300  0.809000  1.0  -0.2131
  F  F865  1  0.024500  0.413100  0.185500  1.0  -0.3053
  F  F866  1  0.029900  0.518500  0.155500  1.0  -0.3171
  F  F867  1  0.009500  0.512400  0.223400  1.0  -0.2727
  F  F868  1  0.923700  0.474100  0.177200  1.0  -0.364
  F  F869  1  0.233700  0.135700  0.989500  1.0  -0.2862
  F  F870  1  0.185500  0.039200  0.999500  1.0  -0.251
  F  F871  1  0.126000  0.125400  0.967700  1.0  -0.3009
  F  F872  1  0.150900  0.127900  0.035300  1.0  -0.3209
  F  F873  1  0.967900  0.033400  0.138300  1.0  -0.2611
  F  F874  1  0.005900  0.919300  0.149900  1.0  -0.2956
  F  F875  1  0.049700  0.009100  0.186800  1.0  -0.2887
  F  F876  1  0.939200  0.974700  0.197800  1.0  -0.3342
  F  F877  1  0.338200  0.568400  0.182400  1.0  -0.2979
  F  F878  1  0.270800  0.645300  0.142700  1.0  -0.2798
  F  F879  1  0.384700  0.631500  0.142800  1.0  -0.2888
  F  F880  1  0.331200  0.676600  0.200100  1.0  -0.2691
  F  F881  1  0.475500  0.913100  0.314500  1.0  -0.3047
  F  F882  1  0.470100  0.018500  0.344500  1.0  -0.3151
  F  F883  1  0.490500  0.012400  0.276600  1.0  -0.2726
  F  F884  1  0.576300  0.974100  0.322800  1.0  -0.3647
  F  F885  1  0.266300  0.635700  0.510500  1.0  -0.2865
  F  F886  1  0.314500  0.539200  0.500500  1.0  -0.2517
  F  F887  1  0.374000  0.625400  0.532300  1.0  -0.3008
  F  F888  1  0.349100  0.627900  0.464700  1.0  -0.3207
  F  F889  1  0.532100  0.533400  0.361700  1.0  -0.2578
  F  F890  1  0.494100  0.419300  0.350100  1.0  -0.2948
  F  F891  1  0.450300  0.509100  0.313200  1.0  -0.2872
  F  F892  1  0.560800  0.474700  0.302200  1.0  -0.335
  F  F893  1  0.161800  0.068400  0.317600  1.0  -0.2977
  F  F894  1  0.229200  0.145300  0.357300  1.0  -0.2812
  F  F895  1  0.115300  0.131500  0.357200  1.0  -0.2883
  F  F896  1  0.168800  0.176600  0.299900  1.0  -0.2706
  F  F897  1  0.975500  0.586900  0.814500  1.0  -0.3056
  F  F898  1  0.970100  0.481500  0.844500  1.0  -0.3149
  F  F899  1  0.990500  0.487600  0.776600  1.0  -0.2719
  F  F900  1  0.076300  0.525900  0.822800  1.0  -0.3642
  F  F901  1  0.766300  0.864300  0.010500  1.0  -0.2864
  F  F902  1  0.814500  0.960800  0.000500  1.0  -0.2495
  F  F903  1  0.874000  0.874600  0.032300  1.0  -0.3011
  F  F904  1  0.849100  0.872100  0.964700  1.0  -0.3212
  F  F905  1  0.032100  0.966600  0.861700  1.0  -0.2601
  F  F906  1  0.994100  0.080700  0.850100  1.0  -0.295
  F  F907  1  0.950300  0.990900  0.813200  1.0  -0.2873
  F  F908  1  0.060800  0.025300  0.802200  1.0  -0.3351
  F  F909  1  0.661800  0.431600  0.817600  1.0  -0.2979
  F  F910  1  0.729200  0.354700  0.857300  1.0  -0.2816
  F  F911  1  0.615300  0.368500  0.857200  1.0  -0.288
  F  F912  1  0.668800  0.323400  0.799900  1.0  -0.2701
  F  F913  1  0.524500  0.086900  0.685500  1.0  -0.3054
  F  F914  1  0.529900  0.981500  0.655500  1.0  -0.3175
  F  F915  1  0.509500  0.987600  0.723400  1.0  -0.2728
  F  F916  1  0.423700  0.025900  0.677200  1.0  -0.3636
  F  F917  1  0.733700  0.364300  0.489500  1.0  -0.2863
  F  F918  1  0.685500  0.460800  0.499500  1.0  -0.2497
  F  F919  1  0.626000  0.374600  0.467700  1.0  -0.3018
  F  F920  1  0.650900  0.372100  0.535300  1.0  -0.3209
  F  F921  1  0.467900  0.466600  0.638300  1.0  -0.2592
  F  F922  1  0.505900  0.580700  0.649900  1.0  -0.2953
  F  F923  1  0.549700  0.490900  0.686800  1.0  -0.2887
  F  F924  1  0.439200  0.525300  0.697800  1.0  -0.3341
  F  F925  1  0.838200  0.931600  0.682400  1.0  -0.2983
  F  F926  1  0.770800  0.854700  0.642700  1.0  -0.2801
  F  F927  1  0.884700  0.868500  0.642800  1.0  -0.289
  F  F928  1  0.831200  0.823400  0.700100  1.0  -0.2688
