# generated using pymatgen
data_Zn5H26C45(N5O4)3
_symmetry_space_group_name_H-M   'P 1'
_cell_length_a   28.36800000
_cell_length_b   28.36800000
_cell_length_c   33.95800000
_cell_angle_alpha   90.00000000
_cell_angle_beta   90.00000000
_cell_angle_gamma   90.00000000
_symmetry_Int_Tables_number   1
_chemical_formula_structural   Zn5H26C45(N5O4)3
_chemical_formula_sum   'Zn40 H208 C360 N120 O96'
_cell_volume   27327.47719219
_cell_formula_units_Z   8
loop_
 _symmetry_equiv_pos_site_id
 _symmetry_equiv_pos_as_xyz
  1  'x, y, z'
loop_
 _atom_site_type_symbol
 _atom_site_label
 _atom_site_symmetry_multiplicity
 _atom_site_fract_x
 _atom_site_fract_y
 _atom_site_fract_z
 _atom_site_occupancy
 _atom_site_charge
  Zn  Zn1  1  0.834820  0.253120  0.164790  1.0  1.0661
  Zn  Zn2  1  0.752710  0.172350  0.313540  1.0  1.0304
  Zn  Zn3  1  0.334820  0.753120  0.664790  1.0  1.0661
  Zn  Zn4  1  0.252710  0.672350  0.813540  1.0  1.0304
  Zn  Zn5  1  0.165180  0.746880  0.164790  1.0  1.0663
  Zn  Zn6  1  0.247290  0.827650  0.313540  1.0  1.032
  Zn  Zn7  1  0.665180  0.246880  0.664790  1.0  1.0663
  Zn  Zn8  1  0.747290  0.327650  0.813540  1.0  1.032
  Zn  Zn9  1  0.746880  0.834820  0.164790  1.0  1.0659
  Zn  Zn10  1  0.827650  0.752710  0.313540  1.0  1.0278
  Zn  Zn11  1  0.246880  0.334820  0.664790  1.0  1.0659
  Zn  Zn12  1  0.327650  0.252710  0.813540  1.0  1.0278
  Zn  Zn13  1  0.253120  0.165180  0.164790  1.0  1.0659
  Zn  Zn14  1  0.172350  0.247290  0.313540  1.0  1.0281
  Zn  Zn15  1  0.753120  0.665180  0.664790  1.0  1.0659
  Zn  Zn16  1  0.672350  0.747290  0.813540  1.0  1.0281
  Zn  Zn17  1  0.834820  0.746880  0.664790  1.0  1.0662
  Zn  Zn18  1  0.752710  0.827650  0.813540  1.0  1.0309
  Zn  Zn19  1  0.334820  0.246880  0.164790  1.0  1.0662
  Zn  Zn20  1  0.252710  0.327650  0.313540  1.0  1.0309
  Zn  Zn21  1  0.165180  0.253120  0.664790  1.0  1.0663
  Zn  Zn22  1  0.247290  0.172350  0.813540  1.0  1.0316
  Zn  Zn23  1  0.665180  0.753120  0.164790  1.0  1.0663
  Zn  Zn24  1  0.747290  0.672350  0.313540  1.0  1.0316
  Zn  Zn25  1  0.746880  0.165180  0.664790  1.0  1.0659
  Zn  Zn26  1  0.827650  0.247290  0.813540  1.0  1.0278
  Zn  Zn27  1  0.246880  0.665180  0.164790  1.0  1.0659
  Zn  Zn28  1  0.327650  0.747290  0.313540  1.0  1.0278
  Zn  Zn29  1  0.253120  0.834820  0.664790  1.0  1.0657
  Zn  Zn30  1  0.172350  0.752710  0.813540  1.0  1.0282
  Zn  Zn31  1  0.753120  0.334820  0.164790  1.0  1.0657
  Zn  Zn32  1  0.672350  0.252710  0.313540  1.0  1.0282
  Zn  Zn33  1  0.753150  0.253150  0.239640  1.0  0.9932
  Zn  Zn34  1  0.246850  0.746850  0.239640  1.0  0.9912
  Zn  Zn35  1  0.746850  0.753150  0.239640  1.0  0.9911
  Zn  Zn36  1  0.253150  0.246850  0.239640  1.0  0.9931
  Zn  Zn37  1  0.753150  0.746850  0.739640  1.0  0.9931
  Zn  Zn38  1  0.246850  0.253150  0.739640  1.0  0.9911
  Zn  Zn39  1  0.746850  0.246850  0.739640  1.0  0.9912
  Zn  Zn40  1  0.253150  0.753150  0.739640  1.0  0.9932
  H  H41  1  0.939800  0.181900  0.349600  1.0  0.1149
  H  H42  1  0.021400  0.185100  0.355700  1.0  0.1201
  H  H43  1  0.870200  0.279500  0.253100  1.0  0.1527
  H  H44  1  0.825000  0.984900  0.134500  1.0  0.1215
  H  H45  1  0.943600  0.280700  0.263200  1.0  0.1153
  H  H46  1  0.826900  0.066100  0.142400  1.0  0.1099
  H  H47  1  0.025700  0.282600  0.269700  1.0  0.0994
  H  H48  1  0.826100  0.145000  0.137000  1.0  0.1055
  H  H49  1  0.698400  0.980500  0.189300  1.0  0.1348
  H  H50  1  0.701100  0.062500  0.196900  1.0  0.1088
  H  H51  1  0.842700  0.241800  0.043200  1.0  0.1216
  H  H52  1  0.742500  0.342500  0.909200  1.0  0.1117
  H  H53  1  0.841600  0.241400  0.974800  1.0  0.1134
  H  H54  1  0.439800  0.681900  0.849600  1.0  0.1149
  H  H55  1  0.521400  0.685100  0.855700  1.0  0.1201
  H  H56  1  0.370200  0.779500  0.753100  1.0  0.1527
  H  H57  1  0.325000  0.484900  0.634500  1.0  0.1209
  H  H58  1  0.443600  0.780700  0.763200  1.0  0.1153
  H  H59  1  0.326900  0.566100  0.642400  1.0  0.1099
  H  H60  1  0.525700  0.782600  0.769700  1.0  0.0994
  H  H61  1  0.326100  0.645000  0.637000  1.0  0.1055
  H  H62  1  0.198400  0.480500  0.689300  1.0  0.1348
  H  H63  1  0.201100  0.562500  0.696900  1.0  0.1088
  H  H64  1  0.342700  0.741800  0.543200  1.0  0.1216
  H  H65  1  0.242500  0.842500  0.409200  1.0  0.1117
  H  H66  1  0.341600  0.741400  0.474800  1.0  0.1136
  H  H67  1  0.060200  0.818100  0.349600  1.0  0.1148
  H  H68  1  0.978600  0.814900  0.355700  1.0  0.1203
  H  H69  1  0.129800  0.720500  0.253100  1.0  0.153
  H  H70  1  0.175000  0.015100  0.134500  1.0  0.1213
  H  H71  1  0.056400  0.719300  0.263200  1.0  0.1147
  H  H72  1  0.173100  0.933900  0.142400  1.0  0.1094
  H  H73  1  0.974300  0.717400  0.269700  1.0  0.099
  H  H74  1  0.173900  0.855000  0.137000  1.0  0.106
  H  H75  1  0.301600  0.019500  0.189300  1.0  0.1347
  H  H76  1  0.298900  0.937500  0.196900  1.0  0.1093
  H  H77  1  0.157300  0.758200  0.043200  1.0  0.1211
  H  H78  1  0.257500  0.657500  0.909200  1.0  0.111
  H  H79  1  0.158400  0.758600  0.974800  1.0  0.1139
  H  H80  1  0.560200  0.318100  0.849600  1.0  0.1148
  H  H81  1  0.478600  0.314900  0.855700  1.0  0.1203
  H  H82  1  0.629800  0.220500  0.753100  1.0  0.153
  H  H83  1  0.675000  0.515100  0.634500  1.0  0.1207
  H  H84  1  0.556400  0.219300  0.763200  1.0  0.1147
  H  H85  1  0.673100  0.433900  0.642400  1.0  0.1094
  H  H86  1  0.474300  0.217400  0.769700  1.0  0.099
  H  H87  1  0.673900  0.355000  0.637000  1.0  0.106
  H  H88  1  0.801600  0.519500  0.689300  1.0  0.1347
  H  H89  1  0.798900  0.437500  0.696900  1.0  0.1093
  H  H90  1  0.657300  0.258200  0.543200  1.0  0.1211
  H  H91  1  0.757500  0.157500  0.409200  1.0  0.111
  H  H92  1  0.658400  0.258600  0.474800  1.0  0.114
  H  H93  1  0.818100  0.939800  0.349600  1.0  0.1147
  H  H94  1  0.814900  0.021400  0.355700  1.0  0.1196
  H  H95  1  0.720500  0.870200  0.253100  1.0  0.1521
  H  H96  1  0.015100  0.825000  0.134500  1.0  0.1215
  H  H97  1  0.719300  0.943600  0.263200  1.0  0.1118
  H  H98  1  0.933900  0.826900  0.142400  1.0  0.1106
  H  H99  1  0.717400  0.025700  0.269700  1.0  0.0991
  H  H100  1  0.855000  0.826100  0.137000  1.0  0.1057
  H  H101  1  0.019500  0.698400  0.189300  1.0  0.1341
  H  H102  1  0.937500  0.701100  0.196900  1.0  0.108
  H  H103  1  0.758200  0.842700  0.043200  1.0  0.121
  H  H104  1  0.657500  0.742500  0.909200  1.0  0.1112
  H  H105  1  0.758600  0.841600  0.974800  1.0  0.1137
  H  H106  1  0.318100  0.439800  0.849600  1.0  0.1147
  H  H107  1  0.314900  0.521400  0.855700  1.0  0.1196
  H  H108  1  0.220500  0.370200  0.753100  1.0  0.1521
  H  H109  1  0.515100  0.325000  0.634500  1.0  0.1209
  H  H110  1  0.219300  0.443600  0.763200  1.0  0.1118
  H  H111  1  0.433900  0.326900  0.642400  1.0  0.1106
  H  H112  1  0.217400  0.525700  0.769700  1.0  0.0991
  H  H113  1  0.355000  0.326100  0.637000  1.0  0.1057
  H  H114  1  0.519500  0.198400  0.689300  1.0  0.1341
  H  H115  1  0.437500  0.201100  0.696900  1.0  0.108
  H  H116  1  0.258200  0.342700  0.543200  1.0  0.121
  H  H117  1  0.157500  0.242500  0.409200  1.0  0.1112
  H  H118  1  0.258600  0.341600  0.474800  1.0  0.114
  H  H119  1  0.181900  0.060200  0.349600  1.0  0.1142
  H  H120  1  0.185100  0.978600  0.355700  1.0  0.1199
  H  H121  1  0.279500  0.129800  0.253100  1.0  0.1525
  H  H122  1  0.984900  0.175000  0.134500  1.0  0.1215
  H  H123  1  0.280700  0.056400  0.263200  1.0  0.1119
  H  H124  1  0.066100  0.173100  0.142400  1.0  0.1104
  H  H125  1  0.282600  0.974300  0.269700  1.0  0.1001
  H  H126  1  0.145000  0.173900  0.137000  1.0  0.1055
  H  H127  1  0.980500  0.301600  0.189300  1.0  0.1344
  H  H128  1  0.062500  0.298900  0.196900  1.0  0.1082
  H  H129  1  0.241800  0.157300  0.043200  1.0  0.1211
  H  H130  1  0.342500  0.257500  0.909200  1.0  0.1115
  H  H131  1  0.241400  0.158400  0.974800  1.0  0.1135
  H  H132  1  0.681900  0.560200  0.849600  1.0  0.1142
  H  H133  1  0.685100  0.478600  0.855700  1.0  0.1199
  H  H134  1  0.779500  0.629800  0.753100  1.0  0.1525
  H  H135  1  0.484900  0.675000  0.634500  1.0  0.121
  H  H136  1  0.780700  0.556400  0.763200  1.0  0.1119
  H  H137  1  0.566100  0.673100  0.642400  1.0  0.1104
  H  H138  1  0.782600  0.474300  0.769700  1.0  0.1001
  H  H139  1  0.645000  0.673900  0.637000  1.0  0.1055
  H  H140  1  0.480500  0.801600  0.689300  1.0  0.1344
  H  H141  1  0.562500  0.798900  0.696900  1.0  0.1082
  H  H142  1  0.741800  0.657300  0.543200  1.0  0.1211
  H  H143  1  0.842500  0.757500  0.409200  1.0  0.1115
  H  H144  1  0.741400  0.658400  0.474800  1.0  0.1134
  H  H145  1  0.939800  0.818100  0.849600  1.0  0.1149
  H  H146  1  0.021400  0.814900  0.855700  1.0  0.1202
  H  H147  1  0.870200  0.720500  0.753100  1.0  0.1532
  H  H148  1  0.825000  0.015100  0.634500  1.0  0.1213
  H  H149  1  0.943600  0.719300  0.763200  1.0  0.1148
  H  H150  1  0.826900  0.933900  0.642400  1.0  0.1097
  H  H151  1  0.025700  0.717400  0.769700  1.0  0.0994
  H  H152  1  0.826100  0.855000  0.637000  1.0  0.1058
  H  H153  1  0.698400  0.019500  0.689300  1.0  0.1349
  H  H154  1  0.701100  0.937500  0.696900  1.0  0.1088
  H  H155  1  0.842700  0.758200  0.543200  1.0  0.1211
  H  H156  1  0.742500  0.657500  0.409200  1.0  0.1112
  H  H157  1  0.841600  0.758600  0.474800  1.0  0.1138
  H  H158  1  0.439800  0.318100  0.349600  1.0  0.1149
  H  H159  1  0.521400  0.314900  0.355700  1.0  0.1202
  H  H160  1  0.370200  0.220500  0.253100  1.0  0.1532
  H  H161  1  0.325000  0.515100  0.134500  1.0  0.1213
  H  H162  1  0.443600  0.219300  0.263200  1.0  0.1148
  H  H163  1  0.326900  0.433900  0.142400  1.0  0.1097
  H  H164  1  0.525700  0.217400  0.269700  1.0  0.0994
  H  H165  1  0.326100  0.355000  0.137000  1.0  0.1058
  H  H166  1  0.198400  0.519500  0.189300  1.0  0.1349
  H  H167  1  0.201100  0.437500  0.196900  1.0  0.1088
  H  H168  1  0.342700  0.258200  0.043200  1.0  0.1211
  H  H169  1  0.242500  0.157500  0.909200  1.0  0.1112
  H  H170  1  0.341600  0.258600  0.974800  1.0  0.1143
  H  H171  1  0.060200  0.181900  0.849600  1.0  0.1149
  H  H172  1  0.978600  0.185100  0.855700  1.0  0.12
  H  H173  1  0.129800  0.279500  0.753100  1.0  0.153
  H  H174  1  0.175000  0.984900  0.634500  1.0  0.1208
  H  H175  1  0.056400  0.280700  0.763200  1.0  0.115
  H  H176  1  0.173100  0.066100  0.642400  1.0  0.1094
  H  H177  1  0.974300  0.282600  0.769700  1.0  0.0993
  H  H178  1  0.173900  0.145000  0.637000  1.0  0.1055
  H  H179  1  0.301600  0.980500  0.689300  1.0  0.1346
  H  H180  1  0.298900  0.062500  0.696900  1.0  0.109
  H  H181  1  0.157300  0.241800  0.543200  1.0  0.1214
  H  H182  1  0.257500  0.342500  0.409200  1.0  0.1112
  H  H183  1  0.158400  0.241400  0.474800  1.0  0.1128
  H  H184  1  0.560200  0.681900  0.349600  1.0  0.1149
  H  H185  1  0.478600  0.685100  0.355700  1.0  0.12
  H  H186  1  0.629800  0.779500  0.253100  1.0  0.153
  H  H187  1  0.675000  0.484900  0.134500  1.0  0.1208
  H  H188  1  0.556400  0.780700  0.263200  1.0  0.115
  H  H189  1  0.673100  0.566100  0.142400  1.0  0.1094
  H  H190  1  0.474300  0.782600  0.269700  1.0  0.0993
  H  H191  1  0.673900  0.645000  0.137000  1.0  0.1055
  H  H192  1  0.801600  0.480500  0.189300  1.0  0.1346
  H  H193  1  0.798900  0.562500  0.196900  1.0  0.109
  H  H194  1  0.657300  0.741800  0.043200  1.0  0.1214
  H  H195  1  0.757500  0.842500  0.909200  1.0  0.1112
  H  H196  1  0.658400  0.741400  0.974800  1.0  0.1135
  H  H197  1  0.818100  0.060200  0.849600  1.0  0.1146
  H  H198  1  0.814900  0.978600  0.855700  1.0  0.1199
  H  H199  1  0.720500  0.129800  0.753100  1.0  0.1521
  H  H200  1  0.015100  0.175000  0.634500  1.0  0.1208
  H  H201  1  0.719300  0.056400  0.763200  1.0  0.1119
  H  H202  1  0.933900  0.173100  0.642400  1.0  0.1104
  H  H203  1  0.717400  0.974300  0.769700  1.0  0.0993
  H  H204  1  0.855000  0.173900  0.637000  1.0  0.1053
  H  H205  1  0.019500  0.301600  0.689300  1.0  0.1343
  H  H206  1  0.937500  0.298900  0.696900  1.0  0.1089
  H  H207  1  0.758200  0.157300  0.543200  1.0  0.1211
  H  H208  1  0.657500  0.257500  0.409200  1.0  0.1118
  H  H209  1  0.758600  0.158400  0.474800  1.0  0.1129
  H  H210  1  0.318100  0.560200  0.349600  1.0  0.1146
  H  H211  1  0.314900  0.478600  0.355700  1.0  0.1199
  H  H212  1  0.220500  0.629800  0.253100  1.0  0.1521
  H  H213  1  0.515100  0.675000  0.134500  1.0  0.1208
  H  H214  1  0.219300  0.556400  0.263200  1.0  0.1119
  H  H215  1  0.433900  0.673100  0.142400  1.0  0.1104
  H  H216  1  0.217400  0.474300  0.269700  1.0  0.0993
  H  H217  1  0.355000  0.673900  0.137000  1.0  0.1053
  H  H218  1  0.519500  0.801600  0.189300  1.0  0.1343
  H  H219  1  0.437500  0.798900  0.196900  1.0  0.1089
  H  H220  1  0.258200  0.657300  0.043200  1.0  0.1211
  H  H221  1  0.157500  0.757500  0.909200  1.0  0.1118
  H  H222  1  0.258600  0.658400  0.974800  1.0  0.1135
  H  H223  1  0.181900  0.939800  0.849600  1.0  0.1146
  H  H224  1  0.185100  0.021400  0.855700  1.0  0.1197
  H  H225  1  0.279500  0.870200  0.753100  1.0  0.1524
  H  H226  1  0.984900  0.825000  0.634500  1.0  0.1213
  H  H227  1  0.280700  0.943600  0.763200  1.0  0.1116
  H  H228  1  0.066100  0.826900  0.642400  1.0  0.1102
  H  H229  1  0.282600  0.025700  0.769700  1.0  0.1
  H  H230  1  0.145000  0.826100  0.637000  1.0  0.1056
  H  H231  1  0.980500  0.698400  0.689300  1.0  0.134
  H  H232  1  0.062500  0.701100  0.696900  1.0  0.1081
  H  H233  1  0.241800  0.842700  0.543200  1.0  0.1212
  H  H234  1  0.342500  0.742500  0.409200  1.0  0.1111
  H  H235  1  0.241400  0.841600  0.474800  1.0  0.1131
  H  H236  1  0.681900  0.439800  0.349600  1.0  0.1146
  H  H237  1  0.685100  0.521400  0.355700  1.0  0.1197
  H  H238  1  0.779500  0.370200  0.253100  1.0  0.1524
  H  H239  1  0.484900  0.325000  0.134500  1.0  0.1213
  H  H240  1  0.780700  0.443600  0.263200  1.0  0.1116
  H  H241  1  0.566100  0.326900  0.142400  1.0  0.1102
  H  H242  1  0.782600  0.525700  0.269700  1.0  0.1
  H  H243  1  0.645000  0.326100  0.137000  1.0  0.1056
  H  H244  1  0.480500  0.198400  0.189300  1.0  0.134
  H  H245  1  0.562500  0.201100  0.196900  1.0  0.1081
  H  H246  1  0.741800  0.342700  0.043200  1.0  0.1212
  H  H247  1  0.842500  0.242500  0.909200  1.0  0.1111
  H  H248  1  0.741400  0.341600  0.974800  1.0  0.1137
  C  C249  1  0.957500  0.203000  0.333600  1.0  -0.0616
  C  C250  1  0.884300  0.228000  0.298300  1.0  0.1396
  C  C251  1  0.005500  0.204900  0.337400  1.0  -0.0452
  C  C252  1  0.858600  0.255600  0.270100  1.0  0.0621
  C  C253  1  0.934100  0.231700  0.306600  1.0  -0.1065
  C  C254  1  0.030100  0.235800  0.314300  1.0  -0.13
  C  C255  1  0.761900  0.923500  0.157300  1.0  0.656
  C  C256  1  0.799900  0.000800  0.147400  1.0  -0.1077
  C  C257  1  0.959100  0.261600  0.282200  1.0  -0.1828
  C  C258  1  0.800600  0.048900  0.152100  1.0  -0.1872
  C  C259  1  0.762100  0.976300  0.161700  1.0  -0.0872
  C  C260  1  0.007600  0.262700  0.286400  1.0  -0.0412
  C  C261  1  0.083000  0.239500  0.317500  1.0  0.683
  C  C262  1  0.806500  0.152400  0.158800  1.0  0.0355
  C  C263  1  0.764500  0.072900  0.170400  1.0  0.0447
  C  C264  1  0.774700  0.121000  0.178100  1.0  0.0939
  C  C265  1  0.724600  0.998100  0.180000  1.0  -0.1041
  C  C266  1  0.726500  0.046700  0.184200  1.0  -0.0727
  C  C267  1  0.822000  0.262100  0.029200  1.0  -0.1087
  C  C268  1  0.819700  0.264800  0.900700  1.0  0.0255
  C  C269  1  0.821100  0.262000  0.988700  1.0  -0.1047
  C  C270  1  0.457500  0.703000  0.833600  1.0  -0.0616
  C  C271  1  0.384300  0.728000  0.798300  1.0  0.1396
  C  C272  1  0.505500  0.704900  0.837400  1.0  -0.0452
  C  C273  1  0.358600  0.755600  0.770100  1.0  0.0621
  C  C274  1  0.434100  0.731700  0.806600  1.0  -0.1065
  C  C275  1  0.530100  0.735800  0.814300  1.0  -0.13
  C  C276  1  0.261900  0.423500  0.657300  1.0  0.656
  C  C277  1  0.299900  0.500800  0.647400  1.0  -0.1077
  C  C278  1  0.459100  0.761600  0.782200  1.0  -0.1828
  C  C279  1  0.300600  0.548900  0.652100  1.0  -0.1872
  C  C280  1  0.262100  0.476300  0.661700  1.0  -0.0872
  C  C281  1  0.507600  0.762700  0.786400  1.0  -0.0412
  C  C282  1  0.583000  0.739500  0.817500  1.0  0.683
  C  C283  1  0.306500  0.652400  0.658800  1.0  0.0355
  C  C284  1  0.264500  0.572900  0.670400  1.0  0.0447
  C  C285  1  0.274700  0.621000  0.678100  1.0  0.0939
  C  C286  1  0.224600  0.498100  0.680000  1.0  -0.1041
  C  C287  1  0.226500  0.546700  0.684200  1.0  -0.0727
  C  C288  1  0.322000  0.762100  0.529200  1.0  -0.1087
  C  C289  1  0.319700  0.764800  0.400700  1.0  0.0255
  C  C290  1  0.321100  0.762000  0.488700  1.0  -0.1136
  C  C291  1  0.042500  0.797000  0.333600  1.0  -0.0608
  C  C292  1  0.115700  0.772000  0.298300  1.0  0.1398
  C  C293  1  0.994500  0.795100  0.337400  1.0  -0.0448
  C  C294  1  0.141400  0.744400  0.270100  1.0  0.06
  C  C295  1  0.065900  0.768300  0.306600  1.0  -0.1077
  C  C296  1  0.969900  0.764200  0.314300  1.0  -0.1295
  C  C297  1  0.238100  0.076500  0.157300  1.0  0.6561
  C  C298  1  0.200100  0.999200  0.147400  1.0  -0.1082
  C  C299  1  0.040900  0.738400  0.282200  1.0  -0.1832
  C  C300  1  0.199400  0.951100  0.152100  1.0  -0.1882
  C  C301  1  0.237900  0.023700  0.161700  1.0  -0.0865
  C  C302  1  0.992400  0.737300  0.286400  1.0  -0.0411
  C  C303  1  0.917000  0.760500  0.317500  1.0  0.6817
  C  C304  1  0.193500  0.847600  0.158800  1.0  0.0347
  C  C305  1  0.235500  0.927100  0.170400  1.0  0.0434
  C  C306  1  0.225300  0.879000  0.178100  1.0  0.0946
  C  C307  1  0.275400  0.001900  0.180000  1.0  -0.1039
  C  C308  1  0.273500  0.953300  0.184200  1.0  -0.0739
  C  C309  1  0.178000  0.737900  0.029200  1.0  -0.1121
  C  C310  1  0.180300  0.735200  0.900700  1.0  0.0231
  C  C311  1  0.178900  0.738000  0.988700  1.0  -0.1052
  C  C312  1  0.542500  0.297000  0.833600  1.0  -0.0608
  C  C313  1  0.615700  0.272000  0.798300  1.0  0.1398
  C  C314  1  0.494500  0.295100  0.837400  1.0  -0.0448
  C  C315  1  0.641400  0.244400  0.770100  1.0  0.06
  C  C316  1  0.565900  0.268300  0.806600  1.0  -0.1077
  C  C317  1  0.469900  0.264200  0.814300  1.0  -0.1295
  C  C318  1  0.738100  0.576500  0.657300  1.0  0.6561
  C  C319  1  0.700100  0.499200  0.647400  1.0  -0.1082
  C  C320  1  0.540900  0.238400  0.782200  1.0  -0.1832
  C  C321  1  0.699400  0.451100  0.652100  1.0  -0.1882
  C  C322  1  0.737900  0.523700  0.661700  1.0  -0.0865
  C  C323  1  0.492400  0.237300  0.786400  1.0  -0.0411
  C  C324  1  0.417000  0.260500  0.817500  1.0  0.6817
  C  C325  1  0.693500  0.347600  0.658800  1.0  0.0347
  C  C326  1  0.735500  0.427100  0.670400  1.0  0.0434
  C  C327  1  0.725300  0.379000  0.678100  1.0  0.0946
  C  C328  1  0.775400  0.501900  0.680000  1.0  -0.1039
  C  C329  1  0.773500  0.453300  0.684200  1.0  -0.0739
  C  C330  1  0.678000  0.237900  0.529200  1.0  -0.1121
  C  C331  1  0.680300  0.235200  0.400700  1.0  0.0231
  C  C332  1  0.678900  0.238000  0.488700  1.0  -0.1143
  C  C333  1  0.797000  0.957500  0.333600  1.0  -0.0588
  C  C334  1  0.772000  0.884300  0.298300  1.0  0.1395
  C  C335  1  0.795100  0.005500  0.337400  1.0  -0.0449
  C  C336  1  0.744400  0.858600  0.270100  1.0  0.0612
  C  C337  1  0.768300  0.934100  0.306600  1.0  -0.1065
  C  C338  1  0.764200  0.030100  0.314300  1.0  -0.1269
  C  C339  1  0.076500  0.761900  0.157300  1.0  0.6575
  C  C340  1  0.999200  0.799900  0.147400  1.0  -0.11
  C  C341  1  0.738400  0.959100  0.282200  1.0  -0.1834
  C  C342  1  0.951100  0.800600  0.152100  1.0  -0.1917
  C  C343  1  0.023700  0.762100  0.161700  1.0  -0.087
  C  C344  1  0.737300  0.007600  0.286400  1.0  -0.0401
  C  C345  1  0.760500  0.083000  0.317500  1.0  0.6824
  C  C346  1  0.847600  0.806500  0.158800  1.0  0.0355
  C  C347  1  0.927100  0.764500  0.170400  1.0  0.0434
  C  C348  1  0.879000  0.774700  0.178100  1.0  0.0946
  C  C349  1  0.001900  0.724600  0.180000  1.0  -0.1053
  C  C350  1  0.953300  0.726500  0.184200  1.0  -0.0772
  C  C351  1  0.737900  0.822000  0.029200  1.0  -0.1101
  C  C352  1  0.735200  0.819700  0.900700  1.0  0.0244
  C  C353  1  0.738000  0.821100  0.988700  1.0  -0.1047
  C  C354  1  0.297000  0.457500  0.833600  1.0  -0.0588
  C  C355  1  0.272000  0.384300  0.798300  1.0  0.1395
  C  C356  1  0.295100  0.505500  0.837400  1.0  -0.0449
  C  C357  1  0.244400  0.358600  0.770100  1.0  0.0612
  C  C358  1  0.268300  0.434100  0.806600  1.0  -0.1065
  C  C359  1  0.264200  0.530100  0.814300  1.0  -0.1269
  C  C360  1  0.576500  0.261900  0.657300  1.0  0.6575
  C  C361  1  0.499200  0.299900  0.647400  1.0  -0.11
  C  C362  1  0.238400  0.459100  0.782200  1.0  -0.1834
  C  C363  1  0.451100  0.300600  0.652100  1.0  -0.1917
  C  C364  1  0.523700  0.262100  0.661700  1.0  -0.087
  C  C365  1  0.237300  0.507600  0.786400  1.0  -0.0401
  C  C366  1  0.260500  0.583000  0.817500  1.0  0.6824
  C  C367  1  0.347600  0.306500  0.658800  1.0  0.0355
  C  C368  1  0.427100  0.264500  0.670400  1.0  0.0434
  C  C369  1  0.379000  0.274700  0.678100  1.0  0.0946
  C  C370  1  0.501900  0.224600  0.680000  1.0  -0.1053
  C  C371  1  0.453300  0.226500  0.684200  1.0  -0.0772
  C  C372  1  0.237900  0.322000  0.529200  1.0  -0.1101
  C  C373  1  0.235200  0.319700  0.400700  1.0  0.0244
  C  C374  1  0.238000  0.321100  0.488700  1.0  -0.1137
  C  C375  1  0.203000  0.042500  0.333600  1.0  -0.0588
  C  C376  1  0.228000  0.115700  0.298300  1.0  0.1404
  C  C377  1  0.204900  0.994500  0.337400  1.0  -0.0462
  C  C378  1  0.255600  0.141400  0.270100  1.0  0.0632
  C  C379  1  0.231700  0.065900  0.306600  1.0  -0.1069
  C  C380  1  0.235800  0.969900  0.314300  1.0  -0.1271
  C  C381  1  0.923500  0.238100  0.157300  1.0  0.6566
  C  C382  1  0.000800  0.200100  0.147400  1.0  -0.1096
  C  C383  1  0.261600  0.040900  0.282200  1.0  -0.183
  C  C384  1  0.048900  0.199400  0.152100  1.0  -0.1924
  C  C385  1  0.976300  0.237900  0.161700  1.0  -0.0886
  C  C386  1  0.262700  0.992400  0.286400  1.0  -0.0397
  C  C387  1  0.239500  0.917000  0.317500  1.0  0.6824
  C  C388  1  0.152400  0.193500  0.158800  1.0  0.0355
  C  C389  1  0.072900  0.235500  0.170400  1.0  0.044
  C  C390  1  0.121000  0.225300  0.178100  1.0  0.0939
  C  C391  1  0.998100  0.275400  0.180000  1.0  -0.1069
  C  C392  1  0.046700  0.273500  0.184200  1.0  -0.0777
  C  C393  1  0.262100  0.178000  0.029200  1.0  -0.1101
  C  C394  1  0.264800  0.180300  0.900700  1.0  0.0238
  C  C395  1  0.262000  0.178900  0.988700  1.0  -0.1041
  C  C396  1  0.703000  0.542500  0.833600  1.0  -0.0588
  C  C397  1  0.728000  0.615700  0.798300  1.0  0.1404
  C  C398  1  0.704900  0.494500  0.837400  1.0  -0.0462
  C  C399  1  0.755600  0.641400  0.770100  1.0  0.0632
  C  C400  1  0.731700  0.565900  0.806600  1.0  -0.1069
  C  C401  1  0.735800  0.469900  0.814300  1.0  -0.1271
  C  C402  1  0.423500  0.738100  0.657300  1.0  0.6566
  C  C403  1  0.500800  0.700100  0.647400  1.0  -0.1096
  C  C404  1  0.761600  0.540900  0.782200  1.0  -0.183
  C  C405  1  0.548900  0.699400  0.652100  1.0  -0.1924
  C  C406  1  0.476300  0.737900  0.661700  1.0  -0.0886
  C  C407  1  0.762700  0.492400  0.786400  1.0  -0.0397
  C  C408  1  0.739500  0.417000  0.817500  1.0  0.6824
  C  C409  1  0.652400  0.693500  0.658800  1.0  0.0355
  C  C410  1  0.572900  0.735500  0.670400  1.0  0.044
  C  C411  1  0.621000  0.725300  0.678100  1.0  0.0939
  C  C412  1  0.498100  0.775400  0.680000  1.0  -0.1069
  C  C413  1  0.546700  0.773500  0.684200  1.0  -0.0777
  C  C414  1  0.762100  0.678000  0.529200  1.0  -0.1101
  C  C415  1  0.764800  0.680300  0.400700  1.0  0.0238
  C  C416  1  0.762000  0.678900  0.488700  1.0  -0.1135
  C  C417  1  0.957500  0.797000  0.833600  1.0  -0.062
  C  C418  1  0.884300  0.772000  0.798300  1.0  0.1396
  C  C419  1  0.005500  0.795100  0.837400  1.0  -0.0437
  C  C420  1  0.858600  0.744400  0.770100  1.0  0.0607
  C  C421  1  0.934100  0.768300  0.806600  1.0  -0.1062
  C  C422  1  0.030100  0.764200  0.814300  1.0  -0.1298
  C  C423  1  0.761900  0.076500  0.657300  1.0  0.6558
  C  C424  1  0.799900  0.999200  0.647400  1.0  -0.1083
  C  C425  1  0.959100  0.738400  0.782200  1.0  -0.183
  C  C426  1  0.800600  0.951100  0.652100  1.0  -0.188
  C  C427  1  0.762100  0.023700  0.661700  1.0  -0.0865
  C  C428  1  0.007600  0.737300  0.786400  1.0  -0.0411
  C  C429  1  0.083000  0.760500  0.817500  1.0  0.6831
  C  C430  1  0.806500  0.847600  0.658800  1.0  0.0348
  C  C431  1  0.764500  0.927100  0.670400  1.0  0.0432
  C  C432  1  0.774700  0.879000  0.678100  1.0  0.0939
  C  C433  1  0.724600  0.001900  0.680000  1.0  -0.1045
  C  C434  1  0.726500  0.953300  0.684200  1.0  -0.073
  C  C435  1  0.822000  0.737900  0.529200  1.0  -0.1121
  C  C436  1  0.821100  0.738000  0.488700  1.0  -0.1141
  C  C437  1  0.457500  0.297000  0.333600  1.0  -0.062
  C  C438  1  0.384300  0.272000  0.298300  1.0  0.1396
  C  C439  1  0.505500  0.295100  0.337400  1.0  -0.0437
  C  C440  1  0.358600  0.244400  0.270100  1.0  0.0607
  C  C441  1  0.434100  0.268300  0.306600  1.0  -0.1062
  C  C442  1  0.530100  0.264200  0.314300  1.0  -0.1298
  C  C443  1  0.261900  0.576500  0.157300  1.0  0.6558
  C  C444  1  0.299900  0.499200  0.147400  1.0  -0.1083
  C  C445  1  0.459100  0.238400  0.282200  1.0  -0.183
  C  C446  1  0.300600  0.451100  0.152100  1.0  -0.188
  C  C447  1  0.262100  0.523700  0.161700  1.0  -0.0865
  C  C448  1  0.507600  0.237300  0.286400  1.0  -0.0411
  C  C449  1  0.583000  0.260500  0.317500  1.0  0.6831
  C  C450  1  0.306500  0.347600  0.158800  1.0  0.0348
  C  C451  1  0.264500  0.427100  0.170400  1.0  0.0432
  C  C452  1  0.274700  0.379000  0.178100  1.0  0.0939
  C  C453  1  0.224600  0.501900  0.180000  1.0  -0.1045
  C  C454  1  0.226500  0.453300  0.184200  1.0  -0.073
  C  C455  1  0.322000  0.237900  0.029200  1.0  -0.1121
  C  C456  1  0.321100  0.238000  0.988700  1.0  -0.1141
  C  C457  1  0.042500  0.203000  0.833600  1.0  -0.0611
  C  C458  1  0.115700  0.228000  0.798300  1.0  0.1399
  C  C459  1  0.994500  0.204900  0.837400  1.0  -0.0456
  C  C460  1  0.141400  0.255600  0.770100  1.0  0.061
  C  C461  1  0.065900  0.231700  0.806600  1.0  -0.1079
  C  C462  1  0.969900  0.235800  0.814300  1.0  -0.1297
  C  C463  1  0.238100  0.923500  0.657300  1.0  0.6561
  C  C464  1  0.200100  0.000800  0.647400  1.0  -0.1079
  C  C465  1  0.040900  0.261600  0.782200  1.0  -0.1829
  C  C466  1  0.199400  0.048900  0.652100  1.0  -0.1878
  C  C467  1  0.237900  0.976300  0.661700  1.0  -0.0872
  C  C468  1  0.992400  0.262700  0.786400  1.0  -0.0417
  C  C469  1  0.917000  0.239500  0.817500  1.0  0.6815
  C  C470  1  0.193500  0.152400  0.658800  1.0  0.0356
  C  C471  1  0.235500  0.072900  0.670400  1.0  0.0446
  C  C472  1  0.225300  0.121000  0.678100  1.0  0.0947
  C  C473  1  0.275400  0.998100  0.680000  1.0  -0.1038
  C  C474  1  0.273500  0.046700  0.684200  1.0  -0.0729
  C  C475  1  0.178000  0.262100  0.529200  1.0  -0.1117
  C  C476  1  0.178900  0.262000  0.488700  1.0  -0.1146
  C  C477  1  0.542500  0.703000  0.333600  1.0  -0.0611
  C  C478  1  0.615700  0.728000  0.298300  1.0  0.1399
  C  C479  1  0.494500  0.704900  0.337400  1.0  -0.0456
  C  C480  1  0.641400  0.755600  0.270100  1.0  0.061
  C  C481  1  0.565900  0.731700  0.306600  1.0  -0.1079
  C  C482  1  0.469900  0.735800  0.314300  1.0  -0.1297
  C  C483  1  0.738100  0.423500  0.157300  1.0  0.6561
  C  C484  1  0.700100  0.500800  0.147400  1.0  -0.1079
  C  C485  1  0.540900  0.761600  0.282200  1.0  -0.1829
  C  C486  1  0.699400  0.548900  0.152100  1.0  -0.1878
  C  C487  1  0.737900  0.476300  0.161700  1.0  -0.0872
  C  C488  1  0.492400  0.762700  0.286400  1.0  -0.0417
  C  C489  1  0.417000  0.739500  0.317500  1.0  0.6815
  C  C490  1  0.693500  0.652400  0.158800  1.0  0.0356
  C  C491  1  0.735500  0.572900  0.170400  1.0  0.0446
  C  C492  1  0.725300  0.621000  0.178100  1.0  0.0947
  C  C493  1  0.775400  0.498100  0.180000  1.0  -0.1038
  C  C494  1  0.773500  0.546700  0.184200  1.0  -0.0729
  C  C495  1  0.678000  0.762100  0.029200  1.0  -0.1117
  C  C496  1  0.678900  0.762000  0.988700  1.0  -0.1146
  C  C497  1  0.797000  0.042500  0.833600  1.0  -0.0588
  C  C498  1  0.772000  0.115700  0.798300  1.0  0.1396
  C  C499  1  0.795100  0.994500  0.837400  1.0  -0.0448
  C  C500  1  0.744400  0.141400  0.770100  1.0  0.0609
  C  C501  1  0.768300  0.065900  0.806600  1.0  -0.107
  C  C502  1  0.764200  0.969900  0.814300  1.0  -0.1271
  C  C503  1  0.076500  0.238100  0.657300  1.0  0.6572
  C  C504  1  0.999200  0.200100  0.647400  1.0  -0.1097
  C  C505  1  0.738400  0.040900  0.782200  1.0  -0.1835
  C  C506  1  0.951100  0.199400  0.652100  1.0  -0.1924
  C  C507  1  0.023700  0.237900  0.661700  1.0  -0.0871
  C  C508  1  0.737300  0.992400  0.786400  1.0  -0.0398
  C  C509  1  0.760500  0.917000  0.817500  1.0  0.6822
  C  C510  1  0.847600  0.193500  0.658800  1.0  0.0357
  C  C511  1  0.927100  0.235500  0.670400  1.0  0.044
  C  C512  1  0.879000  0.225300  0.678100  1.0  0.0941
  C  C513  1  0.001900  0.275400  0.680000  1.0  -0.1062
  C  C514  1  0.953300  0.273500  0.684200  1.0  -0.0788
  C  C515  1  0.737900  0.178000  0.529200  1.0  -0.1104
  C  C516  1  0.738000  0.178900  0.488700  1.0  -0.1143
  C  C517  1  0.297000  0.542500  0.333600  1.0  -0.0588
  C  C518  1  0.272000  0.615700  0.298300  1.0  0.1396
  C  C519  1  0.295100  0.494500  0.337400  1.0  -0.0448
  C  C520  1  0.244400  0.641400  0.270100  1.0  0.0609
  C  C521  1  0.268300  0.565900  0.306600  1.0  -0.107
  C  C522  1  0.264200  0.469900  0.314300  1.0  -0.1271
  C  C523  1  0.576500  0.738100  0.157300  1.0  0.6572
  C  C524  1  0.499200  0.700100  0.147400  1.0  -0.1097
  C  C525  1  0.238400  0.540900  0.282200  1.0  -0.1835
  C  C526  1  0.451100  0.699400  0.152100  1.0  -0.1924
  C  C527  1  0.523700  0.737900  0.161700  1.0  -0.0871
  C  C528  1  0.237300  0.492400  0.286400  1.0  -0.0398
  C  C529  1  0.260500  0.417000  0.317500  1.0  0.6822
  C  C530  1  0.347600  0.693500  0.158800  1.0  0.0357
  C  C531  1  0.427100  0.735500  0.170400  1.0  0.044
  C  C532  1  0.379000  0.725300  0.178100  1.0  0.0941
  C  C533  1  0.501900  0.775400  0.180000  1.0  -0.1062
  C  C534  1  0.453300  0.773500  0.184200  1.0  -0.0788
  C  C535  1  0.237900  0.678000  0.029200  1.0  -0.1104
  C  C536  1  0.238000  0.678900  0.988700  1.0  -0.1143
  C  C537  1  0.203000  0.957500  0.833600  1.0  -0.0584
  C  C538  1  0.228000  0.884300  0.798300  1.0  0.1404
  C  C539  1  0.204900  0.005500  0.837400  1.0  -0.0465
  C  C540  1  0.255600  0.858600  0.770100  1.0  0.0632
  C  C541  1  0.231700  0.934100  0.806600  1.0  -0.1064
  C  C542  1  0.235800  0.030100  0.814300  1.0  -0.127
  C  C543  1  0.923500  0.761900  0.657300  1.0  0.6571
  C  C544  1  0.000800  0.799900  0.647400  1.0  -0.1108
  C  C545  1  0.261600  0.959100  0.782200  1.0  -0.1825
  C  C546  1  0.048900  0.800600  0.652100  1.0  -0.1916
  C  C547  1  0.976300  0.762100  0.661700  1.0  -0.0885
  C  C548  1  0.262700  0.007600  0.786400  1.0  -0.04
  C  C549  1  0.239500  0.083000  0.817500  1.0  0.6828
  C  C550  1  0.152400  0.806500  0.658800  1.0  0.0355
  C  C551  1  0.072900  0.764500  0.670400  1.0  0.0436
  C  C552  1  0.121000  0.774700  0.678100  1.0  0.094
  C  C553  1  0.998100  0.724600  0.680000  1.0  -0.1046
  C  C554  1  0.046700  0.726500  0.684200  1.0  -0.0781
  C  C555  1  0.262100  0.822000  0.529200  1.0  -0.113
  C  C556  1  0.262000  0.821100  0.488700  1.0  -0.1149
  C  C557  1  0.703000  0.457500  0.333600  1.0  -0.0584
  C  C558  1  0.728000  0.384300  0.298300  1.0  0.1404
  C  C559  1  0.704900  0.505500  0.337400  1.0  -0.0465
  C  C560  1  0.755600  0.358600  0.270100  1.0  0.0632
  C  C561  1  0.731700  0.434100  0.306600  1.0  -0.1064
  C  C562  1  0.735800  0.530100  0.314300  1.0  -0.127
  C  C563  1  0.423500  0.261900  0.157300  1.0  0.6571
  C  C564  1  0.500800  0.299900  0.147400  1.0  -0.1108
  C  C565  1  0.761600  0.459100  0.282200  1.0  -0.1825
  C  C566  1  0.548900  0.300600  0.152100  1.0  -0.1916
  C  C567  1  0.476300  0.262100  0.161700  1.0  -0.0885
  C  C568  1  0.762700  0.507600  0.286400  1.0  -0.04
  C  C569  1  0.739500  0.583000  0.317500  1.0  0.6828
  C  C570  1  0.652400  0.306500  0.158800  1.0  0.0355
  C  C571  1  0.572900  0.264500  0.170400  1.0  0.0436
  C  C572  1  0.621000  0.274700  0.178100  1.0  0.094
  C  C573  1  0.498100  0.224600  0.180000  1.0  -0.1046
  C  C574  1  0.546700  0.226500  0.184200  1.0  -0.0781
  C  C575  1  0.762100  0.322000  0.029200  1.0  -0.113
  C  C576  1  0.762000  0.321100  0.988700  1.0  -0.1149
  C  C577  1  0.792500  0.292500  0.092400  1.0  0.7569
  C  C578  1  0.792300  0.292300  0.049000  1.0  -0.1042
  C  C579  1  0.792800  0.292800  0.924000  1.0  0.0748
  C  C580  1  0.791100  0.291100  0.967400  1.0  0.0581
  C  C581  1  0.207500  0.707500  0.092400  1.0  0.7573
  C  C582  1  0.207700  0.707700  0.049000  1.0  -0.1043
  C  C583  1  0.207200  0.707200  0.924000  1.0  0.0746
  C  C584  1  0.208900  0.708900  0.967400  1.0  0.0583
  C  C585  1  0.707500  0.792500  0.092400  1.0  0.7571
  C  C586  1  0.707700  0.792300  0.049000  1.0  -0.1044
  C  C587  1  0.707200  0.792800  0.924000  1.0  0.0747
  C  C588  1  0.708900  0.791100  0.967400  1.0  0.058
  C  C589  1  0.292500  0.207500  0.092400  1.0  0.757
  C  C590  1  0.292300  0.207700  0.049000  1.0  -0.1041
  C  C591  1  0.292800  0.207200  0.924000  1.0  0.0747
  C  C592  1  0.291100  0.208900  0.967400  1.0  0.0584
  C  C593  1  0.792500  0.707500  0.592400  1.0  0.757
  C  C594  1  0.792300  0.707700  0.549000  1.0  -0.1041
  C  C595  1  0.792800  0.707200  0.424000  1.0  0.0747
  C  C596  1  0.791100  0.708900  0.467400  1.0  0.0584
  C  C597  1  0.207500  0.292500  0.592400  1.0  0.7571
  C  C598  1  0.207700  0.292300  0.549000  1.0  -0.1044
  C  C599  1  0.207200  0.292800  0.424000  1.0  0.0747
  C  C600  1  0.208900  0.291100  0.467400  1.0  0.058
  C  C601  1  0.707500  0.207500  0.592400  1.0  0.7573
  C  C602  1  0.707700  0.207700  0.549000  1.0  -0.1043
  C  C603  1  0.707200  0.207200  0.424000  1.0  0.0746
  C  C604  1  0.708900  0.208900  0.467400  1.0  0.0583
  C  C605  1  0.292500  0.792500  0.592400  1.0  0.7569
  C  C606  1  0.292300  0.792300  0.549000  1.0  -0.1042
  C  C607  1  0.292800  0.792800  0.424000  1.0  0.0748
  C  C608  1  0.291100  0.791100  0.467400  1.0  0.0581
  N  N609  1  0.812400  0.204300  0.301000  1.0  -0.0851
  N  N610  1  0.855800  0.197700  0.316000  1.0  -0.2712
  N  N611  1  0.812900  0.239000  0.273800  1.0  -0.2566
  N  N612  1  0.803900  0.194000  0.176700  1.0  -0.1648
  N  N613  1  0.770200  0.192600  0.202700  1.0  -0.0332
  N  N614  1  0.753800  0.149200  0.204900  1.0  -0.132
  N  N615  1  0.774300  0.308300  0.864600  1.0  -0.1636
  N  N616  1  0.764800  0.319700  0.900700  1.0  -0.1927
  N  N617  1  0.312400  0.704300  0.801000  1.0  -0.0851
  N  N618  1  0.355800  0.697700  0.816000  1.0  -0.2712
  N  N619  1  0.312900  0.739000  0.773800  1.0  -0.2566
  N  N620  1  0.303900  0.694000  0.676700  1.0  -0.1648
  N  N621  1  0.270200  0.692600  0.702700  1.0  -0.0332
  N  N622  1  0.253800  0.649200  0.704900  1.0  -0.132
  N  N623  1  0.274300  0.808300  0.364600  1.0  -0.1636
  N  N624  1  0.264800  0.819700  0.400700  1.0  -0.1927
  N  N625  1  0.187600  0.795700  0.301000  1.0  -0.0867
  N  N626  1  0.144200  0.802300  0.316000  1.0  -0.2728
  N  N627  1  0.187100  0.761000  0.273800  1.0  -0.2569
  N  N628  1  0.196100  0.806000  0.176700  1.0  -0.165
  N  N629  1  0.229800  0.807400  0.202700  1.0  -0.0336
  N  N630  1  0.246200  0.850800  0.204900  1.0  -0.1351
  N  N631  1  0.225700  0.691700  0.864600  1.0  -0.1646
  N  N632  1  0.235200  0.680300  0.900700  1.0  -0.1914
  N  N633  1  0.687600  0.295700  0.801000  1.0  -0.0867
  N  N634  1  0.644200  0.302300  0.816000  1.0  -0.2728
  N  N635  1  0.687100  0.261000  0.773800  1.0  -0.2569
  N  N636  1  0.696100  0.306000  0.676700  1.0  -0.165
  N  N637  1  0.729800  0.307400  0.702700  1.0  -0.0336
  N  N638  1  0.746200  0.350800  0.704900  1.0  -0.1351
  N  N639  1  0.725700  0.191700  0.364600  1.0  -0.1646
  N  N640  1  0.735200  0.180300  0.400700  1.0  -0.1914
  N  N641  1  0.795700  0.812400  0.301000  1.0  -0.085
  N  N642  1  0.802300  0.855800  0.316000  1.0  -0.2694
  N  N643  1  0.761000  0.812900  0.273800  1.0  -0.2574
  N  N644  1  0.806000  0.803900  0.176700  1.0  -0.165
  N  N645  1  0.807400  0.770200  0.202700  1.0  -0.0348
  N  N646  1  0.850800  0.753800  0.204900  1.0  -0.1325
  N  N647  1  0.691700  0.774300  0.864600  1.0  -0.1642
  N  N648  1  0.680300  0.764800  0.900700  1.0  -0.1916
  N  N649  1  0.295700  0.312400  0.801000  1.0  -0.085
  N  N650  1  0.302300  0.355800  0.816000  1.0  -0.2694
  N  N651  1  0.261000  0.312900  0.773800  1.0  -0.2574
  N  N652  1  0.306000  0.303900  0.676700  1.0  -0.165
  N  N653  1  0.307400  0.270200  0.702700  1.0  -0.0348
  N  N654  1  0.350800  0.253800  0.704900  1.0  -0.1325
  N  N655  1  0.191700  0.274300  0.364600  1.0  -0.1642
  N  N656  1  0.180300  0.264800  0.400700  1.0  -0.1916
  N  N657  1  0.204300  0.187600  0.301000  1.0  -0.0851
  N  N658  1  0.197700  0.144200  0.316000  1.0  -0.2718
  N  N659  1  0.239000  0.187100  0.273800  1.0  -0.256
  N  N660  1  0.194000  0.196100  0.176700  1.0  -0.164
  N  N661  1  0.192600  0.229800  0.202700  1.0  -0.0331
  N  N662  1  0.149200  0.246200  0.204900  1.0  -0.1321
  N  N663  1  0.308300  0.225700  0.864600  1.0  -0.1635
  N  N664  1  0.319700  0.235200  0.900700  1.0  -0.1917
  N  N665  1  0.704300  0.687600  0.801000  1.0  -0.0851
  N  N666  1  0.697700  0.644200  0.816000  1.0  -0.2718
  N  N667  1  0.739000  0.687100  0.773800  1.0  -0.256
  N  N668  1  0.694000  0.696100  0.676700  1.0  -0.164
  N  N669  1  0.692600  0.729800  0.702700  1.0  -0.0331
  N  N670  1  0.649200  0.746200  0.704900  1.0  -0.1321
  N  N671  1  0.808300  0.725700  0.364600  1.0  -0.1635
  N  N672  1  0.819700  0.735200  0.400700  1.0  -0.1917
  N  N673  1  0.812400  0.795700  0.801000  1.0  -0.0857
  N  N674  1  0.855800  0.802300  0.816000  1.0  -0.2711
  N  N675  1  0.812900  0.761000  0.773800  1.0  -0.2565
  N  N676  1  0.803900  0.806000  0.676700  1.0  -0.1645
  N  N677  1  0.770200  0.807400  0.702700  1.0  -0.0332
  N  N678  1  0.753800  0.850800  0.704900  1.0  -0.1321
  N  N679  1  0.774300  0.691700  0.364600  1.0  -0.171
  N  N680  1  0.312400  0.295700  0.301000  1.0  -0.0857
  N  N681  1  0.355800  0.302300  0.316000  1.0  -0.2711
  N  N682  1  0.312900  0.261000  0.273800  1.0  -0.2565
  N  N683  1  0.303900  0.306000  0.176700  1.0  -0.1645
  N  N684  1  0.270200  0.307400  0.202700  1.0  -0.0332
  N  N685  1  0.253800  0.350800  0.204900  1.0  -0.1321
  N  N686  1  0.274300  0.191700  0.864600  1.0  -0.171
  N  N687  1  0.187600  0.204300  0.801000  1.0  -0.0858
  N  N688  1  0.144200  0.197700  0.816000  1.0  -0.2726
  N  N689  1  0.187100  0.239000  0.773800  1.0  -0.2568
  N  N690  1  0.196100  0.194000  0.676700  1.0  -0.1654
  N  N691  1  0.229800  0.192600  0.702700  1.0  -0.0337
  N  N692  1  0.246200  0.149200  0.704900  1.0  -0.1347
  N  N693  1  0.225700  0.308300  0.364600  1.0  -0.1698
  N  N694  1  0.687600  0.704300  0.301000  1.0  -0.0858
  N  N695  1  0.644200  0.697700  0.316000  1.0  -0.2726
  N  N696  1  0.687100  0.739000  0.273800  1.0  -0.2568
  N  N697  1  0.696100  0.694000  0.176700  1.0  -0.1654
  N  N698  1  0.729800  0.692600  0.202700  1.0  -0.0337
  N  N699  1  0.746200  0.649200  0.204900  1.0  -0.1347
  N  N700  1  0.725700  0.808300  0.864600  1.0  -0.1698
  N  N701  1  0.795700  0.187600  0.801000  1.0  -0.0858
  N  N702  1  0.802300  0.144200  0.816000  1.0  -0.2692
  N  N703  1  0.761000  0.187100  0.773800  1.0  -0.2567
  N  N704  1  0.806000  0.196100  0.676700  1.0  -0.1649
  N  N705  1  0.807400  0.229800  0.702700  1.0  -0.0362
  N  N706  1  0.850800  0.246200  0.704900  1.0  -0.1321
  N  N707  1  0.691700  0.225700  0.364600  1.0  -0.17
  N  N708  1  0.295700  0.687600  0.301000  1.0  -0.0858
  N  N709  1  0.302300  0.644200  0.316000  1.0  -0.2692
  N  N710  1  0.261000  0.687100  0.273800  1.0  -0.2567
  N  N711  1  0.306000  0.696100  0.176700  1.0  -0.1649
  N  N712  1  0.307400  0.729800  0.202700  1.0  -0.0362
  N  N713  1  0.350800  0.746200  0.204900  1.0  -0.1321
  N  N714  1  0.191700  0.725700  0.864600  1.0  -0.17
  N  N715  1  0.204300  0.812400  0.801000  1.0  -0.0847
  N  N716  1  0.197700  0.855800  0.816000  1.0  -0.2717
  N  N717  1  0.239000  0.812900  0.773800  1.0  -0.2566
  N  N718  1  0.194000  0.803900  0.676700  1.0  -0.1639
  N  N719  1  0.192600  0.770200  0.702700  1.0  -0.0318
  N  N720  1  0.149200  0.753800  0.704900  1.0  -0.133
  N  N721  1  0.308300  0.774300  0.364600  1.0  -0.1706
  N  N722  1  0.704300  0.312400  0.301000  1.0  -0.0847
  N  N723  1  0.697700  0.355800  0.316000  1.0  -0.2717
  N  N724  1  0.739000  0.312900  0.273800  1.0  -0.2566
  N  N725  1  0.694000  0.303900  0.176700  1.0  -0.1639
  N  N726  1  0.692600  0.270200  0.202700  1.0  -0.0318
  N  N727  1  0.649200  0.253800  0.204900  1.0  -0.133
  N  N728  1  0.808300  0.274300  0.864600  1.0  -0.1706
  O  O729  1  0.788300  0.900900  0.132000  1.0  -0.627
  O  O730  1  0.102700  0.210100  0.338900  1.0  -0.6184
  O  O731  1  0.737300  0.899000  0.176100  1.0  -0.5405
  O  O732  1  0.102900  0.268300  0.300100  1.0  -0.5178
  O  O733  1  0.817800  0.267000  0.110900  1.0  -0.6169
  O  O734  1  0.288300  0.400900  0.632000  1.0  -0.627
  O  O735  1  0.602700  0.710100  0.838900  1.0  -0.6184
  O  O736  1  0.237300  0.399000  0.676100  1.0  -0.5405
  O  O737  1  0.602900  0.768300  0.800100  1.0  -0.5178
  O  O738  1  0.317800  0.767000  0.610900  1.0  -0.6169
  O  O739  1  0.211700  0.099100  0.132000  1.0  -0.6275
  O  O740  1  0.897300  0.789900  0.338900  1.0  -0.6185
  O  O741  1  0.262700  0.101000  0.176100  1.0  -0.5416
  O  O742  1  0.897100  0.731700  0.300100  1.0  -0.5167
  O  O743  1  0.182200  0.733000  0.110900  1.0  -0.6171
  O  O744  1  0.711700  0.599100  0.632000  1.0  -0.6275
  O  O745  1  0.397300  0.289900  0.838900  1.0  -0.6185
  O  O746  1  0.762700  0.601000  0.676100  1.0  -0.5416
  O  O747  1  0.397100  0.231700  0.800100  1.0  -0.5167
  O  O748  1  0.682200  0.233000  0.610900  1.0  -0.6171
  O  O749  1  0.099100  0.788300  0.132000  1.0  -0.6299
  O  O750  1  0.789900  0.102700  0.338900  1.0  -0.619
  O  O751  1  0.101000  0.737300  0.176100  1.0  -0.5421
  O  O752  1  0.731700  0.102900  0.300100  1.0  -0.5195
  O  O753  1  0.733000  0.817800  0.110900  1.0  -0.6183
  O  O754  1  0.599100  0.288300  0.632000  1.0  -0.6299
  O  O755  1  0.289900  0.602700  0.838900  1.0  -0.619
  O  O756  1  0.601000  0.237300  0.676100  1.0  -0.5421
  O  O757  1  0.231700  0.602900  0.800100  1.0  -0.5195
  O  O758  1  0.233000  0.317800  0.610900  1.0  -0.6183
  O  O759  1  0.900900  0.211700  0.132000  1.0  -0.6282
  O  O760  1  0.210100  0.897300  0.338900  1.0  -0.6178
  O  O761  1  0.899000  0.262700  0.176100  1.0  -0.5425
  O  O762  1  0.268300  0.897100  0.300100  1.0  -0.5194
  O  O763  1  0.267000  0.182200  0.110900  1.0  -0.6173
  O  O764  1  0.400900  0.711700  0.632000  1.0  -0.6282
  O  O765  1  0.710100  0.397300  0.838900  1.0  -0.6178
  O  O766  1  0.399000  0.762700  0.676100  1.0  -0.5425
  O  O767  1  0.768300  0.397100  0.800100  1.0  -0.5194
  O  O768  1  0.767000  0.682200  0.610900  1.0  -0.6173
  O  O769  1  0.788300  0.099100  0.632000  1.0  -0.6276
  O  O770  1  0.102700  0.789900  0.838900  1.0  -0.6182
  O  O771  1  0.737300  0.101000  0.676100  1.0  -0.5414
  O  O772  1  0.102900  0.731700  0.800100  1.0  -0.517
  O  O773  1  0.817800  0.733000  0.610900  1.0  -0.6176
  O  O774  1  0.288300  0.599100  0.132000  1.0  -0.6276
  O  O775  1  0.602700  0.289900  0.338900  1.0  -0.6182
  O  O776  1  0.237300  0.601000  0.176100  1.0  -0.5414
  O  O777  1  0.602900  0.231700  0.300100  1.0  -0.517
  O  O778  1  0.317800  0.233000  0.110900  1.0  -0.6176
  O  O779  1  0.211700  0.900900  0.632000  1.0  -0.6269
  O  O780  1  0.897300  0.210100  0.838900  1.0  -0.6193
  O  O781  1  0.262700  0.899000  0.676100  1.0  -0.5411
  O  O782  1  0.897100  0.268300  0.800100  1.0  -0.5176
  O  O783  1  0.182200  0.267000  0.610900  1.0  -0.6166
  O  O784  1  0.711700  0.400900  0.132000  1.0  -0.6269
  O  O785  1  0.397300  0.710100  0.338900  1.0  -0.6193
  O  O786  1  0.762700  0.399000  0.176100  1.0  -0.5411
  O  O787  1  0.397100  0.768300  0.300100  1.0  -0.5176
  O  O788  1  0.682200  0.767000  0.110900  1.0  -0.6166
  O  O789  1  0.099100  0.211700  0.632000  1.0  -0.6299
  O  O790  1  0.789900  0.897300  0.838900  1.0  -0.6197
  O  O791  1  0.101000  0.262700  0.676100  1.0  -0.5436
  O  O792  1  0.731700  0.897100  0.800100  1.0  -0.5197
  O  O793  1  0.733000  0.182200  0.610900  1.0  -0.6171
  O  O794  1  0.599100  0.711700  0.132000  1.0  -0.6299
  O  O795  1  0.289900  0.397300  0.338900  1.0  -0.6197
  O  O796  1  0.601000  0.762700  0.176100  1.0  -0.5436
  O  O797  1  0.231700  0.397100  0.300100  1.0  -0.5197
  O  O798  1  0.233000  0.682200  0.110900  1.0  -0.6171
  O  O799  1  0.900900  0.788300  0.632000  1.0  -0.6282
  O  O800  1  0.210100  0.102700  0.838900  1.0  -0.617
  O  O801  1  0.899000  0.737300  0.676100  1.0  -0.5413
  O  O802  1  0.268300  0.102900  0.800100  1.0  -0.5196
  O  O803  1  0.267000  0.817800  0.610900  1.0  -0.6182
  O  O804  1  0.400900  0.288300  0.132000  1.0  -0.6282
  O  O805  1  0.710100  0.602700  0.338900  1.0  -0.617
  O  O806  1  0.399000  0.237300  0.176100  1.0  -0.5413
  O  O807  1  0.768300  0.602900  0.300100  1.0  -0.5196
  O  O808  1  0.767000  0.317800  0.110900  1.0  -0.6182
  O  O809  1  0.797000  0.297000  0.196600  1.0  -0.7327
  O  O810  1  0.710400  0.210400  0.279200  1.0  -0.768
  O  O811  1  0.203000  0.703000  0.196600  1.0  -0.7327
  O  O812  1  0.289600  0.789600  0.279200  1.0  -0.7693
  O  O813  1  0.703000  0.797000  0.196600  1.0  -0.7324
  O  O814  1  0.789600  0.710400  0.279200  1.0  -0.7688
  O  O815  1  0.297000  0.203000  0.196600  1.0  -0.7327
  O  O816  1  0.210400  0.289600  0.279200  1.0  -0.7685
  O  O817  1  0.797000  0.703000  0.696600  1.0  -0.7327
  O  O818  1  0.710400  0.789600  0.779200  1.0  -0.7685
  O  O819  1  0.203000  0.297000  0.696600  1.0  -0.7324
  O  O820  1  0.289600  0.210400  0.779200  1.0  -0.7688
  O  O821  1  0.703000  0.203000  0.696600  1.0  -0.7327
  O  O822  1  0.789600  0.289600  0.779200  1.0  -0.7693
  O  O823  1  0.297000  0.797000  0.696600  1.0  -0.7327
  O  O824  1  0.210400  0.710400  0.779200  1.0  -0.768
