# generated using pymatgen
data_Cu10H140W3C84(N17O15)2
_symmetry_space_group_name_H-M   'P 1'
_cell_length_a   20.89200000
_cell_length_b   32.34900000
_cell_length_c   21.16200000
_cell_angle_alpha   90.00000000
_cell_angle_beta   90.00000000
_cell_angle_gamma   90.00000000
_symmetry_Int_Tables_number   1
_chemical_formula_structural   Cu10H140W3C84(N17O15)2
_chemical_formula_sum   'Cu40 H560 W12 C336 N136 O120'
_cell_volume   14302.02678790
_cell_formula_units_Z   4
loop_
 _symmetry_equiv_pos_site_id
 _symmetry_equiv_pos_as_xyz
  1  'x, y, z'
loop_
 _atom_site_type_symbol
 _atom_site_label
 _atom_site_symmetry_multiplicity
 _atom_site_fract_x
 _atom_site_fract_y
 _atom_site_fract_z
 _atom_site_occupancy
 _atom_site_charge
  Cu  Cu1  1  0.279480  0.730470  0.727810  1.0  0.8291
  Cu  Cu2  1  0.238700  0.738740  0.355700  1.0  0.847
  Cu  Cu3  1  0.557350  0.651330  0.367260  1.0  0.8476
  Cu  Cu4  1  0.675870  0.603770  0.370960  1.0  0.9043
  Cu  Cu5  1  0.970400  0.520090  0.054220  1.0  0.8098
  Cu  Cu6  1  0.220520  0.769530  0.227810  1.0  0.828
  Cu  Cu7  1  0.261300  0.761260  0.855700  1.0  0.8465
  Cu  Cu8  1  0.942650  0.848670  0.867260  1.0  0.8475
  Cu  Cu9  1  0.824130  0.896230  0.870960  1.0  0.9053
  Cu  Cu10  1  0.529600  0.979910  0.554220  1.0  0.8118
  Cu  Cu11  1  0.279480  0.269530  0.772190  1.0  0.8285
  Cu  Cu12  1  0.238700  0.261260  0.144300  1.0  0.846
  Cu  Cu13  1  0.557350  0.348670  0.132740  1.0  0.8473
  Cu  Cu14  1  0.675870  0.396230  0.129040  1.0  0.905
  Cu  Cu15  1  0.970400  0.479910  0.445780  1.0  0.8121
  Cu  Cu16  1  0.220520  0.230470  0.272190  1.0  0.8283
  Cu  Cu17  1  0.261300  0.238740  0.644300  1.0  0.8451
  Cu  Cu18  1  0.942650  0.151330  0.632740  1.0  0.8476
  Cu  Cu19  1  0.824130  0.103770  0.629040  1.0  0.9042
  Cu  Cu20  1  0.529600  0.020090  0.945780  1.0  0.8096
  Cu  Cu21  1  0.720520  0.269530  0.272190  1.0  0.8281
  Cu  Cu22  1  0.761300  0.261260  0.644300  1.0  0.8456
  Cu  Cu23  1  0.442650  0.348670  0.632740  1.0  0.8471
  Cu  Cu24  1  0.324130  0.396230  0.629040  1.0  0.9049
  Cu  Cu25  1  0.029600  0.479910  0.945780  1.0  0.8119
  Cu  Cu26  1  0.779480  0.230470  0.772190  1.0  0.8289
  Cu  Cu27  1  0.738700  0.238740  0.144300  1.0  0.8459
  Cu  Cu28  1  0.057350  0.151330  0.132740  1.0  0.8481
  Cu  Cu29  1  0.175870  0.103770  0.129040  1.0  0.9044
  Cu  Cu30  1  0.470400  0.020090  0.445780  1.0  0.8097
  Cu  Cu31  1  0.720520  0.730470  0.227810  1.0  0.828
  Cu  Cu32  1  0.761300  0.738740  0.855700  1.0  0.846
  Cu  Cu33  1  0.442650  0.651330  0.867260  1.0  0.8476
  Cu  Cu34  1  0.324130  0.603770  0.870960  1.0  0.9042
  Cu  Cu35  1  0.029600  0.520090  0.554220  1.0  0.8096
  Cu  Cu36  1  0.779480  0.769530  0.727810  1.0  0.8291
  Cu  Cu37  1  0.738700  0.761260  0.355700  1.0  0.8469
  Cu  Cu38  1  0.057350  0.848670  0.367260  1.0  0.8474
  Cu  Cu39  1  0.175870  0.896230  0.370960  1.0  0.9054
  Cu  Cu40  1  0.470400  0.979910  0.054220  1.0  0.8122
  H  H41  1  0.237700  0.805600  0.675000  1.0  0.3043
  H  H42  1  0.329900  0.656700  0.760500  1.0  0.3296
  H  H43  1  0.336800  0.703700  0.915800  1.0  0.3062
  H  H44  1  0.204000  0.819400  0.776000  1.0  0.2695
  H  H45  1  0.602000  0.718600  0.301200  1.0  0.3109
  H  H46  1  0.522200  0.572400  0.418500  1.0  0.1041
  H  H47  1  0.626800  0.558100  0.409200  1.0  0.3215
  H  H48  1  0.752100  0.668600  0.345100  1.0  0.322
  H  H49  1  0.044400  0.527300  0.112800  1.0  0.3923
  H  H50  1  0.839100  0.532400  0.045300  1.0  0.255
  H  H51  1  0.152100  0.719100  0.601400  1.0  0.0833
  H  H52  1  0.222300  0.735600  0.594800  1.0  0.0767
  H  H53  1  0.162200  0.790700  0.613900  1.0  0.0873
  H  H54  1  0.126300  0.768700  0.669700  1.0  0.0734
  H  H55  1  0.201600  0.648100  0.633600  1.0  0.0717
  H  H56  1  0.263100  0.673100  0.615100  1.0  0.0797
  H  H57  1  0.293000  0.617900  0.672500  1.0  0.0819
  H  H58  1  0.245300  0.629700  0.726800  1.0  0.0683
  H  H59  1  0.115300  0.697600  0.698800  1.0  0.0782
  H  H60  1  0.155600  0.663000  0.732500  1.0  0.0957
  H  H61  1  0.134000  0.709700  0.812600  1.0  0.0968
  H  H62  1  0.149500  0.747700  0.769100  1.0  0.0709
  H  H63  1  0.372100  0.847200  0.845100  1.0  0.1106
  H  H64  1  0.406100  0.806000  0.866100  1.0  0.0948
  H  H65  1  0.391800  0.797100  0.758100  1.0  0.0881
  H  H66  1  0.321700  0.814900  0.760400  1.0  0.0843
  H  H67  1  0.304700  0.797100  0.985800  1.0  0.073
  H  H68  1  0.372000  0.815000  0.967200  1.0  0.078
  H  H69  1  0.379200  0.745800  0.995300  1.0  0.0745
  H  H70  1  0.402100  0.752800  0.925500  1.0  0.0675
  H  H71  1  0.240200  0.842100  0.930500  1.0  0.0911
  H  H72  1  0.297800  0.869700  0.908500  1.0  0.0926
  H  H73  1  0.267100  0.864100  0.803600  1.0  0.0757
  H  H74  1  0.206100  0.877700  0.841900  1.0  0.0736
  H  H75  1  0.487300  0.596000  0.234200  1.0  0.0768
  H  H76  1  0.528300  0.634400  0.213400  1.0  0.0742
  H  H77  1  0.601000  0.586300  0.236400  1.0  0.0853
  H  H78  1  0.564000  0.572000  0.297000  1.0  0.0763
  H  H79  1  0.420700  0.641800  0.367000  1.0  0.0832
  H  H80  1  0.398700  0.619800  0.304800  1.0  0.0832
  H  H81  1  0.466500  0.562500  0.332600  1.0  0.0873
  H  H82  1  0.411200  0.569600  0.382900  1.0  0.1118
  H  H83  1  0.444600  0.697100  0.311400  1.0  0.0763
  H  H84  1  0.443300  0.681900  0.241200  1.0  0.0781
  H  H85  1  0.508000  0.738300  0.252900  1.0  0.0901
  H  H86  1  0.546600  0.700100  0.227800  1.0  0.0978
  H  H87  1  0.726400  0.646100  0.503900  1.0  0.0794
  H  H88  1  0.697500  0.608600  0.541100  1.0  0.0912
  H  H89  1  0.604300  0.613900  0.491700  1.0  0.0776
  H  H90  1  0.622900  0.659200  0.511100  1.0  0.0934
  H  H91  1  0.732400  0.533100  0.433500  1.0  0.0846
  H  H92  1  0.745100  0.544100  0.504300  1.0  0.0869
  H  H93  1  0.630200  0.553000  0.518900  1.0  0.0853
  H  H94  1  0.647500  0.507200  0.499000  1.0  0.0972
  H  H95  1  0.818800  0.601100  0.475700  1.0  0.0818
  H  H96  1  0.810700  0.578700  0.410400  1.0  0.075
  H  H97  1  0.845600  0.644300  0.391200  1.0  0.0918
  H  H98  1  0.790700  0.663000  0.432700  1.0  0.0949
  H  H99  1  0.078000  0.587800  0.184300  1.0  0.1147
  H  H100  1  0.094400  0.592100  0.112700  1.0  0.0992
  H  H101  1  0.974200  0.589700  0.165600  1.0  0.112
  H  H102  1  0.005900  0.627000  0.130100  1.0  0.0779
  H  H103  1  0.823100  0.595700  0.038300  1.0  0.093
  H  H104  1  0.877800  0.599700  0.988100  1.0  0.085
  H  H105  1  0.913300  0.631900  0.073000  1.0  0.0809
  H  H106  1  0.892200  0.595500  0.117800  1.0  0.0919
  H  H107  1  0.042600  0.618700  0.031300  1.0  0.0789
  H  H108  1  0.981200  0.619100  0.988500  1.0  0.0811
  H  H109  1  0.079200  0.561900  0.990700  1.0  0.0918
  H  H110  1  0.044300  0.580200  0.931800  1.0  0.1104
  H  H111  1  0.262300  0.694400  0.175000  1.0  0.3045
  H  H112  1  0.170100  0.843300  0.260500  1.0  0.3296
  H  H113  1  0.163200  0.796300  0.415800  1.0  0.3075
  H  H114  1  0.296000  0.680600  0.276000  1.0  0.2708
  H  H115  1  0.898000  0.781400  0.801200  1.0  0.3097
  H  H116  1  0.977800  0.927600  0.918500  1.0  0.1031
  H  H117  1  0.873200  0.941900  0.909200  1.0  0.3198
  H  H118  1  0.747900  0.831400  0.845100  1.0  0.3211
  H  H119  1  0.455600  0.972700  0.612800  1.0  0.3917
  H  H120  1  0.660900  0.967600  0.545300  1.0  0.2552
  H  H121  1  0.347900  0.780900  0.101400  1.0  0.0829
  H  H122  1  0.277700  0.764400  0.094800  1.0  0.0742
  H  H123  1  0.337800  0.709300  0.113900  1.0  0.0868
  H  H124  1  0.373700  0.731300  0.169700  1.0  0.0751
  H  H125  1  0.298400  0.851900  0.133600  1.0  0.0718
  H  H126  1  0.236900  0.826900  0.115100  1.0  0.0811
  H  H127  1  0.207000  0.882100  0.172500  1.0  0.086
  H  H128  1  0.254700  0.870300  0.226800  1.0  0.0666
  H  H129  1  0.384700  0.802400  0.198800  1.0  0.0792
  H  H130  1  0.344400  0.837000  0.232500  1.0  0.0957
  H  H131  1  0.366000  0.790300  0.312600  1.0  0.0968
  H  H132  1  0.350500  0.752300  0.269100  1.0  0.0712
  H  H133  1  0.127900  0.652800  0.345100  1.0  0.1091
  H  H134  1  0.093900  0.694000  0.366100  1.0  0.09
  H  H135  1  0.108200  0.702900  0.258100  1.0  0.0898
  H  H136  1  0.178300  0.685100  0.260400  1.0  0.082
  H  H137  1  0.195300  0.702900  0.485800  1.0  0.0735
  H  H138  1  0.128000  0.685000  0.467200  1.0  0.0779
  H  H139  1  0.120800  0.754200  0.495300  1.0  0.0743
  H  H140  1  0.097900  0.747200  0.425500  1.0  0.0655
  H  H141  1  0.259800  0.657900  0.430500  1.0  0.0897
  H  H142  1  0.202200  0.630300  0.408500  1.0  0.0926
  H  H143  1  0.232900  0.635900  0.303600  1.0  0.0753
  H  H144  1  0.293900  0.622300  0.341900  1.0  0.075
  H  H145  1  0.012700  0.904000  0.734200  1.0  0.0772
  H  H146  1  0.971700  0.865600  0.713400  1.0  0.0768
  H  H147  1  0.899000  0.913700  0.736400  1.0  0.0858
  H  H148  1  0.936000  0.928000  0.797000  1.0  0.076
  H  H149  1  0.079300  0.858200  0.867000  1.0  0.083
  H  H150  1  0.101300  0.880200  0.804800  1.0  0.0818
  H  H151  1  0.033500  0.937500  0.832600  1.0  0.091
  H  H152  1  0.088800  0.930400  0.882900  1.0  0.1108
  H  H153  1  0.055400  0.802900  0.811400  1.0  0.0774
  H  H154  1  0.056700  0.818100  0.741200  1.0  0.0787
  H  H155  1  0.992000  0.761700  0.752900  1.0  0.089
  H  H156  1  0.953400  0.799900  0.727800  1.0  0.0972
  H  H157  1  0.773600  0.853900  0.003900  1.0  0.0801
  H  H158  1  0.802500  0.891400  0.041100  1.0  0.0903
  H  H159  1  0.895700  0.886100  0.991700  1.0  0.0759
  H  H160  1  0.877100  0.840800  0.011100  1.0  0.0933
  H  H161  1  0.767600  0.966900  0.933500  1.0  0.0857
  H  H162  1  0.754900  0.955900  0.004300  1.0  0.0857
  H  H163  1  0.869800  0.947000  0.018900  1.0  0.086
  H  H164  1  0.852500  0.992800  0.999000  1.0  0.0969
  H  H165  1  0.681200  0.898900  0.975700  1.0  0.0821
  H  H166  1  0.689300  0.921300  0.910400  1.0  0.0753
  H  H167  1  0.654400  0.855700  0.891200  1.0  0.0917
  H  H168  1  0.709300  0.837000  0.932700  1.0  0.0951
  H  H169  1  0.422000  0.912200  0.684300  1.0  0.1166
  H  H170  1  0.405600  0.907900  0.612700  1.0  0.0996
  H  H171  1  0.525800  0.910300  0.665600  1.0  0.1121
  H  H172  1  0.494100  0.873000  0.630100  1.0  0.0809
  H  H173  1  0.676900  0.904300  0.538300  1.0  0.0927
  H  H174  1  0.622200  0.900300  0.488100  1.0  0.086
  H  H175  1  0.586700  0.868100  0.573000  1.0  0.0822
  H  H176  1  0.607800  0.904500  0.617800  1.0  0.0927
  H  H177  1  0.457400  0.881300  0.531300  1.0  0.0788
  H  H178  1  0.518800  0.880900  0.488500  1.0  0.0805
  H  H179  1  0.420800  0.938100  0.490700  1.0  0.0896
  H  H180  1  0.455700  0.919800  0.431800  1.0  0.1101
  H  H181  1  0.237700  0.194400  0.825000  1.0  0.3058
  H  H182  1  0.329900  0.343300  0.739500  1.0  0.3289
  H  H183  1  0.336800  0.296300  0.584200  1.0  0.3081
  H  H184  1  0.204000  0.180600  0.724000  1.0  0.2696
  H  H185  1  0.602000  0.281400  0.198800  1.0  0.3112
  H  H186  1  0.522200  0.427600  0.081500  1.0  0.1036
  H  H187  1  0.626800  0.441900  0.090800  1.0  0.3217
  H  H188  1  0.752100  0.331400  0.154900  1.0  0.3209
  H  H189  1  0.044400  0.472700  0.387200  1.0  0.3939
  H  H190  1  0.839100  0.467600  0.454700  1.0  0.2566
  H  H191  1  0.152100  0.280900  0.898600  1.0  0.0834
  H  H192  1  0.222300  0.264400  0.905200  1.0  0.0764
  H  H193  1  0.162200  0.209300  0.886100  1.0  0.088
  H  H194  1  0.126300  0.231300  0.830300  1.0  0.0731
  H  H195  1  0.201600  0.351900  0.866400  1.0  0.0712
  H  H196  1  0.263100  0.326900  0.884900  1.0  0.0803
  H  H197  1  0.293000  0.382100  0.827500  1.0  0.0826
  H  H198  1  0.245300  0.370300  0.773200  1.0  0.0676
  H  H199  1  0.115300  0.302400  0.801200  1.0  0.0778
  H  H200  1  0.155600  0.337000  0.767500  1.0  0.0965
  H  H201  1  0.134000  0.290300  0.687400  1.0  0.0964
  H  H202  1  0.149500  0.252300  0.730900  1.0  0.0719
  H  H203  1  0.372100  0.152800  0.654900  1.0  0.1109
  H  H204  1  0.406100  0.194000  0.633900  1.0  0.0941
  H  H205  1  0.391800  0.202900  0.741900  1.0  0.0886
  H  H206  1  0.321700  0.185100  0.739600  1.0  0.0852
  H  H207  1  0.304700  0.202900  0.514200  1.0  0.0734
  H  H208  1  0.372000  0.185000  0.532800  1.0  0.0787
  H  H209  1  0.379200  0.254200  0.504700  1.0  0.0746
  H  H210  1  0.402100  0.247200  0.574500  1.0  0.0671
  H  H211  1  0.240200  0.157900  0.569500  1.0  0.0912
  H  H212  1  0.297800  0.130300  0.591500  1.0  0.0918
  H  H213  1  0.267100  0.135900  0.696400  1.0  0.0758
  H  H214  1  0.206100  0.122300  0.658100  1.0  0.0745
  H  H215  1  0.487300  0.404000  0.265800  1.0  0.0762
  H  H216  1  0.528300  0.365600  0.286600  1.0  0.0768
  H  H217  1  0.601000  0.413700  0.263600  1.0  0.0857
  H  H218  1  0.564000  0.428000  0.203000  1.0  0.0763
  H  H219  1  0.420700  0.358200  0.133000  1.0  0.0832
  H  H220  1  0.398700  0.380200  0.195200  1.0  0.0807
  H  H221  1  0.466500  0.437500  0.167400  1.0  0.09
  H  H222  1  0.411200  0.430400  0.117100  1.0  0.1112
  H  H223  1  0.444600  0.302900  0.188600  1.0  0.0764
  H  H224  1  0.443300  0.318100  0.258800  1.0  0.0775
  H  H225  1  0.508000  0.261700  0.247100  1.0  0.0893
  H  H226  1  0.546600  0.299900  0.272200  1.0  0.0971
  H  H227  1  0.726400  0.353900  0.996100  1.0  0.0798
  H  H228  1  0.697500  0.391400  0.958900  1.0  0.0907
  H  H229  1  0.604300  0.386100  0.008300  1.0  0.0772
  H  H230  1  0.622900  0.340800  0.988900  1.0  0.0928
  H  H231  1  0.732400  0.466900  0.066500  1.0  0.0852
  H  H232  1  0.745100  0.455900  0.995700  1.0  0.0875
  H  H233  1  0.630200  0.447000  0.981100  1.0  0.0872
  H  H234  1  0.647500  0.492800  0.001000  1.0  0.0972
  H  H235  1  0.818800  0.398900  0.024300  1.0  0.0836
  H  H236  1  0.810700  0.421300  0.089600  1.0  0.0743
  H  H237  1  0.845600  0.355700  0.108800  1.0  0.0922
  H  H238  1  0.790700  0.337000  0.067300  1.0  0.0956
  H  H239  1  0.078000  0.412200  0.315700  1.0  0.1152
  H  H240  1  0.094400  0.407900  0.387300  1.0  0.1003
  H  H241  1  0.974200  0.410300  0.334400  1.0  0.1082
  H  H242  1  0.005900  0.373000  0.369900  1.0  0.082
  H  H243  1  0.823100  0.404300  0.461700  1.0  0.0932
  H  H244  1  0.877800  0.400300  0.511900  1.0  0.0866
  H  H245  1  0.913300  0.368100  0.427000  1.0  0.0822
  H  H246  1  0.892200  0.404500  0.382200  1.0  0.0918
  H  H247  1  0.042600  0.381300  0.468700  1.0  0.0788
  H  H248  1  0.981200  0.380900  0.511500  1.0  0.0811
  H  H249  1  0.079200  0.438100  0.509300  1.0  0.0917
  H  H250  1  0.044300  0.419800  0.568200  1.0  0.1117
  H  H251  1  0.262300  0.305600  0.325000  1.0  0.3049
  H  H252  1  0.170100  0.156700  0.239500  1.0  0.3292
  H  H253  1  0.163200  0.203700  0.084200  1.0  0.3075
  H  H254  1  0.296000  0.319400  0.224000  1.0  0.2694
  H  H255  1  0.898000  0.218600  0.698800  1.0  0.3113
  H  H256  1  0.977800  0.072400  0.581500  1.0  0.1036
  H  H257  1  0.873200  0.058100  0.590800  1.0  0.325
  H  H258  1  0.747900  0.168600  0.654900  1.0  0.3223
  H  H259  1  0.455600  0.027300  0.887200  1.0  0.3907
  H  H260  1  0.660900  0.032400  0.954700  1.0  0.2558
  H  H261  1  0.347900  0.219100  0.398600  1.0  0.083
  H  H262  1  0.277700  0.235600  0.405200  1.0  0.0747
  H  H263  1  0.337800  0.290700  0.386100  1.0  0.0868
  H  H264  1  0.373700  0.268700  0.330300  1.0  0.0754
  H  H265  1  0.298400  0.148100  0.366400  1.0  0.0722
  H  H266  1  0.236900  0.173100  0.384900  1.0  0.0791
  H  H267  1  0.207000  0.117900  0.327500  1.0  0.0839
  H  H268  1  0.254700  0.129700  0.273200  1.0  0.0672
  H  H269  1  0.384700  0.197600  0.301200  1.0  0.0792
  H  H270  1  0.344400  0.163000  0.267500  1.0  0.096
  H  H271  1  0.366000  0.209700  0.187400  1.0  0.096
  H  H272  1  0.350500  0.247700  0.230900  1.0  0.0713
  H  H273  1  0.127900  0.347200  0.154900  1.0  0.1119
  H  H274  1  0.093900  0.306000  0.133900  1.0  0.0909
  H  H275  1  0.108200  0.297100  0.241900  1.0  0.0892
  H  H276  1  0.178300  0.314900  0.239600  1.0  0.0827
  H  H277  1  0.195300  0.297100  0.014200  1.0  0.0742
  H  H278  1  0.128000  0.315000  0.032800  1.0  0.0776
  H  H279  1  0.120800  0.245800  0.004700  1.0  0.0752
  H  H280  1  0.097900  0.252800  0.074500  1.0  0.0651
  H  H281  1  0.259800  0.342100  0.069500  1.0  0.0902
  H  H282  1  0.202200  0.369700  0.091500  1.0  0.0916
  H  H283  1  0.232900  0.364100  0.196400  1.0  0.0751
  H  H284  1  0.293900  0.377700  0.158100  1.0  0.0744
  H  H285  1  0.012700  0.096000  0.765800  1.0  0.0767
  H  H286  1  0.971700  0.134400  0.786600  1.0  0.076
  H  H287  1  0.899000  0.086300  0.763600  1.0  0.0863
  H  H288  1  0.936000  0.072000  0.703000  1.0  0.0757
  H  H289  1  0.079300  0.141800  0.633000  1.0  0.0821
  H  H290  1  0.101300  0.119800  0.695200  1.0  0.0803
  H  H291  1  0.033500  0.062500  0.667400  1.0  0.088
  H  H292  1  0.088800  0.069600  0.617100  1.0  0.1108
  H  H293  1  0.055400  0.197100  0.688600  1.0  0.0765
  H  H294  1  0.056700  0.181900  0.758800  1.0  0.0785
  H  H295  1  0.992000  0.238300  0.747100  1.0  0.0896
  H  H296  1  0.953400  0.200100  0.772200  1.0  0.0963
  H  H297  1  0.773600  0.146100  0.496100  1.0  0.0801
  H  H298  1  0.802500  0.108600  0.458900  1.0  0.09
  H  H299  1  0.895700  0.113900  0.508300  1.0  0.077
  H  H300  1  0.877100  0.159200  0.488900  1.0  0.0926
  H  H301  1  0.767600  0.033100  0.566500  1.0  0.0874
  H  H302  1  0.754900  0.044100  0.495700  1.0  0.0861
  H  H303  1  0.869800  0.053000  0.481100  1.0  0.0872
  H  H304  1  0.852500  0.007200  0.501000  1.0  0.0956
  H  H305  1  0.681200  0.101100  0.524300  1.0  0.0831
  H  H306  1  0.689300  0.078700  0.589600  1.0  0.0754
  H  H307  1  0.654400  0.144300  0.608800  1.0  0.0922
  H  H308  1  0.709300  0.163000  0.567300  1.0  0.0946
  H  H309  1  0.422000  0.087800  0.815700  1.0  0.1143
  H  H310  1  0.405600  0.092100  0.887300  1.0  0.0965
  H  H311  1  0.525800  0.089700  0.834400  1.0  0.1081
  H  H312  1  0.494100  0.127000  0.869900  1.0  0.081
  H  H313  1  0.676900  0.095700  0.961700  1.0  0.0934
  H  H314  1  0.622200  0.099700  0.011900  1.0  0.0863
  H  H315  1  0.586700  0.131900  0.927000  1.0  0.081
  H  H316  1  0.607800  0.095500  0.882200  1.0  0.0915
  H  H317  1  0.457400  0.118700  0.968700  1.0  0.0793
  H  H318  1  0.518800  0.119100  0.011500  1.0  0.0803
  H  H319  1  0.420800  0.061900  0.009300  1.0  0.0896
  H  H320  1  0.455700  0.080200  0.068200  1.0  0.1107
  H  H321  1  0.762300  0.194400  0.325000  1.0  0.3055
  H  H322  1  0.670100  0.343300  0.239500  1.0  0.3297
  H  H323  1  0.663200  0.296300  0.084200  1.0  0.3087
  H  H324  1  0.796000  0.180600  0.224000  1.0  0.2706
  H  H325  1  0.398000  0.281400  0.698800  1.0  0.3107
  H  H326  1  0.477800  0.427600  0.581500  1.0  0.1037
  H  H327  1  0.373200  0.441900  0.590800  1.0  0.3208
  H  H328  1  0.247900  0.331400  0.654900  1.0  0.3214
  H  H329  1  0.955600  0.472700  0.887200  1.0  0.3908
  H  H330  1  0.160900  0.467600  0.954700  1.0  0.2553
  H  H331  1  0.847900  0.280900  0.398600  1.0  0.0831
  H  H332  1  0.777700  0.264400  0.405200  1.0  0.075
  H  H333  1  0.837800  0.209300  0.386100  1.0  0.088
  H  H334  1  0.873700  0.231300  0.330300  1.0  0.0757
  H  H335  1  0.798400  0.351900  0.366400  1.0  0.0711
  H  H336  1  0.736900  0.326900  0.384900  1.0  0.0791
  H  H337  1  0.707000  0.382100  0.327500  1.0  0.0836
  H  H338  1  0.754700  0.370300  0.273200  1.0  0.0665
  H  H339  1  0.884700  0.302400  0.301200  1.0  0.079
  H  H340  1  0.844400  0.337000  0.267500  1.0  0.0963
  H  H341  1  0.866000  0.290300  0.187400  1.0  0.096
  H  H342  1  0.850500  0.252300  0.230900  1.0  0.0719
  H  H343  1  0.627900  0.152800  0.154900  1.0  0.1102
  H  H344  1  0.593900  0.194000  0.133900  1.0  0.0913
  H  H345  1  0.608200  0.202900  0.241900  1.0  0.09
  H  H346  1  0.678300  0.185100  0.239600  1.0  0.0844
  H  H347  1  0.695300  0.202900  0.014200  1.0  0.0739
  H  H348  1  0.628000  0.185000  0.032800  1.0  0.0772
  H  H349  1  0.620800  0.254200  0.004700  1.0  0.0749
  H  H350  1  0.597900  0.247200  0.074500  1.0  0.065
  H  H351  1  0.759800  0.157900  0.069500  1.0  0.0899
  H  H352  1  0.702200  0.130300  0.091500  1.0  0.0914
  H  H353  1  0.732900  0.135900  0.196400  1.0  0.0766
  H  H354  1  0.793900  0.122300  0.158100  1.0  0.0747
  H  H355  1  0.512700  0.404000  0.765800  1.0  0.0753
  H  H356  1  0.471700  0.365600  0.786600  1.0  0.0768
  H  H357  1  0.399000  0.413700  0.763600  1.0  0.0845
  H  H358  1  0.436000  0.428000  0.703000  1.0  0.0762
  H  H359  1  0.579300  0.358200  0.633000  1.0  0.0823
  H  H360  1  0.601300  0.380200  0.695200  1.0  0.0801
  H  H361  1  0.533500  0.437500  0.667400  1.0  0.0895
  H  H362  1  0.588800  0.430400  0.617100  1.0  0.1112
  H  H363  1  0.555400  0.302900  0.688600  1.0  0.076
  H  H364  1  0.556700  0.318100  0.758800  1.0  0.0778
  H  H365  1  0.492000  0.261700  0.747100  1.0  0.0895
  H  H366  1  0.453400  0.299900  0.772200  1.0  0.0966
  H  H367  1  0.273600  0.353900  0.496100  1.0  0.0792
  H  H368  1  0.302500  0.391400  0.458900  1.0  0.0907
  H  H369  1  0.395700  0.386100  0.508300  1.0  0.0782
  H  H370  1  0.377100  0.340800  0.488900  1.0  0.093
  H  H371  1  0.267600  0.466900  0.566500  1.0  0.0856
  H  H372  1  0.254900  0.455900  0.495700  1.0  0.0876
  H  H373  1  0.369800  0.447000  0.481100  1.0  0.0873
  H  H374  1  0.352500  0.492800  0.501000  1.0  0.0968
  H  H375  1  0.181200  0.398900  0.524300  1.0  0.083
  H  H376  1  0.189300  0.421300  0.589600  1.0  0.0741
  H  H377  1  0.154400  0.355700  0.608800  1.0  0.0918
  H  H378  1  0.209300  0.337000  0.567300  1.0  0.0946
  H  H379  1  0.922000  0.412200  0.815700  1.0  0.1143
  H  H380  1  0.905600  0.407900  0.887300  1.0  0.0965
  H  H381  1  0.025800  0.410300  0.834400  1.0  0.1078
  H  H382  1  0.994100  0.373000  0.869900  1.0  0.0812
  H  H383  1  0.176900  0.404300  0.961700  1.0  0.0925
  H  H384  1  0.122200  0.400300  0.011900  1.0  0.0862
  H  H385  1  0.086700  0.368100  0.927000  1.0  0.082
  H  H386  1  0.107800  0.404500  0.882200  1.0  0.0918
  H  H387  1  0.957400  0.381300  0.968700  1.0  0.0788
  H  H388  1  0.018800  0.380900  0.011500  1.0  0.0821
  H  H389  1  0.920800  0.438100  0.009300  1.0  0.0896
  H  H390  1  0.955700  0.419800  0.068200  1.0  0.1111
  H  H391  1  0.737700  0.305600  0.825000  1.0  0.3047
  H  H392  1  0.829900  0.156700  0.739500  1.0  0.3284
  H  H393  1  0.836800  0.203700  0.584200  1.0  0.3074
  H  H394  1  0.704000  0.319400  0.724000  1.0  0.2691
  H  H395  1  0.102000  0.218600  0.198800  1.0  0.3116
  H  H396  1  0.022200  0.072400  0.081500  1.0  0.1031
  H  H397  1  0.126800  0.058100  0.090800  1.0  0.323
  H  H398  1  0.252100  0.168600  0.154900  1.0  0.3218
  H  H399  1  0.544400  0.027300  0.387200  1.0  0.392
  H  H400  1  0.339100  0.032400  0.454700  1.0  0.2568
  H  H401  1  0.652100  0.219100  0.898600  1.0  0.0833
  H  H402  1  0.722300  0.235600  0.905200  1.0  0.0762
  H  H403  1  0.662200  0.290700  0.886100  1.0  0.0868
  H  H404  1  0.626300  0.268700  0.830300  1.0  0.0736
  H  H405  1  0.701600  0.148100  0.866400  1.0  0.0718
  H  H406  1  0.763100  0.173100  0.884900  1.0  0.0805
  H  H407  1  0.793000  0.117900  0.827500  1.0  0.0844
  H  H408  1  0.745300  0.129700  0.773200  1.0  0.0678
  H  H409  1  0.615300  0.197600  0.801200  1.0  0.0779
  H  H410  1  0.655600  0.163000  0.767500  1.0  0.0953
  H  H411  1  0.634000  0.209700  0.687400  1.0  0.0961
  H  H412  1  0.649500  0.247700  0.730900  1.0  0.0715
  H  H413  1  0.872100  0.347200  0.654900  1.0  0.1109
  H  H414  1  0.906100  0.306000  0.633900  1.0  0.0951
  H  H415  1  0.891800  0.297100  0.741900  1.0  0.0876
  H  H416  1  0.821700  0.314900  0.739600  1.0  0.084
  H  H417  1  0.804700  0.297100  0.514200  1.0  0.0736
  H  H418  1  0.872000  0.315000  0.532800  1.0  0.0786
  H  H419  1  0.879200  0.245800  0.504700  1.0  0.0749
  H  H420  1  0.902100  0.252800  0.574500  1.0  0.0673
  H  H421  1  0.740200  0.342100  0.569500  1.0  0.0924
  H  H422  1  0.797800  0.369700  0.591500  1.0  0.092
  H  H423  1  0.767100  0.364100  0.696400  1.0  0.0749
  H  H424  1  0.706100  0.377700  0.658100  1.0  0.0741
  H  H425  1  0.987300  0.096000  0.265800  1.0  0.0775
  H  H426  1  0.028300  0.134400  0.286600  1.0  0.0762
  H  H427  1  0.101000  0.086300  0.263600  1.0  0.0871
  H  H428  1  0.064000  0.072000  0.203000  1.0  0.0755
  H  H429  1  0.920700  0.141800  0.133000  1.0  0.083
  H  H430  1  0.898700  0.119800  0.195200  1.0  0.0814
  H  H431  1  0.966500  0.062500  0.167400  1.0  0.0884
  H  H432  1  0.911200  0.069600  0.117100  1.0  0.1113
  H  H433  1  0.944600  0.197100  0.188600  1.0  0.0765
  H  H434  1  0.943300  0.181900  0.258800  1.0  0.0784
  H  H435  1  0.008000  0.238300  0.247100  1.0  0.0895
  H  H436  1  0.046600  0.200100  0.272200  1.0  0.0967
  H  H437  1  0.226400  0.146100  0.996100  1.0  0.0806
  H  H438  1  0.197500  0.108600  0.958900  1.0  0.0899
  H  H439  1  0.104300  0.113900  0.008300  1.0  0.0765
  H  H440  1  0.122900  0.159200  0.988900  1.0  0.093
  H  H441  1  0.232400  0.033100  0.066500  1.0  0.087
  H  H442  1  0.245100  0.044100  0.995700  1.0  0.086
  H  H443  1  0.130200  0.053000  0.981100  1.0  0.0872
  H  H444  1  0.147500  0.007200  0.001000  1.0  0.0957
  H  H445  1  0.318800  0.101100  0.024300  1.0  0.0837
  H  H446  1  0.310700  0.078700  0.089600  1.0  0.0754
  H  H447  1  0.345600  0.144300  0.108800  1.0  0.092
  H  H448  1  0.290700  0.163000  0.067300  1.0  0.0958
  H  H449  1  0.578000  0.087800  0.315700  1.0  0.1152
  H  H450  1  0.594400  0.092100  0.387300  1.0  0.0999
  H  H451  1  0.474200  0.089700  0.334400  1.0  0.1084
  H  H452  1  0.505900  0.127000  0.369900  1.0  0.0796
  H  H453  1  0.323100  0.095700  0.461700  1.0  0.0934
  H  H454  1  0.377800  0.099700  0.511900  1.0  0.0864
  H  H455  1  0.413300  0.131900  0.427000  1.0  0.0809
  H  H456  1  0.392200  0.095500  0.382200  1.0  0.0917
  H  H457  1  0.542600  0.118700  0.468700  1.0  0.0787
  H  H458  1  0.481200  0.119100  0.511500  1.0  0.0795
  H  H459  1  0.579200  0.061900  0.509300  1.0  0.0915
  H  H460  1  0.544300  0.080200  0.568200  1.0  0.1112
  H  H461  1  0.762300  0.805600  0.175000  1.0  0.3051
  H  H462  1  0.670100  0.656700  0.260500  1.0  0.3297
  H  H463  1  0.663200  0.703700  0.415800  1.0  0.3064
  H  H464  1  0.796000  0.819400  0.276000  1.0  0.2695
  H  H465  1  0.398000  0.718600  0.801200  1.0  0.3103
  H  H466  1  0.477800  0.572400  0.918500  1.0  0.1036
  H  H467  1  0.373200  0.558100  0.909200  1.0  0.3235
  H  H468  1  0.247900  0.668600  0.845100  1.0  0.3223
  H  H469  1  0.955600  0.527300  0.612800  1.0  0.3928
  H  H470  1  0.160900  0.532400  0.545300  1.0  0.2552
  H  H471  1  0.847900  0.719100  0.101400  1.0  0.0829
  H  H472  1  0.777700  0.735600  0.094800  1.0  0.0749
  H  H473  1  0.837800  0.790700  0.113900  1.0  0.0876
  H  H474  1  0.873700  0.768700  0.169700  1.0  0.0747
  H  H475  1  0.798400  0.648100  0.133600  1.0  0.0718
  H  H476  1  0.736900  0.673100  0.115100  1.0  0.0803
  H  H477  1  0.707000  0.617900  0.172500  1.0  0.0818
  H  H478  1  0.754700  0.629700  0.226800  1.0  0.0678
  H  H479  1  0.884700  0.697600  0.198800  1.0  0.0793
  H  H480  1  0.844400  0.663000  0.232500  1.0  0.0964
  H  H481  1  0.866000  0.709700  0.312600  1.0  0.0971
  H  H482  1  0.850500  0.747700  0.269100  1.0  0.07
  H  H483  1  0.627900  0.847200  0.345100  1.0  0.1109
  H  H484  1  0.593900  0.806000  0.366100  1.0  0.0901
  H  H485  1  0.608200  0.797100  0.258100  1.0  0.0894
  H  H486  1  0.678300  0.814900  0.260400  1.0  0.0828
  H  H487  1  0.695300  0.797100  0.485800  1.0  0.0734
  H  H488  1  0.628000  0.815000  0.467200  1.0  0.0774
  H  H489  1  0.620800  0.745800  0.495300  1.0  0.0746
  H  H490  1  0.597900  0.752800  0.425500  1.0  0.0655
  H  H491  1  0.759800  0.842100  0.430500  1.0  0.0895
  H  H492  1  0.702200  0.869700  0.408500  1.0  0.092
  H  H493  1  0.732900  0.864100  0.303600  1.0  0.0756
  H  H494  1  0.793900  0.877700  0.341900  1.0  0.074
  H  H495  1  0.512700  0.596000  0.734200  1.0  0.0763
  H  H496  1  0.471700  0.634400  0.713400  1.0  0.0746
  H  H497  1  0.399000  0.586300  0.736400  1.0  0.0854
  H  H498  1  0.436000  0.572000  0.797000  1.0  0.0764
  H  H499  1  0.579300  0.641800  0.867000  1.0  0.0831
  H  H500  1  0.601300  0.619800  0.804800  1.0  0.0805
  H  H501  1  0.533500  0.562500  0.832600  1.0  0.0875
  H  H502  1  0.588800  0.569600  0.882900  1.0  0.1111
  H  H503  1  0.555400  0.697100  0.811400  1.0  0.0769
  H  H504  1  0.556700  0.681900  0.741200  1.0  0.0785
  H  H505  1  0.492000  0.738300  0.752900  1.0  0.0899
  H  H506  1  0.453400  0.700100  0.727800  1.0  0.0977
  H  H507  1  0.273600  0.646100  0.003900  1.0  0.0798
  H  H508  1  0.302500  0.608600  0.041100  1.0  0.0906
  H  H509  1  0.395700  0.613900  0.991700  1.0  0.0764
  H  H510  1  0.377100  0.659200  0.011100  1.0  0.0926
  H  H511  1  0.267600  0.533100  0.933500  1.0  0.0856
  H  H512  1  0.254900  0.544100  0.004300  1.0  0.086
  H  H513  1  0.369800  0.553000  0.018900  1.0  0.0852
  H  H514  1  0.352500  0.507200  0.999000  1.0  0.0971
  H  H515  1  0.181200  0.601100  0.975700  1.0  0.0824
  H  H516  1  0.189300  0.578700  0.910400  1.0  0.0746
  H  H517  1  0.154400  0.644300  0.891200  1.0  0.0917
  H  H518  1  0.209300  0.663000  0.932700  1.0  0.0941
  H  H519  1  0.922000  0.587800  0.684300  1.0  0.1164
  H  H520  1  0.905600  0.592100  0.612700  1.0  0.0998
  H  H521  1  0.025800  0.589700  0.665600  1.0  0.1127
  H  H522  1  0.994100  0.627000  0.630100  1.0  0.079
  H  H523  1  0.176900  0.595700  0.538300  1.0  0.0935
  H  H524  1  0.122200  0.599700  0.488100  1.0  0.0846
  H  H525  1  0.086700  0.631900  0.573000  1.0  0.0809
  H  H526  1  0.107800  0.595500  0.617800  1.0  0.0925
  H  H527  1  0.957400  0.618700  0.531300  1.0  0.0789
  H  H528  1  0.018800  0.619100  0.488500  1.0  0.0818
  H  H529  1  0.920800  0.561900  0.490700  1.0  0.0891
  H  H530  1  0.955700  0.580200  0.431800  1.0  0.1102
  H  H531  1  0.737700  0.694400  0.675000  1.0  0.3046
  H  H532  1  0.829900  0.843300  0.760500  1.0  0.3298
  H  H533  1  0.836800  0.796300  0.915800  1.0  0.3069
  H  H534  1  0.704000  0.680600  0.776000  1.0  0.2697
  H  H535  1  0.102000  0.781400  0.301200  1.0  0.3107
  H  H536  1  0.022200  0.927600  0.418500  1.0  0.1037
  H  H537  1  0.126800  0.941900  0.409200  1.0  0.3212
  H  H538  1  0.252100  0.831400  0.345100  1.0  0.3207
  H  H539  1  0.544400  0.972700  0.112800  1.0  0.393
  H  H540  1  0.339100  0.967600  0.045300  1.0  0.2549
  H  H541  1  0.652100  0.780900  0.601400  1.0  0.0832
  H  H542  1  0.722300  0.764400  0.594800  1.0  0.0761
  H  H543  1  0.662200  0.709300  0.613900  1.0  0.0873
  H  H544  1  0.626300  0.731300  0.669700  1.0  0.0727
  H  H545  1  0.701600  0.851900  0.633600  1.0  0.0721
  H  H546  1  0.763100  0.826900  0.615100  1.0  0.0807
  H  H547  1  0.793000  0.882100  0.672500  1.0  0.0843
  H  H548  1  0.745300  0.870300  0.726800  1.0  0.0672
  H  H549  1  0.615300  0.802400  0.698800  1.0  0.0782
  H  H550  1  0.655600  0.837000  0.732500  1.0  0.096
  H  H551  1  0.634000  0.790300  0.812600  1.0  0.0963
  H  H552  1  0.649500  0.752300  0.769100  1.0  0.0715
  H  H553  1  0.872100  0.652800  0.845100  1.0  0.1102
  H  H554  1  0.906100  0.694000  0.866100  1.0  0.0932
  H  H555  1  0.891800  0.702900  0.758100  1.0  0.0885
  H  H556  1  0.821700  0.685100  0.760400  1.0  0.0835
  H  H557  1  0.804700  0.702900  0.985800  1.0  0.0732
  H  H558  1  0.872000  0.685000  0.967200  1.0  0.0788
  H  H559  1  0.879200  0.754200  0.995300  1.0  0.0744
  H  H560  1  0.902100  0.747200  0.925500  1.0  0.0676
  H  H561  1  0.740200  0.657900  0.930500  1.0  0.0905
  H  H562  1  0.797800  0.630300  0.908500  1.0  0.0932
  H  H563  1  0.767100  0.635900  0.803600  1.0  0.0749
  H  H564  1  0.706100  0.622300  0.841900  1.0  0.0747
  H  H565  1  0.987300  0.904000  0.234200  1.0  0.078
  H  H566  1  0.028300  0.865600  0.213400  1.0  0.076
  H  H567  1  0.101000  0.913700  0.236400  1.0  0.086
  H  H568  1  0.064000  0.928000  0.297000  1.0  0.0762
  H  H569  1  0.920700  0.858200  0.367000  1.0  0.0837
  H  H570  1  0.898700  0.880200  0.304800  1.0  0.0834
  H  H571  1  0.966500  0.937500  0.332600  1.0  0.0908
  H  H572  1  0.911200  0.930400  0.382900  1.0  0.1109
  H  H573  1  0.944600  0.802900  0.311400  1.0  0.0773
  H  H574  1  0.943300  0.818100  0.241200  1.0  0.0781
  H  H575  1  0.008000  0.761700  0.252900  1.0  0.0892
  H  H576  1  0.046600  0.799900  0.227800  1.0  0.0975
  H  H577  1  0.226400  0.853900  0.503900  1.0  0.0801
  H  H578  1  0.197500  0.891400  0.541100  1.0  0.0908
  H  H579  1  0.104300  0.886100  0.491700  1.0  0.0766
  H  H580  1  0.122900  0.840800  0.511100  1.0  0.0938
  H  H581  1  0.232400  0.966900  0.433500  1.0  0.0847
  H  H582  1  0.245100  0.955900  0.504300  1.0  0.0863
  H  H583  1  0.130200  0.947000  0.518900  1.0  0.0865
  H  H584  1  0.147500  0.992800  0.499000  1.0  0.0973
  H  H585  1  0.318800  0.898900  0.475700  1.0  0.0813
  H  H586  1  0.310700  0.921300  0.410400  1.0  0.0751
  H  H587  1  0.345600  0.855700  0.391200  1.0  0.0913
  H  H588  1  0.290700  0.837000  0.432700  1.0  0.0955
  H  H589  1  0.578000  0.912200  0.184300  1.0  0.1147
  H  H590  1  0.594400  0.907900  0.112700  1.0  0.0994
  H  H591  1  0.474200  0.910300  0.165600  1.0  0.1116
  H  H592  1  0.505900  0.873000  0.130100  1.0  0.082
  H  H593  1  0.323100  0.904300  0.038300  1.0  0.0929
  H  H594  1  0.377800  0.900300  0.988100  1.0  0.0865
  H  H595  1  0.413300  0.868100  0.073000  1.0  0.0824
  H  H596  1  0.392200  0.904500  0.117800  1.0  0.0921
  H  H597  1  0.542600  0.881300  0.031300  1.0  0.0786
  H  H598  1  0.481200  0.880900  0.988500  1.0  0.08
  H  H599  1  0.579200  0.938100  0.990700  1.0  0.0913
  H  H600  1  0.544300  0.919800  0.931800  1.0  0.1102
  W  W601  1  0.423730  0.742090  0.525790  1.0  0.0857
  W  W602  1  0.076270  0.757910  0.025790  1.0  0.0852
  W  W603  1  0.423730  0.257910  0.974210  1.0  0.0809
  W  W604  1  0.076270  0.242090  0.474210  1.0  0.0809
  W  W605  1  0.576270  0.257910  0.474210  1.0  0.0805
  W  W606  1  0.923730  0.242090  0.974210  1.0  0.0814
  W  W607  1  0.576270  0.742090  0.025790  1.0  0.0853
  W  W608  1  0.923730  0.757910  0.525790  1.0  0.0855
  W  W609  1  0.821840  0.500000  0.250000  1.0  0.5088
  W  W610  1  0.678160  0.000000  0.750000  1.0  0.5092
  W  W611  1  0.178160  0.500000  0.750000  1.0  0.5092
  W  W612  1  0.321840  0.000000  0.250000  1.0  0.5088
  C  C613  1  0.368500  0.742300  0.614700  1.0  0.1304
  C  C614  1  0.349200  0.742400  0.457400  1.0  0.1096
  C  C615  1  0.477800  0.704450  0.460000  1.0  0.1155
  C  C616  1  0.494600  0.779540  0.574200  1.0  0.1462
  C  C617  1  0.480300  0.702080  0.582800  1.0  0.0388
  C  C618  1  0.375100  0.683100  0.528800  1.0  0.1385
  C  C619  1  0.379500  0.799800  0.541200  1.0  0.1903
  C  C620  1  0.457400  0.783500  0.453100  1.0  0.1264
  C  C621  1  0.754600  0.537300  0.293500  1.0  0.0218
  C  C622  1  0.891600  0.499410  0.181100  1.0  0.1057
  C  C623  1  0.779900  0.533200  0.175200  1.0  0.1156
  C  C624  1  0.865300  0.561300  0.254800  1.0  0.1038
  C  C625  1  0.187400  0.731500  0.624400  1.0  -0.0661
  C  C626  1  0.167300  0.771500  0.648700  1.0  0.0647
  C  C627  1  0.236000  0.665100  0.650200  1.0  -0.0099
  C  C628  1  0.273300  0.640900  0.694500  1.0  0.0906
  C  C629  1  0.155400  0.691900  0.720200  1.0  -0.0279
  C  C630  1  0.162000  0.719700  0.779400  1.0  0.0667
  C  C631  1  0.366800  0.817500  0.849000  1.0  -0.0335
  C  C632  1  0.352800  0.798200  0.783000  1.0  0.0559
  C  C633  1  0.338700  0.795700  0.954600  1.0  -0.0056
  C  C634  1  0.365200  0.753500  0.953200  1.0  0.0849
  C  C635  1  0.271400  0.846200  0.897100  1.0  -0.0322
  C  C636  1  0.236600  0.855500  0.835600  1.0  0.0672
  C  C637  1  0.517700  0.616600  0.248800  1.0  -0.0284
  C  C638  1  0.576100  0.596000  0.272200  1.0  0.0629
  C  C639  1  0.434200  0.622900  0.334000  1.0  -0.0114
  C  C640  1  0.448500  0.581800  0.362900  1.0  0.0534
  C  C641  1  0.470100  0.684300  0.278500  1.0  -0.0138
  C  C642  1  0.523700  0.711000  0.264000  1.0  0.0655
  C  C643  1  0.698500  0.622300  0.500300  1.0  -0.0313
  C  C644  1  0.634700  0.636000  0.484500  1.0  0.0693
  C  C645  1  0.717600  0.550000  0.468500  1.0  -0.0395
  C  C646  1  0.648300  0.535900  0.485700  1.0  0.0876
  C  C647  1  0.794200  0.600700  0.436900  1.0  0.0007
  C  C648  1  0.801300  0.640800  0.403800  1.0  0.0709
  C  C649  1  0.064800  0.579570  0.142300  1.0  0.0905
  C  C650  1  0.002300  0.597100  0.130800  1.0  -0.0623
  C  C651  1  0.866300  0.587070  0.028100  1.0  0.0925
  C  C652  1  0.908900  0.602100  0.076300  1.0  0.0139
  C  C653  1  0.008900  0.601600  0.013900  1.0  -0.0804
  C  C654  1  0.037400  0.568580  0.973500  1.0  0.0223
  C  C655  1  0.131500  0.757700  0.114700  1.0  0.1317
  C  C656  1  0.150800  0.757600  0.957400  1.0  0.1112
  C  C657  1  0.022200  0.795550  0.960000  1.0  0.1152
  C  C658  1  0.005400  0.720460  0.074200  1.0  0.1453
  C  C659  1  0.019700  0.797920  0.082800  1.0  0.0369
  C  C660  1  0.124900  0.816900  0.028800  1.0  0.1394
  C  C661  1  0.120500  0.700200  0.041200  1.0  0.192
  C  C662  1  0.042600  0.716500  0.953100  1.0  0.1267
  C  C663  1  0.745400  0.962700  0.793500  1.0  0.0245
  C  C664  1  0.608400  0.000590  0.681100  1.0  0.1047
  C  C665  1  0.720100  0.966800  0.675200  1.0  0.1171
  C  C666  1  0.634700  0.938700  0.754800  1.0  0.1016
  C  C667  1  0.312600  0.768500  0.124400  1.0  -0.0672
  C  C668  1  0.332700  0.728500  0.148700  1.0  0.0637
  C  C669  1  0.264000  0.834900  0.150200  1.0  -0.0093
  C  C670  1  0.226700  0.859100  0.194500  1.0  0.094
  C  C671  1  0.344600  0.808100  0.220200  1.0  -0.0263
  C  C672  1  0.338000  0.780300  0.279400  1.0  0.0656
  C  C673  1  0.133200  0.682500  0.349000  1.0  -0.0325
  C  C674  1  0.147200  0.701800  0.283000  1.0  0.0576
  C  C675  1  0.161300  0.704300  0.454600  1.0  -0.0064
  C  C676  1  0.134800  0.746500  0.453200  1.0  0.0832
  C  C677  1  0.228600  0.653800  0.397100  1.0  -0.0325
  C  C678  1  0.263400  0.644500  0.335600  1.0  0.0659
  C  C679  1  0.982300  0.883400  0.748800  1.0  -0.0289
  C  C680  1  0.923900  0.904000  0.772200  1.0  0.0648
  C  C681  1  0.065800  0.877100  0.834000  1.0  -0.0084
  C  C682  1  0.051500  0.918200  0.862900  1.0  0.052
  C  C683  1  0.029900  0.815700  0.778500  1.0  -0.0127
  C  C684  1  0.976300  0.789000  0.764000  1.0  0.0643
  C  C685  1  0.801500  0.877700  0.000300  1.0  -0.0319
  C  C686  1  0.865300  0.864000  0.984500  1.0  0.0672
  C  C687  1  0.782400  0.950000  0.968500  1.0  -0.0406
  C  C688  1  0.851700  0.964100  0.985700  1.0  0.083
  C  C689  1  0.705800  0.899300  0.936900  1.0  -0.0002
  C  C690  1  0.698700  0.859200  0.903800  1.0  0.0695
  C  C691  1  0.435200  0.920430  0.642300  1.0  0.0885
  C  C692  1  0.497700  0.902900  0.630800  1.0  -0.065
  C  C693  1  0.633700  0.912930  0.528100  1.0  0.0903
  C  C694  1  0.591100  0.897900  0.576300  1.0  0.0108
  C  C695  1  0.491100  0.898400  0.513900  1.0  -0.0789
  C  C696  1  0.462600  0.931420  0.473500  1.0  0.0214
  C  C697  1  0.368500  0.257700  0.885300  1.0  0.1315
  C  C698  1  0.349200  0.257600  0.042600  1.0  0.1093
  C  C699  1  0.477800  0.295550  0.040000  1.0  0.1154
  C  C700  1  0.494600  0.220460  0.925800  1.0  0.146
  C  C701  1  0.480300  0.297920  0.917200  1.0  0.0385
  C  C702  1  0.375100  0.316900  0.971200  1.0  0.1393
  C  C703  1  0.379500  0.200200  0.958800  1.0  0.1906
  C  C704  1  0.457400  0.216500  0.046900  1.0  0.1275
  C  C705  1  0.754600  0.462700  0.206500  1.0  0.0208
  C  C706  1  0.891600  0.500590  0.318900  1.0  0.1052
  C  C707  1  0.779900  0.466800  0.324800  1.0  0.1166
  C  C708  1  0.865300  0.438700  0.245200  1.0  0.1034
  C  C709  1  0.187400  0.268500  0.875600  1.0  -0.0694
  C  C710  1  0.167300  0.228500  0.851300  1.0  0.0653
  C  C711  1  0.236000  0.334900  0.849800  1.0  -0.0086
  C  C712  1  0.273300  0.359100  0.805500  1.0  0.093
  C  C713  1  0.155400  0.308100  0.779800  1.0  -0.0268
  C  C714  1  0.162000  0.280300  0.720600  1.0  0.0659
  C  C715  1  0.366800  0.182500  0.651000  1.0  -0.035
  C  C716  1  0.352800  0.201800  0.717000  1.0  0.0566
  C  C717  1  0.338700  0.204300  0.545400  1.0  -0.0049
  C  C718  1  0.365200  0.246500  0.546800  1.0  0.0822
  C  C719  1  0.271400  0.153800  0.602900  1.0  -0.031
  C  C720  1  0.236600  0.144500  0.664400  1.0  0.0694
  C  C721  1  0.517700  0.383400  0.251200  1.0  -0.0333
  C  C722  1  0.576100  0.404000  0.227800  1.0  0.0598
  C  C723  1  0.434200  0.377100  0.166000  1.0  -0.0105
  C  C724  1  0.448500  0.418200  0.137100  1.0  0.0513
  C  C725  1  0.470100  0.315700  0.221500  1.0  -0.0134
  C  C726  1  0.523700  0.289000  0.236000  1.0  0.0645
  C  C727  1  0.698500  0.377700  0.999700  1.0  -0.03
  C  C728  1  0.634700  0.364000  0.015500  1.0  0.0722
  C  C729  1  0.717600  0.450000  0.031500  1.0  -0.039
  C  C730  1  0.648300  0.464100  0.014300  1.0  0.0875
  C  C731  1  0.794200  0.399300  0.063100  1.0  0.0004
  C  C732  1  0.801300  0.359200  0.096200  1.0  0.0706
  C  C733  1  0.064800  0.420430  0.357700  1.0  0.091
  C  C734  1  0.002300  0.402900  0.369200  1.0  -0.0598
  C  C735  1  0.866300  0.412930  0.471900  1.0  0.0926
  C  C736  1  0.908900  0.397900  0.423700  1.0  0.0136
  C  C737  1  0.008900  0.398400  0.486100  1.0  -0.0791
  C  C738  1  0.037400  0.431420  0.526500  1.0  0.0209
  C  C739  1  0.131500  0.242300  0.385300  1.0  0.1301
  C  C740  1  0.150800  0.242400  0.542600  1.0  0.1113
  C  C741  1  0.022200  0.204450  0.540000  1.0  0.1144
  C  C742  1  0.005400  0.279540  0.425800  1.0  0.1459
  C  C743  1  0.019700  0.202080  0.417200  1.0  0.0384
  C  C744  1  0.124900  0.183100  0.471200  1.0  0.1387
  C  C745  1  0.120500  0.299800  0.458800  1.0  0.1925
  C  C746  1  0.042600  0.283500  0.546900  1.0  0.1271
  C  C747  1  0.745400  0.037300  0.706500  1.0  0.0236
  C  C748  1  0.608400  0.999410  0.818900  1.0  0.1054
  C  C749  1  0.720100  0.033200  0.824800  1.0  0.1173
  C  C750  1  0.634700  0.061300  0.745200  1.0  0.1011
  C  C751  1  0.312600  0.231500  0.375600  1.0  -0.0687
  C  C752  1  0.332700  0.271500  0.351300  1.0  0.0646
  C  C753  1  0.264000  0.165100  0.349800  1.0  -0.0094
  C  C754  1  0.226700  0.140900  0.305500  1.0  0.0934
  C  C755  1  0.344600  0.191900  0.279800  1.0  -0.0269
  C  C756  1  0.338000  0.219700  0.220600  1.0  0.0661
  C  C757  1  0.133200  0.317500  0.151000  1.0  -0.0327
  C  C758  1  0.147200  0.298200  0.217000  1.0  0.0573
  C  C759  1  0.161300  0.295700  0.045400  1.0  -0.0056
  C  C760  1  0.134800  0.253500  0.046800  1.0  0.0807
  C  C761  1  0.228600  0.346200  0.102900  1.0  -0.0323
  C  C762  1  0.263400  0.355500  0.164400  1.0  0.0675
  C  C763  1  0.982300  0.116600  0.751200  1.0  -0.0286
  C  C764  1  0.923900  0.096000  0.727800  1.0  0.063
  C  C765  1  0.065800  0.122900  0.666000  1.0  -0.0094
  C  C766  1  0.051500  0.081800  0.637100  1.0  0.0529
  C  C767  1  0.029900  0.184300  0.721500  1.0  -0.0113
  C  C768  1  0.976300  0.211000  0.736000  1.0  0.0645
  C  C769  1  0.801500  0.122300  0.499700  1.0  -0.0308
  C  C770  1  0.865300  0.136000  0.515500  1.0  0.0721
  C  C771  1  0.782400  0.050000  0.531500  1.0  -0.0399
  C  C772  1  0.851700  0.035900  0.514300  1.0  0.0871
  C  C773  1  0.705800  0.100700  0.563100  1.0  -0.0003
  C  C774  1  0.698700  0.140800  0.596200  1.0  0.0721
  C  C775  1  0.435200  0.079570  0.857700  1.0  0.0894
  C  C776  1  0.497700  0.097100  0.869200  1.0  -0.0637
  C  C777  1  0.633700  0.087070  0.971900  1.0  0.0937
  C  C778  1  0.591100  0.102100  0.923700  1.0  0.0119
  C  C779  1  0.491100  0.101600  0.986100  1.0  -0.0796
  C  C780  1  0.462600  0.068580  0.026500  1.0  0.0184
  C  C781  1  0.631500  0.257700  0.385300  1.0  0.1311
  C  C782  1  0.650800  0.257600  0.542600  1.0  0.1113
  C  C783  1  0.522200  0.295550  0.540000  1.0  0.1143
  C  C784  1  0.505400  0.220460  0.425800  1.0  0.1459
  C  C785  1  0.519700  0.297920  0.417200  1.0  0.0379
  C  C786  1  0.624900  0.316900  0.471200  1.0  0.139
  C  C787  1  0.620500  0.200200  0.458800  1.0  0.1925
  C  C788  1  0.542600  0.216500  0.546900  1.0  0.1275
  C  C789  1  0.245400  0.462700  0.706500  1.0  0.023
  C  C790  1  0.108400  0.500590  0.818900  1.0  0.1054
  C  C791  1  0.220100  0.466800  0.824800  1.0  0.1177
  C  C792  1  0.134700  0.438700  0.745200  1.0  0.1012
  C  C793  1  0.812600  0.268500  0.375600  1.0  -0.069
  C  C794  1  0.832700  0.228500  0.351300  1.0  0.0647
  C  C795  1  0.764000  0.334900  0.349800  1.0  -0.0084
  C  C796  1  0.726700  0.359100  0.305500  1.0  0.0942
  C  C797  1  0.844600  0.308100  0.279800  1.0  -0.0255
  C  C798  1  0.838000  0.280300  0.220600  1.0  0.0656
  C  C799  1  0.633200  0.182500  0.151000  1.0  -0.0318
  C  C800  1  0.647200  0.201800  0.217000  1.0  0.0574
  C  C801  1  0.661300  0.204300  0.045400  1.0  -0.0048
  C  C802  1  0.634800  0.246500  0.046800  1.0  0.0808
  C  C803  1  0.728600  0.153800  0.102900  1.0  -0.0318
  C  C804  1  0.763400  0.144500  0.164400  1.0  0.0683
  C  C805  1  0.482300  0.383400  0.751200  1.0  -0.0306
  C  C806  1  0.423900  0.404000  0.727800  1.0  0.0604
  C  C807  1  0.565800  0.377100  0.666000  1.0  -0.0082
  C  C808  1  0.551500  0.418200  0.637100  1.0  0.0522
  C  C809  1  0.529900  0.315700  0.721500  1.0  -0.012
  C  C810  1  0.476300  0.289000  0.736000  1.0  0.0649
  C  C811  1  0.301500  0.377700  0.499700  1.0  -0.0312
  C  C812  1  0.365300  0.364000  0.515500  1.0  0.0702
  C  C813  1  0.282400  0.450000  0.531500  1.0  -0.0398
  C  C814  1  0.351700  0.464100  0.514300  1.0  0.0862
  C  C815  1  0.205800  0.399300  0.563100  1.0  -0.0005
  C  C816  1  0.198700  0.359200  0.596200  1.0  0.0705
  C  C817  1  0.935200  0.420430  0.857700  1.0  0.0905
  C  C818  1  0.997700  0.402900  0.869200  1.0  -0.0622
  C  C819  1  0.133700  0.412930  0.971900  1.0  0.0919
  C  C820  1  0.091100  0.397900  0.923700  1.0  0.0112
  C  C821  1  0.991100  0.398400  0.986100  1.0  -0.0788
  C  C822  1  0.962600  0.431420  0.026500  1.0  0.0184
  C  C823  1  0.868500  0.242300  0.885300  1.0  0.1305
  C  C824  1  0.849200  0.242400  0.042600  1.0  0.1093
  C  C825  1  0.977800  0.204450  0.040000  1.0  0.1158
  C  C826  1  0.994600  0.279540  0.925800  1.0  0.146
  C  C827  1  0.980300  0.202080  0.917200  1.0  0.0392
  C  C828  1  0.875100  0.183100  0.971200  1.0  0.1386
  C  C829  1  0.879500  0.299800  0.958800  1.0  0.1909
  C  C830  1  0.957400  0.283500  0.046900  1.0  0.1272
  C  C831  1  0.254600  0.037300  0.206500  1.0  0.0208
  C  C832  1  0.391600  0.999410  0.318900  1.0  0.1046
  C  C833  1  0.279900  0.033200  0.324800  1.0  0.116
  C  C834  1  0.365300  0.061300  0.245200  1.0  0.1033
  C  C835  1  0.687400  0.231500  0.875600  1.0  -0.0691
  C  C836  1  0.667300  0.271500  0.851300  1.0  0.0637
  C  C837  1  0.736000  0.165100  0.849800  1.0  -0.0093
  C  C838  1  0.773300  0.140900  0.805500  1.0  0.093
  C  C839  1  0.655400  0.191900  0.779800  1.0  -0.0275
  C  C840  1  0.662000  0.219700  0.720600  1.0  0.0664
  C  C841  1  0.866800  0.317500  0.651000  1.0  -0.0352
  C  C842  1  0.852800  0.298200  0.717000  1.0  0.0565
  C  C843  1  0.838700  0.295700  0.545400  1.0  -0.0054
  C  C844  1  0.865200  0.253500  0.546800  1.0  0.0827
  C  C845  1  0.771400  0.346200  0.602900  1.0  -0.0317
  C  C846  1  0.736600  0.355500  0.664400  1.0  0.0681
  C  C847  1  0.017700  0.116600  0.251200  1.0  -0.0307
  C  C848  1  0.076100  0.096000  0.227800  1.0  0.0613
  C  C849  1  0.934200  0.122900  0.166000  1.0  -0.0119
  C  C850  1  0.948500  0.081800  0.137100  1.0  0.0535
  C  C851  1  0.970100  0.184300  0.221500  1.0  -0.0135
  C  C852  1  0.023700  0.211000  0.236000  1.0  0.0644
  C  C853  1  0.198500  0.122300  0.999700  1.0  -0.0302
  C  C854  1  0.134700  0.136000  0.015500  1.0  0.0718
  C  C855  1  0.217600  0.050000  0.031500  1.0  -0.039
  C  C856  1  0.148300  0.035900  0.014300  1.0  0.0888
  C  C857  1  0.294200  0.100700  0.063100  1.0  -1e-04
  C  C858  1  0.301300  0.140800  0.096200  1.0  0.072
  C  C859  1  0.564800  0.079570  0.357700  1.0  0.0904
  C  C860  1  0.502300  0.097100  0.369200  1.0  -0.0618
  C  C861  1  0.366300  0.087070  0.471900  1.0  0.0944
  C  C862  1  0.408900  0.102100  0.423700  1.0  0.014
  C  C863  1  0.508900  0.101600  0.486100  1.0  -0.0801
  C  C864  1  0.537400  0.068580  0.526500  1.0  0.0209
  C  C865  1  0.631500  0.742300  0.114700  1.0  0.1308
  C  C866  1  0.650800  0.742400  0.957400  1.0  0.1112
  C  C867  1  0.522200  0.704450  0.960000  1.0  0.1148
  C  C868  1  0.505400  0.779540  0.074200  1.0  0.1457
  C  C869  1  0.519700  0.702080  0.082800  1.0  0.0375
  C  C870  1  0.624900  0.683100  0.028800  1.0  0.1385
  C  C871  1  0.620500  0.799800  0.041200  1.0  0.1921
  C  C872  1  0.542600  0.783500  0.953100  1.0  0.1265
  C  C873  1  0.245400  0.537300  0.793500  1.0  0.0247
  C  C874  1  0.108400  0.499410  0.681100  1.0  0.1056
  C  C875  1  0.220100  0.533200  0.675200  1.0  0.1168
  C  C876  1  0.134700  0.561300  0.754800  1.0  0.1021
  C  C877  1  0.812600  0.731500  0.124400  1.0  -0.0663
  C  C878  1  0.832700  0.771500  0.148700  1.0  0.0646
  C  C879  1  0.764000  0.665100  0.150200  1.0  -0.0092
  C  C880  1  0.726700  0.640900  0.194500  1.0  0.0908
  C  C881  1  0.844600  0.691900  0.220200  1.0  -0.0274
  C  C882  1  0.838000  0.719700  0.279400  1.0  0.0668
  C  C883  1  0.633200  0.817500  0.349000  1.0  -0.0316
  C  C884  1  0.647200  0.798200  0.283000  1.0  0.0573
  C  C885  1  0.661300  0.795700  0.454600  1.0  -0.0062
  C  C886  1  0.634800  0.753500  0.453200  1.0  0.083
  C  C887  1  0.728600  0.846200  0.397100  1.0  -0.0318
  C  C888  1  0.763400  0.855500  0.335600  1.0  0.0668
  C  C889  1  0.482300  0.616600  0.748800  1.0  -0.0286
  C  C890  1  0.423900  0.596000  0.772200  1.0  0.0636
  C  C891  1  0.565800  0.622900  0.834000  1.0  -0.009
  C  C892  1  0.551500  0.581800  0.862900  1.0  0.0529
  C  C893  1  0.529900  0.684300  0.778500  1.0  -0.0117
  C  C894  1  0.476300  0.711000  0.764000  1.0  0.0658
  C  C895  1  0.301500  0.622300  0.000300  1.0  -0.0314
  C  C896  1  0.365300  0.636000  0.984500  1.0  0.0667
  C  C897  1  0.282400  0.550000  0.968500  1.0  -0.0394
  C  C898  1  0.351700  0.535900  0.985700  1.0  0.0853
  C  C899  1  0.205800  0.600700  0.936900  1.0  -1e-04
  C  C900  1  0.198700  0.640800  0.903800  1.0  0.0706
  C  C901  1  0.935200  0.579570  0.642300  1.0  0.0901
  C  C902  1  0.997700  0.597100  0.630800  1.0  -0.0656
  C  C903  1  0.133700  0.587070  0.528100  1.0  0.0913
  C  C904  1  0.091100  0.602100  0.576300  1.0  0.012
  C  C905  1  0.991100  0.601600  0.513900  1.0  -0.0797
  C  C906  1  0.962600  0.568580  0.473500  1.0  0.0208
  C  C907  1  0.868500  0.757700  0.614700  1.0  0.1314
  C  C908  1  0.849200  0.757600  0.457400  1.0  0.1096
  C  C909  1  0.977800  0.795550  0.460000  1.0  0.1158
  C  C910  1  0.994600  0.720460  0.574200  1.0  0.146
  C  C911  1  0.980300  0.797920  0.582800  1.0  0.0378
  C  C912  1  0.875100  0.816900  0.528800  1.0  0.1398
  C  C913  1  0.879500  0.700200  0.541200  1.0  0.1901
  C  C914  1  0.957400  0.716500  0.453100  1.0  0.1265
  C  C915  1  0.254600  0.962700  0.293500  1.0  0.0223
  C  C916  1  0.391600  0.000590  0.181100  1.0  0.1052
  C  C917  1  0.279900  0.966800  0.175200  1.0  0.1159
  C  C918  1  0.365300  0.938700  0.254800  1.0  0.1035
  C  C919  1  0.687400  0.768500  0.624400  1.0  -0.067
  C  C920  1  0.667300  0.728500  0.648700  1.0  0.0651
  C  C921  1  0.736000  0.834900  0.650200  1.0  -0.0099
  C  C922  1  0.773300  0.859100  0.694500  1.0  0.0929
  C  C923  1  0.655400  0.808100  0.720200  1.0  -0.0276
  C  C924  1  0.662000  0.780300  0.779400  1.0  0.0652
  C  C925  1  0.866800  0.682500  0.849000  1.0  -0.0347
  C  C926  1  0.852800  0.701800  0.783000  1.0  0.0567
  C  C927  1  0.838700  0.704300  0.954600  1.0  -0.006
  C  C928  1  0.865200  0.746500  0.953200  1.0  0.0845
  C  C929  1  0.771400  0.653800  0.897100  1.0  -0.032
  C  C930  1  0.736600  0.644500  0.835600  1.0  0.0669
  C  C931  1  0.017700  0.883400  0.248800  1.0  -0.0282
  C  C932  1  0.076100  0.904000  0.272200  1.0  0.0646
  C  C933  1  0.934200  0.877100  0.334000  1.0  -0.0106
  C  C934  1  0.948500  0.918200  0.362900  1.0  0.0512
  C  C935  1  0.970100  0.815700  0.278500  1.0  -0.0142
  C  C936  1  0.023700  0.789000  0.264000  1.0  0.0638
  C  C937  1  0.198500  0.877700  0.500300  1.0  -0.0314
  C  C938  1  0.134700  0.864000  0.484500  1.0  0.0702
  C  C939  1  0.217600  0.950000  0.468500  1.0  -0.0413
  C  C940  1  0.148300  0.964100  0.485700  1.0  0.0844
  C  C941  1  0.294200  0.899300  0.436900  1.0  0.0009
  C  C942  1  0.301300  0.859200  0.403800  1.0  0.0695
  C  C943  1  0.564800  0.920430  0.142300  1.0  0.0891
  C  C944  1  0.502300  0.902900  0.130800  1.0  -0.0617
  C  C945  1  0.366300  0.912930  0.028100  1.0  0.0916
  C  C946  1  0.408900  0.897900  0.076300  1.0  0.0135
  C  C947  1  0.508900  0.898400  0.013900  1.0  -0.0798
  C  C948  1  0.537400  0.931420  0.973500  1.0  0.023
  N  N949  1  0.338500  0.742450  0.658100  1.0  -0.3765
  N  N950  1  0.308200  0.741190  0.419000  1.0  -0.3864
  N  N951  1  0.506200  0.683620  0.426000  1.0  -0.3896
  N  N952  1  0.535200  0.797300  0.597600  1.0  -0.465
  N  N953  1  0.515100  0.678700  0.610100  1.0  -0.4564
  N  N954  1  0.349000  0.651210  0.526200  1.0  -0.4447
  N  N955  1  0.354600  0.830290  0.551000  1.0  -0.4513
  N  N956  1  0.475700  0.803380  0.414300  1.0  -0.4761
  N  N957  1  0.715700  0.560310  0.319800  1.0  -0.5387
  N  N958  1  0.923800  0.501470  0.134900  1.0  -0.472
  N  N959  1  0.758200  0.548640  0.128700  1.0  -0.4388
  N  N960  1  0.891400  0.593830  0.259900  1.0  -0.4494
  N  N961  1  0.209900  0.700570  0.677600  1.0  -0.138
  N  N962  1  0.312900  0.808180  0.891500  1.0  -0.2579
  N  N963  1  0.488700  0.641350  0.299900  1.0  -0.1465
  N  N964  1  0.726300  0.592630  0.451600  1.0  -0.1574
  N  N965  1  0.970600  0.582350  0.067100  1.0  -0.2578
  N  N966  1  0.161500  0.757550  0.158100  1.0  -0.3763
  N  N967  1  0.191800  0.758810  0.919000  1.0  -0.3872
  N  N968  1  0.993800  0.816380  0.926000  1.0  -0.3886
  N  N969  1  0.964800  0.702700  0.097600  1.0  -0.4651
  N  N970  1  0.984900  0.821300  0.110100  1.0  -0.4544
  N  N971  1  0.151000  0.848790  0.026200  1.0  -0.4459
  N  N972  1  0.145400  0.669710  0.051000  1.0  -0.4504
  N  N973  1  0.024300  0.696620  0.914300  1.0  -0.4763
  N  N974  1  0.784300  0.939690  0.819800  1.0  -0.5373
  N  N975  1  0.576200  0.998530  0.634900  1.0  -0.4709
  N  N976  1  0.741800  0.951360  0.628700  1.0  -0.4379
  N  N977  1  0.608600  0.906170  0.759900  1.0  -0.4468
  N  N978  1  0.290100  0.799430  0.177600  1.0  -0.1372
  N  N979  1  0.187100  0.691820  0.391500  1.0  -0.2594
  N  N980  1  0.011300  0.858650  0.799900  1.0  -0.1465
  N  N981  1  0.773700  0.907370  0.951600  1.0  -0.1599
  N  N982  1  0.529400  0.917650  0.567100  1.0  -0.2583
  N  N983  1  0.338500  0.257550  0.841900  1.0  -0.3768
  N  N984  1  0.308200  0.258810  0.081000  1.0  -0.387
  N  N985  1  0.506200  0.316380  0.074000  1.0  -0.39
  N  N986  1  0.535200  0.202700  0.902400  1.0  -0.4655
  N  N987  1  0.515100  0.321300  0.889900  1.0  -0.4566
  N  N988  1  0.349000  0.348790  0.973800  1.0  -0.4454
  N  N989  1  0.354600  0.169710  0.949000  1.0  -0.4504
  N  N990  1  0.475700  0.196620  0.085700  1.0  -0.4742
  N  N991  1  0.715700  0.439690  0.180200  1.0  -0.5377
  N  N992  1  0.923800  0.498530  0.365100  1.0  -0.4726
  N  N993  1  0.758200  0.451360  0.371300  1.0  -0.439
  N  N994  1  0.891400  0.406170  0.240100  1.0  -0.4479
  N  N995  1  0.209900  0.299430  0.822400  1.0  -0.1364
  N  N996  1  0.312900  0.191820  0.608500  1.0  -0.2584
  N  N997  1  0.488700  0.358650  0.200100  1.0  -0.1458
  N  N998  1  0.726300  0.407370  0.048400  1.0  -0.1567
  N  N999  1  0.970600  0.417650  0.432900  1.0  -0.2574
  N  N1000  1  0.161500  0.242450  0.341900  1.0  -0.3768
  N  N1001  1  0.191800  0.241190  0.581000  1.0  -0.3869
  N  N1002  1  0.993800  0.183620  0.574000  1.0  -0.3884
  N  N1003  1  0.964800  0.297300  0.402400  1.0  -0.4664
  N  N1004  1  0.984900  0.178700  0.389900  1.0  -0.455
  N  N1005  1  0.151000  0.151210  0.473800  1.0  -0.4436
  N  N1006  1  0.145400  0.330290  0.449000  1.0  -0.4522
  N  N1007  1  0.024300  0.303380  0.585700  1.0  -0.478
  N  N1008  1  0.784300  0.060310  0.680200  1.0  -0.5384
  N  N1009  1  0.576200  0.001470  0.865100  1.0  -0.4729
  N  N1010  1  0.741800  0.048640  0.871300  1.0  -0.4383
  N  N1011  1  0.608600  0.093830  0.740100  1.0  -0.4495
  N  N1012  1  0.290100  0.200570  0.322400  1.0  -0.1358
  N  N1013  1  0.187100  0.308180  0.108500  1.0  -0.2578
  N  N1014  1  0.011300  0.141350  0.700100  1.0  -0.1459
  N  N1015  1  0.773700  0.092630  0.548400  1.0  -0.1588
  N  N1016  1  0.529400  0.082350  0.932900  1.0  -0.2592
  N  N1017  1  0.661500  0.257550  0.341900  1.0  -0.3772
  N  N1018  1  0.691800  0.258810  0.581000  1.0  -0.3869
  N  N1019  1  0.493800  0.316380  0.574000  1.0  -0.3893
  N  N1020  1  0.464800  0.202700  0.402400  1.0  -0.4659
  N  N1021  1  0.484900  0.321300  0.389900  1.0  -0.4546
  N  N1022  1  0.651000  0.348790  0.473800  1.0  -0.4459
  N  N1023  1  0.645400  0.169710  0.449000  1.0  -0.4508
  N  N1024  1  0.524300  0.196620  0.585700  1.0  -0.4757
  N  N1025  1  0.284300  0.439690  0.680200  1.0  -0.5383
  N  N1026  1  0.076200  0.498530  0.865100  1.0  -0.4722
  N  N1027  1  0.241800  0.451360  0.871300  1.0  -0.439
  N  N1028  1  0.108600  0.406170  0.740100  1.0  -0.4486
  N  N1029  1  0.790100  0.299430  0.322400  1.0  -0.1355
  N  N1030  1  0.687100  0.191820  0.108500  1.0  -0.259
  N  N1031  1  0.511300  0.358650  0.700100  1.0  -0.1456
  N  N1032  1  0.273700  0.407370  0.548400  1.0  -0.1592
  N  N1033  1  0.029400  0.417650  0.932900  1.0  -0.2587
  N  N1034  1  0.838500  0.242450  0.841900  1.0  -0.3758
  N  N1035  1  0.808200  0.241190  0.081000  1.0  -0.3867
  N  N1036  1  0.006200  0.183620  0.074000  1.0  -0.3888
  N  N1037  1  0.035200  0.297300  0.902400  1.0  -0.4667
  N  N1038  1  0.015100  0.178700  0.889900  1.0  -0.4564
  N  N1039  1  0.849000  0.151210  0.973800  1.0  -0.444
  N  N1040  1  0.854600  0.330290  0.949000  1.0  -0.4515
  N  N1041  1  0.975700  0.303380  0.085700  1.0  -0.4765
  N  N1042  1  0.215700  0.060310  0.180200  1.0  -0.5383
  N  N1043  1  0.423800  0.001470  0.365100  1.0  -0.4736
  N  N1044  1  0.258200  0.048640  0.371300  1.0  -0.4383
  N  N1045  1  0.391400  0.093830  0.240100  1.0  -0.4494
  N  N1046  1  0.709900  0.200570  0.822400  1.0  -0.1365
  N  N1047  1  0.812900  0.308180  0.608500  1.0  -0.2572
  N  N1048  1  0.988700  0.141350  0.200100  1.0  -0.1463
  N  N1049  1  0.226300  0.092630  0.048400  1.0  -0.1566
  N  N1050  1  0.470600  0.082350  0.432900  1.0  -0.258
  N  N1051  1  0.661500  0.742450  0.158100  1.0  -0.3763
  N  N1052  1  0.691800  0.741190  0.919000  1.0  -0.3871
  N  N1053  1  0.493800  0.683620  0.926000  1.0  -0.3877
  N  N1054  1  0.464800  0.797300  0.097600  1.0  -0.4648
  N  N1055  1  0.484900  0.678700  0.110100  1.0  -0.4551
  N  N1056  1  0.651000  0.651210  0.026200  1.0  -0.444
  N  N1057  1  0.645400  0.830290  0.051000  1.0  -0.4518
  N  N1058  1  0.524300  0.803380  0.914300  1.0  -0.4775
  N  N1059  1  0.284300  0.560310  0.819800  1.0  -0.5387
  N  N1060  1  0.076200  0.501470  0.634900  1.0  -0.4705
  N  N1061  1  0.241800  0.548640  0.628700  1.0  -0.4379
  N  N1062  1  0.108600  0.593830  0.759900  1.0  -0.4476
  N  N1063  1  0.790100  0.700570  0.177600  1.0  -0.1376
  N  N1064  1  0.687100  0.808180  0.391500  1.0  -0.2584
  N  N1065  1  0.511300  0.641350  0.799900  1.0  -0.1463
  N  N1066  1  0.273700  0.592630  0.951600  1.0  -0.1594
  N  N1067  1  0.029400  0.582350  0.567100  1.0  -0.259
  N  N1068  1  0.838500  0.757550  0.658100  1.0  -0.3768
  N  N1069  1  0.808200  0.758810  0.419000  1.0  -0.3866
  N  N1070  1  0.006200  0.816380  0.426000  1.0  -0.3905
  N  N1071  1  0.035200  0.702700  0.597600  1.0  -0.4645
  N  N1072  1  0.015100  0.821300  0.610100  1.0  -0.4562
  N  N1073  1  0.849000  0.848790  0.526200  1.0  -0.4459
  N  N1074  1  0.854600  0.669710  0.551000  1.0  -0.4501
  N  N1075  1  0.975700  0.696620  0.414300  1.0  -0.4748
  N  N1076  1  0.215700  0.939690  0.319800  1.0  -0.5366
  N  N1077  1  0.423800  0.998530  0.134900  1.0  -0.4714
  N  N1078  1  0.258200  0.951360  0.128700  1.0  -0.4391
  N  N1079  1  0.391400  0.906170  0.259900  1.0  -0.4485
  N  N1080  1  0.709900  0.799430  0.677600  1.0  -0.1378
  N  N1081  1  0.812900  0.691820  0.891500  1.0  -0.2589
  N  N1082  1  0.988700  0.858650  0.299900  1.0  -0.1465
  N  N1083  1  0.226300  0.907370  0.451600  1.0  -0.1574
  N  N1084  1  0.470600  0.917650  0.067100  1.0  -0.257
  O  O1085  1  0.224700  0.719040  0.799900  1.0  -0.536
  O  O1086  1  0.214500  0.787500  0.693000  1.0  -0.5425
  O  O1087  1  0.321600  0.665300  0.723400  1.0  -0.5526
  O  O1088  1  0.328890  0.758460  0.792500  1.0  -0.5199
  O  O1089  1  0.319100  0.725020  0.931700  1.0  -0.5569
  O  O1090  1  0.205300  0.820260  0.816100  1.0  -0.5423
  O  O1091  1  0.614500  0.622180  0.309400  1.0  -0.5174
  O  O1092  1  0.563800  0.714070  0.313200  1.0  -0.4704
  O  O1093  1  0.494300  0.595270  0.407600  1.0  -0.5907
  O  O1094  1  0.633100  0.648380  0.418500  1.0  -0.5413
  O  O1095  1  0.614300  0.541590  0.426300  1.0  -0.6746
  O  O1096  1  0.763300  0.643680  0.351700  1.0  -0.4363
  O  O1097  1  0.071800  0.536000  0.137800  1.0  -0.5837
  O  O1098  1  0.867100  0.542550  0.020600  1.0  -0.598
  O  O1099  1  0.005700  0.533530  0.966300  1.0  -0.6372
  O  O1100  1  0.275300  0.780960  0.299900  1.0  -0.5346
  O  O1101  1  0.285500  0.712500  0.193000  1.0  -0.5418
  O  O1102  1  0.178400  0.834700  0.223400  1.0  -0.5509
  O  O1103  1  0.171110  0.741540  0.292500  1.0  -0.5207
  O  O1104  1  0.180900  0.774980  0.431700  1.0  -0.5559
  O  O1105  1  0.294700  0.679740  0.316100  1.0  -0.542
  O  O1106  1  0.885500  0.877820  0.809400  1.0  -0.5165
  O  O1107  1  0.936200  0.785930  0.813200  1.0  -0.469
  O  O1108  1  0.005700  0.904730  0.907600  1.0  -0.5878
  O  O1109  1  0.866900  0.851620  0.918500  1.0  -0.5417
  O  O1110  1  0.885700  0.958410  0.926300  1.0  -0.6759
  O  O1111  1  0.736700  0.856320  0.851700  1.0  -0.4346
  O  O1112  1  0.428200  0.964000  0.637800  1.0  -0.5834
  O  O1113  1  0.632900  0.957450  0.520600  1.0  -0.5957
  O  O1114  1  0.494300  0.966470  0.466300  1.0  -0.6332
  O  O1115  1  0.224700  0.280960  0.700100  1.0  -0.5355
  O  O1116  1  0.214500  0.212500  0.807000  1.0  -0.541
  O  O1117  1  0.321600  0.334700  0.776600  1.0  -0.5509
  O  O1118  1  0.328890  0.241540  0.707500  1.0  -0.5207
  O  O1119  1  0.319100  0.274980  0.568300  1.0  -0.5569
  O  O1120  1  0.205300  0.179740  0.683900  1.0  -0.541
  O  O1121  1  0.614500  0.377820  0.190600  1.0  -0.5162
  O  O1122  1  0.563800  0.285930  0.186800  1.0  -0.4683
  O  O1123  1  0.494300  0.404730  0.092400  1.0  -0.5876
  O  O1124  1  0.633100  0.351620  0.081500  1.0  -0.5415
  O  O1125  1  0.614300  0.458410  0.073700  1.0  -0.6772
  O  O1126  1  0.763300  0.356320  0.148300  1.0  -0.4351
  O  O1127  1  0.071800  0.464000  0.362200  1.0  -0.5871
  O  O1128  1  0.867100  0.457450  0.479400  1.0  -0.598
  O  O1129  1  0.005700  0.466470  0.533700  1.0  -0.6372
  O  O1130  1  0.275300  0.219040  0.200100  1.0  -0.5339
  O  O1131  1  0.285500  0.287500  0.307000  1.0  -0.5425
  O  O1132  1  0.178400  0.165300  0.276600  1.0  -0.5519
  O  O1133  1  0.171110  0.258460  0.207500  1.0  -0.5201
  O  O1134  1  0.180900  0.225020  0.068300  1.0  -0.5559
  O  O1135  1  0.294700  0.320260  0.183900  1.0  -0.5426
  O  O1136  1  0.885500  0.122180  0.690600  1.0  -0.5169
  O  O1137  1  0.936200  0.214070  0.686800  1.0  -0.4668
  O  O1138  1  0.005700  0.095270  0.592400  1.0  -0.5847
  O  O1139  1  0.866900  0.148380  0.581500  1.0  -0.542
  O  O1140  1  0.885700  0.041590  0.573700  1.0  -0.6751
  O  O1141  1  0.736700  0.143680  0.648300  1.0  -0.4392
  O  O1142  1  0.428200  0.036000  0.862200  1.0  -0.586
  O  O1143  1  0.632900  0.042550  0.979400  1.0  -0.6011
  O  O1144  1  0.494300  0.033530  0.033700  1.0  -0.6349
  O  O1145  1  0.775300  0.280960  0.200100  1.0  -0.5336
  O  O1146  1  0.785500  0.212500  0.307000  1.0  -0.541
  O  O1147  1  0.678400  0.334700  0.276600  1.0  -0.5516
  O  O1148  1  0.671110  0.241540  0.207500  1.0  -0.5214
  O  O1149  1  0.680900  0.274980  0.068300  1.0  -0.5558
  O  O1150  1  0.794700  0.179740  0.183900  1.0  -0.5434
  O  O1151  1  0.385500  0.377820  0.690600  1.0  -0.5172
  O  O1152  1  0.436200  0.285930  0.686800  1.0  -0.4665
  O  O1153  1  0.505700  0.404730  0.592400  1.0  -0.5852
  O  O1154  1  0.366900  0.351620  0.581500  1.0  -0.5433
  O  O1155  1  0.385700  0.458410  0.573700  1.0  -0.678
  O  O1156  1  0.236700  0.356320  0.648300  1.0  -0.4373
  O  O1157  1  0.928200  0.464000  0.862200  1.0  -0.5879
  O  O1158  1  0.132900  0.457450  0.979400  1.0  -0.5992
  O  O1159  1  0.994300  0.466470  0.033700  1.0  -0.6352
  O  O1160  1  0.724700  0.219040  0.700100  1.0  -0.5362
  O  O1161  1  0.714500  0.287500  0.807000  1.0  -0.5427
  O  O1162  1  0.821600  0.165300  0.776600  1.0  -0.5512
  O  O1163  1  0.828890  0.258460  0.707500  1.0  -0.5196
  O  O1164  1  0.819100  0.225020  0.568300  1.0  -0.5569
  O  O1165  1  0.705300  0.320260  0.683900  1.0  -0.5411
  O  O1166  1  0.114500  0.122180  0.190600  1.0  -0.5179
  O  O1167  1  0.063800  0.214070  0.186800  1.0  -0.4674
  O  O1168  1  0.994300  0.095270  0.092400  1.0  -0.5885
  O  O1169  1  0.133100  0.148380  0.081500  1.0  -0.5428
  O  O1170  1  0.114300  0.041590  0.073700  1.0  -0.6746
  O  O1171  1  0.263300  0.143680  0.148300  1.0  -0.4372
  O  O1172  1  0.571800  0.036000  0.362200  1.0  -0.5838
  O  O1173  1  0.367100  0.042550  0.479400  1.0  -0.5976
  O  O1174  1  0.505700  0.033530  0.533700  1.0  -0.6382
  O  O1175  1  0.775300  0.719040  0.299900  1.0  -0.5343
  O  O1176  1  0.785500  0.787500  0.193000  1.0  -0.5428
  O  O1177  1  0.678400  0.665300  0.223400  1.0  -0.5508
  O  O1178  1  0.671110  0.758460  0.292500  1.0  -0.5197
  O  O1179  1  0.680900  0.725020  0.431700  1.0  -0.5562
  O  O1180  1  0.794700  0.820260  0.316100  1.0  -0.5408
  O  O1181  1  0.385500  0.622180  0.809400  1.0  -0.5187
  O  O1182  1  0.436200  0.714070  0.813200  1.0  -0.4698
  O  O1183  1  0.505700  0.595270  0.907600  1.0  -0.5878
  O  O1184  1  0.366900  0.648380  0.918500  1.0  -0.5431
  O  O1185  1  0.385700  0.541590  0.926300  1.0  -0.6743
  O  O1186  1  0.236700  0.643680  0.851700  1.0  -0.4386
  O  O1187  1  0.928200  0.536000  0.637800  1.0  -0.5861
  O  O1188  1  0.132900  0.542550  0.520600  1.0  -0.5979
  O  O1189  1  0.994300  0.533530  0.466300  1.0  -0.6342
  O  O1190  1  0.724700  0.780960  0.799900  1.0  -0.5363
  O  O1191  1  0.714500  0.712500  0.693000  1.0  -0.5415
  O  O1192  1  0.821600  0.834700  0.723400  1.0  -0.5516
  O  O1193  1  0.828890  0.741540  0.792500  1.0  -0.5207
  O  O1194  1  0.819100  0.774980  0.931700  1.0  -0.557
  O  O1195  1  0.705300  0.679740  0.816100  1.0  -0.5435
  O  O1196  1  0.114500  0.877820  0.309400  1.0  -0.5179
  O  O1197  1  0.063800  0.785930  0.313200  1.0  -0.4707
  O  O1198  1  0.994300  0.904730  0.407600  1.0  -0.5892
  O  O1199  1  0.133100  0.851620  0.418500  1.0  -0.5423
  O  O1200  1  0.114300  0.958410  0.426300  1.0  -0.6763
  O  O1201  1  0.263300  0.856320  0.351700  1.0  -0.4324
  O  O1202  1  0.571800  0.964000  0.137800  1.0  -0.5824
  O  O1203  1  0.367100  0.957450  0.020600  1.0  -0.5963
  O  O1204  1  0.505700  0.966470  0.966300  1.0  -0.6347
