# generated using pymatgen
data_CuH16C28(NO2)2
_symmetry_space_group_name_H-M   'P 1'
_cell_length_a   38.34200000
_cell_length_b   39.70700000
_cell_length_c   39.70700000
_cell_angle_alpha   90.00000000
_cell_angle_beta   90.00000000
_cell_angle_gamma   90.00000000
_symmetry_Int_Tables_number   1
_chemical_formula_structural   CuH16C28(NO2)2
_chemical_formula_sum   'Cu24 H384 C672 N48 O96'
_cell_volume   60451.75514236
_cell_formula_units_Z   24
loop_
 _symmetry_equiv_pos_site_id
 _symmetry_equiv_pos_as_xyz
  1  'x, y, z'
loop_
 _atom_site_type_symbol
 _atom_site_label
 _atom_site_symmetry_multiplicity
 _atom_site_fract_x
 _atom_site_fract_y
 _atom_site_fract_z
 _atom_site_occupancy
 _atom_site_charge
  Cu  Cu1  1  0.046780  0.250000  0.250000  1.0  0.8997
  Cu  Cu2  1  0.116290  0.250000  0.250000  1.0  0.9038
  Cu  Cu3  1  0.546780  0.250000  0.250000  1.0  0.9055
  Cu  Cu4  1  0.616290  0.250000  0.250000  1.0  0.8926
  Cu  Cu5  1  0.316220  0.460400  0.750000  1.0  0.9211
  Cu  Cu6  1  0.318460  0.527500  0.750000  1.0  0.9048
  Cu  Cu7  1  0.316220  0.039600  0.750000  1.0  0.9204
  Cu  Cu8  1  0.318460  0.972500  0.750000  1.0  0.9056
  Cu  Cu9  1  0.816220  0.750000  0.460400  1.0  0.9199
  Cu  Cu10  1  0.818460  0.750000  0.527500  1.0  0.9045
  Cu  Cu11  1  0.816220  0.750000  0.039600  1.0  0.9188
  Cu  Cu12  1  0.818460  0.750000  0.972500  1.0  0.9043
  Cu  Cu13  1  0.953220  0.750000  0.750000  1.0  0.9006
  Cu  Cu14  1  0.883710  0.750000  0.750000  1.0  0.9036
  Cu  Cu15  1  0.453220  0.750000  0.750000  1.0  0.906
  Cu  Cu16  1  0.383710  0.750000  0.750000  1.0  0.8935
  Cu  Cu17  1  0.683780  0.539600  0.250000  1.0  0.9205
  Cu  Cu18  1  0.681540  0.472500  0.250000  1.0  0.9061
  Cu  Cu19  1  0.683780  0.960400  0.250000  1.0  0.9218
  Cu  Cu20  1  0.681540  0.027500  0.250000  1.0  0.9047
  Cu  Cu21  1  0.183780  0.250000  0.960400  1.0  0.9202
  Cu  Cu22  1  0.181540  0.250000  0.027500  1.0  0.9042
  Cu  Cu23  1  0.183780  0.250000  0.539600  1.0  0.9192
  Cu  Cu24  1  0.181540  0.250000  0.472500  1.0  0.9046
  H  H25  1  0.027900  0.463400  0.423600  1.0  0.1256
  H  H26  1  0.028500  0.419700  0.384600  1.0  0.1215
  H  H27  1  0.125800  0.394600  0.413600  1.0  0.13
  H  H28  1  0.124300  0.437100  0.452900  1.0  0.118
  H  H29  1  0.024900  0.363000  0.365700  1.0  0.1189
  H  H30  1  0.029900  0.320000  0.325300  1.0  0.1286
  H  H31  1  0.132600  0.336300  0.323200  1.0  0.1106
  H  H32  1  0.127300  0.378300  0.362900  1.0  0.105
  H  H33  1  0.142300  0.455600  0.535200  1.0  0.1073
  H  H34  1  0.183400  0.454900  0.578000  1.0  0.1241
  H  H35  1  0.140700  0.541100  0.611300  1.0  0.1324
  H  H36  1  0.105500  0.543600  0.565900  1.0  0.1223
  H  H37  1  0.191500  0.448700  0.629000  1.0  0.1187
  H  H38  1  0.233400  0.444000  0.669700  1.0  0.122
  H  H39  1  0.242200  0.546200  0.673300  1.0  0.1295
  H  H40  1  0.201000  0.548700  0.630100  1.0  0.1116
  H  H41  1  0.038400  0.574500  0.532700  1.0  0.1179
  H  H42  1  0.996500  0.618100  0.533400  1.0  0.1463
  H  H43  1  0.952400  0.573600  0.451600  1.0  0.108
  H  H44  1  0.992500  0.530400  0.451900  1.0  0.1339
  H  H45  1  0.940200  0.631100  0.540900  1.0  0.1263
  H  H46  1  0.900300  0.675300  0.542300  1.0  0.1053
  H  H47  1  0.892400  0.674500  0.444000  1.0  0.1287
  H  H48  1  0.933400  0.630900  0.437800  1.0  0.1243
  H  H49  1  0.027900  0.036600  0.076400  1.0  0.1256
  H  H50  1  0.028500  0.080300  0.115400  1.0  0.123
  H  H51  1  0.125800  0.105400  0.086400  1.0  0.1298
  H  H52  1  0.124300  0.062900  0.047100  1.0  0.1181
  H  H53  1  0.024900  0.137000  0.134300  1.0  0.1191
  H  H54  1  0.029900  0.180000  0.174700  1.0  0.1282
  H  H55  1  0.132600  0.163700  0.176800  1.0  0.1101
  H  H56  1  0.127300  0.121700  0.137100  1.0  0.1048
  H  H57  1  0.142300  0.044400  0.964800  1.0  0.107
  H  H58  1  0.183400  0.045100  0.922000  1.0  0.1239
  H  H59  1  0.140700  0.958900  0.888700  1.0  0.1318
  H  H60  1  0.105500  0.956400  0.934100  1.0  0.1218
  H  H61  1  0.191500  0.051300  0.871000  1.0  0.1193
  H  H62  1  0.233400  0.056000  0.830300  1.0  0.1228
  H  H63  1  0.242200  0.953800  0.826700  1.0  0.1289
  H  H64  1  0.201000  0.951300  0.869900  1.0  0.1113
  H  H65  1  0.038400  0.925500  0.967300  1.0  0.1176
  H  H66  1  0.996500  0.881900  0.966600  1.0  0.1465
  H  H67  1  0.952400  0.926400  0.048400  1.0  0.108
  H  H68  1  0.992500  0.969600  0.048100  1.0  0.1339
  H  H69  1  0.940200  0.868900  0.959100  1.0  0.1264
  H  H70  1  0.900300  0.824700  0.957700  1.0  0.1058
  H  H71  1  0.892400  0.825500  0.056000  1.0  0.1281
  H  H72  1  0.933400  0.869100  0.062200  1.0  0.1255
  H  H73  1  0.527900  0.076400  0.463400  1.0  0.1259
  H  H74  1  0.528500  0.115400  0.419700  1.0  0.1224
  H  H75  1  0.625800  0.086400  0.394600  1.0  0.1301
  H  H76  1  0.624300  0.047100  0.437100  1.0  0.1194
  H  H77  1  0.524900  0.134300  0.363000  1.0  0.1193
  H  H78  1  0.529900  0.174700  0.320000  1.0  0.1277
  H  H79  1  0.632600  0.176800  0.336300  1.0  0.1105
  H  H80  1  0.627300  0.137100  0.378300  1.0  0.1039
  H  H81  1  0.642300  0.964800  0.455600  1.0  0.1084
  H  H82  1  0.683400  0.922000  0.454900  1.0  0.1235
  H  H83  1  0.640700  0.888700  0.541100  1.0  0.132
  H  H84  1  0.605500  0.934100  0.543600  1.0  0.1227
  H  H85  1  0.691500  0.871000  0.448700  1.0  0.1194
  H  H86  1  0.733400  0.830300  0.444000  1.0  0.1219
  H  H87  1  0.742200  0.826700  0.546200  1.0  0.1289
  H  H88  1  0.701000  0.869900  0.548700  1.0  0.1113
  H  H89  1  0.538400  0.967300  0.574500  1.0  0.1175
  H  H90  1  0.496500  0.966600  0.618100  1.0  0.1468
  H  H91  1  0.452400  0.048400  0.573600  1.0  0.1077
  H  H92  1  0.492500  0.048100  0.530400  1.0  0.1351
  H  H93  1  0.440200  0.959100  0.631100  1.0  0.1257
  H  H94  1  0.400300  0.957700  0.675300  1.0  0.1061
  H  H95  1  0.392400  0.056000  0.674500  1.0  0.1267
  H  H96  1  0.433400  0.062200  0.630900  1.0  0.1264
  H  H97  1  0.527900  0.423600  0.036600  1.0  0.1265
  H  H98  1  0.528500  0.384600  0.080300  1.0  0.1214
  H  H99  1  0.625800  0.413600  0.105400  1.0  0.1299
  H  H100  1  0.624300  0.452900  0.062900  1.0  0.1187
  H  H101  1  0.524900  0.365700  0.137000  1.0  0.1195
  H  H102  1  0.529900  0.325300  0.180000  1.0  0.1269
  H  H103  1  0.632600  0.323200  0.163700  1.0  0.1103
  H  H104  1  0.627300  0.362900  0.121700  1.0  0.1048
  H  H105  1  0.642300  0.535200  0.044400  1.0  0.1084
  H  H106  1  0.683400  0.578000  0.045100  1.0  0.1239
  H  H107  1  0.640700  0.611300  0.958900  1.0  0.1316
  H  H108  1  0.605500  0.565900  0.956400  1.0  0.1216
  H  H109  1  0.691500  0.629000  0.051300  1.0  0.1204
  H  H110  1  0.733400  0.669700  0.056000  1.0  0.1224
  H  H111  1  0.742200  0.673300  0.953800  1.0  0.1295
  H  H112  1  0.701000  0.630100  0.951300  1.0  0.1112
  H  H113  1  0.538400  0.532700  0.925500  1.0  0.1168
  H  H114  1  0.496500  0.533400  0.881900  1.0  0.1468
  H  H115  1  0.452400  0.451600  0.926400  1.0  0.107
  H  H116  1  0.492500  0.451900  0.969600  1.0  0.1338
  H  H117  1  0.440200  0.540900  0.868900  1.0  0.125
  H  H118  1  0.400300  0.542300  0.824700  1.0  0.1061
  H  H119  1  0.392400  0.444000  0.825500  1.0  0.1267
  H  H120  1  0.433400  0.437800  0.869100  1.0  0.1265
  H  H121  1  0.027900  0.463400  0.076400  1.0  0.126
  H  H122  1  0.028500  0.419700  0.115400  1.0  0.1231
  H  H123  1  0.125800  0.394600  0.086400  1.0  0.1299
  H  H124  1  0.124300  0.437100  0.047100  1.0  0.1183
  H  H125  1  0.024900  0.363000  0.134300  1.0  0.1191
  H  H126  1  0.029900  0.320000  0.174700  1.0  0.1282
  H  H127  1  0.132600  0.336300  0.176800  1.0  0.1102
  H  H128  1  0.127300  0.378300  0.137100  1.0  0.1052
  H  H129  1  0.142300  0.455600  0.964800  1.0  0.1075
  H  H130  1  0.183400  0.454900  0.922000  1.0  0.1239
  H  H131  1  0.140700  0.541100  0.888700  1.0  0.1323
  H  H132  1  0.105500  0.543600  0.934100  1.0  0.1221
  H  H133  1  0.191500  0.448700  0.871000  1.0  0.1186
  H  H134  1  0.233400  0.444000  0.830300  1.0  0.1224
  H  H135  1  0.242200  0.546200  0.826700  1.0  0.1293
  H  H136  1  0.201000  0.548700  0.869900  1.0  0.1114
  H  H137  1  0.038400  0.574500  0.967300  1.0  0.1175
  H  H138  1  0.996500  0.618100  0.966600  1.0  0.1464
  H  H139  1  0.952400  0.573600  0.048400  1.0  0.1079
  H  H140  1  0.992500  0.530400  0.048100  1.0  0.1339
  H  H141  1  0.940200  0.631100  0.959100  1.0  0.1252
  H  H142  1  0.900300  0.675300  0.957700  1.0  0.1058
  H  H143  1  0.892400  0.674500  0.056000  1.0  0.1276
  H  H144  1  0.933400  0.630900  0.062200  1.0  0.125
  H  H145  1  0.027900  0.036600  0.423600  1.0  0.1256
  H  H146  1  0.028500  0.080300  0.384600  1.0  0.1213
  H  H147  1  0.125800  0.105400  0.413600  1.0  0.1295
  H  H148  1  0.124300  0.062900  0.452900  1.0  0.1183
  H  H149  1  0.024900  0.137000  0.365700  1.0  0.1186
  H  H150  1  0.029900  0.180000  0.325300  1.0  0.1288
  H  H151  1  0.132600  0.163700  0.323200  1.0  0.1107
  H  H152  1  0.127300  0.121700  0.362900  1.0  0.1046
  H  H153  1  0.142300  0.044400  0.535200  1.0  0.1077
  H  H154  1  0.183400  0.045100  0.578000  1.0  0.1244
  H  H155  1  0.140700  0.958900  0.611300  1.0  0.1325
  H  H156  1  0.105500  0.956400  0.565900  1.0  0.122
  H  H157  1  0.191500  0.051300  0.629000  1.0  0.1192
  H  H158  1  0.233400  0.056000  0.669700  1.0  0.1222
  H  H159  1  0.242200  0.953800  0.673300  1.0  0.129
  H  H160  1  0.201000  0.951300  0.630100  1.0  0.1113
  H  H161  1  0.038400  0.925500  0.532700  1.0  0.1177
  H  H162  1  0.996500  0.881900  0.533400  1.0  0.1467
  H  H163  1  0.952400  0.926400  0.451600  1.0  0.108
  H  H164  1  0.992500  0.969600  0.451900  1.0  0.1341
  H  H165  1  0.940200  0.868900  0.540900  1.0  0.1274
  H  H166  1  0.900300  0.824700  0.542300  1.0  0.1053
  H  H167  1  0.892400  0.825500  0.444000  1.0  0.1291
  H  H168  1  0.933400  0.869100  0.437800  1.0  0.1243
  H  H169  1  0.527900  0.076400  0.036600  1.0  0.1259
  H  H170  1  0.528500  0.115400  0.080300  1.0  0.1225
  H  H171  1  0.625800  0.086400  0.105400  1.0  0.13
  H  H172  1  0.624300  0.047100  0.062900  1.0  0.119
  H  H173  1  0.524900  0.134300  0.137000  1.0  0.1193
  H  H174  1  0.529900  0.174700  0.180000  1.0  0.1271
  H  H175  1  0.632600  0.176800  0.163700  1.0  0.1103
  H  H176  1  0.627300  0.137100  0.121700  1.0  0.1047
  H  H177  1  0.642300  0.964800  0.044400  1.0  0.1078
  H  H178  1  0.683400  0.922000  0.045100  1.0  0.1238
  H  H179  1  0.640700  0.888700  0.958900  1.0  0.1312
  H  H180  1  0.605500  0.934100  0.956400  1.0  0.1216
  H  H181  1  0.691500  0.871000  0.051300  1.0  0.1206
  H  H182  1  0.733400  0.830300  0.056000  1.0  0.1223
  H  H183  1  0.742200  0.826700  0.953800  1.0  0.1294
  H  H184  1  0.701000  0.869900  0.951300  1.0  0.1114
  H  H185  1  0.538400  0.967300  0.925500  1.0  0.1169
  H  H186  1  0.496500  0.966600  0.881900  1.0  0.1471
  H  H187  1  0.452400  0.048400  0.926400  1.0  0.1076
  H  H188  1  0.492500  0.048100  0.969600  1.0  0.1339
  H  H189  1  0.440200  0.959100  0.868900  1.0  0.1248
  H  H190  1  0.400300  0.957700  0.824700  1.0  0.1054
  H  H191  1  0.392400  0.056000  0.825500  1.0  0.1272
  H  H192  1  0.433400  0.062200  0.869100  1.0  0.1263
  H  H193  1  0.527900  0.423600  0.463400  1.0  0.1261
  H  H194  1  0.528500  0.384600  0.419700  1.0  0.1216
  H  H195  1  0.625800  0.413600  0.394600  1.0  0.1298
  H  H196  1  0.624300  0.452900  0.437100  1.0  0.1187
  H  H197  1  0.524900  0.365700  0.363000  1.0  0.1194
  H  H198  1  0.529900  0.325300  0.320000  1.0  0.1274
  H  H199  1  0.632600  0.323200  0.336300  1.0  0.1105
  H  H200  1  0.627300  0.362900  0.378300  1.0  0.1042
  H  H201  1  0.642300  0.535200  0.455600  1.0  0.1087
  H  H202  1  0.683400  0.578000  0.454900  1.0  0.1241
  H  H203  1  0.640700  0.611300  0.541100  1.0  0.1319
  H  H204  1  0.605500  0.565900  0.543600  1.0  0.1223
  H  H205  1  0.691500  0.629000  0.448700  1.0  0.1193
  H  H206  1  0.733400  0.669700  0.444000  1.0  0.1221
  H  H207  1  0.742200  0.673300  0.546200  1.0  0.129
  H  H208  1  0.701000  0.630100  0.548700  1.0  0.1113
  H  H209  1  0.538400  0.532700  0.574500  1.0  0.117
  H  H210  1  0.496500  0.533400  0.618100  1.0  0.1467
  H  H211  1  0.452400  0.451600  0.573600  1.0  0.1072
  H  H212  1  0.492500  0.451900  0.530400  1.0  0.134
  H  H213  1  0.440200  0.540900  0.631100  1.0  0.1252
  H  H214  1  0.400300  0.542300  0.675300  1.0  0.1066
  H  H215  1  0.392400  0.444000  0.674500  1.0  0.1262
  H  H216  1  0.433400  0.437800  0.630900  1.0  0.1262
  H  H217  1  0.972100  0.536600  0.923600  1.0  0.1253
  H  H218  1  0.971500  0.580300  0.884600  1.0  0.1229
  H  H219  1  0.874200  0.605400  0.913600  1.0  0.1297
  H  H220  1  0.875700  0.562900  0.952900  1.0  0.1177
  H  H221  1  0.975100  0.637000  0.865700  1.0  0.1189
  H  H222  1  0.970100  0.680000  0.825300  1.0  0.1288
  H  H223  1  0.867400  0.663700  0.823200  1.0  0.1109
  H  H224  1  0.872700  0.621700  0.862900  1.0  0.1053
  H  H225  1  0.857700  0.544400  0.035200  1.0  0.1078
  H  H226  1  0.816600  0.545100  0.078000  1.0  0.1245
  H  H227  1  0.859300  0.458900  0.111300  1.0  0.1322
  H  H228  1  0.894500  0.456400  0.065900  1.0  0.1222
  H  H229  1  0.808500  0.551300  0.129000  1.0  0.119
  H  H230  1  0.766600  0.556000  0.169700  1.0  0.122
  H  H231  1  0.757800  0.453800  0.173300  1.0  0.1291
  H  H232  1  0.799000  0.451300  0.130100  1.0  0.1115
  H  H233  1  0.961600  0.425500  0.032700  1.0  0.1173
  H  H234  1  0.003500  0.381900  0.033400  1.0  0.1469
  H  H235  1  0.047600  0.426400  0.951600  1.0  0.1076
  H  H236  1  0.007500  0.469600  0.951900  1.0  0.1343
  H  H237  1  0.059800  0.368900  0.040900  1.0  0.1275
  H  H238  1  0.099700  0.324700  0.042300  1.0  0.1051
  H  H239  1  0.107600  0.325500  0.944000  1.0  0.1293
  H  H240  1  0.066600  0.369100  0.937800  1.0  0.1243
  H  H241  1  0.972100  0.963400  0.576400  1.0  0.1255
  H  H242  1  0.971500  0.919700  0.615400  1.0  0.123
  H  H243  1  0.874200  0.894600  0.586400  1.0  0.1303
  H  H244  1  0.875700  0.937100  0.547100  1.0  0.1181
  H  H245  1  0.975100  0.863000  0.634300  1.0  0.1194
  H  H246  1  0.970100  0.820000  0.674700  1.0  0.128
  H  H247  1  0.867400  0.836300  0.676800  1.0  0.1103
  H  H248  1  0.872700  0.878300  0.637100  1.0  0.1055
  H  H249  1  0.857700  0.955600  0.464800  1.0  0.1076
  H  H250  1  0.816600  0.954900  0.422000  1.0  0.1238
  H  H251  1  0.859300  0.041100  0.388700  1.0  0.132
  H  H252  1  0.894500  0.043600  0.434100  1.0  0.1222
  H  H253  1  0.808500  0.948700  0.371000  1.0  0.119
  H  H254  1  0.766600  0.944000  0.330300  1.0  0.1222
  H  H255  1  0.757800  0.046200  0.326700  1.0  0.1295
  H  H256  1  0.799000  0.048700  0.369900  1.0  0.1114
  H  H257  1  0.961600  0.074500  0.467300  1.0  0.1173
  H  H258  1  0.003500  0.118100  0.466600  1.0  0.146
  H  H259  1  0.047600  0.073600  0.548400  1.0  0.1079
  H  H260  1  0.007500  0.030400  0.548100  1.0  0.1345
  H  H261  1  0.059800  0.131100  0.459100  1.0  0.1254
  H  H262  1  0.099700  0.175300  0.457700  1.0  0.1055
  H  H263  1  0.107600  0.174500  0.556000  1.0  0.1284
  H  H264  1  0.066600  0.130900  0.562200  1.0  0.125
  H  H265  1  0.472100  0.923600  0.963400  1.0  0.1261
  H  H266  1  0.471500  0.884600  0.919700  1.0  0.1227
  H  H267  1  0.374200  0.913600  0.894600  1.0  0.1299
  H  H268  1  0.375700  0.952900  0.937100  1.0  0.119
  H  H269  1  0.475100  0.865700  0.863000  1.0  0.1194
  H  H270  1  0.470100  0.825300  0.820000  1.0  0.1277
  H  H271  1  0.367400  0.823200  0.836300  1.0  0.1107
  H  H272  1  0.372700  0.862900  0.878300  1.0  0.1045
  H  H273  1  0.357700  0.035200  0.955600  1.0  0.1084
  H  H274  1  0.316600  0.078000  0.954900  1.0  0.124
  H  H275  1  0.359300  0.111300  0.041100  1.0  0.1315
  H  H276  1  0.394500  0.065900  0.043600  1.0  0.1224
  H  H277  1  0.308500  0.129000  0.948700  1.0  0.1193
  H  H278  1  0.266600  0.169700  0.944000  1.0  0.1219
  H  H279  1  0.257800  0.173300  0.046200  1.0  0.1289
  H  H280  1  0.299000  0.130100  0.048700  1.0  0.1115
  H  H281  1  0.461600  0.032700  0.074500  1.0  0.1173
  H  H282  1  0.503500  0.033400  0.118100  1.0  0.1471
  H  H283  1  0.547600  0.951600  0.073600  1.0  0.1076
  H  H284  1  0.507500  0.951900  0.030400  1.0  0.1345
  H  H285  1  0.559800  0.040900  0.131100  1.0  0.1255
  H  H286  1  0.599700  0.042300  0.175300  1.0  0.1063
  H  H287  1  0.607600  0.944000  0.174500  1.0  0.1266
  H  H288  1  0.566600  0.937800  0.130900  1.0  0.1262
  H  H289  1  0.472100  0.576400  0.536600  1.0  0.125
  H  H290  1  0.471500  0.615400  0.580300  1.0  0.1231
  H  H291  1  0.374200  0.586400  0.605400  1.0  0.13
  H  H292  1  0.375700  0.547100  0.562900  1.0  0.1186
  H  H293  1  0.475100  0.634300  0.637000  1.0  0.1195
  H  H294  1  0.470100  0.674700  0.680000  1.0  0.1274
  H  H295  1  0.367400  0.676800  0.663700  1.0  0.1099
  H  H296  1  0.372700  0.637100  0.621700  1.0  0.1048
  H  H297  1  0.357700  0.464800  0.544400  1.0  0.1082
  H  H298  1  0.316600  0.422000  0.545100  1.0  0.1243
  H  H299  1  0.359300  0.388700  0.458900  1.0  0.1308
  H  H300  1  0.394500  0.434100  0.456400  1.0  0.1216
  H  H301  1  0.308500  0.371000  0.551300  1.0  0.1204
  H  H302  1  0.266600  0.330300  0.556000  1.0  0.122
  H  H303  1  0.257800  0.326700  0.453800  1.0  0.1295
  H  H304  1  0.299000  0.369900  0.451300  1.0  0.1115
  H  H305  1  0.461600  0.467300  0.425500  1.0  0.1161
  H  H306  1  0.503500  0.466600  0.381900  1.0  0.1461
  H  H307  1  0.547600  0.548400  0.426400  1.0  0.1067
  H  H308  1  0.507500  0.548100  0.469600  1.0  0.1343
  H  H309  1  0.559800  0.459100  0.368900  1.0  0.1246
  H  H310  1  0.599700  0.457700  0.324700  1.0  0.1053
  H  H311  1  0.607600  0.556000  0.325500  1.0  0.1273
  H  H312  1  0.566600  0.562200  0.369100  1.0  0.1264
  H  H313  1  0.972100  0.536600  0.576400  1.0  0.1255
  H  H314  1  0.971500  0.580300  0.615400  1.0  0.123
  H  H315  1  0.874200  0.605400  0.586400  1.0  0.1305
  H  H316  1  0.875700  0.562900  0.547100  1.0  0.1177
  H  H317  1  0.975100  0.637000  0.634300  1.0  0.1195
  H  H318  1  0.970100  0.680000  0.674700  1.0  0.1283
  H  H319  1  0.867400  0.663700  0.676800  1.0  0.1103
  H  H320  1  0.872700  0.621700  0.637100  1.0  0.1056
  H  H321  1  0.857700  0.544400  0.464800  1.0  0.1074
  H  H322  1  0.816600  0.545100  0.422000  1.0  0.1242
  H  H323  1  0.859300  0.458900  0.388700  1.0  0.1315
  H  H324  1  0.894500  0.456400  0.434100  1.0  0.1221
  H  H325  1  0.808500  0.551300  0.371000  1.0  0.1193
  H  H326  1  0.766600  0.556000  0.330300  1.0  0.1226
  H  H327  1  0.757800  0.453800  0.326700  1.0  0.129
  H  H328  1  0.799000  0.451300  0.369900  1.0  0.1114
  H  H329  1  0.961600  0.425500  0.467300  1.0  0.1172
  H  H330  1  0.003500  0.381900  0.466600  1.0  0.1458
  H  H331  1  0.047600  0.426400  0.548400  1.0  0.108
  H  H332  1  0.007500  0.469600  0.548100  1.0  0.1345
  H  H333  1  0.059800  0.368900  0.459100  1.0  0.1265
  H  H334  1  0.099700  0.324700  0.457700  1.0  0.1056
  H  H335  1  0.107600  0.325500  0.556000  1.0  0.1287
  H  H336  1  0.066600  0.369100  0.562200  1.0  0.1255
  H  H337  1  0.972100  0.963400  0.923600  1.0  0.1249
  H  H338  1  0.971500  0.919700  0.884600  1.0  0.123
  H  H339  1  0.874200  0.894600  0.913600  1.0  0.1299
  H  H340  1  0.875700  0.937100  0.952900  1.0  0.1177
  H  H341  1  0.975100  0.863000  0.865700  1.0  0.1191
  H  H342  1  0.970100  0.820000  0.825300  1.0  0.1286
  H  H343  1  0.867400  0.836300  0.823200  1.0  0.1107
  H  H344  1  0.872700  0.878300  0.862900  1.0  0.1052
  H  H345  1  0.857700  0.955600  0.035200  1.0  0.1071
  H  H346  1  0.816600  0.954900  0.078000  1.0  0.124
  H  H347  1  0.859300  0.041100  0.111300  1.0  0.1322
  H  H348  1  0.894500  0.043600  0.065900  1.0  0.1222
  H  H349  1  0.808500  0.948700  0.129000  1.0  0.1188
  H  H350  1  0.766600  0.944000  0.169700  1.0  0.1219
  H  H351  1  0.757800  0.046200  0.173300  1.0  0.1296
  H  H352  1  0.799000  0.048700  0.130100  1.0  0.1114
  H  H353  1  0.961600  0.074500  0.032700  1.0  0.1177
  H  H354  1  0.003500  0.118100  0.033400  1.0  0.1465
  H  H355  1  0.047600  0.073600  0.951600  1.0  0.1076
  H  H356  1  0.007500  0.030400  0.951900  1.0  0.1342
  H  H357  1  0.059800  0.131100  0.040900  1.0  0.1266
  H  H358  1  0.099700  0.175300  0.042300  1.0  0.1053
  H  H359  1  0.107600  0.174500  0.944000  1.0  0.1289
  H  H360  1  0.066600  0.130900  0.937800  1.0  0.1243
  H  H361  1  0.472100  0.923600  0.536600  1.0  0.1259
  H  H362  1  0.471500  0.884600  0.580300  1.0  0.1225
  H  H363  1  0.374200  0.913600  0.605400  1.0  0.13
  H  H364  1  0.375700  0.952900  0.562900  1.0  0.119
  H  H365  1  0.475100  0.865700  0.637000  1.0  0.1197
  H  H366  1  0.470100  0.825300  0.680000  1.0  0.1272
  H  H367  1  0.367400  0.823200  0.663700  1.0  0.1106
  H  H368  1  0.372700  0.862900  0.621700  1.0  0.105
  H  H369  1  0.357700  0.035200  0.544400  1.0  0.1085
  H  H370  1  0.316600  0.078000  0.545100  1.0  0.1244
  H  H371  1  0.359300  0.111300  0.458900  1.0  0.1311
  H  H372  1  0.394500  0.065900  0.456400  1.0  0.1215
  H  H373  1  0.308500  0.129000  0.551300  1.0  0.1201
  H  H374  1  0.266600  0.169700  0.556000  1.0  0.1221
  H  H375  1  0.257800  0.173300  0.453800  1.0  0.1295
  H  H376  1  0.299000  0.130100  0.451300  1.0  0.1114
  H  H377  1  0.461600  0.032700  0.425500  1.0  0.1164
  H  H378  1  0.503500  0.033400  0.381900  1.0  0.146
  H  H379  1  0.547600  0.951600  0.426400  1.0  0.1076
  H  H380  1  0.507500  0.951900  0.469600  1.0  0.1342
  H  H381  1  0.559800  0.040900  0.368900  1.0  0.125
  H  H382  1  0.599700  0.042300  0.324700  1.0  0.1058
  H  H383  1  0.607600  0.944000  0.325500  1.0  0.1271
  H  H384  1  0.566600  0.937800  0.369100  1.0  0.1263
  H  H385  1  0.472100  0.576400  0.963400  1.0  0.1254
  H  H386  1  0.471500  0.615400  0.919700  1.0  0.1229
  H  H387  1  0.374200  0.586400  0.894600  1.0  0.1301
  H  H388  1  0.375700  0.547100  0.937100  1.0  0.119
  H  H389  1  0.475100  0.634300  0.863000  1.0  0.1193
  H  H390  1  0.470100  0.674700  0.820000  1.0  0.1279
  H  H391  1  0.367400  0.676800  0.836300  1.0  0.1102
  H  H392  1  0.372700  0.637100  0.878300  1.0  0.1041
  H  H393  1  0.357700  0.464800  0.955600  1.0  0.1084
  H  H394  1  0.316600  0.422000  0.954900  1.0  0.1236
  H  H395  1  0.359300  0.388700  0.041100  1.0  0.1315
  H  H396  1  0.394500  0.434100  0.043600  1.0  0.1229
  H  H397  1  0.308500  0.371000  0.948700  1.0  0.1194
  H  H398  1  0.266600  0.330300  0.944000  1.0  0.1217
  H  H399  1  0.257800  0.326700  0.046200  1.0  0.129
  H  H400  1  0.299000  0.369900  0.048700  1.0  0.1114
  H  H401  1  0.461600  0.467300  0.074500  1.0  0.1171
  H  H402  1  0.503500  0.466600  0.118100  1.0  0.1476
  H  H403  1  0.547600  0.548400  0.073600  1.0  0.1067
  H  H404  1  0.507500  0.548100  0.030400  1.0  0.1356
  H  H405  1  0.559800  0.459100  0.131100  1.0  0.1257
  H  H406  1  0.599700  0.457700  0.175300  1.0  0.1059
  H  H407  1  0.607600  0.556000  0.174500  1.0  0.1269
  H  H408  1  0.566600  0.562200  0.130900  1.0  0.1268
  C  C409  1  0.074200  0.478200  0.469600  1.0  0.1804
  C  C410  1  0.094600  0.500700  0.519800  1.0  0.3364
  C  C411  1  0.047200  0.523000  0.492500  1.0  0.2552
  C  C412  1  0.075400  0.452700  0.442500  1.0  -0.033
  C  C413  1  0.047100  0.449200  0.421600  1.0  -0.0726
  C  C414  1  0.048100  0.424200  0.397600  1.0  -0.1198
  C  C415  1  0.078100  0.406100  0.393100  1.0  0.1056
  C  C416  1  0.106600  0.408900  0.415200  1.0  -0.1267
  C  C417  1  0.105300  0.433300  0.439000  1.0  0.0086
  C  C418  1  0.076500  0.377500  0.367900  1.0  0.0053
  C  C419  1  0.046800  0.358100  0.356700  1.0  -0.0684
  C  C420  1  0.049700  0.331600  0.332500  1.0  -0.1083
  C  C421  1  0.082000  0.323500  0.319800  1.0  -0.0886
  C  C422  1  0.110500  0.341500  0.331400  1.0  -0.059
  C  C423  1  0.107200  0.367600  0.355400  1.0  -0.1409
  C  C424  1  0.078800  0.294100  0.295100  1.0  0.6983
  C  C425  1  0.120100  0.500400  0.547300  1.0  -0.0714
  C  C426  1  0.143400  0.473200  0.550600  1.0  -0.042
  C  C427  1  0.167200  0.472200  0.575800  1.0  -0.1602
  C  C428  1  0.165600  0.498300  0.597100  1.0  0.0628
  C  C429  1  0.141700  0.524500  0.594900  1.0  -0.1862
  C  C430  1  0.120400  0.525300  0.568900  1.0  0.0015
  C  C431  1  0.192800  0.498600  0.625000  1.0  0.0429
  C  C432  1  0.202100  0.468000  0.637400  1.0  -0.1989
  C  C433  1  0.226700  0.465200  0.662200  1.0  -0.0245
  C  C434  1  0.242100  0.494000  0.676200  1.0  -0.116
  C  C435  1  0.232500  0.526700  0.664300  1.0  -0.0838
  C  C436  1  0.207800  0.527900  0.638600  1.0  -0.1158
  C  C437  1  0.271600  0.494600  0.706800  1.0  0.6702
  C  C438  1  0.019300  0.548300  0.492500  1.0  -0.1357
  C  C439  1  0.020600  0.574600  0.516700  1.0  -0.0312
  C  C440  1  0.995700  0.601000  0.517400  1.0  -0.1015
  C  C441  1  0.969800  0.599400  0.492500  1.0  -0.0474
  C  C442  1  0.969600  0.573300  0.468200  1.0  -0.1215
  C  C443  1  0.993500  0.547500  0.467800  1.0  -0.1247
  C  C444  1  0.941500  0.627700  0.489800  1.0  -0.036
  C  C445  1  0.931100  0.639900  0.521000  1.0  -0.2168
  C  C446  1  0.906400  0.666100  0.521500  1.0  -0.0372
  C  C447  1  0.890500  0.678900  0.493000  1.0  -0.0574
  C  C448  1  0.902100  0.665500  0.463600  1.0  -0.0354
  C  C449  1  0.927100  0.639400  0.458800  1.0  -0.1153
  C  C450  1  0.863700  0.703600  0.492700  1.0  0.7141
  C  C451  1  0.074200  0.021800  0.030400  1.0  0.1801
  C  C452  1  0.094600  0.999300  0.980200  1.0  0.3364
  C  C453  1  0.047200  0.977000  0.007500  1.0  0.2542
  C  C454  1  0.075400  0.047300  0.057500  1.0  -0.0353
  C  C455  1  0.047100  0.050800  0.078400  1.0  -0.0721
  C  C456  1  0.048100  0.075800  0.102400  1.0  -0.1236
  C  C457  1  0.078100  0.093900  0.106900  1.0  0.1071
  C  C458  1  0.106600  0.091100  0.084800  1.0  -0.1271
  C  C459  1  0.105300  0.066700  0.061000  1.0  0.0071
  C  C460  1  0.076500  0.122500  0.132100  1.0  0.0046
  C  C461  1  0.046800  0.141900  0.143300  1.0  -0.0685
  C  C462  1  0.049700  0.168400  0.167500  1.0  -0.1091
  C  C463  1  0.082000  0.176500  0.180200  1.0  -0.0888
  C  C464  1  0.110500  0.158500  0.168600  1.0  -0.0596
  C  C465  1  0.107200  0.132400  0.144600  1.0  -0.1419
  C  C466  1  0.078800  0.205900  0.204900  1.0  0.6987
  C  C467  1  0.120100  0.999600  0.952700  1.0  -0.0727
  C  C468  1  0.143400  0.026800  0.949400  1.0  -0.0425
  C  C469  1  0.167200  0.027800  0.924200  1.0  -0.1602
  C  C470  1  0.165600  0.001700  0.902900  1.0  0.0627
  C  C471  1  0.141700  0.975500  0.905100  1.0  -0.1857
  C  C472  1  0.120400  0.974700  0.931100  1.0  0.0018
  C  C473  1  0.192800  0.001400  0.875000  1.0  0.0426
  C  C474  1  0.202100  0.032000  0.862600  1.0  -0.1992
  C  C475  1  0.226700  0.034800  0.837800  1.0  -0.0266
  C  C476  1  0.242100  0.006000  0.823800  1.0  -0.1153
  C  C477  1  0.232500  0.973300  0.835700  1.0  -0.0833
  C  C478  1  0.207800  0.972100  0.861400  1.0  -0.1162
  C  C479  1  0.271600  0.005400  0.793200  1.0  0.67
  C  C480  1  0.019300  0.951700  0.007500  1.0  -0.1359
  C  C481  1  0.020600  0.925400  0.983300  1.0  -0.0311
  C  C482  1  0.995700  0.899000  0.982600  1.0  -0.1013
  C  C483  1  0.969800  0.900600  0.007500  1.0  -0.0465
  C  C484  1  0.969600  0.926700  0.031800  1.0  -0.1219
  C  C485  1  0.993500  0.952500  0.032200  1.0  -0.1299
  C  C486  1  0.941500  0.872300  0.010200  1.0  -0.0353
  C  C487  1  0.931100  0.860100  0.979000  1.0  -0.215
  C  C488  1  0.906400  0.833900  0.978500  1.0  -0.037
  C  C489  1  0.890500  0.821100  0.007000  1.0  -0.0587
  C  C490  1  0.902100  0.834500  0.036400  1.0  -0.0339
  C  C491  1  0.927100  0.860600  0.041200  1.0  -0.1135
  C  C492  1  0.863700  0.796400  0.007300  1.0  0.7141
  C  C493  1  0.574200  0.030400  0.478200  1.0  0.1803
  C  C494  1  0.594600  0.980200  0.500700  1.0  0.3377
  C  C495  1  0.547200  0.007500  0.523000  1.0  0.2546
  C  C496  1  0.575400  0.057500  0.452700  1.0  -0.0357
  C  C497  1  0.547100  0.078400  0.449200  1.0  -0.0703
  C  C498  1  0.548100  0.102400  0.424200  1.0  -0.1232
  C  C499  1  0.578100  0.106900  0.406100  1.0  0.107
  C  C500  1  0.606600  0.084800  0.408900  1.0  -0.1283
  C  C501  1  0.605300  0.061000  0.433300  1.0  0.0059
  C  C502  1  0.576500  0.132100  0.377500  1.0  0.0043
  C  C503  1  0.546800  0.143300  0.358100  1.0  -0.07
  C  C504  1  0.549700  0.167500  0.331600  1.0  -0.1102
  C  C505  1  0.582000  0.180200  0.323500  1.0  -0.0876
  C  C506  1  0.610500  0.168600  0.341500  1.0  -0.0584
  C  C507  1  0.607200  0.144600  0.367600  1.0  -0.1418
  C  C508  1  0.578800  0.204900  0.294100  1.0  0.7006
  C  C509  1  0.620100  0.952700  0.500400  1.0  -0.0717
  C  C510  1  0.643400  0.949400  0.473200  1.0  -0.0434
  C  C511  1  0.667200  0.924200  0.472200  1.0  -0.1558
  C  C512  1  0.665600  0.902900  0.498300  1.0  0.063
  C  C513  1  0.641700  0.905100  0.524500  1.0  -0.1871
  C  C514  1  0.620400  0.931100  0.525300  1.0  0.0021
  C  C515  1  0.692800  0.875000  0.498600  1.0  0.0427
  C  C516  1  0.702100  0.862600  0.468000  1.0  -0.1959
  C  C517  1  0.726700  0.837800  0.465200  1.0  -0.026
  C  C518  1  0.742100  0.823800  0.494000  1.0  -0.1141
  C  C519  1  0.732500  0.835700  0.526700  1.0  -0.0837
  C  C520  1  0.707800  0.861400  0.527900  1.0  -0.1143
  C  C521  1  0.771600  0.793200  0.494600  1.0  0.6705
  C  C522  1  0.519300  0.007500  0.548300  1.0  -0.1358
  C  C523  1  0.520600  0.983300  0.574600  1.0  -0.0297
  C  C524  1  0.495700  0.982600  0.601000  1.0  -0.102
  C  C525  1  0.469800  0.007500  0.599400  1.0  -0.0489
  C  C526  1  0.469600  0.031800  0.573300  1.0  -0.1178
  C  C527  1  0.493500  0.032200  0.547500  1.0  -0.1236
  C  C528  1  0.441500  0.010200  0.627700  1.0  -0.0355
  C  C529  1  0.431100  0.979000  0.639900  1.0  -0.2189
  C  C530  1  0.406400  0.978500  0.666100  1.0  -0.0344
  C  C531  1  0.390500  0.007000  0.678900  1.0  -0.0579
  C  C532  1  0.402100  0.036400  0.665500  1.0  -0.0345
  C  C533  1  0.427100  0.041200  0.639400  1.0  -0.1139
  C  C534  1  0.363700  0.007300  0.703600  1.0  0.7148
  C  C535  1  0.574200  0.469600  0.021800  1.0  0.1795
  C  C536  1  0.594600  0.519800  0.999300  1.0  0.3376
  C  C537  1  0.547200  0.492500  0.977000  1.0  0.2538
  C  C538  1  0.575400  0.442500  0.047300  1.0  -0.0343
  C  C539  1  0.547100  0.421600  0.050800  1.0  -0.0724
  C  C540  1  0.548100  0.397600  0.075800  1.0  -0.1242
  C  C541  1  0.578100  0.393100  0.093900  1.0  0.1061
  C  C542  1  0.606600  0.415200  0.091100  1.0  -0.1277
  C  C543  1  0.605300  0.439000  0.066700  1.0  0.0065
  C  C544  1  0.576500  0.367900  0.122500  1.0  0.0036
  C  C545  1  0.546800  0.356700  0.141900  1.0  -0.0702
  C  C546  1  0.549700  0.332500  0.168400  1.0  -0.1101
  C  C547  1  0.582000  0.319800  0.176500  1.0  -0.0886
  C  C548  1  0.610500  0.331400  0.158500  1.0  -0.0583
  C  C549  1  0.607200  0.355400  0.132400  1.0  -0.1422
  C  C550  1  0.578800  0.295100  0.205900  1.0  0.7001
  C  C551  1  0.620100  0.547300  0.999600  1.0  -0.072
  C  C552  1  0.643400  0.550600  0.026800  1.0  -0.0414
  C  C553  1  0.667200  0.575800  0.027800  1.0  -0.156
  C  C554  1  0.665600  0.597100  0.001700  1.0  0.0629
  C  C555  1  0.641700  0.594900  0.975500  1.0  -0.188
  C  C556  1  0.620400  0.568900  0.974700  1.0  0.0033
  C  C557  1  0.692800  0.625000  0.001400  1.0  0.0428
  C  C558  1  0.702100  0.637400  0.032000  1.0  -0.197
  C  C559  1  0.726700  0.662200  0.034800  1.0  -0.0258
  C  C560  1  0.742100  0.676200  0.006000  1.0  -0.1145
  C  C561  1  0.732500  0.664300  0.973300  1.0  -0.0854
  C  C562  1  0.707800  0.638600  0.972100  1.0  -0.1145
  C  C563  1  0.771600  0.706800  0.005400  1.0  0.671
  C  C564  1  0.519300  0.492500  0.951700  1.0  -0.1342
  C  C565  1  0.520600  0.516700  0.925400  1.0  -0.0305
  C  C566  1  0.495700  0.517400  0.899000  1.0  -0.1004
  C  C567  1  0.469800  0.492500  0.900600  1.0  -0.0478
  C  C568  1  0.469600  0.468200  0.926700  1.0  -0.1198
  C  C569  1  0.493500  0.467800  0.952500  1.0  -0.1244
  C  C570  1  0.441500  0.489800  0.872300  1.0  -0.0343
  C  C571  1  0.431100  0.521000  0.860100  1.0  -0.2206
  C  C572  1  0.406400  0.521500  0.833900  1.0  -0.0358
  C  C573  1  0.390500  0.493000  0.821100  1.0  -0.0578
  C  C574  1  0.402100  0.463600  0.834500  1.0  -0.0346
  C  C575  1  0.427100  0.458800  0.860600  1.0  -0.1117
  C  C576  1  0.363700  0.492700  0.796400  1.0  0.7143
  C  C577  1  0.074200  0.478200  0.030400  1.0  0.1801
  C  C578  1  0.094600  0.500700  0.980200  1.0  0.3363
  C  C579  1  0.047200  0.523000  0.007500  1.0  0.2551
  C  C580  1  0.075400  0.452700  0.057500  1.0  -0.0337
  C  C581  1  0.047100  0.449200  0.078400  1.0  -0.0729
  C  C582  1  0.048100  0.424200  0.102400  1.0  -0.1228
  C  C583  1  0.078100  0.406100  0.106900  1.0  0.1077
  C  C584  1  0.106600  0.408900  0.084800  1.0  -0.1278
  C  C585  1  0.105300  0.433300  0.061000  1.0  0.0072
  C  C586  1  0.076500  0.377500  0.132100  1.0  0.0049
  C  C587  1  0.046800  0.358100  0.143300  1.0  -0.0687
  C  C588  1  0.049700  0.331600  0.167500  1.0  -0.1088
  C  C589  1  0.082000  0.323500  0.180200  1.0  -0.0886
  C  C590  1  0.110500  0.341500  0.168600  1.0  -0.0595
  C  C591  1  0.107200  0.367600  0.144600  1.0  -0.1421
  C  C592  1  0.078800  0.294100  0.204900  1.0  0.6988
  C  C593  1  0.120100  0.500400  0.952700  1.0  -0.0724
  C  C594  1  0.143400  0.473200  0.949400  1.0  -0.0422
  C  C595  1  0.167200  0.472200  0.924200  1.0  -0.1613
  C  C596  1  0.165600  0.498300  0.902900  1.0  0.0629
  C  C597  1  0.141700  0.524500  0.905100  1.0  -0.1859
  C  C598  1  0.120400  0.525300  0.931100  1.0  0.0015
  C  C599  1  0.192800  0.498600  0.875000  1.0  0.0429
  C  C600  1  0.202100  0.468000  0.862600  1.0  -0.1995
  C  C601  1  0.226700  0.465200  0.837800  1.0  -0.0249
  C  C602  1  0.242100  0.494000  0.823800  1.0  -0.1155
  C  C603  1  0.232500  0.526700  0.835700  1.0  -0.0843
  C  C604  1  0.207800  0.527900  0.861400  1.0  -0.1156
  C  C605  1  0.271600  0.494600  0.793200  1.0  0.6701
  C  C606  1  0.019300  0.548300  0.007500  1.0  -0.1361
  C  C607  1  0.020600  0.574600  0.983300  1.0  -0.0317
  C  C608  1  0.995700  0.601000  0.982600  1.0  -0.1016
  C  C609  1  0.969800  0.599400  0.007500  1.0  -0.0475
  C  C610  1  0.969600  0.573300  0.031800  1.0  -0.121
  C  C611  1  0.993500  0.547500  0.032200  1.0  -0.1295
  C  C612  1  0.941500  0.627700  0.010200  1.0  -0.0365
  C  C613  1  0.931100  0.639900  0.979000  1.0  -0.2163
  C  C614  1  0.906400  0.666100  0.978500  1.0  -0.038
  C  C615  1  0.890500  0.678900  0.007000  1.0  -0.0573
  C  C616  1  0.902100  0.665500  0.036400  1.0  -0.034
  C  C617  1  0.927100  0.639400  0.041200  1.0  -0.1122
  C  C618  1  0.863700  0.703600  0.007300  1.0  0.714
  C  C619  1  0.074200  0.021800  0.469600  1.0  0.1802
  C  C620  1  0.094600  0.999300  0.519800  1.0  0.3364
  C  C621  1  0.047200  0.977000  0.492500  1.0  0.2543
  C  C622  1  0.075400  0.047300  0.442500  1.0  -0.0346
  C  C623  1  0.047100  0.050800  0.421600  1.0  -0.0729
  C  C624  1  0.048100  0.075800  0.397600  1.0  -0.1209
  C  C625  1  0.078100  0.093900  0.393100  1.0  0.1058
  C  C626  1  0.106600  0.091100  0.415200  1.0  -0.126
  C  C627  1  0.105300  0.066700  0.439000  1.0  0.0083
  C  C628  1  0.076500  0.122500  0.367900  1.0  0.0051
  C  C629  1  0.046800  0.141900  0.356700  1.0  -0.0681
  C  C630  1  0.049700  0.168400  0.332500  1.0  -0.1086
  C  C631  1  0.082000  0.176500  0.319800  1.0  -0.0879
  C  C632  1  0.110500  0.158500  0.331400  1.0  -0.0591
  C  C633  1  0.107200  0.132400  0.355400  1.0  -0.1407
  C  C634  1  0.078800  0.205900  0.295100  1.0  0.6983
  C  C635  1  0.120100  0.999600  0.547300  1.0  -0.0719
  C  C636  1  0.143400  0.026800  0.550600  1.0  -0.0421
  C  C637  1  0.167200  0.027800  0.575800  1.0  -0.1589
  C  C638  1  0.165600  0.001700  0.597100  1.0  0.0628
  C  C639  1  0.141700  0.975500  0.594900  1.0  -0.1849
  C  C640  1  0.120400  0.974700  0.568900  1.0  0.0017
  C  C641  1  0.192800  0.001400  0.625000  1.0  0.0425
  C  C642  1  0.202100  0.032000  0.637400  1.0  -0.1984
  C  C643  1  0.226700  0.034800  0.662200  1.0  -0.0253
  C  C644  1  0.242100  0.006000  0.676200  1.0  -0.116
  C  C645  1  0.232500  0.973300  0.664300  1.0  -0.0832
  C  C646  1  0.207800  0.972100  0.638600  1.0  -0.116
  C  C647  1  0.271600  0.005400  0.706800  1.0  0.6701
  C  C648  1  0.019300  0.951700  0.492500  1.0  -0.1353
  C  C649  1  0.020600  0.925400  0.516700  1.0  -0.0306
  C  C650  1  0.995700  0.899000  0.517400  1.0  -0.1014
  C  C651  1  0.969800  0.900600  0.492500  1.0  -0.0473
  C  C652  1  0.969600  0.926700  0.468200  1.0  -0.1222
  C  C653  1  0.993500  0.952500  0.467800  1.0  -0.1247
  C  C654  1  0.941500  0.872300  0.489800  1.0  -0.0343
  C  C655  1  0.931100  0.860100  0.521000  1.0  -0.2155
  C  C656  1  0.906400  0.833900  0.521500  1.0  -0.0373
  C  C657  1  0.890500  0.821100  0.493000  1.0  -0.0586
  C  C658  1  0.902100  0.834500  0.463600  1.0  -0.0344
  C  C659  1  0.927100  0.860600  0.458800  1.0  -0.1154
  C  C660  1  0.863700  0.796400  0.492700  1.0  0.7143
  C  C661  1  0.574200  0.030400  0.021800  1.0  0.1804
  C  C662  1  0.594600  0.980200  0.999300  1.0  0.3379
  C  C663  1  0.547200  0.007500  0.977000  1.0  0.254
  C  C664  1  0.575400  0.057500  0.047300  1.0  -0.0359
  C  C665  1  0.547100  0.078400  0.050800  1.0  -0.0715
  C  C666  1  0.548100  0.102400  0.075800  1.0  -0.1222
  C  C667  1  0.578100  0.106900  0.093900  1.0  0.1068
  C  C668  1  0.606600  0.084800  0.091100  1.0  -0.127
  C  C669  1  0.605300  0.061000  0.066700  1.0  0.0052
  C  C670  1  0.576500  0.132100  0.122500  1.0  0.0038
  C  C671  1  0.546800  0.143300  0.141900  1.0  -0.071
  C  C672  1  0.549700  0.167500  0.168400  1.0  -0.1098
  C  C673  1  0.582000  0.180200  0.176500  1.0  -0.0887
  C  C674  1  0.610500  0.168600  0.158500  1.0  -0.0581
  C  C675  1  0.607200  0.144600  0.132400  1.0  -0.1422
  C  C676  1  0.578800  0.204900  0.205900  1.0  0.7011
  C  C677  1  0.620100  0.952700  0.999600  1.0  -0.0721
  C  C678  1  0.643400  0.949400  0.026800  1.0  -0.0416
  C  C679  1  0.667200  0.924200  0.027800  1.0  -0.1557
  C  C680  1  0.665600  0.902900  0.001700  1.0  0.0633
  C  C681  1  0.641700  0.905100  0.975500  1.0  -0.1878
  C  C682  1  0.620400  0.931100  0.974700  1.0  0.0036
  C  C683  1  0.692800  0.875000  0.001400  1.0  0.0428
  C  C684  1  0.702100  0.862600  0.032000  1.0  -0.1973
  C  C685  1  0.726700  0.837800  0.034800  1.0  -0.0249
  C  C686  1  0.742100  0.823800  0.006000  1.0  -0.1139
  C  C687  1  0.732500  0.835700  0.973300  1.0  -0.0848
  C  C688  1  0.707800  0.861400  0.972100  1.0  -0.1145
  C  C689  1  0.771600  0.793200  0.005400  1.0  0.6708
  C  C690  1  0.519300  0.007500  0.951700  1.0  -0.1349
  C  C691  1  0.520600  0.983300  0.925400  1.0  -0.0301
  C  C692  1  0.495700  0.982600  0.899000  1.0  -0.1002
  C  C693  1  0.469800  0.007500  0.900600  1.0  -0.0481
  C  C694  1  0.469600  0.031800  0.926700  1.0  -0.1181
  C  C695  1  0.493500  0.032200  0.952500  1.0  -0.1244
  C  C696  1  0.441500  0.010200  0.872300  1.0  -0.0354
  C  C697  1  0.431100  0.979000  0.860100  1.0  -0.2196
  C  C698  1  0.406400  0.978500  0.833900  1.0  -0.0334
  C  C699  1  0.390500  0.007000  0.821100  1.0  -0.0581
  C  C700  1  0.402100  0.036400  0.834500  1.0  -0.0342
  C  C701  1  0.427100  0.041200  0.860600  1.0  -0.1131
  C  C702  1  0.363700  0.007300  0.796400  1.0  0.7144
  C  C703  1  0.574200  0.469600  0.478200  1.0  0.1801
  C  C704  1  0.594600  0.519800  0.500700  1.0  0.3372
  C  C705  1  0.547200  0.492500  0.523000  1.0  0.2548
  C  C706  1  0.575400  0.442500  0.452700  1.0  -0.0364
  C  C707  1  0.547100  0.421600  0.449200  1.0  -0.0712
  C  C708  1  0.548100  0.397600  0.424200  1.0  -0.1243
  C  C709  1  0.578100  0.393100  0.406100  1.0  0.1059
  C  C710  1  0.606600  0.415200  0.408900  1.0  -0.1288
  C  C711  1  0.605300  0.439000  0.433300  1.0  0.0069
  C  C712  1  0.576500  0.367900  0.377500  1.0  0.0037
  C  C713  1  0.546800  0.356700  0.358100  1.0  -0.0697
  C  C714  1  0.549700  0.332500  0.331600  1.0  -0.1106
  C  C715  1  0.582000  0.319800  0.323500  1.0  -0.088
  C  C716  1  0.610500  0.331400  0.341500  1.0  -0.0586
  C  C717  1  0.607200  0.355400  0.367600  1.0  -0.1418
  C  C718  1  0.578800  0.295100  0.294100  1.0  0.6997
  C  C719  1  0.620100  0.547300  0.500400  1.0  -0.072
  C  C720  1  0.643400  0.550600  0.473200  1.0  -0.044
  C  C721  1  0.667200  0.575800  0.472200  1.0  -0.1562
  C  C722  1  0.665600  0.597100  0.498300  1.0  0.0625
  C  C723  1  0.641700  0.594900  0.524500  1.0  -0.1885
  C  C724  1  0.620400  0.568900  0.525300  1.0  0.0018
  C  C725  1  0.692800  0.625000  0.498600  1.0  0.0429
  C  C726  1  0.702100  0.637400  0.468000  1.0  -0.1958
  C  C727  1  0.726700  0.662200  0.465200  1.0  -0.0269
  C  C728  1  0.742100  0.676200  0.494000  1.0  -0.1145
  C  C729  1  0.732500  0.664300  0.526700  1.0  -0.0839
  C  C730  1  0.707800  0.638600  0.527900  1.0  -0.114
  C  C731  1  0.771600  0.706800  0.494600  1.0  0.6708
  C  C732  1  0.519300  0.492500  0.548300  1.0  -0.135
  C  C733  1  0.520600  0.516700  0.574600  1.0  -0.0291
  C  C734  1  0.495700  0.517400  0.601000  1.0  -0.1027
  C  C735  1  0.469800  0.492500  0.599400  1.0  -0.0481
  C  C736  1  0.469600  0.468200  0.573300  1.0  -0.1197
  C  C737  1  0.493500  0.467800  0.547500  1.0  -0.1235
  C  C738  1  0.441500  0.489800  0.627700  1.0  -0.035
  C  C739  1  0.431100  0.521000  0.639900  1.0  -0.22
  C  C740  1  0.406400  0.521500  0.666100  1.0  -0.0349
  C  C741  1  0.390500  0.493000  0.678900  1.0  -0.0576
  C  C742  1  0.402100  0.463600  0.665500  1.0  -0.0349
  C  C743  1  0.427100  0.458800  0.639400  1.0  -0.1116
  C  C744  1  0.363700  0.492700  0.703600  1.0  0.7147
  C  C745  1  0.925800  0.521800  0.969600  1.0  0.1802
  C  C746  1  0.905400  0.499300  0.019800  1.0  0.3334
  C  C747  1  0.952800  0.477000  0.992500  1.0  0.2551
  C  C748  1  0.924600  0.547300  0.942500  1.0  -0.0363
  C  C749  1  0.952900  0.550800  0.921600  1.0  -0.0743
  C  C750  1  0.951900  0.575800  0.897600  1.0  -0.1228
  C  C751  1  0.921900  0.593900  0.893100  1.0  0.106
  C  C752  1  0.893400  0.591100  0.915200  1.0  -0.1286
  C  C753  1  0.894700  0.566700  0.939000  1.0  0.0063
  C  C754  1  0.923500  0.622500  0.867900  1.0  0.0047
  C  C755  1  0.953200  0.641900  0.856700  1.0  -0.0664
  C  C756  1  0.950300  0.668400  0.832500  1.0  -0.1072
  C  C757  1  0.918000  0.676500  0.819800  1.0  -0.0885
  C  C758  1  0.889500  0.658500  0.831400  1.0  -0.0608
  C  C759  1  0.892800  0.632400  0.855400  1.0  -0.1404
  C  C760  1  0.921200  0.705900  0.795100  1.0  0.6987
  C  C761  1  0.879900  0.499600  0.047300  1.0  -0.0711
  C  C762  1  0.856600  0.526800  0.050600  1.0  -0.042
  C  C763  1  0.832800  0.527800  0.075800  1.0  -0.1596
  C  C764  1  0.834400  0.501700  0.097100  1.0  0.0629
  C  C765  1  0.858300  0.475500  0.094900  1.0  -0.1862
  C  C766  1  0.879600  0.474700  0.068900  1.0  0.0004
  C  C767  1  0.807200  0.501400  0.125000  1.0  0.0421
  C  C768  1  0.797900  0.532000  0.137400  1.0  -0.1981
  C  C769  1  0.773300  0.534800  0.162200  1.0  -0.0267
  C  C770  1  0.757900  0.506000  0.176200  1.0  -0.1159
  C  C771  1  0.767500  0.473300  0.164300  1.0  -0.0832
  C  C772  1  0.792200  0.472100  0.138600  1.0  -0.1154
  C  C773  1  0.728400  0.505400  0.206800  1.0  0.6702
  C  C774  1  0.980700  0.451700  0.992500  1.0  -0.137
  C  C775  1  0.979400  0.425400  0.016700  1.0  -0.0331
  C  C776  1  0.004300  0.399000  0.017400  1.0  -0.1024
  C  C777  1  0.030200  0.400600  0.992500  1.0  -0.0489
  C  C778  1  0.030400  0.426700  0.968200  1.0  -0.1223
  C  C779  1  0.006500  0.452500  0.967800  1.0  -0.125
  C  C780  1  0.058500  0.372300  0.989800  1.0  -0.0346
  C  C781  1  0.068900  0.360100  0.021000  1.0  -0.2162
  C  C782  1  0.093600  0.333900  0.021500  1.0  -0.0366
  C  C783  1  0.109500  0.321100  0.993000  1.0  -0.0588
  C  C784  1  0.097900  0.334500  0.963600  1.0  -0.0341
  C  C785  1  0.072900  0.360600  0.958800  1.0  -0.1154
  C  C786  1  0.136300  0.296400  0.992700  1.0  0.714
  C  C787  1  0.925800  0.978200  0.530400  1.0  0.1807
  C  C788  1  0.905400  0.000700  0.480200  1.0  0.3332
  C  C789  1  0.952800  0.023000  0.507500  1.0  0.2553
  C  C790  1  0.924600  0.952700  0.557500  1.0  -0.0355
  C  C791  1  0.952900  0.949200  0.578400  1.0  -0.0712
  C  C792  1  0.951900  0.924200  0.602400  1.0  -0.1222
  C  C793  1  0.921900  0.906100  0.606900  1.0  0.1085
  C  C794  1  0.893400  0.908900  0.584800  1.0  -0.13
  C  C795  1  0.894700  0.933300  0.561000  1.0  0.0064
  C  C796  1  0.923500  0.877500  0.632100  1.0  0.0044
  C  C797  1  0.953200  0.858100  0.643300  1.0  -0.0673
  C  C798  1  0.950300  0.831600  0.667500  1.0  -0.107
  C  C799  1  0.918000  0.823500  0.680200  1.0  -0.089
  C  C800  1  0.889500  0.841500  0.668600  1.0  -0.0608
  C  C801  1  0.892800  0.867600  0.644600  1.0  -0.1421
  C  C802  1  0.921200  0.794100  0.704900  1.0  0.699
  C  C803  1  0.879900  0.000400  0.452700  1.0  -0.0713
  C  C804  1  0.856600  0.973200  0.449400  1.0  -0.0415
  C  C805  1  0.832800  0.972200  0.424200  1.0  -0.1613
  C  C806  1  0.834400  0.998300  0.402900  1.0  0.063
  C  C807  1  0.858300  0.024500  0.405100  1.0  -0.1867
  C  C808  1  0.879600  0.025300  0.431100  1.0  0.0014
  C  C809  1  0.807200  0.998600  0.375000  1.0  0.0425
  C  C810  1  0.797900  0.968000  0.362600  1.0  -0.1997
  C  C811  1  0.773300  0.965200  0.337800  1.0  -0.0258
  C  C812  1  0.757900  0.994000  0.323800  1.0  -0.1155
  C  C813  1  0.767500  0.026700  0.335700  1.0  -0.0836
  C  C814  1  0.792200  0.027900  0.361400  1.0  -0.1148
  C  C815  1  0.728400  0.994600  0.293200  1.0  0.6699
  C  C816  1  0.980700  0.048300  0.507500  1.0  -0.1367
  C  C817  1  0.979400  0.074600  0.483300  1.0  -0.0346
  C  C818  1  0.004300  0.101000  0.482600  1.0  -0.1016
  C  C819  1  0.030200  0.099400  0.507500  1.0  -0.0495
  C  C820  1  0.030400  0.073300  0.531800  1.0  -0.1206
  C  C821  1  0.006500  0.047500  0.532200  1.0  -0.1305
  C  C822  1  0.058500  0.127700  0.510200  1.0  -0.0358
  C  C823  1  0.068900  0.139900  0.479000  1.0  -0.2168
  C  C824  1  0.093600  0.166100  0.478500  1.0  -0.0375
  C  C825  1  0.109500  0.178900  0.507000  1.0  -0.0575
  C  C826  1  0.097900  0.165500  0.536400  1.0  -0.0337
  C  C827  1  0.072900  0.139400  0.541200  1.0  -0.1135
  C  C828  1  0.136300  0.203600  0.507300  1.0  0.7136
  C  C829  1  0.425800  0.969600  0.978200  1.0  0.1804
  C  C830  1  0.405400  0.019800  0.000700  1.0  0.3343
  C  C831  1  0.452800  0.992500  0.023000  1.0  0.2552
  C  C832  1  0.424600  0.942500  0.952700  1.0  -0.0375
  C  C833  1  0.452900  0.921600  0.949200  1.0  -0.0718
  C  C834  1  0.451900  0.897600  0.924200  1.0  -0.1255
  C  C835  1  0.421900  0.893100  0.906100  1.0  0.1057
  C  C836  1  0.393400  0.915200  0.908900  1.0  -0.1308
  C  C837  1  0.394700  0.939000  0.933300  1.0  0.0039
  C  C838  1  0.423500  0.867900  0.877500  1.0  0.0031
  C  C839  1  0.453200  0.856700  0.858100  1.0  -0.068
  C  C840  1  0.450300  0.832500  0.831600  1.0  -0.1092
  C  C841  1  0.418000  0.819800  0.823500  1.0  -0.0886
  C  C842  1  0.389500  0.831400  0.841500  1.0  -0.0596
  C  C843  1  0.392800  0.855400  0.867600  1.0  -0.1421
  C  C844  1  0.421200  0.795100  0.794100  1.0  0.7
  C  C845  1  0.379900  0.047300  0.000400  1.0  -0.0713
  C  C846  1  0.356600  0.050600  0.973200  1.0  -0.0429
  C  C847  1  0.332800  0.075800  0.972200  1.0  -0.1562
  C  C848  1  0.334400  0.097100  0.998300  1.0  0.0626
  C  C849  1  0.358300  0.094900  0.024500  1.0  -0.1881
  C  C850  1  0.379600  0.068900  0.025300  1.0  0.0011
  C  C851  1  0.307200  0.125000  0.998600  1.0  0.0424
  C  C852  1  0.297900  0.137400  0.968000  1.0  -0.1961
  C  C853  1  0.273300  0.162200  0.965200  1.0  -0.0277
  C  C854  1  0.257900  0.176200  0.994000  1.0  -0.1143
  C  C855  1  0.267500  0.164300  0.026700  1.0  -0.0839
  C  C856  1  0.292200  0.138600  0.027900  1.0  -0.1131
  C  C857  1  0.228400  0.206800  0.994600  1.0  0.6706
  C  C858  1  0.480700  0.992500  0.048300  1.0  -0.1361
  C  C859  1  0.479400  0.016700  0.074600  1.0  -0.0322
  C  C860  1  0.504300  0.017400  0.101000  1.0  -0.104
  C  C861  1  0.530200  0.992500  0.099400  1.0  -0.049
  C  C862  1  0.530400  0.968200  0.073300  1.0  -0.1206
  C  C863  1  0.506500  0.967800  0.047500  1.0  -0.1233
  C  C864  1  0.558500  0.989800  0.127700  1.0  -0.035
  C  C865  1  0.568900  0.021000  0.139900  1.0  -0.2206
  C  C866  1  0.593600  0.021500  0.166100  1.0  -0.0341
  C  C867  1  0.609500  0.993000  0.178900  1.0  -0.0578
  C  C868  1  0.597900  0.963600  0.165500  1.0  -0.0341
  C  C869  1  0.572900  0.958800  0.139400  1.0  -0.1125
  C  C870  1  0.636300  0.992700  0.203600  1.0  0.7143
  C  C871  1  0.425800  0.530400  0.521800  1.0  0.181
  C  C872  1  0.405400  0.480200  0.499300  1.0  0.3347
  C  C873  1  0.452800  0.507500  0.477000  1.0  0.2546
  C  C874  1  0.424600  0.557500  0.547300  1.0  -0.0384
  C  C875  1  0.452900  0.578400  0.550800  1.0  -0.0715
  C  C876  1  0.451900  0.602400  0.575800  1.0  -0.1229
  C  C877  1  0.421900  0.606900  0.593900  1.0  0.1069
  C  C878  1  0.393400  0.584800  0.591100  1.0  -0.1298
  C  C879  1  0.394700  0.561000  0.566700  1.0  0.0046
  C  C880  1  0.423500  0.632100  0.622500  1.0  0.003
  C  C881  1  0.453200  0.643300  0.641900  1.0  -0.0693
  C  C882  1  0.450300  0.667500  0.668400  1.0  -0.1083
  C  C883  1  0.418000  0.680200  0.676500  1.0  -0.089
  C  C884  1  0.389500  0.668600  0.658500  1.0  -0.0599
  C  C885  1  0.392800  0.644600  0.632400  1.0  -0.1417
  C  C886  1  0.421200  0.704900  0.705900  1.0  0.7014
  C  C887  1  0.379900  0.452700  0.499600  1.0  -0.0713
  C  C888  1  0.356600  0.449400  0.526800  1.0  -0.0416
  C  C889  1  0.332800  0.424200  0.527800  1.0  -0.1569
  C  C890  1  0.334400  0.402900  0.501700  1.0  0.0635
  C  C891  1  0.358300  0.405100  0.475500  1.0  -0.1901
  C  C892  1  0.379600  0.431100  0.474700  1.0  0.0025
  C  C893  1  0.307200  0.375000  0.501400  1.0  0.0424
  C  C894  1  0.297900  0.362600  0.532000  1.0  -0.1966
  C  C895  1  0.273300  0.337800  0.534800  1.0  -0.0264
  C  C896  1  0.257900  0.323800  0.506000  1.0  -0.1146
  C  C897  1  0.267500  0.335700  0.473300  1.0  -0.0832
  C  C898  1  0.292200  0.361400  0.472100  1.0  -0.1142
  C  C899  1  0.228400  0.293200  0.505400  1.0  0.6706
  C  C900  1  0.480700  0.507500  0.451700  1.0  -0.1358
  C  C901  1  0.479400  0.483300  0.425400  1.0  -0.0324
  C  C902  1  0.504300  0.482600  0.399000  1.0  -0.1
  C  C903  1  0.530200  0.507500  0.400600  1.0  -0.0503
  C  C904  1  0.530400  0.531800  0.426700  1.0  -0.1182
  C  C905  1  0.506500  0.532200  0.452500  1.0  -0.1241
  C  C906  1  0.558500  0.510200  0.372300  1.0  -0.0348
  C  C907  1  0.568900  0.479000  0.360100  1.0  -0.2196
  C  C908  1  0.593600  0.478500  0.333900  1.0  -0.0328
  C  C909  1  0.609500  0.507000  0.321100  1.0  -0.0581
  C  C910  1  0.597900  0.536400  0.334500  1.0  -0.034
  C  C911  1  0.572900  0.541200  0.360600  1.0  -0.1146
  C  C912  1  0.636300  0.507300  0.296400  1.0  0.7139
  C  C913  1  0.925800  0.521800  0.530400  1.0  0.1803
  C  C914  1  0.905400  0.499300  0.480200  1.0  0.3331
  C  C915  1  0.952800  0.477000  0.507500  1.0  0.2547
  C  C916  1  0.924600  0.547300  0.557500  1.0  -0.0373
  C  C917  1  0.952900  0.550800  0.578400  1.0  -0.0718
  C  C918  1  0.951900  0.575800  0.602400  1.0  -0.1226
  C  C919  1  0.921900  0.593900  0.606900  1.0  0.1077
  C  C920  1  0.893400  0.591100  0.584800  1.0  -0.1297
  C  C921  1  0.894700  0.566700  0.561000  1.0  0.0058
  C  C922  1  0.923500  0.622500  0.632100  1.0  0.0039
  C  C923  1  0.953200  0.641900  0.643300  1.0  -0.0667
  C  C924  1  0.950300  0.668400  0.667500  1.0  -0.1074
  C  C925  1  0.918000  0.676500  0.680200  1.0  -0.0893
  C  C926  1  0.889500  0.658500  0.668600  1.0  -0.0609
  C  C927  1  0.892800  0.632400  0.644600  1.0  -0.1418
  C  C928  1  0.921200  0.705900  0.704900  1.0  0.699
  C  C929  1  0.879900  0.499600  0.452700  1.0  -0.0714
  C  C930  1  0.856600  0.526800  0.449400  1.0  -0.0425
  C  C931  1  0.832800  0.527800  0.424200  1.0  -0.1609
  C  C932  1  0.834400  0.501700  0.402900  1.0  0.0629
  C  C933  1  0.858300  0.475500  0.405100  1.0  -0.1875
  C  C934  1  0.879600  0.474700  0.431100  1.0  0.0002
  C  C935  1  0.807200  0.501400  0.375000  1.0  0.0422
  C  C936  1  0.797900  0.532000  0.362600  1.0  -0.1989
  C  C937  1  0.773300  0.534800  0.337800  1.0  -0.0278
  C  C938  1  0.757900  0.506000  0.323800  1.0  -0.1153
  C  C939  1  0.767500  0.473300  0.335700  1.0  -0.0831
  C  C940  1  0.792200  0.472100  0.361400  1.0  -0.1156
  C  C941  1  0.728400  0.505400  0.293200  1.0  0.6699
  C  C942  1  0.980700  0.451700  0.507500  1.0  -0.1369
  C  C943  1  0.979400  0.425400  0.483300  1.0  -0.0339
  C  C944  1  0.004300  0.399000  0.482600  1.0  -0.1022
  C  C945  1  0.030200  0.400600  0.507500  1.0  -0.0477
  C  C946  1  0.030400  0.426700  0.531800  1.0  -0.1221
  C  C947  1  0.006500  0.452500  0.532200  1.0  -0.1307
  C  C948  1  0.058500  0.372300  0.510200  1.0  -0.0353
  C  C949  1  0.068900  0.360100  0.479000  1.0  -0.2156
  C  C950  1  0.093600  0.333900  0.478500  1.0  -0.0367
  C  C951  1  0.109500  0.321100  0.507000  1.0  -0.0589
  C  C952  1  0.097900  0.334500  0.536400  1.0  -0.0333
  C  C953  1  0.072900  0.360600  0.541200  1.0  -0.1147
  C  C954  1  0.136300  0.296400  0.507300  1.0  0.7137
  C  C955  1  0.925800  0.978200  0.969600  1.0  0.181
  C  C956  1  0.905400  0.000700  0.019800  1.0  0.3334
  C  C957  1  0.952800  0.023000  0.992500  1.0  0.2556
  C  C958  1  0.924600  0.952700  0.942500  1.0  -0.0351
  C  C959  1  0.952900  0.949200  0.921600  1.0  -0.0723
  C  C960  1  0.951900  0.924200  0.897600  1.0  -0.1222
  C  C961  1  0.921900  0.906100  0.893100  1.0  0.1062
  C  C962  1  0.893400  0.908900  0.915200  1.0  -0.129
  C  C963  1  0.894700  0.933300  0.939000  1.0  0.0069
  C  C964  1  0.923500  0.877500  0.867900  1.0  0.005
  C  C965  1  0.953200  0.858100  0.856700  1.0  -0.067
  C  C966  1  0.950300  0.831600  0.832500  1.0  -0.1068
  C  C967  1  0.918000  0.823500  0.819800  1.0  -0.0891
  C  C968  1  0.889500  0.841500  0.831400  1.0  -0.0607
  C  C969  1  0.892800  0.867600  0.855400  1.0  -0.1406
  C  C970  1  0.921200  0.794100  0.795100  1.0  0.6986
  C  C971  1  0.879900  0.000400  0.047300  1.0  -0.0707
  C  C972  1  0.856600  0.973200  0.050600  1.0  -0.0412
  C  C973  1  0.832800  0.972200  0.075800  1.0  -0.1603
  C  C974  1  0.834400  0.998300  0.097100  1.0  0.0629
  C  C975  1  0.858300  0.024500  0.094900  1.0  -0.1865
  C  C976  1  0.879600  0.025300  0.068900  1.0  0.0012
  C  C977  1  0.807200  0.998600  0.125000  1.0  0.0425
  C  C978  1  0.797900  0.968000  0.137400  1.0  -0.1988
  C  C979  1  0.773300  0.965200  0.162200  1.0  -0.0256
  C  C980  1  0.757900  0.994000  0.176200  1.0  -0.1159
  C  C981  1  0.767500  0.026700  0.164300  1.0  -0.0835
  C  C982  1  0.792200  0.027900  0.138600  1.0  -0.115
  C  C983  1  0.728400  0.994600  0.206800  1.0  0.6702
  C  C984  1  0.980700  0.048300  0.992500  1.0  -0.1369
  C  C985  1  0.979400  0.074600  0.016700  1.0  -0.0338
  C  C986  1  0.004300  0.101000  0.017400  1.0  -0.1024
  C  C987  1  0.030200  0.099400  0.992500  1.0  -0.0492
  C  C988  1  0.030400  0.073300  0.968200  1.0  -0.1212
  C  C989  1  0.006500  0.047500  0.967800  1.0  -0.1253
  C  C990  1  0.058500  0.127700  0.989800  1.0  -0.0357
  C  C991  1  0.068900  0.139900  0.021000  1.0  -0.2173
  C  C992  1  0.093600  0.166100  0.021500  1.0  -0.0363
  C  C993  1  0.109500  0.178900  0.993000  1.0  -0.0576
  C  C994  1  0.097900  0.165500  0.963600  1.0  -0.0355
  C  C995  1  0.072900  0.139400  0.958800  1.0  -0.1153
  C  C996  1  0.136300  0.203600  0.992700  1.0  0.7139
  C  C997  1  0.425800  0.969600  0.521800  1.0  0.1803
  C  C998  1  0.405400  0.019800  0.499300  1.0  0.3346
  C  C999  1  0.452800  0.992500  0.477000  1.0  0.2545
  C  C1000  1  0.424600  0.942500  0.547300  1.0  -0.0364
  C  C1001  1  0.452900  0.921600  0.550800  1.0  -0.0733
  C  C1002  1  0.451900  0.897600  0.575800  1.0  -0.1252
  C  C1003  1  0.421900  0.893100  0.593900  1.0  0.1056
  C  C1004  1  0.393400  0.915200  0.591100  1.0  -0.1302
  C  C1005  1  0.394700  0.939000  0.566700  1.0  0.0044
  C  C1006  1  0.423500  0.867900  0.622500  1.0  0.0031
  C  C1007  1  0.453200  0.856700  0.641900  1.0  -0.0689
  C  C1008  1  0.450300  0.832500  0.668400  1.0  -0.1084
  C  C1009  1  0.418000  0.819800  0.676500  1.0  -0.0891
  C  C1010  1  0.389500  0.831400  0.658500  1.0  -0.0595
  C  C1011  1  0.392800  0.855400  0.632400  1.0  -0.142
  C  C1012  1  0.421200  0.795100  0.705900  1.0  0.7003
  C  C1013  1  0.379900  0.047300  0.499600  1.0  -0.0714
  C  C1014  1  0.356600  0.050600  0.526800  1.0  -0.0411
  C  C1015  1  0.332800  0.075800  0.527800  1.0  -0.157
  C  C1016  1  0.334400  0.097100  0.501700  1.0  0.0629
  C  C1017  1  0.358300  0.094900  0.475500  1.0  -0.1898
  C  C1018  1  0.379600  0.068900  0.474700  1.0  0.0025
  C  C1019  1  0.307200  0.125000  0.501400  1.0  0.0423
  C  C1020  1  0.297900  0.137400  0.532000  1.0  -0.1961
  C  C1021  1  0.273300  0.162200  0.534800  1.0  -0.027
  C  C1022  1  0.257900  0.176200  0.506000  1.0  -0.1143
  C  C1023  1  0.267500  0.164300  0.473300  1.0  -0.0837
  C  C1024  1  0.292200  0.138600  0.472100  1.0  -0.114
  C  C1025  1  0.228400  0.206800  0.505400  1.0  0.6709
  C  C1026  1  0.480700  0.992500  0.451700  1.0  -0.1353
  C  C1027  1  0.479400  0.016700  0.425400  1.0  -0.0331
  C  C1028  1  0.504300  0.017400  0.399000  1.0  -0.1012
  C  C1029  1  0.530200  0.992500  0.400600  1.0  -0.0495
  C  C1030  1  0.530400  0.968200  0.426700  1.0  -0.1206
  C  C1031  1  0.506500  0.967800  0.452500  1.0  -0.1243
  C  C1032  1  0.558500  0.989800  0.372300  1.0  -0.0341
  C  C1033  1  0.568900  0.021000  0.360100  1.0  -0.2204
  C  C1034  1  0.593600  0.021500  0.333900  1.0  -0.0353
  C  C1035  1  0.609500  0.993000  0.321100  1.0  -0.0579
  C  C1036  1  0.597900  0.963600  0.334500  1.0  -0.034
  C  C1037  1  0.572900  0.958800  0.360600  1.0  -0.1126
  C  C1038  1  0.636300  0.992700  0.296400  1.0  0.7139
  C  C1039  1  0.425800  0.530400  0.978200  1.0  0.1804
  C  C1040  1  0.405400  0.480200  0.000700  1.0  0.3347
  C  C1041  1  0.452800  0.507500  0.023000  1.0  0.2543
  C  C1042  1  0.424600  0.557500  0.952700  1.0  -0.0376
  C  C1043  1  0.452900  0.578400  0.949200  1.0  -0.0697
  C  C1044  1  0.451900  0.602400  0.924200  1.0  -0.1241
  C  C1045  1  0.421900  0.606900  0.906100  1.0  0.107
  C  C1046  1  0.393400  0.584800  0.908900  1.0  -0.1306
  C  C1047  1  0.394700  0.561000  0.933300  1.0  0.0041
  C  C1048  1  0.423500  0.632100  0.877500  1.0  0.0033
  C  C1049  1  0.453200  0.643300  0.858100  1.0  -0.0679
  C  C1050  1  0.450300  0.667500  0.831600  1.0  -0.1091
  C  C1051  1  0.418000  0.680200  0.823500  1.0  -0.088
  C  C1052  1  0.389500  0.668600  0.841500  1.0  -0.06
  C  C1053  1  0.392800  0.644600  0.867600  1.0  -0.1418
  C  C1054  1  0.421200  0.704900  0.794100  1.0  0.7011
  C  C1055  1  0.379900  0.452700  0.000400  1.0  -0.0712
  C  C1056  1  0.356600  0.449400  0.973200  1.0  -0.0428
  C  C1057  1  0.332800  0.424200  0.972200  1.0  -0.156
  C  C1058  1  0.334400  0.402900  0.998300  1.0  0.0631
  C  C1059  1  0.358300  0.405100  0.024500  1.0  -0.1875
  C  C1060  1  0.379600  0.431100  0.025300  1.0  0.0012
  C  C1061  1  0.307200  0.375000  0.998600  1.0  0.0423
  C  C1062  1  0.297900  0.362600  0.968000  1.0  -0.1961
  C  C1063  1  0.273300  0.337800  0.965200  1.0  -0.0268
  C  C1064  1  0.257900  0.323800  0.994000  1.0  -0.1149
  C  C1065  1  0.267500  0.335700  0.026700  1.0  -0.0835
  C  C1066  1  0.292200  0.361400  0.027900  1.0  -0.1135
  C  C1067  1  0.228400  0.293200  0.994600  1.0  0.6703
  C  C1068  1  0.480700  0.507500  0.048300  1.0  -0.1365
  C  C1069  1  0.479400  0.483300  0.074600  1.0  -0.0322
  C  C1070  1  0.504300  0.482600  0.101000  1.0  -0.1024
  C  C1071  1  0.530200  0.507500  0.099400  1.0  -0.0507
  C  C1072  1  0.530400  0.531800  0.073300  1.0  -0.1177
  C  C1073  1  0.506500  0.532200  0.047500  1.0  -0.123
  C  C1074  1  0.558500  0.510200  0.127700  1.0  -0.0351
  C  C1075  1  0.568900  0.479000  0.139900  1.0  -0.2194
  C  C1076  1  0.593600  0.478500  0.166100  1.0  -0.0337
  C  C1077  1  0.609500  0.507000  0.178900  1.0  -0.058
  C  C1078  1  0.597900  0.536400  0.165500  1.0  -0.034
  C  C1079  1  0.572900  0.541200  0.139400  1.0  -0.1152
  C  C1080  1  0.636300  0.507300  0.203600  1.0  0.7144
  N  N1081  1  0.047900  0.500600  0.467200  1.0  -0.3203
  N  N1082  1  0.097300  0.477100  0.495200  1.0  -0.3106
  N  N1083  1  0.069400  0.524100  0.519000  1.0  -0.4062
  N  N1084  1  0.047900  0.999400  0.032800  1.0  -0.3218
  N  N1085  1  0.097300  0.022900  0.004800  1.0  -0.3099
  N  N1086  1  0.069400  0.975900  0.981000  1.0  -0.4069
  N  N1087  1  0.547900  0.032800  0.500600  1.0  -0.3191
  N  N1088  1  0.597300  0.004800  0.477100  1.0  -0.3105
  N  N1089  1  0.569400  0.981000  0.524100  1.0  -0.4031
  N  N1090  1  0.547900  0.467200  0.999400  1.0  -0.3202
  N  N1091  1  0.597300  0.495200  0.022900  1.0  -0.3102
  N  N1092  1  0.569400  0.519000  0.975900  1.0  -0.4041
  N  N1093  1  0.047900  0.500600  0.032800  1.0  -0.3212
  N  N1094  1  0.097300  0.477100  0.004800  1.0  -0.3102
  N  N1095  1  0.069400  0.524100  0.981000  1.0  -0.4069
  N  N1096  1  0.047900  0.999400  0.467200  1.0  -0.322
  N  N1097  1  0.097300  0.022900  0.495200  1.0  -0.3104
  N  N1098  1  0.069400  0.975900  0.519000  1.0  -0.4055
  N  N1099  1  0.547900  0.032800  0.999400  1.0  -0.3189
  N  N1100  1  0.597300  0.004800  0.022900  1.0  -0.3106
  N  N1101  1  0.569400  0.981000  0.975900  1.0  -0.4054
  N  N1102  1  0.547900  0.467200  0.500600  1.0  -0.3194
  N  N1103  1  0.597300  0.495200  0.477100  1.0  -0.3107
  N  N1104  1  0.569400  0.519000  0.524100  1.0  -0.4029
  N  N1105  1  0.952100  0.499400  0.967200  1.0  -0.3207
  N  N1106  1  0.902700  0.522900  0.995200  1.0  -0.3075
  N  N1107  1  0.930600  0.475900  0.019000  1.0  -0.4058
  N  N1108  1  0.952100  0.000600  0.532800  1.0  -0.3222
  N  N1109  1  0.902700  0.977100  0.504800  1.0  -0.3074
  N  N1110  1  0.930600  0.024100  0.481000  1.0  -0.4072
  N  N1111  1  0.452100  0.967200  0.000600  1.0  -0.319
  N  N1112  1  0.402700  0.995200  0.977100  1.0  -0.3084
  N  N1113  1  0.430600  0.019000  0.024100  1.0  -0.4042
  N  N1114  1  0.452100  0.532800  0.499400  1.0  -0.319
  N  N1115  1  0.402700  0.504800  0.522900  1.0  -0.3074
  N  N1116  1  0.430600  0.481000  0.475900  1.0  -0.4061
  N  N1117  1  0.952100  0.499400  0.532800  1.0  -0.3222
  N  N1118  1  0.902700  0.522900  0.504800  1.0  -0.3075
  N  N1119  1  0.930600  0.475900  0.481000  1.0  -0.4072
  N  N1120  1  0.952100  0.000600  0.967200  1.0  -0.3204
  N  N1121  1  0.902700  0.977100  0.995200  1.0  -0.3073
  N  N1122  1  0.930600  0.024100  0.019000  1.0  -0.4061
  N  N1123  1  0.452100  0.967200  0.499400  1.0  -0.3187
  N  N1124  1  0.402700  0.995200  0.522900  1.0  -0.3072
  N  N1125  1  0.430600  0.019000  0.475900  1.0  -0.4048
  N  N1126  1  0.452100  0.532800  0.000600  1.0  -0.3203
  N  N1127  1  0.402700  0.504800  0.977100  1.0  -0.3082
  N  N1128  1  0.430600  0.481000  0.024100  1.0  -0.4044
  O  O1129  1  0.051770  0.284200  0.284900  1.0  -0.5677
  O  O1130  1  0.109070  0.284790  0.284710  1.0  -0.5767
  O  O1131  1  0.280490  0.466470  0.715960  1.0  -0.5477
  O  O1132  1  0.281970  0.524110  0.715550  1.0  -0.5729
  O  O1133  1  0.854670  0.715610  0.519150  1.0  -0.5941
  O  O1134  1  0.852200  0.715500  0.465140  1.0  -0.5849
  O  O1135  1  0.051770  0.215800  0.215100  1.0  -0.5676
  O  O1136  1  0.109070  0.215210  0.215290  1.0  -0.5767
  O  O1137  1  0.280490  0.033530  0.784040  1.0  -0.547
  O  O1138  1  0.281970  0.975890  0.784450  1.0  -0.5734
  O  O1139  1  0.854670  0.784390  0.980850  1.0  -0.5931
  O  O1140  1  0.852200  0.784500  0.034860  1.0  -0.5845
  O  O1141  1  0.551770  0.215100  0.284200  1.0  -0.5675
  O  O1142  1  0.609070  0.215290  0.284790  1.0  -0.5763
  O  O1143  1  0.780490  0.784040  0.466470  1.0  -0.5452
  O  O1144  1  0.781970  0.784450  0.524110  1.0  -0.5721
  O  O1145  1  0.354670  0.980850  0.715610  1.0  -0.5935
  O  O1146  1  0.352200  0.034860  0.715500  1.0  -0.5869
  O  O1147  1  0.551770  0.284900  0.215800  1.0  -0.5676
  O  O1148  1  0.609070  0.284710  0.215210  1.0  -0.5765
  O  O1149  1  0.780490  0.715960  0.033530  1.0  -0.5451
  O  O1150  1  0.781970  0.715550  0.975890  1.0  -0.5721
  O  O1151  1  0.354670  0.519150  0.784390  1.0  -0.5944
  O  O1152  1  0.352200  0.465140  0.784500  1.0  -0.5878
  O  O1153  1  0.051770  0.284200  0.215100  1.0  -0.5677
  O  O1154  1  0.109070  0.284790  0.215290  1.0  -0.5764
  O  O1155  1  0.280490  0.466470  0.784040  1.0  -0.5475
  O  O1156  1  0.281970  0.524110  0.784450  1.0  -0.5733
  O  O1157  1  0.854670  0.715610  0.980850  1.0  -0.5929
  O  O1158  1  0.852200  0.715500  0.034860  1.0  -0.5845
  O  O1159  1  0.051770  0.215800  0.284900  1.0  -0.5674
  O  O1160  1  0.109070  0.215210  0.284710  1.0  -0.5771
  O  O1161  1  0.280490  0.033530  0.715960  1.0  -0.5467
  O  O1162  1  0.281970  0.975890  0.715550  1.0  -0.5732
  O  O1163  1  0.854670  0.784390  0.519150  1.0  -0.5941
  O  O1164  1  0.852200  0.784500  0.465140  1.0  -0.585
  O  O1165  1  0.551770  0.215100  0.215800  1.0  -0.5674
  O  O1166  1  0.609070  0.215290  0.215210  1.0  -0.5765
  O  O1167  1  0.780490  0.784040  0.033530  1.0  -0.545
  O  O1168  1  0.781970  0.784450  0.975890  1.0  -0.5725
  O  O1169  1  0.354670  0.980850  0.784390  1.0  -0.594
  O  O1170  1  0.352200  0.034860  0.784500  1.0  -0.5869
  O  O1171  1  0.551770  0.284900  0.284200  1.0  -0.5678
  O  O1172  1  0.609070  0.284710  0.284790  1.0  -0.5764
  O  O1173  1  0.780490  0.715960  0.466470  1.0  -0.5449
  O  O1174  1  0.781970  0.715550  0.524110  1.0  -0.5717
  O  O1175  1  0.354670  0.519150  0.715610  1.0  -0.5943
  O  O1176  1  0.352200  0.465140  0.715500  1.0  -0.5879
  O  O1177  1  0.948230  0.715800  0.784900  1.0  -0.5679
  O  O1178  1  0.890930  0.715210  0.784710  1.0  -0.577
  O  O1179  1  0.719510  0.533530  0.215960  1.0  -0.5461
  O  O1180  1  0.718030  0.475890  0.215550  1.0  -0.5725
  O  O1181  1  0.145330  0.284390  0.019150  1.0  -0.5938
  O  O1182  1  0.147800  0.284500  0.965140  1.0  -0.5846
  O  O1183  1  0.948230  0.784200  0.715100  1.0  -0.5683
  O  O1184  1  0.890930  0.784790  0.715290  1.0  -0.5767
  O  O1185  1  0.719510  0.966470  0.284040  1.0  -0.5471
  O  O1186  1  0.718030  0.024110  0.284450  1.0  -0.5722
  O  O1187  1  0.145330  0.215610  0.480850  1.0  -0.5927
  O  O1188  1  0.147800  0.215500  0.534860  1.0  -0.5844
  O  O1189  1  0.448230  0.784900  0.784200  1.0  -0.5683
  O  O1190  1  0.390930  0.784710  0.784790  1.0  -0.5773
  O  O1191  1  0.219510  0.215960  0.966470  1.0  -0.5448
  O  O1192  1  0.218030  0.215550  0.024110  1.0  -0.5713
  O  O1193  1  0.645330  0.019150  0.215610  1.0  -0.594
  O  O1194  1  0.647800  0.965140  0.215500  1.0  -0.5864
  O  O1195  1  0.448230  0.715100  0.715800  1.0  -0.5678
  O  O1196  1  0.390930  0.715290  0.715210  1.0  -0.5765
  O  O1197  1  0.219510  0.284040  0.533530  1.0  -0.5443
  O  O1198  1  0.218030  0.284450  0.475890  1.0  -0.572
  O  O1199  1  0.645330  0.480850  0.284390  1.0  -0.5937
  O  O1200  1  0.647800  0.534860  0.284500  1.0  -0.5865
  O  O1201  1  0.948230  0.715800  0.715100  1.0  -0.5681
  O  O1202  1  0.890930  0.715210  0.715290  1.0  -0.5768
  O  O1203  1  0.719510  0.533530  0.284040  1.0  -0.5462
  O  O1204  1  0.718030  0.475890  0.284450  1.0  -0.5728
  O  O1205  1  0.145330  0.284390  0.480850  1.0  -0.5928
  O  O1206  1  0.147800  0.284500  0.534860  1.0  -0.5846
  O  O1207  1  0.948230  0.784200  0.784900  1.0  -0.5683
  O  O1208  1  0.890930  0.784790  0.784710  1.0  -0.577
  O  O1209  1  0.719510  0.966470  0.215960  1.0  -0.5473
  O  O1210  1  0.718030  0.024110  0.215550  1.0  -0.5718
  O  O1211  1  0.145330  0.215610  0.019150  1.0  -0.5937
  O  O1212  1  0.147800  0.215500  0.965140  1.0  -0.5843
  O  O1213  1  0.448230  0.784900  0.715800  1.0  -0.5681
  O  O1214  1  0.390930  0.784710  0.715210  1.0  -0.5767
  O  O1215  1  0.219510  0.215960  0.533530  1.0  -0.5444
  O  O1216  1  0.218030  0.215550  0.475890  1.0  -0.5717
  O  O1217  1  0.645330  0.019150  0.284390  1.0  -0.5942
  O  O1218  1  0.647800  0.965140  0.284500  1.0  -0.5863
  O  O1219  1  0.448230  0.715100  0.784200  1.0  -0.5679
  O  O1220  1  0.390930  0.715290  0.784790  1.0  -0.5765
  O  O1221  1  0.219510  0.284040  0.966470  1.0  -0.5451
  O  O1222  1  0.218030  0.284450  0.024110  1.0  -0.5718
  O  O1223  1  0.645330  0.480850  0.215610  1.0  -0.5929
  O  O1224  1  0.647800  0.534860  0.215500  1.0  -0.5866
