# generated using pymatgen
data_Ni3H44C72N6O13
_symmetry_space_group_name_H-M   'P 1'
_cell_length_a   29.10600000
_cell_length_b   29.10600000
_cell_length_c   23.41700000
_cell_angle_alpha   90.00000000
_cell_angle_beta   90.00000000
_cell_angle_gamma   120.00000000
_symmetry_Int_Tables_number   1
_chemical_formula_structural   Ni3H44C72N6O13
_chemical_formula_sum   'Ni18 H264 C432 N36 O78'
_cell_volume   17180.14945871
_cell_formula_units_Z   6
loop_
 _symmetry_equiv_pos_site_id
 _symmetry_equiv_pos_as_xyz
  1  'x, y, z'
loop_
 _atom_site_type_symbol
 _atom_site_label
 _atom_site_symmetry_multiplicity
 _atom_site_fract_x
 _atom_site_fract_y
 _atom_site_fract_z
 _atom_site_occupancy
 _atom_site_charge
  Ni  Ni1  1  0.666667  0.402180  0.083330  1.0  0.8732
  Ni  Ni2  1  0.597820  0.264480  0.083330  1.0  0.8717
  Ni  Ni3  1  0.735520  0.333333  0.083330  1.0  0.8721
  Ni  Ni4  1  0.402180  0.666667  0.416670  1.0  0.8712
  Ni  Ni5  1  0.068850  0.000000  0.750000  1.0  0.8722
  Ni  Ni6  1  0.264480  0.597820  0.416670  1.0  0.8716
  Ni  Ni7  1  0.931150  0.931150  0.750000  1.0  0.8728
  Ni  Ni8  1  0.333333  0.735520  0.416670  1.0  0.8741
  Ni  Ni9  1  0.000000  0.068850  0.750000  1.0  0.8742
  Ni  Ni10  1  0.333333  0.597820  0.916670  1.0  0.8706
  Ni  Ni11  1  0.000000  0.931150  0.250000  1.0  0.8715
  Ni  Ni12  1  0.402180  0.735520  0.916670  1.0  0.8716
  Ni  Ni13  1  0.068850  0.068850  0.250000  1.0  0.8727
  Ni  Ni14  1  0.264480  0.666667  0.916670  1.0  0.873
  Ni  Ni15  1  0.931150  0.000000  0.250000  1.0  0.873
  Ni  Ni16  1  0.597820  0.333333  0.583330  1.0  0.872
  Ni  Ni17  1  0.735520  0.402180  0.583330  1.0  0.8717
  Ni  Ni18  1  0.666667  0.264480  0.583330  1.0  0.8715
  H  H19  1  0.531000  0.751900  0.012200  1.0  0.1218
  H  H20  1  0.607000  0.752200  0.045000  1.0  0.1266
  H  H21  1  0.522100  0.594200  0.065000  1.0  0.1375
  H  H22  1  0.447400  0.593500  0.029600  1.0  0.1254
  H  H23  1  0.590500  0.591700  0.058000  1.0  0.1448
  H  H24  1  0.746500  0.600500  0.089100  1.0  0.1427
  H  H25  1  0.744200  0.519900  0.089100  1.0  0.0956
  H  H26  1  0.197670  0.085230  0.345530  1.0  0.1218
  H  H27  1  0.273670  0.085530  0.378330  1.0  0.1266
  H  H28  1  0.188770  0.927530  0.398330  1.0  0.1376
  H  H29  1  0.114070  0.926830  0.362930  1.0  0.1253
  H  H30  1  0.257170  0.925030  0.391330  1.0  0.1448
  H  H31  1  0.413170  0.933830  0.422430  1.0  0.1427
  H  H32  1  0.410870  0.853230  0.422430  1.0  0.0956
  H  H33  1  0.864330  0.418570  0.678870  1.0  0.1218
  H  H34  1  0.940330  0.418870  0.711670  1.0  0.1266
  H  H35  1  0.855430  0.260870  0.731670  1.0  0.1375
  H  H36  1  0.780730  0.260170  0.696270  1.0  0.1254
  H  H37  1  0.923830  0.258370  0.724670  1.0  0.1448
  H  H38  1  0.079830  0.267170  0.755770  1.0  0.1425
  H  H39  1  0.077530  0.186570  0.755770  1.0  0.0956
  H  H40  1  0.248100  0.779100  0.012200  1.0  0.1206
  H  H41  1  0.247800  0.854800  0.045000  1.0  0.1255
  H  H42  1  0.405800  0.927900  0.065000  1.0  0.1362
  H  H43  1  0.406500  0.853900  0.029600  1.0  0.1251
  H  H44  1  0.408300  0.998800  0.058000  1.0  0.145
  H  H45  1  0.399500  0.146000  0.089100  1.0  0.143
  H  H46  1  0.480100  0.224300  0.089100  1.0  0.0948
  H  H47  1  0.914770  0.112430  0.345530  1.0  0.1206
  H  H48  1  0.914470  0.188130  0.378330  1.0  0.1255
  H  H49  1  0.072470  0.261230  0.398330  1.0  0.1363
  H  H50  1  0.073170  0.187230  0.362930  1.0  0.1251
  H  H51  1  0.074970  0.332130  0.391330  1.0  0.145
  H  H52  1  0.066170  0.479330  0.422430  1.0  0.1429
  H  H53  1  0.146770  0.557630  0.422430  1.0  0.0949
  H  H54  1  0.581430  0.445770  0.678870  1.0  0.1206
  H  H55  1  0.581130  0.521470  0.711670  1.0  0.1255
  H  H56  1  0.739130  0.594570  0.731670  1.0  0.1362
  H  H57  1  0.739830  0.520570  0.696270  1.0  0.125
  H  H58  1  0.741630  0.665470  0.724670  1.0  0.1451
  H  H59  1  0.732830  0.812670  0.755770  1.0  0.1432
  H  H60  1  0.813430  0.890970  0.755770  1.0  0.0948
  H  H61  1  0.220900  0.469000  0.012200  1.0  0.1227
  H  H62  1  0.145200  0.393000  0.045000  1.0  0.1258
  H  H63  1  0.072100  0.477900  0.065000  1.0  0.1364
  H  H64  1  0.146100  0.552600  0.029600  1.0  0.1261
  H  H65  1  0.001200  0.409500  0.058000  1.0  0.1447
  H  H66  1  0.854000  0.253500  0.089100  1.0  0.1444
  H  H67  1  0.775700  0.255800  0.089100  1.0  0.096
  H  H68  1  0.887570  0.802330  0.345530  1.0  0.1227
  H  H69  1  0.811870  0.726330  0.378330  1.0  0.1258
  H  H70  1  0.738770  0.811230  0.398330  1.0  0.1364
  H  H71  1  0.812770  0.885930  0.362930  1.0  0.1261
  H  H72  1  0.667870  0.742830  0.391330  1.0  0.1447
  H  H73  1  0.520670  0.586830  0.422430  1.0  0.1444
  H  H74  1  0.442370  0.589130  0.422430  1.0  0.096
  H  H75  1  0.554230  0.135670  0.678870  1.0  0.1227
  H  H76  1  0.478530  0.059670  0.711670  1.0  0.1258
  H  H77  1  0.405430  0.144570  0.731670  1.0  0.1364
  H  H78  1  0.479430  0.219270  0.696270  1.0  0.1261
  H  H79  1  0.334530  0.076170  0.724670  1.0  0.1447
  H  H80  1  0.187330  0.920170  0.755770  1.0  0.1442
  H  H81  1  0.109030  0.922470  0.755770  1.0  0.0961
  H  H82  1  0.751900  0.531000  0.487800  1.0  0.1233
  H  H83  1  0.752200  0.607000  0.455000  1.0  0.1256
  H  H84  1  0.594200  0.522100  0.435000  1.0  0.1376
  H  H85  1  0.593500  0.447400  0.470400  1.0  0.1254
  H  H86  1  0.591700  0.590500  0.442000  1.0  0.1444
  H  H87  1  0.600500  0.746500  0.410900  1.0  0.1449
  H  H88  1  0.519900  0.744200  0.410900  1.0  0.0964
  H  H89  1  0.418570  0.864330  0.821130  1.0  0.1233
  H  H90  1  0.418870  0.940330  0.788330  1.0  0.1256
  H  H91  1  0.260870  0.855430  0.768330  1.0  0.1377
  H  H92  1  0.260170  0.780730  0.803730  1.0  0.1255
  H  H93  1  0.258370  0.923830  0.775330  1.0  0.1444
  H  H94  1  0.267170  0.079830  0.744230  1.0  0.1447
  H  H95  1  0.186570  0.077530  0.744230  1.0  0.0964
  H  H96  1  0.085230  0.197670  0.154470  1.0  0.1233
  H  H97  1  0.085530  0.273670  0.121670  1.0  0.1256
  H  H98  1  0.927530  0.188770  0.101670  1.0  0.1377
  H  H99  1  0.926830  0.114070  0.137070  1.0  0.1254
  H  H100  1  0.925030  0.257170  0.108670  1.0  0.1444
  H  H101  1  0.933830  0.413170  0.077570  1.0  0.1449
  H  H102  1  0.853230  0.410870  0.077570  1.0  0.0964
  H  H103  1  0.779100  0.248100  0.487800  1.0  0.1222
  H  H104  1  0.854800  0.247800  0.455000  1.0  0.1261
  H  H105  1  0.927900  0.405800  0.435000  1.0  0.1384
  H  H106  1  0.853900  0.406500  0.470400  1.0  0.1258
  H  H107  1  0.998800  0.408300  0.442000  1.0  0.1437
  H  H108  1  0.146000  0.399500  0.410900  1.0  0.1431
  H  H109  1  0.224300  0.480100  0.410900  1.0  0.0961
  H  H110  1  0.445770  0.581430  0.821130  1.0  0.1222
  H  H111  1  0.521470  0.581130  0.788330  1.0  0.1261
  H  H112  1  0.594570  0.739130  0.768330  1.0  0.1384
  H  H113  1  0.520570  0.739830  0.803730  1.0  0.1257
  H  H114  1  0.665470  0.741630  0.775330  1.0  0.1437
  H  H115  1  0.812670  0.732830  0.744230  1.0  0.1433
  H  H116  1  0.890970  0.813430  0.744230  1.0  0.0961
  H  H117  1  0.112430  0.914770  0.154470  1.0  0.1222
  H  H118  1  0.188130  0.914470  0.121670  1.0  0.1261
  H  H119  1  0.261230  0.072470  0.101670  1.0  0.1385
  H  H120  1  0.187230  0.073170  0.137070  1.0  0.1258
  H  H121  1  0.332130  0.074970  0.108670  1.0  0.1437
  H  H122  1  0.479330  0.066170  0.077570  1.0  0.143
  H  H123  1  0.557630  0.146770  0.077570  1.0  0.0961
  H  H124  1  0.469000  0.220900  0.487800  1.0  0.1214
  H  H125  1  0.393000  0.145200  0.455000  1.0  0.1251
  H  H126  1  0.477900  0.072100  0.435000  1.0  0.1375
  H  H127  1  0.552600  0.146100  0.470400  1.0  0.126
  H  H128  1  0.409500  0.001200  0.442000  1.0  0.1441
  H  H129  1  0.253500  0.854000  0.410900  1.0  0.1435
  H  H130  1  0.255800  0.775700  0.410900  1.0  0.0952
  H  H131  1  0.135670  0.554230  0.821130  1.0  0.1214
  H  H132  1  0.059670  0.478530  0.788330  1.0  0.1251
  H  H133  1  0.144570  0.405430  0.768330  1.0  0.1375
  H  H134  1  0.219270  0.479430  0.803730  1.0  0.126
  H  H135  1  0.076170  0.334530  0.775330  1.0  0.1441
  H  H136  1  0.920170  0.187330  0.744230  1.0  0.1432
  H  H137  1  0.922470  0.109030  0.744230  1.0  0.0952
  H  H138  1  0.802330  0.887570  0.154470  1.0  0.1214
  H  H139  1  0.726330  0.811870  0.121670  1.0  0.1251
  H  H140  1  0.811230  0.738770  0.101670  1.0  0.1375
  H  H141  1  0.885930  0.812770  0.137070  1.0  0.126
  H  H142  1  0.742830  0.667870  0.108670  1.0  0.1441
  H  H143  1  0.586830  0.520670  0.077570  1.0  0.1435
  H  H144  1  0.589130  0.442370  0.077570  1.0  0.0952
  H  H145  1  0.469000  0.248100  0.987800  1.0  0.1224
  H  H146  1  0.393000  0.247800  0.955000  1.0  0.126
  H  H147  1  0.477900  0.405800  0.935000  1.0  0.1385
  H  H148  1  0.552600  0.406500  0.970400  1.0  0.1256
  H  H149  1  0.409500  0.408300  0.942000  1.0  0.1432
  H  H150  1  0.253500  0.399500  0.910900  1.0  0.143
  H  H151  1  0.255800  0.480100  0.910900  1.0  0.0956
  H  H152  1  0.135670  0.581430  0.321130  1.0  0.1224
  H  H153  1  0.059670  0.581130  0.288330  1.0  0.126
  H  H154  1  0.144570  0.739130  0.268330  1.0  0.1386
  H  H155  1  0.219270  0.739830  0.303730  1.0  0.1256
  H  H156  1  0.076170  0.741630  0.275330  1.0  0.1432
  H  H157  1  0.920170  0.732830  0.244230  1.0  0.1428
  H  H158  1  0.922470  0.813430  0.244230  1.0  0.0956
  H  H159  1  0.802330  0.914770  0.654470  1.0  0.1223
  H  H160  1  0.726330  0.914470  0.621670  1.0  0.1259
  H  H161  1  0.811230  0.072470  0.601670  1.0  0.1385
  H  H162  1  0.885930  0.073170  0.637070  1.0  0.1256
  H  H163  1  0.742830  0.074970  0.608670  1.0  0.1432
  H  H164  1  0.586830  0.066170  0.577570  1.0  0.143
  H  H165  1  0.589130  0.146770  0.577570  1.0  0.0956
  H  H166  1  0.751900  0.220900  0.987800  1.0  0.1213
  H  H167  1  0.752200  0.145200  0.955000  1.0  0.1241
  H  H168  1  0.594200  0.072100  0.935000  1.0  0.1374
  H  H169  1  0.593500  0.146100  0.970400  1.0  0.127
  H  H170  1  0.591700  0.001200  0.942000  1.0  0.1441
  H  H171  1  0.600500  0.854000  0.910900  1.0  0.1433
  H  H172  1  0.519900  0.775700  0.910900  1.0  0.0955
  H  H173  1  0.418570  0.554230  0.321130  1.0  0.1213
  H  H174  1  0.418870  0.478530  0.288330  1.0  0.1242
  H  H175  1  0.260870  0.405430  0.268330  1.0  0.1374
  H  H176  1  0.260170  0.479430  0.303730  1.0  0.1269
  H  H177  1  0.258370  0.334530  0.275330  1.0  0.1442
  H  H178  1  0.267170  0.187330  0.244230  1.0  0.1434
  H  H179  1  0.186570  0.109030  0.244230  1.0  0.0955
  H  H180  1  0.085230  0.887570  0.654470  1.0  0.1213
  H  H181  1  0.085530  0.811870  0.621670  1.0  0.1242
  H  H182  1  0.927530  0.738770  0.601670  1.0  0.1375
  H  H183  1  0.926830  0.812770  0.637070  1.0  0.127
  H  H184  1  0.925030  0.667870  0.608670  1.0  0.1441
  H  H185  1  0.933830  0.520670  0.577570  1.0  0.1432
  H  H186  1  0.853230  0.442370  0.577570  1.0  0.0955
  H  H187  1  0.779100  0.531000  0.987800  1.0  0.1236
  H  H188  1  0.854800  0.607000  0.955000  1.0  0.1261
  H  H189  1  0.927900  0.522100  0.935000  1.0  0.1375
  H  H190  1  0.853900  0.447400  0.970400  1.0  0.1255
  H  H191  1  0.998800  0.590500  0.942000  1.0  0.1443
  H  H192  1  0.146000  0.746500  0.910900  1.0  0.1446
  H  H193  1  0.224300  0.744200  0.910900  1.0  0.0968
  H  H194  1  0.445770  0.864330  0.321130  1.0  0.1236
  H  H195  1  0.521470  0.940330  0.288330  1.0  0.1261
  H  H196  1  0.594570  0.855430  0.268330  1.0  0.1375
  H  H197  1  0.520570  0.780730  0.303730  1.0  0.1255
  H  H198  1  0.665470  0.923830  0.275330  1.0  0.1443
  H  H199  1  0.812670  0.079830  0.244230  1.0  0.1444
  H  H200  1  0.890970  0.077530  0.244230  1.0  0.0968
  H  H201  1  0.112430  0.197670  0.654470  1.0  0.1236
  H  H202  1  0.188130  0.273670  0.621670  1.0  0.126
  H  H203  1  0.261230  0.188770  0.601670  1.0  0.1375
  H  H204  1  0.187230  0.114070  0.637070  1.0  0.1255
  H  H205  1  0.332130  0.257170  0.608670  1.0  0.1443
  H  H206  1  0.479330  0.413170  0.577570  1.0  0.1446
  H  H207  1  0.557630  0.410870  0.577570  1.0  0.0968
  H  H208  1  0.248100  0.469000  0.512200  1.0  0.1236
  H  H209  1  0.247800  0.393000  0.545000  1.0  0.1255
  H  H210  1  0.405800  0.477900  0.565000  1.0  0.1367
  H  H211  1  0.406500  0.552600  0.529600  1.0  0.1259
  H  H212  1  0.408300  0.409500  0.558000  1.0  0.1444
  H  H213  1  0.399500  0.253500  0.589100  1.0  0.1438
  H  H214  1  0.480100  0.255800  0.589100  1.0  0.0964
  H  H215  1  0.914770  0.802330  0.845530  1.0  0.1236
  H  H216  1  0.914470  0.726330  0.878330  1.0  0.1255
  H  H217  1  0.072470  0.811230  0.898330  1.0  0.1367
  H  H218  1  0.073170  0.885930  0.862930  1.0  0.1259
  H  H219  1  0.074970  0.742830  0.891330  1.0  0.1444
  H  H220  1  0.066170  0.586830  0.922430  1.0  0.1438
  H  H221  1  0.146770  0.589130  0.922430  1.0  0.0964
  H  H222  1  0.581430  0.135670  0.178870  1.0  0.1236
  H  H223  1  0.581130  0.059670  0.211670  1.0  0.1255
  H  H224  1  0.739130  0.144570  0.231670  1.0  0.1368
  H  H225  1  0.739830  0.219270  0.196270  1.0  0.1259
  H  H226  1  0.741630  0.076170  0.224670  1.0  0.1444
  H  H227  1  0.732830  0.920170  0.255770  1.0  0.1436
  H  H228  1  0.813430  0.922470  0.255770  1.0  0.0965
  H  H229  1  0.220900  0.751900  0.512200  1.0  0.1219
  H  H230  1  0.145200  0.752200  0.545000  1.0  0.1267
  H  H231  1  0.072100  0.594200  0.565000  1.0  0.137
  H  H232  1  0.146100  0.593500  0.529600  1.0  0.1257
  H  H233  1  0.001200  0.591700  0.558000  1.0  0.1447
  H  H234  1  0.854000  0.600500  0.589100  1.0  0.1425
  H  H235  1  0.775700  0.519900  0.589100  1.0  0.0954
  H  H236  1  0.887570  0.085230  0.845530  1.0  0.1218
  H  H237  1  0.811870  0.085530  0.878330  1.0  0.1268
  H  H238  1  0.738770  0.927530  0.898330  1.0  0.1371
  H  H239  1  0.812770  0.926830  0.862930  1.0  0.1257
  H  H240  1  0.667870  0.925030  0.891330  1.0  0.1447
  H  H241  1  0.520670  0.933830  0.922430  1.0  0.1423
  H  H242  1  0.442370  0.853230  0.922430  1.0  0.0954
  H  H243  1  0.554230  0.418570  0.178870  1.0  0.1219
  H  H244  1  0.478530  0.418870  0.211670  1.0  0.1267
  H  H245  1  0.405430  0.260870  0.231670  1.0  0.137
  H  H246  1  0.479430  0.260170  0.196270  1.0  0.1256
  H  H247  1  0.334530  0.258370  0.224670  1.0  0.1447
  H  H248  1  0.187330  0.267170  0.255770  1.0  0.1426
  H  H249  1  0.109030  0.186570  0.255770  1.0  0.0954
  H  H250  1  0.531000  0.779100  0.512200  1.0  0.1209
  H  H251  1  0.607000  0.854800  0.545000  1.0  0.1245
  H  H252  1  0.522100  0.927900  0.565000  1.0  0.1361
  H  H253  1  0.447400  0.853900  0.529600  1.0  0.1274
  H  H254  1  0.590500  0.998800  0.558000  1.0  0.145
  H  H255  1  0.746500  0.146000  0.589100  1.0  0.1434
  H  H256  1  0.744200  0.224300  0.589100  1.0  0.0946
  H  H257  1  0.197670  0.112430  0.845530  1.0  0.1209
  H  H258  1  0.273670  0.188130  0.878330  1.0  0.1245
  H  H259  1  0.188770  0.261230  0.898330  1.0  0.1361
  H  H260  1  0.114070  0.187230  0.862930  1.0  0.1274
  H  H261  1  0.257170  0.332130  0.891330  1.0  0.145
  H  H262  1  0.413170  0.479330  0.922430  1.0  0.1434
  H  H263  1  0.410870  0.557630  0.922430  1.0  0.0946
  H  H264  1  0.864330  0.445770  0.178870  1.0  0.1209
  H  H265  1  0.940330  0.521470  0.211670  1.0  0.1245
  H  H266  1  0.855430  0.594570  0.231670  1.0  0.1361
  H  H267  1  0.780730  0.520570  0.196270  1.0  0.1273
  H  H268  1  0.923830  0.665470  0.224670  1.0  0.145
  H  H269  1  0.079830  0.812670  0.255770  1.0  0.1432
  H  H270  1  0.077530  0.890970  0.255770  1.0  0.0946
  H  H271  1  0.666667  0.333333  0.126000  1.0  0.1508
  H  H272  1  0.333333  0.666667  0.459330  1.0  0.1508
  H  H273  1  0.000000  0.000000  0.792670  1.0  0.1507
  H  H274  1  0.333333  0.666667  0.374000  1.0  0.1545
  H  H275  1  0.000000  0.000000  0.707330  1.0  0.1544
  H  H276  1  0.666667  0.333333  0.040670  1.0  0.1545
  H  H277  1  0.333333  0.666667  0.874000  1.0  0.1545
  H  H278  1  0.000000  0.000000  0.207330  1.0  0.1544
  H  H279  1  0.666667  0.333333  0.540670  1.0  0.1545
  H  H280  1  0.666667  0.333333  0.626000  1.0  0.1508
  H  H281  1  0.333333  0.666667  0.959330  1.0  0.1508
  H  H282  1  0.000000  0.000000  0.292670  1.0  0.1507
  C  C283  1  0.433600  0.670300  0.988300  1.0  0.7078
  C  C284  1  0.482300  0.672600  0.014300  1.0  -0.1119
  C  C285  1  0.529300  0.719300  0.021000  1.0  -0.0523
  C  C286  1  0.574800  0.719400  0.040800  1.0  -0.0632
  C  C287  1  0.573700  0.673200  0.054200  1.0  -0.0668
  C  C288  1  0.524800  0.626400  0.052200  1.0  -0.1423
  C  C289  1  0.480000  0.626000  0.031700  1.0  -0.0198
  C  C290  1  0.622500  0.671700  0.069800  1.0  0.0726
  C  C291  1  0.621900  0.623300  0.068700  1.0  -0.1308
  C  C292  1  0.713400  0.568400  0.086700  1.0  -0.1834
  C  C293  1  0.711700  0.520100  0.086600  1.0  0.1632
  C  C294  1  0.100270  0.003630  0.321630  1.0  0.708
  C  C295  1  0.148970  0.005930  0.347630  1.0  -0.1114
  C  C296  1  0.195970  0.052630  0.354330  1.0  -0.0521
  C  C297  1  0.241470  0.052730  0.374130  1.0  -0.0631
  C  C298  1  0.240370  0.006530  0.387530  1.0  -0.0668
  C  C299  1  0.191470  0.959730  0.385530  1.0  -0.1423
  C  C300  1  0.146670  0.959330  0.365030  1.0  -0.0198
  C  C301  1  0.289170  0.005030  0.403130  1.0  0.0724
  C  C302  1  0.288570  0.956630  0.402030  1.0  -0.1309
  C  C303  1  0.380070  0.901730  0.420030  1.0  -0.1832
  C  C304  1  0.378370  0.853430  0.419930  1.0  0.1631
  C  C305  1  0.766930  0.336970  0.654970  1.0  0.7078
  C  C306  1  0.815630  0.339270  0.680970  1.0  -0.1119
  C  C307  1  0.862630  0.385970  0.687670  1.0  -0.0523
  C  C308  1  0.908130  0.386070  0.707470  1.0  -0.0632
  C  C309  1  0.907030  0.339870  0.720870  1.0  -0.0668
  C  C310  1  0.858130  0.293070  0.718870  1.0  -0.1423
  C  C311  1  0.813330  0.292670  0.698370  1.0  -0.0198
  C  C312  1  0.955830  0.338370  0.736470  1.0  0.0719
  C  C313  1  0.955230  0.289970  0.735370  1.0  -0.1307
  C  C314  1  0.046730  0.235070  0.753370  1.0  -0.1852
  C  C315  1  0.045030  0.186770  0.753270  1.0  0.1631
  C  C316  1  0.329700  0.763300  0.988300  1.0  0.7088
  C  C317  1  0.327400  0.809700  0.014300  1.0  -0.1114
  C  C318  1  0.280700  0.810000  0.021000  1.0  -0.0494
  C  C319  1  0.280600  0.855400  0.040800  1.0  -0.0593
  C  C320  1  0.326800  0.900500  0.054200  1.0  -0.0669
  C  C321  1  0.373600  0.898400  0.052200  1.0  -0.1402
  C  C322  1  0.374000  0.854000  0.031700  1.0  -0.0179
  C  C323  1  0.328300  0.950800  0.069800  1.0  0.0726
  C  C324  1  0.376700  0.998600  0.068700  1.0  -0.1314
  C  C325  1  0.431600  0.145000  0.086700  1.0  -0.183
  C  C326  1  0.479900  0.191600  0.086600  1.0  0.1629
  C  C327  1  0.996370  0.096630  0.321630  1.0  0.7086
  C  C328  1  0.994070  0.143030  0.347630  1.0  -0.1117
  C  C329  1  0.947370  0.143330  0.354330  1.0  -0.0495
  C  C330  1  0.947270  0.188730  0.374130  1.0  -0.0593
  C  C331  1  0.993470  0.233830  0.387530  1.0  -0.067
  C  C332  1  0.040270  0.231730  0.385530  1.0  -0.1402
  C  C333  1  0.040670  0.187330  0.365030  1.0  -0.0179
  C  C334  1  0.994970  0.284130  0.403130  1.0  0.0702
  C  C335  1  0.043370  0.331930  0.402030  1.0  -0.1309
  C  C336  1  0.098270  0.478330  0.420030  1.0  -0.1827
  C  C337  1  0.146570  0.524930  0.419930  1.0  0.1628
  C  C338  1  0.663030  0.429970  0.654970  1.0  0.7088
  C  C339  1  0.660730  0.476370  0.680970  1.0  -0.1114
  C  C340  1  0.614030  0.476670  0.687670  1.0  -0.0494
  C  C341  1  0.613930  0.522070  0.707470  1.0  -0.0593
  C  C342  1  0.660130  0.567170  0.720870  1.0  -0.0668
  C  C343  1  0.706930  0.565070  0.718870  1.0  -0.1402
  C  C344  1  0.707330  0.520670  0.698370  1.0  -0.0184
  C  C345  1  0.661630  0.617470  0.736470  1.0  0.073
  C  C346  1  0.710030  0.665270  0.735370  1.0  -0.1318
  C  C347  1  0.764930  0.811670  0.753370  1.0  -0.1831
  C  C348  1  0.813230  0.858270  0.753270  1.0  0.1629
  C  C349  1  0.236700  0.566400  0.988300  1.0  0.7098
  C  C350  1  0.190300  0.517700  0.014300  1.0  -0.1117
  C  C351  1  0.190000  0.470700  0.021000  1.0  -0.0502
  C  C352  1  0.144600  0.425200  0.040800  1.0  -0.0604
  C  C353  1  0.099500  0.426300  0.054200  1.0  -0.0682
  C  C354  1  0.101600  0.475200  0.052200  1.0  -0.139
  C  C355  1  0.146000  0.520000  0.031700  1.0  -0.0201
  C  C356  1  0.049200  0.377500  0.069800  1.0  0.0721
  C  C357  1  0.001400  0.378100  0.068700  1.0  -0.1284
  C  C358  1  0.855000  0.286600  0.086700  1.0  -0.186
  C  C359  1  0.808400  0.288300  0.086600  1.0  0.1646
  C  C360  1  0.903370  0.899730  0.321630  1.0  0.7095
  C  C361  1  0.856970  0.851030  0.347630  1.0  -0.1117
  C  C362  1  0.856670  0.804030  0.354330  1.0  -0.0501
  C  C363  1  0.811270  0.758530  0.374130  1.0  -0.0604
  C  C364  1  0.766170  0.759630  0.387530  1.0  -0.0683
  C  C365  1  0.768270  0.808530  0.385530  1.0  -0.139
  C  C366  1  0.812670  0.853330  0.365030  1.0  -0.0201
  C  C367  1  0.715870  0.710830  0.403130  1.0  0.0722
  C  C368  1  0.668070  0.711430  0.402030  1.0  -0.1293
  C  C369  1  0.521670  0.619930  0.420030  1.0  -0.186
  C  C370  1  0.475070  0.621630  0.419930  1.0  0.1646
  C  C371  1  0.570030  0.233070  0.654970  1.0  0.7098
  C  C372  1  0.523630  0.184370  0.680970  1.0  -0.1117
  C  C373  1  0.523330  0.137370  0.687670  1.0  -0.0502
  C  C374  1  0.477930  0.091870  0.707470  1.0  -0.0603
  C  C375  1  0.432830  0.092970  0.720870  1.0  -0.0683
  C  C376  1  0.434930  0.141870  0.718870  1.0  -0.139
  C  C377  1  0.479330  0.186670  0.698370  1.0  -0.0201
  C  C378  1  0.382530  0.044170  0.736470  1.0  0.0719
  C  C379  1  0.334730  0.044770  0.735370  1.0  -0.129
  C  C380  1  0.188330  0.953270  0.753370  1.0  -0.186
  C  C381  1  0.141730  0.954970  0.753270  1.0  0.1645
  C  C382  1  0.670300  0.433600  0.511700  1.0  0.7089
  C  C383  1  0.672600  0.482300  0.485700  1.0  -0.1122
  C  C384  1  0.719300  0.529300  0.479000  1.0  -0.0494
  C  C385  1  0.719400  0.574800  0.459200  1.0  -0.0602
  C  C386  1  0.673200  0.573700  0.445800  1.0  -0.0679
  C  C387  1  0.626400  0.524800  0.447800  1.0  -0.1393
  C  C388  1  0.626000  0.480000  0.468300  1.0  -0.0183
  C  C389  1  0.671700  0.622500  0.430200  1.0  0.0743
  C  C390  1  0.623300  0.621900  0.431300  1.0  -0.13
  C  C391  1  0.568400  0.713400  0.413300  1.0  -0.1864
  C  C392  1  0.520100  0.711700  0.413400  1.0  0.1645
  C  C393  1  0.336970  0.766930  0.845030  1.0  0.7089
  C  C394  1  0.339270  0.815630  0.819030  1.0  -0.1122
  C  C395  1  0.385970  0.862630  0.812330  1.0  -0.0494
  C  C396  1  0.386070  0.908130  0.792530  1.0  -0.0602
  C  C397  1  0.339870  0.907030  0.779130  1.0  -0.0679
  C  C398  1  0.293070  0.858130  0.781130  1.0  -0.1393
  C  C399  1  0.292670  0.813330  0.801630  1.0  -0.0183
  C  C400  1  0.338370  0.955830  0.763530  1.0  0.0735
  C  C401  1  0.289970  0.955230  0.764630  1.0  -0.1297
  C  C402  1  0.235070  0.046730  0.746630  1.0  -0.1882
  C  C403  1  0.186770  0.045030  0.746730  1.0  0.1644
  C  C404  1  0.003630  0.100270  0.178370  1.0  0.7087
  C  C405  1  0.005930  0.148970  0.152370  1.0  -0.1116
  C  C406  1  0.052630  0.195970  0.145670  1.0  -0.0492
  C  C407  1  0.052730  0.241470  0.125870  1.0  -0.0601
  C  C408  1  0.006530  0.240370  0.112470  1.0  -0.0679
  C  C409  1  0.959730  0.191470  0.114470  1.0  -0.1393
  C  C410  1  0.959330  0.146670  0.134970  1.0  -0.0183
  C  C411  1  0.005030  0.289170  0.096870  1.0  0.0741
  C  C412  1  0.956630  0.288570  0.097970  1.0  -0.13
  C  C413  1  0.901730  0.380070  0.079970  1.0  -0.1864
  C  C414  1  0.853430  0.378370  0.080070  1.0  0.1645
  C  C415  1  0.763300  0.329700  0.511700  1.0  0.7089
  C  C416  1  0.809700  0.327400  0.485700  1.0  -0.1109
  C  C417  1  0.810000  0.280700  0.479000  1.0  -0.052
  C  C418  1  0.855400  0.280600  0.459200  1.0  -0.0635
  C  C419  1  0.900500  0.326800  0.445800  1.0  -0.0658
  C  C420  1  0.898400  0.373600  0.447800  1.0  -0.1425
  C  C421  1  0.854000  0.374000  0.468300  1.0  -0.0206
  C  C422  1  0.950800  0.328300  0.430200  1.0  0.0737
  C  C423  1  0.998600  0.376700  0.431300  1.0  -0.1318
  C  C424  1  0.145000  0.431600  0.413300  1.0  -0.1827
  C  C425  1  0.191600  0.479900  0.413400  1.0  0.1632
  C  C426  1  0.429970  0.663030  0.845030  1.0  0.7089
  C  C427  1  0.476370  0.660730  0.819030  1.0  -0.1109
  C  C428  1  0.476670  0.614030  0.812330  1.0  -0.052
  C  C429  1  0.522070  0.613930  0.792530  1.0  -0.0635
  C  C430  1  0.567170  0.660130  0.779130  1.0  -0.0657
  C  C431  1  0.565070  0.706930  0.781130  1.0  -0.1425
  C  C432  1  0.520670  0.707330  0.801630  1.0  -0.0214
  C  C433  1  0.617470  0.661630  0.763530  1.0  0.074
  C  C434  1  0.665270  0.710030  0.764630  1.0  -0.1319
  C  C435  1  0.811670  0.764930  0.746630  1.0  -0.1828
  C  C436  1  0.858270  0.813230  0.746730  1.0  0.1632
  C  C437  1  0.096630  0.996370  0.178370  1.0  0.7089
  C  C438  1  0.143030  0.994070  0.152370  1.0  -0.1111
  C  C439  1  0.143330  0.947370  0.145670  1.0  -0.0521
  C  C440  1  0.188730  0.947270  0.125870  1.0  -0.0635
  C  C441  1  0.233830  0.993470  0.112470  1.0  -0.0659
  C  C442  1  0.231730  0.040270  0.114470  1.0  -0.1425
  C  C443  1  0.187330  0.040670  0.134970  1.0  -0.0206
  C  C444  1  0.284130  0.994970  0.096870  1.0  0.0714
  C  C445  1  0.331930  0.043370  0.097970  1.0  -0.1314
  C  C446  1  0.478330  0.098270  0.079970  1.0  -0.1824
  C  C447  1  0.524930  0.146570  0.080070  1.0  0.1632
  C  C448  1  0.566400  0.236700  0.511700  1.0  0.7089
  C  C449  1  0.517700  0.190300  0.485700  1.0  -0.1111
  C  C450  1  0.470700  0.190000  0.479000  1.0  -0.0491
  C  C451  1  0.425200  0.144600  0.459200  1.0  -0.0585
  C  C452  1  0.426300  0.099500  0.445800  1.0  -0.0663
  C  C453  1  0.475200  0.101600  0.447800  1.0  -0.1396
  C  C454  1  0.520000  0.146000  0.468300  1.0  -0.0183
  C  C455  1  0.377500  0.049200  0.430200  1.0  0.0734
  C  C456  1  0.378100  0.001400  0.431300  1.0  -0.1308
  C  C457  1  0.286600  0.855000  0.413300  1.0  -0.1832
  C  C458  1  0.288300  0.808400  0.413400  1.0  0.1637
  C  C459  1  0.233070  0.570030  0.845030  1.0  0.7089
  C  C460  1  0.184370  0.523630  0.819030  1.0  -0.1111
  C  C461  1  0.137370  0.523330  0.812330  1.0  -0.0491
  C  C462  1  0.091870  0.477930  0.792530  1.0  -0.0585
  C  C463  1  0.092970  0.432830  0.779130  1.0  -0.0663
  C  C464  1  0.141870  0.434930  0.781130  1.0  -0.1396
  C  C465  1  0.186670  0.479330  0.801630  1.0  -0.0183
  C  C466  1  0.044170  0.382530  0.763530  1.0  0.0732
  C  C467  1  0.044770  0.334730  0.764630  1.0  -0.1316
  C  C468  1  0.953270  0.188330  0.746630  1.0  -0.1831
  C  C469  1  0.954970  0.141730  0.746730  1.0  0.1637
  C  C470  1  0.899730  0.903370  0.178370  1.0  0.7087
  C  C471  1  0.851030  0.856970  0.152370  1.0  -0.1111
  C  C472  1  0.804030  0.856670  0.145670  1.0  -0.049
  C  C473  1  0.758530  0.811270  0.125870  1.0  -0.0586
  C  C474  1  0.759630  0.766170  0.112470  1.0  -0.0664
  C  C475  1  0.808530  0.768270  0.114470  1.0  -0.1396
  C  C476  1  0.853330  0.812670  0.134970  1.0  -0.0183
  C  C477  1  0.710830  0.715870  0.096870  1.0  0.0734
  C  C478  1  0.711430  0.668070  0.097970  1.0  -0.1318
  C  C479  1  0.619930  0.521670  0.079970  1.0  -0.1833
  C  C480  1  0.621630  0.475070  0.080070  1.0  0.1637
  C  C481  1  0.566400  0.329700  0.011700  1.0  0.7086
  C  C482  1  0.517700  0.327400  0.985700  1.0  -0.1113
  C  C483  1  0.470700  0.280700  0.979000  1.0  -0.0519
  C  C484  1  0.425200  0.280600  0.959200  1.0  -0.0625
  C  C485  1  0.426300  0.326800  0.945800  1.0  -0.0669
  C  C486  1  0.475200  0.373600  0.947800  1.0  -0.1431
  C  C487  1  0.520000  0.374000  0.968300  1.0  -0.0207
  C  C488  1  0.377500  0.328300  0.930200  1.0  0.0732
  C  C489  1  0.378100  0.376700  0.931300  1.0  -0.1314
  C  C490  1  0.286600  0.431600  0.913300  1.0  -0.182
  C  C491  1  0.288300  0.479900  0.913400  1.0  0.1643
  C  C492  1  0.233070  0.663030  0.345030  1.0  0.7086
  C  C493  1  0.184370  0.660730  0.319030  1.0  -0.1113
  C  C494  1  0.137370  0.614030  0.312330  1.0  -0.0519
  C  C495  1  0.091870  0.613930  0.292530  1.0  -0.0625
  C  C496  1  0.092970  0.660130  0.279130  1.0  -0.0669
  C  C497  1  0.141870  0.706930  0.281130  1.0  -0.1431
  C  C498  1  0.186670  0.707330  0.301630  1.0  -0.0207
  C  C499  1  0.044170  0.661630  0.263530  1.0  0.0724
  C  C500  1  0.044770  0.710030  0.264630  1.0  -0.1311
  C  C501  1  0.953270  0.764930  0.246630  1.0  -0.1838
  C  C502  1  0.954970  0.813230  0.246730  1.0  0.1644
  C  C503  1  0.899730  0.996370  0.678370  1.0  0.7084
  C  C504  1  0.851030  0.994070  0.652370  1.0  -0.1107
  C  C505  1  0.804030  0.947370  0.645670  1.0  -0.0517
  C  C506  1  0.758530  0.947270  0.625870  1.0  -0.0624
  C  C507  1  0.759630  0.993470  0.612470  1.0  -0.0669
  C  C508  1  0.808530  0.040270  0.614470  1.0  -0.1431
  C  C509  1  0.853330  0.040670  0.634970  1.0  -0.0207
  C  C510  1  0.710830  0.994970  0.596870  1.0  0.0729
  C  C511  1  0.711430  0.043370  0.597970  1.0  -0.1313
  C  C512  1  0.619930  0.098270  0.579970  1.0  -0.1816
  C  C513  1  0.621630  0.146570  0.580070  1.0  0.1643
  C  C514  1  0.670300  0.236700  0.011700  1.0  0.7087
  C  C515  1  0.672600  0.190300  0.985700  1.0  -0.1101
  C  C516  1  0.719300  0.190000  0.979000  1.0  -0.0488
  C  C517  1  0.719400  0.144600  0.959200  1.0  -0.0589
  C  C518  1  0.673200  0.099500  0.945800  1.0  -0.0677
  C  C519  1  0.626400  0.101600  0.947800  1.0  -0.1399
  C  C520  1  0.626000  0.146000  0.968300  1.0  -0.0202
  C  C521  1  0.671700  0.049200  0.930200  1.0  0.0731
  C  C522  1  0.623300  0.001400  0.931300  1.0  -0.1326
  C  C523  1  0.568400  0.855000  0.913300  1.0  -0.1819
  C  C524  1  0.520100  0.808400  0.913400  1.0  0.1633
  C  C525  1  0.336970  0.570030  0.345030  1.0  0.7087
  C  C526  1  0.339270  0.523630  0.319030  1.0  -0.1101
  C  C527  1  0.385970  0.523330  0.312330  1.0  -0.0488
  C  C528  1  0.386070  0.477930  0.292530  1.0  -0.0589
  C  C529  1  0.339870  0.432830  0.279130  1.0  -0.0676
  C  C530  1  0.293070  0.434930  0.281130  1.0  -0.1399
  C  C531  1  0.292670  0.479330  0.301630  1.0  -0.0208
  C  C532  1  0.338370  0.382530  0.263530  1.0  0.0734
  C  C533  1  0.289970  0.334730  0.264630  1.0  -0.1327
  C  C534  1  0.235070  0.188330  0.246630  1.0  -0.182
  C  C535  1  0.186770  0.141730  0.246730  1.0  0.1633
  C  C536  1  0.003630  0.903370  0.678370  1.0  0.7087
  C  C537  1  0.005930  0.856970  0.652370  1.0  -0.1104
  C  C538  1  0.052630  0.856670  0.645670  1.0  -0.0489
  C  C539  1  0.052730  0.811270  0.625870  1.0  -0.059
  C  C540  1  0.006530  0.766170  0.612470  1.0  -0.0678
  C  C541  1  0.959730  0.768270  0.614470  1.0  -0.1399
  C  C542  1  0.959330  0.812670  0.634970  1.0  -0.0202
  C  C543  1  0.005030  0.715870  0.596870  1.0  0.0705
  C  C544  1  0.956630  0.668070  0.597970  1.0  -0.1322
  C  C545  1  0.901730  0.521670  0.579970  1.0  -0.1814
  C  C546  1  0.853430  0.475070  0.580070  1.0  0.1633
  C  C547  1  0.763300  0.433600  0.011700  1.0  0.7092
  C  C548  1  0.809700  0.482300  0.985700  1.0  -0.1118
  C  C549  1  0.810000  0.529300  0.979000  1.0  -0.0505
  C  C550  1  0.855400  0.574800  0.959200  1.0  -0.0591
  C  C551  1  0.900500  0.573700  0.945800  1.0  -0.0664
  C  C552  1  0.898400  0.524800  0.947800  1.0  -0.1394
  C  C553  1  0.854000  0.480000  0.968300  1.0  -0.0201
  C  C554  1  0.950800  0.622500  0.930200  1.0  0.0722
  C  C555  1  0.998600  0.621900  0.931300  1.0  -0.1295
  C  C556  1  0.145000  0.713400  0.913300  1.0  -0.1869
  C  C557  1  0.191600  0.711700  0.913400  1.0  0.1639
  C  C558  1  0.429970  0.766930  0.345030  1.0  0.7091
  C  C559  1  0.476370  0.815630  0.319030  1.0  -0.1118
  C  C560  1  0.476670  0.862630  0.312330  1.0  -0.0505
  C  C561  1  0.522070  0.908130  0.292530  1.0  -0.0591
  C  C562  1  0.567170  0.907030  0.279130  1.0  -0.0664
  C  C563  1  0.565070  0.858130  0.281130  1.0  -0.1394
  C  C564  1  0.520670  0.813330  0.301630  1.0  -0.0201
  C  C565  1  0.617470  0.955830  0.263530  1.0  0.072
  C  C566  1  0.665270  0.955230  0.264630  1.0  -0.1301
  C  C567  1  0.811670  0.046730  0.246630  1.0  -0.1867
  C  C568  1  0.858270  0.045030  0.246730  1.0  0.1639
  C  C569  1  0.096630  0.100270  0.678370  1.0  0.7089
  C  C570  1  0.143030  0.148970  0.652370  1.0  -0.1118
  C  C571  1  0.143330  0.195970  0.645670  1.0  -0.0504
  C  C572  1  0.188730  0.241470  0.625870  1.0  -0.0591
  C  C573  1  0.233830  0.240370  0.612470  1.0  -0.0665
  C  C574  1  0.231730  0.191470  0.614470  1.0  -0.1394
  C  C575  1  0.187330  0.146670  0.634970  1.0  -0.0201
  C  C576  1  0.284130  0.289170  0.596870  1.0  0.0723
  C  C577  1  0.331930  0.288570  0.597970  1.0  -0.1304
  C  C578  1  0.478330  0.380070  0.579970  1.0  -0.187
  C  C579  1  0.524930  0.378370  0.580070  1.0  0.1639
  C  C580  1  0.329700  0.566400  0.488300  1.0  0.7089
  C  C581  1  0.327400  0.517700  0.514300  1.0  -0.1121
  C  C582  1  0.280700  0.470700  0.521000  1.0  -0.0509
  C  C583  1  0.280600  0.425200  0.540800  1.0  -0.06
  C  C584  1  0.326800  0.426300  0.554200  1.0  -0.0669
  C  C585  1  0.373600  0.475200  0.552200  1.0  -0.1394
  C  C586  1  0.374000  0.520000  0.531700  1.0  -0.0199
  C  C587  1  0.328300  0.377500  0.569800  1.0  0.0748
  C  C588  1  0.376700  0.378100  0.568700  1.0  -0.1297
  C  C589  1  0.431600  0.286600  0.586700  1.0  -0.1858
  C  C590  1  0.479900  0.288300  0.586600  1.0  0.1641
  C  C591  1  0.996370  0.899730  0.821630  1.0  0.709
  C  C592  1  0.994070  0.851030  0.847630  1.0  -0.1115
  C  C593  1  0.947370  0.804030  0.854330  1.0  -0.0507
  C  C594  1  0.947270  0.758530  0.874130  1.0  -0.06
  C  C595  1  0.993470  0.759630  0.887530  1.0  -0.0669
  C  C596  1  0.040270  0.808530  0.885530  1.0  -0.1394
  C  C597  1  0.040670  0.853330  0.865030  1.0  -0.0199
  C  C598  1  0.994970  0.710830  0.903130  1.0  0.0746
  C  C599  1  0.043370  0.711430  0.902030  1.0  -0.1296
  C  C600  1  0.098270  0.619930  0.920030  1.0  -0.1859
  C  C601  1  0.146570  0.621630  0.919930  1.0  0.1641
  C  C602  1  0.663030  0.233070  0.154970  1.0  0.7089
  C  C603  1  0.660730  0.184370  0.180970  1.0  -0.1121
  C  C604  1  0.614030  0.137370  0.187670  1.0  -0.0509
  C  C605  1  0.613930  0.091870  0.207470  1.0  -0.06
  C  C606  1  0.660130  0.092970  0.220870  1.0  -0.0669
  C  C607  1  0.706930  0.141870  0.218870  1.0  -0.1394
  C  C608  1  0.707330  0.186670  0.198370  1.0  -0.0199
  C  C609  1  0.661630  0.044170  0.236470  1.0  0.0741
  C  C610  1  0.710030  0.044770  0.235370  1.0  -0.1294
  C  C611  1  0.764930  0.953270  0.253370  1.0  -0.1875
  C  C612  1  0.813230  0.954970  0.253270  1.0  0.1641
  C  C613  1  0.236700  0.670300  0.488300  1.0  0.7099
  C  C614  1  0.190300  0.672600  0.514300  1.0  -0.111
  C  C615  1  0.190000  0.719300  0.521000  1.0  -0.0521
  C  C616  1  0.144600  0.719400  0.540800  1.0  -0.0627
  C  C617  1  0.099500  0.673200  0.554200  1.0  -0.0672
  C  C618  1  0.101600  0.626400  0.552200  1.0  -0.143
  C  C619  1  0.146000  0.626000  0.531700  1.0  -0.0196
  C  C620  1  0.049200  0.671700  0.569800  1.0  0.074
  C  C621  1  0.001400  0.623300  0.568700  1.0  -0.1314
  C  C622  1  0.855000  0.568400  0.586700  1.0  -0.183
  C  C623  1  0.808400  0.520100  0.586600  1.0  0.1642
  C  C624  1  0.903370  0.003630  0.821630  1.0  0.7097
  C  C625  1  0.856970  0.005930  0.847630  1.0  -0.1113
  C  C626  1  0.856670  0.052630  0.854330  1.0  -0.0522
  C  C627  1  0.811270  0.052730  0.874130  1.0  -0.0627
  C  C628  1  0.766170  0.006530  0.887530  1.0  -0.0672
  C  C629  1  0.768270  0.959730  0.885530  1.0  -0.143
  C  C630  1  0.812670  0.959330  0.865030  1.0  -0.0196
  C  C631  1  0.715870  0.005030  0.903130  1.0  0.0717
  C  C632  1  0.668070  0.956630  0.902030  1.0  -0.1309
  C  C633  1  0.521670  0.901730  0.920030  1.0  -0.1829
  C  C634  1  0.475070  0.853430  0.919930  1.0  0.1642
  C  C635  1  0.570030  0.336970  0.154970  1.0  0.7099
  C  C636  1  0.523630  0.339270  0.180970  1.0  -0.111
  C  C637  1  0.523330  0.385970  0.187670  1.0  -0.0521
  C  C638  1  0.477930  0.386070  0.207470  1.0  -0.0627
  C  C639  1  0.432830  0.339870  0.220870  1.0  -0.067
  C  C640  1  0.434930  0.293070  0.218870  1.0  -0.143
  C  C641  1  0.479330  0.292670  0.198370  1.0  -0.0204
  C  C642  1  0.382530  0.338370  0.236470  1.0  0.0743
  C  C643  1  0.334730  0.289970  0.235370  1.0  -0.1318
  C  C644  1  0.188330  0.235070  0.253370  1.0  -0.1831
  C  C645  1  0.141730  0.186770  0.253270  1.0  0.1642
  C  C646  1  0.433600  0.763300  0.488300  1.0  0.7082
  C  C647  1  0.482300  0.809700  0.514300  1.0  -0.1117
  C  C648  1  0.529300  0.810000  0.521000  1.0  -0.0491
  C  C649  1  0.574800  0.855400  0.540800  1.0  -0.0593
  C  C650  1  0.573700  0.900500  0.554200  1.0  -0.0683
  C  C651  1  0.524800  0.898400  0.552200  1.0  -0.1402
  C  C652  1  0.480000  0.854000  0.531700  1.0  -0.0208
  C  C653  1  0.622500  0.950800  0.569800  1.0  0.0744
  C  C654  1  0.621900  0.998600  0.568700  1.0  -0.131
  C  C655  1  0.713400  0.145000  0.586700  1.0  -0.1823
  C  C656  1  0.711700  0.191600  0.586600  1.0  0.1628
  C  C657  1  0.100270  0.096630  0.821630  1.0  0.7079
  C  C658  1  0.148970  0.143030  0.847630  1.0  -0.1117
  C  C659  1  0.195970  0.143330  0.854330  1.0  -0.0491
  C  C660  1  0.241470  0.188730  0.874130  1.0  -0.0594
  C  C661  1  0.240370  0.233830  0.887530  1.0  -0.0684
  C  C662  1  0.191470  0.231730  0.885530  1.0  -0.1401
  C  C663  1  0.146670  0.187330  0.865030  1.0  -0.0208
  C  C664  1  0.289170  0.284130  0.903130  1.0  0.0742
  C  C665  1  0.288570  0.331930  0.902030  1.0  -0.132
  C  C666  1  0.380070  0.478330  0.920030  1.0  -0.1823
  C  C667  1  0.378370  0.524930  0.919930  1.0  0.1628
  C  C668  1  0.766930  0.429970  0.154970  1.0  0.7082
  C  C669  1  0.815630  0.476370  0.180970  1.0  -0.1117
  C  C670  1  0.862630  0.476670  0.187670  1.0  -0.0491
  C  C671  1  0.908130  0.522070  0.207470  1.0  -0.0593
  C  C672  1  0.907030  0.567170  0.220870  1.0  -0.0683
  C  C673  1  0.858130  0.565070  0.218870  1.0  -0.1402
  C  C674  1  0.813330  0.520670  0.198370  1.0  -0.0208
  C  C675  1  0.955830  0.617470  0.236470  1.0  0.0741
  C  C676  1  0.955230  0.665270  0.235370  1.0  -0.1317
  C  C677  1  0.046730  0.811670  0.253370  1.0  -0.1821
  C  C678  1  0.045030  0.858270  0.253270  1.0  0.1627
  C  C679  1  0.666667  0.621380  0.083330  1.0  0.0456
  C  C680  1  0.666667  0.569780  0.083330  1.0  0.1133
  C  C681  1  0.378620  0.045280  0.083330  1.0  0.0447
  C  C682  1  0.430220  0.096880  0.083330  1.0  0.1115
  C  C683  1  0.954720  0.333333  0.083330  1.0  0.0437
  C  C684  1  0.903120  0.333333  0.083330  1.0  0.1098
  C  C685  1  0.621380  0.666667  0.416670  1.0  0.0441
  C  C686  1  0.569780  0.666667  0.416670  1.0  0.1104
  C  C687  1  0.288050  0.000000  0.750000  1.0  0.0442
  C  C688  1  0.236450  0.000000  0.750000  1.0  0.1092
  C  C689  1  0.045280  0.378620  0.416670  1.0  0.0447
  C  C690  1  0.096880  0.430220  0.416670  1.0  0.1114
  C  C691  1  0.711950  0.711950  0.750000  1.0  0.0459
  C  C692  1  0.763550  0.763550  0.750000  1.0  0.1124
  C  C693  1  0.333333  0.954720  0.416670  1.0  0.0452
  C  C694  1  0.333333  0.903120  0.416670  1.0  0.1126
  C  C695  1  0.000000  0.288050  0.750000  1.0  0.0457
  C  C696  1  0.000000  0.236450  0.750000  1.0  0.1122
  C  C697  1  0.333333  0.378620  0.916670  1.0  0.0453
  C  C698  1  0.333333  0.430220  0.916670  1.0  0.1115
  C  C699  1  0.000000  0.711950  0.250000  1.0  0.0454
  C  C700  1  0.000000  0.763550  0.250000  1.0  0.1104
  C  C701  1  0.621380  0.954720  0.916670  1.0  0.0448
  C  C702  1  0.569780  0.903120  0.916670  1.0  0.1108
  C  C703  1  0.288050  0.288050  0.250000  1.0  0.0459
  C  C704  1  0.236450  0.236450  0.250000  1.0  0.1118
  C  C705  1  0.045280  0.666667  0.916670  1.0  0.0447
  C  C706  1  0.096880  0.666667  0.916670  1.0  0.1106
  C  C707  1  0.711950  0.000000  0.250000  1.0  0.0452
  C  C708  1  0.763550  0.000000  0.250000  1.0  0.1102
  C  C709  1  0.378620  0.333333  0.583330  1.0  0.0451
  C  C710  1  0.430220  0.333333  0.583330  1.0  0.1113
  C  C711  1  0.954720  0.621380  0.583330  1.0  0.0448
  C  C712  1  0.903120  0.569780  0.583330  1.0  0.1109
  C  C713  1  0.666667  0.045280  0.583330  1.0  0.045
  C  C714  1  0.666667  0.096880  0.583330  1.0  0.111
  N  N715  1  0.666667  0.473880  0.083330  1.0  -0.2578
  N  N716  1  0.666667  0.717680  0.083330  1.0  -0.414
  N  N717  1  0.526120  0.192780  0.083330  1.0  -0.2561
  N  N718  1  0.282320  0.948980  0.083330  1.0  -0.4132
  N  N719  1  0.807220  0.333333  0.083330  1.0  -0.2559
  N  N720  1  0.051020  0.333333  0.083330  1.0  -0.4124
  N  N721  1  0.473880  0.666667  0.416670  1.0  -0.2555
  N  N722  1  0.717680  0.666667  0.416670  1.0  -0.4129
  N  N723  1  0.140550  0.000000  0.750000  1.0  -0.2555
  N  N724  1  0.384350  0.000000  0.750000  1.0  -0.4122
  N  N725  1  0.192780  0.526120  0.416670  1.0  -0.256
  N  N726  1  0.948980  0.282320  0.416670  1.0  -0.4133
  N  N727  1  0.859450  0.859450  0.750000  1.0  -0.2575
  N  N728  1  0.615650  0.615650  0.750000  1.0  -0.4145
  N  N729  1  0.333333  0.807220  0.416670  1.0  -0.2583
  N  N730  1  0.333333  0.051020  0.416670  1.0  -0.4134
  N  N731  1  0.000000  0.140550  0.750000  1.0  -0.2577
  N  N732  1  0.000000  0.384350  0.750000  1.0  -0.4131
  N  N733  1  0.333333  0.526120  0.916670  1.0  -0.2565
  N  N734  1  0.333333  0.282320  0.916670  1.0  -0.4145
  N  N735  1  0.000000  0.859450  0.250000  1.0  -0.2565
  N  N736  1  0.000000  0.615650  0.250000  1.0  -0.4137
  N  N737  1  0.473880  0.807220  0.916670  1.0  -0.2562
  N  N738  1  0.717680  0.051020  0.916670  1.0  -0.4138
  N  N739  1  0.140550  0.140550  0.250000  1.0  -0.2577
  N  N740  1  0.384350  0.384350  0.250000  1.0  -0.415
  N  N741  1  0.192780  0.666667  0.916670  1.0  -0.2556
  N  N742  1  0.948980  0.666667  0.916670  1.0  -0.4125
  N  N743  1  0.859450  0.000000  0.250000  1.0  -0.2551
  N  N744  1  0.615650  0.000000  0.250000  1.0  -0.4122
  N  N745  1  0.526120  0.333333  0.583330  1.0  -0.2552
  N  N746  1  0.282320  0.333333  0.583330  1.0  -0.4132
  N  N747  1  0.807220  0.473880  0.583330  1.0  -0.2563
  N  N748  1  0.051020  0.717680  0.583330  1.0  -0.4138
  N  N749  1  0.666667  0.192780  0.583330  1.0  -0.2569
  N  N750  1  0.666667  0.948980  0.583330  1.0  -0.4139
  O  O751  1  0.434170  0.713870  0.983000  1.0  -0.6023
  O  O752  1  0.396810  0.625720  0.973100  1.0  -0.5954
  O  O753  1  0.100840  0.047200  0.316330  1.0  -0.6036
  O  O754  1  0.063480  0.959050  0.306430  1.0  -0.5954
  O  O755  1  0.767500  0.380540  0.649670  1.0  -0.6022
  O  O756  1  0.730140  0.292390  0.639770  1.0  -0.5953
  O  O757  1  0.286130  0.720300  0.983000  1.0  -0.6017
  O  O758  1  0.374280  0.771090  0.973100  1.0  -0.5948
  O  O759  1  0.952800  0.053630  0.316330  1.0  -0.6017
  O  O760  1  0.040950  0.104420  0.306430  1.0  -0.5948
  O  O761  1  0.619460  0.386970  0.649670  1.0  -0.6028
  O  O762  1  0.707610  0.437760  0.639770  1.0  -0.5948
  O  O763  1  0.279700  0.565830  0.983000  1.0  -0.6036
  O  O764  1  0.228910  0.603190  0.973100  1.0  -0.5944
  O  O765  1  0.946370  0.899160  0.316330  1.0  -0.6023
  O  O766  1  0.895580  0.936520  0.306430  1.0  -0.5944
  O  O767  1  0.613030  0.232500  0.649670  1.0  -0.6036
  O  O768  1  0.562240  0.269860  0.639770  1.0  -0.5944
  O  O769  1  0.713870  0.434170  0.517000  1.0  -0.6057
  O  O770  1  0.625720  0.396810  0.526900  1.0  -0.5941
  O  O771  1  0.380540  0.767500  0.850330  1.0  -0.6056
  O  O772  1  0.292390  0.730140  0.860230  1.0  -0.594
  O  O773  1  0.047200  0.100840  0.183670  1.0  -0.6072
  O  O774  1  0.959050  0.063480  0.193570  1.0  -0.5941
  O  O775  1  0.720300  0.286130  0.517000  1.0  -0.6053
  O  O776  1  0.771090  0.374280  0.526900  1.0  -0.5948
  O  O777  1  0.386970  0.619460  0.850330  1.0  -0.6069
  O  O778  1  0.437760  0.707610  0.860230  1.0  -0.5948
  O  O779  1  0.053630  0.952800  0.183670  1.0  -0.6053
  O  O780  1  0.104420  0.040950  0.193570  1.0  -0.5948
  O  O781  1  0.565830  0.279700  0.517000  1.0  -0.6069
  O  O782  1  0.603190  0.228910  0.526900  1.0  -0.595
  O  O783  1  0.232500  0.613030  0.850330  1.0  -0.607
  O  O784  1  0.269860  0.562240  0.860230  1.0  -0.595
  O  O785  1  0.899160  0.946370  0.183670  1.0  -0.6053
  O  O786  1  0.936520  0.895580  0.193570  1.0  -0.595
  O  O787  1  0.565830  0.286130  0.017000  1.0  -0.605
  O  O788  1  0.603190  0.374280  0.026900  1.0  -0.5945
  O  O789  1  0.232500  0.619460  0.350330  1.0  -0.6049
  O  O790  1  0.269860  0.707610  0.360230  1.0  -0.5943
  O  O791  1  0.899160  0.952800  0.683670  1.0  -0.6067
  O  O792  1  0.936520  0.040950  0.693570  1.0  -0.5945
  O  O793  1  0.713870  0.279700  0.017000  1.0  -0.6053
  O  O794  1  0.625720  0.228910  0.026900  1.0  -0.5929
  O  O795  1  0.380540  0.613030  0.350330  1.0  -0.6069
  O  O796  1  0.292390  0.562240  0.360230  1.0  -0.5929
  O  O797  1  0.047200  0.946370  0.683670  1.0  -0.6053
  O  O798  1  0.959050  0.895580  0.693570  1.0  -0.5929
  O  O799  1  0.720300  0.434170  0.017000  1.0  -0.6051
  O  O800  1  0.771090  0.396810  0.026900  1.0  -0.5938
  O  O801  1  0.386970  0.767500  0.350330  1.0  -0.6052
  O  O802  1  0.437760  0.730140  0.360230  1.0  -0.5938
  O  O803  1  0.053630  0.100840  0.683670  1.0  -0.6035
  O  O804  1  0.104420  0.063480  0.693570  1.0  -0.5938
  O  O805  1  0.286130  0.565830  0.483000  1.0  -0.6012
  O  O806  1  0.374280  0.603190  0.473100  1.0  -0.5939
  O  O807  1  0.952800  0.899160  0.816330  1.0  -0.6024
  O  O808  1  0.040950  0.936520  0.806430  1.0  -0.5939
  O  O809  1  0.619460  0.232500  0.149670  1.0  -0.6011
  O  O810  1  0.707610  0.269860  0.139770  1.0  -0.5938
  O  O811  1  0.279700  0.713870  0.483000  1.0  -0.6023
  O  O812  1  0.228910  0.625720  0.473100  1.0  -0.5948
  O  O813  1  0.946370  0.047200  0.816330  1.0  -0.6023
  O  O814  1  0.895580  0.959050  0.806430  1.0  -0.5948
  O  O815  1  0.613030  0.380540  0.149670  1.0  -0.6036
  O  O816  1  0.562240  0.292390  0.139770  1.0  -0.5948
  O  O817  1  0.434170  0.720300  0.483000  1.0  -0.6028
  O  O818  1  0.396810  0.771090  0.473100  1.0  -0.5935
  O  O819  1  0.100840  0.053630  0.816330  1.0  -0.6016
  O  O820  1  0.063480  0.104420  0.806430  1.0  -0.5935
  O  O821  1  0.767500  0.386970  0.149670  1.0  -0.6029
  O  O822  1  0.730140  0.437760  0.139770  1.0  -0.5935
  O  O823  1  0.666667  0.333333  0.083330  1.0  -0.641
  O  O824  1  0.000000  0.000000  0.750000  1.0  -0.6409
  O  O825  1  0.333333  0.666667  0.416670  1.0  -0.641
  O  O826  1  0.333333  0.666667  0.916670  1.0  -0.641
  O  O827  1  0.000000  0.000000  0.250000  1.0  -0.6409
  O  O828  1  0.666667  0.333333  0.583330  1.0  -0.641
