# generated using pymatgen
data_Ni3H44C72N6O13
_symmetry_space_group_name_H-M   'P 1'
_cell_length_a   29.15100000
_cell_length_b   29.15100000
_cell_length_c   23.07000000
_cell_angle_alpha   90.00000000
_cell_angle_beta   90.00000000
_cell_angle_gamma   120.00000000
_symmetry_Int_Tables_number   1
_chemical_formula_structural   Ni3H44C72N6O13
_chemical_formula_sum   'Ni18 H264 C432 N36 O78'
_cell_volume   16977.94573352
_cell_formula_units_Z   6
loop_
 _symmetry_equiv_pos_site_id
 _symmetry_equiv_pos_as_xyz
  1  'x, y, z'
loop_
 _atom_site_type_symbol
 _atom_site_label
 _atom_site_symmetry_multiplicity
 _atom_site_fract_x
 _atom_site_fract_y
 _atom_site_fract_z
 _atom_site_occupancy
 _atom_site_charge
  Ni  Ni1  1  0.666667  0.401930  0.083330  1.0  0.8462
  Ni  Ni2  1  0.598070  0.264730  0.083330  1.0  0.8452
  Ni  Ni3  1  0.735270  0.333333  0.083330  1.0  0.8453
  Ni  Ni4  1  0.401930  0.666667  0.416670  1.0  0.8453
  Ni  Ni5  1  0.068600  0.000000  0.750000  1.0  0.8453
  Ni  Ni6  1  0.264730  0.598070  0.416670  1.0  0.8452
  Ni  Ni7  1  0.931400  0.931400  0.750000  1.0  0.8688
  Ni  Ni8  1  0.333333  0.735270  0.416670  1.0  0.8462
  Ni  Ni9  1  0.000000  0.068600  0.750000  1.0  0.8463
  Ni  Ni10  1  0.333333  0.598070  0.916670  1.0  0.844
  Ni  Ni11  1  0.000000  0.931400  0.250000  1.0  0.844
  Ni  Ni12  1  0.401930  0.735270  0.916670  1.0  0.845
  Ni  Ni13  1  0.068600  0.068600  0.250000  1.0  0.869
  Ni  Ni14  1  0.264730  0.666667  0.916670  1.0  0.8453
  Ni  Ni15  1  0.931400  0.000000  0.250000  1.0  0.8453
  Ni  Ni16  1  0.598070  0.333333  0.583330  1.0  0.8453
  Ni  Ni17  1  0.735270  0.401930  0.583330  1.0  0.8449
  Ni  Ni18  1  0.666667  0.264730  0.583330  1.0  0.844
  H  H19  1  0.531000  0.751000  0.011800  1.0  0.1189
  H  H20  1  0.606900  0.751500  0.043600  1.0  0.1272
  H  H21  1  0.521000  0.594000  0.069100  1.0  0.1367
  H  H22  1  0.447000  0.593400  0.032800  1.0  0.1257
  H  H23  1  0.589900  0.590900  0.060300  1.0  0.1271
  H  H24  1  0.746600  0.599900  0.090700  1.0  0.1381
  H  H25  1  0.743800  0.519700  0.089900  1.0  0.0929
  H  H26  1  0.197670  0.084330  0.345130  1.0  0.1189
  H  H27  1  0.273570  0.084830  0.376930  1.0  0.1272
  H  H28  1  0.187670  0.927330  0.402430  1.0  0.1366
  H  H29  1  0.113670  0.926730  0.366130  1.0  0.1257
  H  H30  1  0.256570  0.924230  0.393630  1.0  0.1272
  H  H31  1  0.413270  0.933230  0.424030  1.0  0.1381
  H  H32  1  0.410470  0.853030  0.423230  1.0  0.093
  H  H33  1  0.864330  0.417670  0.678470  1.0  0.1189
  H  H34  1  0.940230  0.418170  0.710270  1.0  0.1272
  H  H35  1  0.854330  0.260670  0.735770  1.0  0.1366
  H  H36  1  0.780330  0.260070  0.699470  1.0  0.1257
  H  H37  1  0.923230  0.257570  0.726970  1.0  0.1274
  H  H38  1  0.079930  0.266570  0.757370  1.0  0.1381
  H  H39  1  0.077130  0.186370  0.756570  1.0  0.0929
  H  H40  1  0.249000  0.780000  0.011800  1.0  0.1175
  H  H41  1  0.248500  0.855400  0.043600  1.0  0.1264
  H  H42  1  0.406000  0.927000  0.069100  1.0  0.135
  H  H43  1  0.406600  0.853600  0.032800  1.0  0.1252
  H  H44  1  0.409100  0.999000  0.060300  1.0  0.1267
  H  H45  1  0.400100  0.146700  0.090700  1.0  0.1398
  H  H46  1  0.480300  0.224100  0.089900  1.0  0.0918
  H  H47  1  0.915670  0.113330  0.345130  1.0  0.1175
  H  H48  1  0.915170  0.188730  0.376930  1.0  0.1264
  H  H49  1  0.072670  0.260330  0.402430  1.0  0.135
  H  H50  1  0.073270  0.186930  0.366130  1.0  0.1253
  H  H51  1  0.075770  0.332330  0.393630  1.0  0.1268
  H  H52  1  0.066770  0.480030  0.424030  1.0  0.1398
  H  H53  1  0.146970  0.557430  0.423230  1.0  0.0917
  H  H54  1  0.582330  0.446670  0.678470  1.0  0.1176
  H  H55  1  0.581830  0.522070  0.710270  1.0  0.1264
  H  H56  1  0.739330  0.593670  0.735770  1.0  0.135
  H  H57  1  0.739930  0.520270  0.699470  1.0  0.1252
  H  H58  1  0.742430  0.665670  0.726970  1.0  0.1267
  H  H59  1  0.733430  0.813370  0.757370  1.0  0.1398
  H  H60  1  0.813630  0.890770  0.756570  1.0  0.0918
  H  H61  1  0.220000  0.469000  0.011800  1.0  0.1191
  H  H62  1  0.144600  0.393100  0.043600  1.0  0.1264
  H  H63  1  0.073000  0.479000  0.069100  1.0  0.1355
  H  H64  1  0.146400  0.553000  0.032800  1.0  0.1259
  H  H65  1  0.001000  0.410100  0.060300  1.0  0.127
  H  H66  1  0.853300  0.253400  0.090700  1.0  0.1402
  H  H67  1  0.775900  0.256200  0.089900  1.0  0.0931
  H  H68  1  0.886670  0.802330  0.345130  1.0  0.119
  H  H69  1  0.811270  0.726430  0.376930  1.0  0.1264
  H  H70  1  0.739670  0.812330  0.402430  1.0  0.1355
  H  H71  1  0.813070  0.886330  0.366130  1.0  0.126
  H  H72  1  0.667670  0.743430  0.393630  1.0  0.127
  H  H73  1  0.519970  0.586730  0.424030  1.0  0.1402
  H  H74  1  0.442570  0.589530  0.423230  1.0  0.093
  H  H75  1  0.553330  0.135670  0.678470  1.0  0.1191
  H  H76  1  0.477930  0.059770  0.710270  1.0  0.1264
  H  H77  1  0.406330  0.145670  0.735770  1.0  0.1355
  H  H78  1  0.479730  0.219670  0.699470  1.0  0.1259
  H  H79  1  0.334330  0.076770  0.726970  1.0  0.1269
  H  H80  1  0.186630  0.920070  0.757370  1.0  0.1402
  H  H81  1  0.109230  0.922870  0.756570  1.0  0.093
  H  H82  1  0.751000  0.531000  0.488200  1.0  0.1193
  H  H83  1  0.751500  0.606900  0.456400  1.0  0.1264
  H  H84  1  0.594000  0.521000  0.430900  1.0  0.1355
  H  H85  1  0.593400  0.447000  0.467200  1.0  0.1259
  H  H86  1  0.590900  0.589900  0.439700  1.0  0.1273
  H  H87  1  0.599900  0.746600  0.409300  1.0  0.1403
  H  H88  1  0.519700  0.743800  0.410100  1.0  0.093
  H  H89  1  0.417670  0.864330  0.821530  1.0  0.1193
  H  H90  1  0.418170  0.940230  0.789730  1.0  0.1264
  H  H91  1  0.260670  0.854330  0.764230  1.0  0.1354
  H  H92  1  0.260070  0.780330  0.800530  1.0  0.1259
  H  H93  1  0.257570  0.923230  0.773030  1.0  0.1275
  H  H94  1  0.266570  0.079930  0.742630  1.0  0.1403
  H  H95  1  0.186370  0.077130  0.743430  1.0  0.0929
  H  H96  1  0.084330  0.197670  0.154870  1.0  0.1193
  H  H97  1  0.084830  0.273570  0.123070  1.0  0.1264
  H  H98  1  0.927330  0.187670  0.097570  1.0  0.1355
  H  H99  1  0.926730  0.113670  0.133870  1.0  0.1259
  H  H100  1  0.924230  0.256570  0.106370  1.0  0.1273
  H  H101  1  0.933230  0.413270  0.075970  1.0  0.1402
  H  H102  1  0.853030  0.410470  0.076770  1.0  0.0931
  H  H103  1  0.780000  0.249000  0.488200  1.0  0.1191
  H  H104  1  0.855400  0.248500  0.456400  1.0  0.1271
  H  H105  1  0.927000  0.406000  0.430900  1.0  0.1361
  H  H106  1  0.853600  0.406600  0.467200  1.0  0.1264
  H  H107  1  0.999000  0.409100  0.439700  1.0  0.1264
  H  H108  1  0.146700  0.400100  0.409300  1.0  0.1387
  H  H109  1  0.224100  0.480300  0.410100  1.0  0.0934
  H  H110  1  0.446670  0.582330  0.821530  1.0  0.1191
  H  H111  1  0.522070  0.581830  0.789730  1.0  0.1271
  H  H112  1  0.593670  0.739330  0.764230  1.0  0.1361
  H  H113  1  0.520270  0.739930  0.800530  1.0  0.1264
  H  H114  1  0.665670  0.742430  0.773030  1.0  0.1264
  H  H115  1  0.813370  0.733430  0.742630  1.0  0.1386
  H  H116  1  0.890770  0.813630  0.743430  1.0  0.0934
  H  H117  1  0.113330  0.915670  0.154870  1.0  0.1191
  H  H118  1  0.188730  0.915170  0.123070  1.0  0.1271
  H  H119  1  0.260330  0.072670  0.097570  1.0  0.1361
  H  H120  1  0.186930  0.073270  0.133870  1.0  0.1264
  H  H121  1  0.332330  0.075770  0.106370  1.0  0.1265
  H  H122  1  0.480030  0.066770  0.075970  1.0  0.1387
  H  H123  1  0.557430  0.146970  0.076770  1.0  0.0933
  H  H124  1  0.469000  0.220000  0.488200  1.0  0.1181
  H  H125  1  0.393100  0.144600  0.456400  1.0  0.1263
  H  H126  1  0.479000  0.073000  0.430900  1.0  0.1353
  H  H127  1  0.553000  0.146400  0.467200  1.0  0.1263
  H  H128  1  0.410100  0.001000  0.439700  1.0  0.1263
  H  H129  1  0.253400  0.853300  0.409300  1.0  0.1398
  H  H130  1  0.256200  0.775900  0.410100  1.0  0.0922
  H  H131  1  0.135670  0.553330  0.821530  1.0  0.1181
  H  H132  1  0.059770  0.477930  0.789730  1.0  0.1263
  H  H133  1  0.145670  0.406330  0.764230  1.0  0.1353
  H  H134  1  0.219670  0.479730  0.800530  1.0  0.1263
  H  H135  1  0.076770  0.334330  0.773030  1.0  0.1262
  H  H136  1  0.920070  0.186630  0.742630  1.0  0.1398
  H  H137  1  0.922870  0.109230  0.743430  1.0  0.0922
  H  H138  1  0.802330  0.886670  0.154870  1.0  0.1181
  H  H139  1  0.726430  0.811270  0.123070  1.0  0.1263
  H  H140  1  0.812330  0.739670  0.097570  1.0  0.1353
  H  H141  1  0.886330  0.813070  0.133870  1.0  0.1264
  H  H142  1  0.743430  0.667670  0.106370  1.0  0.1263
  H  H143  1  0.586730  0.519970  0.075970  1.0  0.1398
  H  H144  1  0.589530  0.442570  0.076770  1.0  0.0922
  H  H145  1  0.469000  0.249000  0.988200  1.0  0.1194
  H  H146  1  0.393100  0.248500  0.956400  1.0  0.1272
  H  H147  1  0.479000  0.406000  0.930900  1.0  0.1363
  H  H148  1  0.553000  0.406600  0.967200  1.0  0.1263
  H  H149  1  0.410100  0.409100  0.939700  1.0  0.126
  H  H150  1  0.253400  0.400100  0.909300  1.0  0.1392
  H  H151  1  0.256200  0.480300  0.910100  1.0  0.0951
  H  H152  1  0.135670  0.582330  0.321530  1.0  0.1194
  H  H153  1  0.059770  0.581830  0.289730  1.0  0.1272
  H  H154  1  0.145670  0.739330  0.264230  1.0  0.1362
  H  H155  1  0.219670  0.739930  0.300530  1.0  0.1263
  H  H156  1  0.076770  0.742430  0.273030  1.0  0.1262
  H  H157  1  0.920070  0.733430  0.242630  1.0  0.1391
  H  H158  1  0.922870  0.813630  0.243430  1.0  0.095
  H  H159  1  0.802330  0.915670  0.654870  1.0  0.1194
  H  H160  1  0.726430  0.915170  0.623070  1.0  0.1271
  H  H161  1  0.812330  0.072670  0.597570  1.0  0.1363
  H  H162  1  0.886330  0.073270  0.633870  1.0  0.1263
  H  H163  1  0.743430  0.075770  0.606370  1.0  0.126
  H  H164  1  0.586730  0.066770  0.575970  1.0  0.1391
  H  H165  1  0.589530  0.146970  0.576770  1.0  0.0952
  H  H166  1  0.751000  0.220000  0.988200  1.0  0.1179
  H  H167  1  0.751500  0.144600  0.956400  1.0  0.1255
  H  H168  1  0.594000  0.073000  0.930900  1.0  0.1351
  H  H169  1  0.593400  0.146400  0.967200  1.0  0.1279
  H  H170  1  0.590900  0.001000  0.939700  1.0  0.1265
  H  H171  1  0.599900  0.853300  0.909300  1.0  0.139
  H  H172  1  0.519700  0.775900  0.910100  1.0  0.0923
  H  H173  1  0.417670  0.553330  0.321530  1.0  0.1179
  H  H174  1  0.418170  0.477930  0.289730  1.0  0.1255
  H  H175  1  0.260670  0.406330  0.264230  1.0  0.1351
  H  H176  1  0.260070  0.479730  0.300530  1.0  0.1279
  H  H177  1  0.257570  0.334330  0.273030  1.0  0.1266
  H  H178  1  0.266570  0.186630  0.242630  1.0  0.1389
  H  H179  1  0.186370  0.109230  0.243430  1.0  0.0923
  H  H180  1  0.084330  0.886670  0.654870  1.0  0.1179
  H  H181  1  0.084830  0.811270  0.623070  1.0  0.1255
  H  H182  1  0.927330  0.739670  0.597570  1.0  0.1351
  H  H183  1  0.926730  0.813070  0.633870  1.0  0.1279
  H  H184  1  0.924230  0.667670  0.606370  1.0  0.1266
  H  H185  1  0.933230  0.519970  0.575970  1.0  0.139
  H  H186  1  0.853030  0.442570  0.576770  1.0  0.0922
  H  H187  1  0.780000  0.531000  0.988200  1.0  0.1197
  H  H188  1  0.855400  0.606900  0.956400  1.0  0.1265
  H  H189  1  0.927000  0.521000  0.930900  1.0  0.1357
  H  H190  1  0.853600  0.447000  0.967200  1.0  0.1258
  H  H191  1  0.999000  0.589900  0.939700  1.0  0.1275
  H  H192  1  0.146700  0.746600  0.909300  1.0  0.1408
  H  H193  1  0.224100  0.743800  0.910100  1.0  0.0934
  H  H194  1  0.446670  0.864330  0.321530  1.0  0.1197
  H  H195  1  0.522070  0.940230  0.289730  1.0  0.1265
  H  H196  1  0.593670  0.854330  0.264230  1.0  0.1357
  H  H197  1  0.520270  0.780330  0.300530  1.0  0.1258
  H  H198  1  0.665670  0.923230  0.273030  1.0  0.1274
  H  H199  1  0.813370  0.079930  0.242630  1.0  0.1408
  H  H200  1  0.890770  0.077130  0.243430  1.0  0.0934
  H  H201  1  0.113330  0.197670  0.654870  1.0  0.1197
  H  H202  1  0.188730  0.273570  0.623070  1.0  0.1264
  H  H203  1  0.260330  0.187670  0.597570  1.0  0.1358
  H  H204  1  0.186930  0.113670  0.633870  1.0  0.1258
  H  H205  1  0.332330  0.256570  0.606370  1.0  0.1275
  H  H206  1  0.480030  0.413270  0.575970  1.0  0.1408
  H  H207  1  0.557430  0.410470  0.576770  1.0  0.0933
  H  H208  1  0.249000  0.469000  0.511800  1.0  0.1194
  H  H209  1  0.248500  0.393100  0.543600  1.0  0.1262
  H  H210  1  0.406000  0.479000  0.569100  1.0  0.136
  H  H211  1  0.406600  0.553000  0.532800  1.0  0.1257
  H  H212  1  0.409100  0.410100  0.560300  1.0  0.1269
  H  H213  1  0.400100  0.253400  0.590700  1.0  0.1403
  H  H214  1  0.480300  0.256200  0.589900  1.0  0.0933
  H  H215  1  0.915670  0.802330  0.845130  1.0  0.1194
  H  H216  1  0.915170  0.726430  0.876930  1.0  0.1262
  H  H217  1  0.072670  0.812330  0.902430  1.0  0.136
  H  H218  1  0.073270  0.886330  0.866130  1.0  0.1257
  H  H219  1  0.075770  0.743430  0.893630  1.0  0.1269
  H  H220  1  0.066770  0.586730  0.924030  1.0  0.1403
  H  H221  1  0.146970  0.589530  0.923230  1.0  0.0934
  H  H222  1  0.582330  0.135670  0.178470  1.0  0.1194
  H  H223  1  0.581830  0.059770  0.210270  1.0  0.1262
  H  H224  1  0.739330  0.145670  0.235770  1.0  0.1359
  H  H225  1  0.739930  0.219670  0.199470  1.0  0.1257
  H  H226  1  0.742430  0.076770  0.226970  1.0  0.1271
  H  H227  1  0.733430  0.920070  0.257370  1.0  0.1403
  H  H228  1  0.813630  0.922870  0.256570  1.0  0.0933
  H  H229  1  0.220000  0.751000  0.511800  1.0  0.1192
  H  H230  1  0.144600  0.751500  0.543600  1.0  0.1274
  H  H231  1  0.073000  0.594000  0.569100  1.0  0.1365
  H  H232  1  0.146400  0.593400  0.532800  1.0  0.1258
  H  H233  1  0.001000  0.590900  0.560300  1.0  0.1271
  H  H234  1  0.853300  0.599900  0.590700  1.0  0.1389
  H  H235  1  0.775900  0.519700  0.589900  1.0  0.0953
  H  H236  1  0.886670  0.084330  0.845130  1.0  0.1191
  H  H237  1  0.811270  0.084830  0.876930  1.0  0.1274
  H  H238  1  0.739670  0.927330  0.902430  1.0  0.1365
  H  H239  1  0.813070  0.926730  0.866130  1.0  0.1258
  H  H240  1  0.667670  0.924230  0.893630  1.0  0.1272
  H  H241  1  0.519970  0.933230  0.924030  1.0  0.1389
  H  H242  1  0.442570  0.853030  0.923230  1.0  0.0952
  H  H243  1  0.553330  0.417670  0.178470  1.0  0.1192
  H  H244  1  0.477930  0.418170  0.210270  1.0  0.1274
  H  H245  1  0.406330  0.260670  0.235770  1.0  0.1365
  H  H246  1  0.479730  0.260070  0.199470  1.0  0.1258
  H  H247  1  0.334330  0.257570  0.226970  1.0  0.1272
  H  H248  1  0.186630  0.266570  0.257370  1.0  0.1388
  H  H249  1  0.109230  0.186370  0.256570  1.0  0.0953
  H  H250  1  0.531000  0.780000  0.511800  1.0  0.1177
  H  H251  1  0.606900  0.855400  0.543600  1.0  0.1255
  H  H252  1  0.521000  0.927000  0.569100  1.0  0.1352
  H  H253  1  0.447000  0.853600  0.532800  1.0  0.1275
  H  H254  1  0.589900  0.999000  0.560300  1.0  0.1267
  H  H255  1  0.746600  0.146700  0.590700  1.0  0.1388
  H  H256  1  0.743800  0.224100  0.589900  1.0  0.0913
  H  H257  1  0.197670  0.113330  0.845130  1.0  0.1177
  H  H258  1  0.273570  0.188730  0.876930  1.0  0.1255
  H  H259  1  0.187670  0.260330  0.902430  1.0  0.1353
  H  H260  1  0.113670  0.186930  0.866130  1.0  0.1275
  H  H261  1  0.256570  0.332330  0.893630  1.0  0.1267
  H  H262  1  0.413270  0.480030  0.924030  1.0  0.1388
  H  H263  1  0.410470  0.557430  0.923230  1.0  0.0912
  H  H264  1  0.864330  0.446670  0.178470  1.0  0.1177
  H  H265  1  0.940230  0.522070  0.210270  1.0  0.1255
  H  H266  1  0.854330  0.593670  0.235770  1.0  0.1352
  H  H267  1  0.780330  0.520270  0.199470  1.0  0.1275
  H  H268  1  0.923230  0.665670  0.226970  1.0  0.1267
  H  H269  1  0.079930  0.813370  0.257370  1.0  0.1388
  H  H270  1  0.077130  0.890770  0.256570  1.0  0.0912
  H  H271  1  0.666667  0.333333  0.126700  1.0  0.1555
  H  H272  1  0.333333  0.666667  0.460030  1.0  0.155
  H  H273  1  0.000000  0.000000  0.793370  1.0  0.1555
  H  H274  1  0.333333  0.666667  0.373300  1.0  0.1585
  H  H275  1  0.000000  0.000000  0.706630  1.0  0.1585
  H  H276  1  0.666667  0.333333  0.039970  1.0  0.158
  H  H277  1  0.333333  0.666667  0.873300  1.0  0.1585
  H  H278  1  0.000000  0.000000  0.206630  1.0  0.1585
  H  H279  1  0.666667  0.333333  0.539970  1.0  0.158
  H  H280  1  0.666667  0.333333  0.626700  1.0  0.1555
  H  H281  1  0.333333  0.666667  0.960030  1.0  0.155
  H  H282  1  0.000000  0.000000  0.293370  1.0  0.1555
  C  C283  1  0.433600  0.670000  0.988800  1.0  0.7289
  C  C284  1  0.482200  0.671800  0.015000  1.0  -0.1108
  C  C285  1  0.529400  0.718400  0.020900  1.0  -0.0741
  C  C286  1  0.574800  0.718700  0.040200  1.0  -0.0809
  C  C287  1  0.574000  0.672600  0.054200  1.0  -0.0645
  C  C288  1  0.524100  0.625900  0.054500  1.0  -0.1436
  C  C289  1  0.479800  0.625700  0.034000  1.0  -0.0408
  C  C290  1  0.622800  0.671100  0.069700  1.0  0.1239
  C  C291  1  0.621700  0.622600  0.069700  1.0  -0.1081
  C  C292  1  0.713600  0.568000  0.087600  1.0  -0.1947
  C  C293  1  0.711400  0.519900  0.087200  1.0  0.1736
  C  C294  1  0.100270  0.003330  0.322130  1.0  0.7289
  C  C295  1  0.148870  0.005130  0.348330  1.0  -0.1108
  C  C296  1  0.196070  0.051730  0.354230  1.0  -0.0741
  C  C297  1  0.241470  0.052030  0.373530  1.0  -0.0809
  C  C298  1  0.240670  0.005930  0.387530  1.0  -0.0645
  C  C299  1  0.190770  0.959230  0.387830  1.0  -0.1439
  C  C300  1  0.146470  0.959030  0.367330  1.0  -0.0408
  C  C301  1  0.289470  0.004430  0.403030  1.0  0.1227
  C  C302  1  0.288370  0.955930  0.403030  1.0  -0.108
  C  C303  1  0.380270  0.901330  0.420930  1.0  -0.1951
  C  C304  1  0.378070  0.853230  0.420530  1.0  0.173
  C  C305  1  0.766930  0.336670  0.655470  1.0  0.7291
  C  C306  1  0.815530  0.338470  0.681670  1.0  -0.1108
  C  C307  1  0.862730  0.385070  0.687570  1.0  -0.0741
  C  C308  1  0.908130  0.385370  0.706870  1.0  -0.0809
  C  C309  1  0.907330  0.339270  0.720870  1.0  -0.0644
  C  C310  1  0.857430  0.292570  0.721170  1.0  -0.1436
  C  C311  1  0.813130  0.292370  0.700670  1.0  -0.0408
  C  C312  1  0.956130  0.337770  0.736370  1.0  0.1227
  C  C313  1  0.955030  0.289270  0.736370  1.0  -0.1085
  C  C314  1  0.046930  0.234670  0.754270  1.0  -0.1948
  C  C315  1  0.044730  0.186570  0.753870  1.0  0.1731
  C  C316  1  0.330000  0.763600  0.988800  1.0  0.7297
  C  C317  1  0.328200  0.810400  0.015000  1.0  -0.1107
  C  C318  1  0.281600  0.811000  0.020900  1.0  -0.0711
  C  C319  1  0.281300  0.856100  0.040200  1.0  -0.0789
  C  C320  1  0.327400  0.901400  0.054200  1.0  -0.0652
  C  C321  1  0.374100  0.898200  0.054500  1.0  -0.1411
  C  C322  1  0.374300  0.854100  0.034000  1.0  -0.0382
  C  C323  1  0.328900  0.951700  0.069700  1.0  0.1247
  C  C324  1  0.377400  0.999100  0.069700  1.0  -0.1068
  C  C325  1  0.432000  0.145600  0.087600  1.0  -0.1928
  C  C326  1  0.480100  0.191500  0.087200  1.0  0.1734
  C  C327  1  0.996670  0.096930  0.322130  1.0  0.7299
  C  C328  1  0.994870  0.143730  0.348330  1.0  -0.1106
  C  C329  1  0.948270  0.144330  0.354230  1.0  -0.0711
  C  C330  1  0.947970  0.189430  0.373530  1.0  -0.079
  C  C331  1  0.994070  0.234730  0.387530  1.0  -0.065
  C  C332  1  0.040770  0.231530  0.387830  1.0  -0.1409
  C  C333  1  0.040970  0.187430  0.367330  1.0  -0.0382
  C  C334  1  0.995570  0.285030  0.403030  1.0  0.1235
  C  C335  1  0.044070  0.332430  0.403030  1.0  -0.1073
  C  C336  1  0.098670  0.478930  0.420930  1.0  -0.1928
  C  C337  1  0.146770  0.524830  0.420530  1.0  0.177
  C  C338  1  0.663330  0.430270  0.655470  1.0  0.7299
  C  C339  1  0.661530  0.477070  0.681670  1.0  -0.1107
  C  C340  1  0.614930  0.477670  0.687570  1.0  -0.0711
  C  C341  1  0.614630  0.522770  0.706870  1.0  -0.0789
  C  C342  1  0.660730  0.568070  0.720870  1.0  -0.065
  C  C343  1  0.707430  0.564870  0.721170  1.0  -0.1411
  C  C344  1  0.707630  0.520770  0.700670  1.0  -0.0382
  C  C345  1  0.662230  0.618370  0.736370  1.0  0.1245
  C  C346  1  0.710730  0.665770  0.736370  1.0  -0.1071
  C  C347  1  0.765330  0.812270  0.754270  1.0  -0.1928
  C  C348  1  0.813430  0.858170  0.753870  1.0  0.1721
  C  C349  1  0.236400  0.566400  0.988800  1.0  0.7305
  C  C350  1  0.189600  0.517800  0.015000  1.0  -0.1109
  C  C351  1  0.189000  0.470600  0.020900  1.0  -0.0717
  C  C352  1  0.143900  0.425200  0.040200  1.0  -0.0776
  C  C353  1  0.098600  0.426000  0.054200  1.0  -0.0659
  C  C354  1  0.101800  0.475900  0.054500  1.0  -0.1409
  C  C355  1  0.145900  0.520200  0.034000  1.0  -0.0406
  C  C356  1  0.048300  0.377200  0.069700  1.0  0.1229
  C  C357  1  0.000900  0.378300  0.069700  1.0  -0.1068
  C  C358  1  0.854400  0.286400  0.087600  1.0  -0.1986
  C  C359  1  0.808500  0.288600  0.087200  1.0  0.1742
  C  C360  1  0.903070  0.899730  0.322130  1.0  0.7304
  C  C361  1  0.856270  0.851130  0.348330  1.0  -0.1109
  C  C362  1  0.855670  0.803930  0.354230  1.0  -0.0717
  C  C363  1  0.810570  0.758530  0.373530  1.0  -0.0776
  C  C364  1  0.765270  0.759330  0.387530  1.0  -0.067
  C  C365  1  0.768470  0.809230  0.387830  1.0  -0.1409
  C  C366  1  0.812570  0.853530  0.367330  1.0  -0.0406
  C  C367  1  0.714970  0.710530  0.403030  1.0  0.1241
  C  C368  1  0.667570  0.711630  0.403030  1.0  -0.1069
  C  C369  1  0.521070  0.619730  0.420930  1.0  -0.1985
  C  C370  1  0.475170  0.621930  0.420530  1.0  0.1742
  C  C371  1  0.569730  0.233070  0.655470  1.0  0.7307
  C  C372  1  0.522930  0.184470  0.681670  1.0  -0.1109
  C  C373  1  0.522330  0.137270  0.687570  1.0  -0.0717
  C  C374  1  0.477230  0.091870  0.706870  1.0  -0.0776
  C  C375  1  0.431930  0.092670  0.720870  1.0  -0.0659
  C  C376  1  0.435130  0.142570  0.721170  1.0  -0.1409
  C  C377  1  0.479230  0.186870  0.700670  1.0  -0.0406
  C  C378  1  0.381630  0.043870  0.736370  1.0  0.1231
  C  C379  1  0.334230  0.044970  0.736370  1.0  -0.1069
  C  C380  1  0.187730  0.953070  0.754270  1.0  -0.1986
  C  C381  1  0.141830  0.955270  0.753870  1.0  0.1778
  C  C382  1  0.670000  0.433600  0.511200  1.0  0.7302
  C  C383  1  0.671800  0.482200  0.485000  1.0  -0.1101
  C  C384  1  0.718400  0.529400  0.479100  1.0  -0.0708
  C  C385  1  0.718700  0.574800  0.459800  1.0  -0.0769
  C  C386  1  0.672600  0.574000  0.445800  1.0  -0.0655
  C  C387  1  0.625900  0.524100  0.445500  1.0  -0.1401
  C  C388  1  0.625700  0.479800  0.466000  1.0  -0.0389
  C  C389  1  0.671100  0.622800  0.430300  1.0  0.124
  C  C390  1  0.622600  0.621700  0.430300  1.0  -0.1075
  C  C391  1  0.568000  0.713600  0.412400  1.0  -0.1993
  C  C392  1  0.519900  0.711400  0.412800  1.0  0.175
  C  C393  1  0.336670  0.766930  0.844530  1.0  0.7304
  C  C394  1  0.338470  0.815530  0.818330  1.0  -0.1101
  C  C395  1  0.385070  0.862730  0.812430  1.0  -0.0708
  C  C396  1  0.385370  0.908130  0.793130  1.0  -0.0769
  C  C397  1  0.339270  0.907330  0.779130  1.0  -0.0655
  C  C398  1  0.292570  0.857430  0.778830  1.0  -0.1401
  C  C399  1  0.292370  0.813130  0.799330  1.0  -0.0389
  C  C400  1  0.337770  0.956130  0.763630  1.0  0.1227
  C  C401  1  0.289270  0.955030  0.763630  1.0  -0.1078
  C  C402  1  0.234670  0.046930  0.745730  1.0  -0.1993
  C  C403  1  0.186570  0.044730  0.746130  1.0  0.1744
  C  C404  1  0.003330  0.100270  0.177870  1.0  0.7302
  C  C405  1  0.005130  0.148870  0.151670  1.0  -0.1101
  C  C406  1  0.051730  0.196070  0.145770  1.0  -0.0708
  C  C407  1  0.052030  0.241470  0.126470  1.0  -0.0769
  C  C408  1  0.005930  0.240670  0.112470  1.0  -0.0655
  C  C409  1  0.959230  0.190770  0.112170  1.0  -0.1405
  C  C410  1  0.959030  0.146470  0.132670  1.0  -0.039
  C  C411  1  0.004430  0.289470  0.096970  1.0  0.1228
  C  C412  1  0.955930  0.288370  0.096970  1.0  -0.1073
  C  C413  1  0.901330  0.380270  0.079070  1.0  -0.1997
  C  C414  1  0.853230  0.378070  0.079470  1.0  0.1744
  C  C415  1  0.763600  0.330000  0.511200  1.0  0.7298
  C  C416  1  0.810400  0.328200  0.485000  1.0  -0.1095
  C  C417  1  0.811000  0.281600  0.479100  1.0  -0.0747
  C  C418  1  0.856100  0.281300  0.459800  1.0  -0.0819
  C  C419  1  0.901400  0.327400  0.445800  1.0  -0.0639
  C  C420  1  0.898200  0.374100  0.445500  1.0  -0.1437
  C  C421  1  0.854100  0.374300  0.466000  1.0  -0.0416
  C  C422  1  0.951700  0.328900  0.430300  1.0  0.1235
  C  C423  1  0.999100  0.377400  0.430300  1.0  -0.1082
  C  C424  1  0.145600  0.432000  0.412400  1.0  -0.1945
  C  C425  1  0.191500  0.480100  0.412800  1.0  0.1727
  C  C426  1  0.430270  0.663330  0.844530  1.0  0.73
  C  C427  1  0.477070  0.661530  0.818330  1.0  -0.1095
  C  C428  1  0.477670  0.614930  0.812430  1.0  -0.0747
  C  C429  1  0.522770  0.614630  0.793130  1.0  -0.0819
  C  C430  1  0.568070  0.660730  0.779130  1.0  -0.0639
  C  C431  1  0.564870  0.707430  0.778830  1.0  -0.1437
  C  C432  1  0.520770  0.707630  0.799330  1.0  -0.0416
  C  C433  1  0.618370  0.662230  0.763630  1.0  0.1234
  C  C434  1  0.665770  0.710730  0.763630  1.0  -0.1086
  C  C435  1  0.812270  0.765330  0.745730  1.0  -0.1945
  C  C436  1  0.858170  0.813430  0.746130  1.0  0.1714
  C  C437  1  0.096930  0.996670  0.177870  1.0  0.73
  C  C438  1  0.143730  0.994870  0.151670  1.0  -0.1095
  C  C439  1  0.144330  0.948270  0.145770  1.0  -0.0747
  C  C440  1  0.189430  0.947970  0.126470  1.0  -0.082
  C  C441  1  0.234730  0.994070  0.112470  1.0  -0.0636
  C  C442  1  0.231530  0.040770  0.112170  1.0  -0.1434
  C  C443  1  0.187430  0.040970  0.132670  1.0  -0.0417
  C  C444  1  0.285030  0.995570  0.096970  1.0  0.1224
  C  C445  1  0.332430  0.044070  0.096970  1.0  -0.1087
  C  C446  1  0.478930  0.098670  0.079070  1.0  -0.1945
  C  C447  1  0.524830  0.146770  0.079470  1.0  0.1765
  C  C448  1  0.566400  0.236400  0.511200  1.0  0.7299
  C  C449  1  0.517800  0.189600  0.485000  1.0  -0.1092
  C  C450  1  0.470600  0.189000  0.479100  1.0  -0.0703
  C  C451  1  0.425200  0.143900  0.459800  1.0  -0.0781
  C  C452  1  0.426000  0.098600  0.445800  1.0  -0.0646
  C  C453  1  0.475900  0.101800  0.445500  1.0  -0.1413
  C  C454  1  0.520200  0.145900  0.466000  1.0  -0.0393
  C  C455  1  0.377200  0.048300  0.430300  1.0  0.1228
  C  C456  1  0.378300  0.000900  0.430300  1.0  -0.107
  C  C457  1  0.286400  0.854400  0.412400  1.0  -0.1927
  C  C458  1  0.288600  0.808500  0.412800  1.0  0.1742
  C  C459  1  0.233070  0.569730  0.844530  1.0  0.7301
  C  C460  1  0.184470  0.522930  0.818330  1.0  -0.1092
  C  C461  1  0.137270  0.522330  0.812430  1.0  -0.0703
  C  C462  1  0.091870  0.477230  0.793130  1.0  -0.0781
  C  C463  1  0.092670  0.431930  0.779130  1.0  -0.0646
  C  C464  1  0.142570  0.435130  0.778830  1.0  -0.1413
  C  C465  1  0.186870  0.479230  0.799330  1.0  -0.0393
  C  C466  1  0.043870  0.381630  0.763630  1.0  0.1229
  C  C467  1  0.044970  0.334230  0.763630  1.0  -0.1071
  C  C468  1  0.953070  0.187730  0.745730  1.0  -0.1926
  C  C469  1  0.955270  0.141830  0.746130  1.0  0.1777
  C  C470  1  0.899730  0.903070  0.177870  1.0  0.7298
  C  C471  1  0.851130  0.856270  0.151670  1.0  -0.1092
  C  C472  1  0.803930  0.855670  0.145770  1.0  -0.0703
  C  C473  1  0.758530  0.810570  0.126470  1.0  -0.0781
  C  C474  1  0.759330  0.765270  0.112470  1.0  -0.0657
  C  C475  1  0.809230  0.768470  0.112170  1.0  -0.1413
  C  C476  1  0.853530  0.812570  0.132670  1.0  -0.0394
  C  C477  1  0.710530  0.714970  0.096970  1.0  0.1239
  C  C478  1  0.711630  0.667570  0.096970  1.0  -0.1071
  C  C479  1  0.619730  0.521070  0.079070  1.0  -0.1927
  C  C480  1  0.621930  0.475170  0.079470  1.0  0.1741
  C  C481  1  0.566400  0.330000  0.011200  1.0  0.7307
  C  C482  1  0.517800  0.328200  0.985000  1.0  -0.1096
  C  C483  1  0.470600  0.281600  0.979100  1.0  -0.0748
  C  C484  1  0.425200  0.281300  0.959800  1.0  -0.0817
  C  C485  1  0.426000  0.327400  0.945800  1.0  -0.0646
  C  C486  1  0.475900  0.374100  0.945500  1.0  -0.1443
  C  C487  1  0.520200  0.374300  0.966000  1.0  -0.0417
  C  C488  1  0.377200  0.328900  0.930300  1.0  0.1237
  C  C489  1  0.378300  0.377400  0.930300  1.0  -0.1077
  C  C490  1  0.286400  0.432000  0.912400  1.0  -0.1938
  C  C491  1  0.288600  0.480100  0.912800  1.0  0.1753
  C  C492  1  0.233070  0.663330  0.344530  1.0  0.7308
  C  C493  1  0.184470  0.661530  0.318330  1.0  -0.1096
  C  C494  1  0.137270  0.614930  0.312430  1.0  -0.0748
  C  C495  1  0.091870  0.614630  0.293130  1.0  -0.0817
  C  C496  1  0.092670  0.660730  0.279130  1.0  -0.0646
  C  C497  1  0.142570  0.707430  0.278830  1.0  -0.1443
  C  C498  1  0.186870  0.707630  0.299330  1.0  -0.0417
  C  C499  1  0.043870  0.662230  0.263630  1.0  0.1225
  C  C500  1  0.044970  0.710730  0.263630  1.0  -0.108
  C  C501  1  0.953070  0.765330  0.245730  1.0  -0.1938
  C  C502  1  0.955270  0.813430  0.246130  1.0  0.1747
  C  C503  1  0.899730  0.996670  0.677870  1.0  0.7306
  C  C504  1  0.851130  0.994870  0.651670  1.0  -0.1096
  C  C505  1  0.803930  0.948270  0.645770  1.0  -0.0748
  C  C506  1  0.758530  0.947970  0.626470  1.0  -0.0817
  C  C507  1  0.759330  0.994070  0.612470  1.0  -0.0646
  C  C508  1  0.809230  0.040770  0.612170  1.0  -0.1447
  C  C509  1  0.853530  0.040970  0.632670  1.0  -0.0419
  C  C510  1  0.710530  0.995570  0.596970  1.0  0.1225
  C  C511  1  0.711630  0.044070  0.596970  1.0  -0.1075
  C  C512  1  0.619730  0.098670  0.579070  1.0  -0.1941
  C  C513  1  0.621930  0.146770  0.579470  1.0  0.1748
  C  C514  1  0.670000  0.236400  0.011200  1.0  0.7297
  C  C515  1  0.671800  0.189600  0.985000  1.0  -0.1091
  C  C516  1  0.718400  0.189000  0.979100  1.0  -0.0704
  C  C517  1  0.718700  0.143900  0.959800  1.0  -0.0766
  C  C518  1  0.672600  0.098600  0.945800  1.0  -0.066
  C  C519  1  0.625900  0.101800  0.945500  1.0  -0.1418
  C  C520  1  0.625700  0.145900  0.966000  1.0  -0.0396
  C  C521  1  0.671100  0.048300  0.930300  1.0  0.1244
  C  C522  1  0.622600  0.000900  0.930300  1.0  -0.1083
  C  C523  1  0.568000  0.854400  0.912400  1.0  -0.1917
  C  C524  1  0.519900  0.808500  0.912800  1.0  0.173
  C  C525  1  0.336670  0.569730  0.344530  1.0  0.7298
  C  C526  1  0.338470  0.522930  0.318330  1.0  -0.1091
  C  C527  1  0.385070  0.522330  0.312430  1.0  -0.0704
  C  C528  1  0.385370  0.477230  0.293130  1.0  -0.0766
  C  C529  1  0.339270  0.431930  0.279130  1.0  -0.066
  C  C530  1  0.292570  0.435130  0.278830  1.0  -0.1418
  C  C531  1  0.292370  0.479230  0.299330  1.0  -0.0396
  C  C532  1  0.337770  0.381630  0.263630  1.0  0.1244
  C  C533  1  0.289270  0.334230  0.263630  1.0  -0.1086
  C  C534  1  0.234670  0.187730  0.245730  1.0  -0.1916
  C  C535  1  0.186570  0.141830  0.246130  1.0  0.1717
  C  C536  1  0.003330  0.903070  0.677870  1.0  0.7299
  C  C537  1  0.005130  0.856270  0.651670  1.0  -0.1091
  C  C538  1  0.051730  0.855670  0.645770  1.0  -0.0703
  C  C539  1  0.052030  0.810570  0.626470  1.0  -0.0767
  C  C540  1  0.005930  0.765270  0.612470  1.0  -0.0658
  C  C541  1  0.959230  0.768470  0.612170  1.0  -0.1414
  C  C542  1  0.959030  0.812570  0.632670  1.0  -0.0398
  C  C543  1  0.004430  0.714970  0.596970  1.0  0.1234
  C  C544  1  0.955930  0.667570  0.596970  1.0  -0.1088
  C  C545  1  0.901330  0.521070  0.579070  1.0  -0.1917
  C  C546  1  0.853230  0.475170  0.579470  1.0  0.1766
  C  C547  1  0.763600  0.433600  0.011200  1.0  0.7298
  C  C548  1  0.810400  0.482200  0.985000  1.0  -0.1102
  C  C549  1  0.811000  0.529400  0.979100  1.0  -0.0725
  C  C550  1  0.856100  0.574800  0.959800  1.0  -0.0771
  C  C551  1  0.901400  0.574000  0.945800  1.0  -0.0642
  C  C552  1  0.898200  0.524100  0.945500  1.0  -0.1409
  C  C553  1  0.854100  0.479800  0.966000  1.0  -0.0407
  C  C554  1  0.951700  0.622800  0.930300  1.0  0.1232
  C  C555  1  0.999100  0.621700  0.930300  1.0  -0.1071
  C  C556  1  0.145600  0.713600  0.912400  1.0  -0.1993
  C  C557  1  0.191500  0.711400  0.912800  1.0  0.1739
  C  C558  1  0.430270  0.766930  0.344530  1.0  0.7299
  C  C559  1  0.477070  0.815530  0.318330  1.0  -0.1102
  C  C560  1  0.477670  0.862730  0.312430  1.0  -0.0725
  C  C561  1  0.522770  0.908130  0.293130  1.0  -0.0771
  C  C562  1  0.568070  0.907330  0.279130  1.0  -0.0642
  C  C563  1  0.564870  0.857430  0.278830  1.0  -0.1409
  C  C564  1  0.520770  0.813130  0.299330  1.0  -0.0407
  C  C565  1  0.618370  0.956130  0.263630  1.0  0.1233
  C  C566  1  0.665770  0.955030  0.263630  1.0  -0.1072
  C  C567  1  0.812270  0.046930  0.245730  1.0  -0.1992
  C  C568  1  0.858170  0.044730  0.246130  1.0  0.1774
  C  C569  1  0.096930  0.100270  0.677870  1.0  0.7297
  C  C570  1  0.143730  0.148870  0.651670  1.0  -0.1102
  C  C571  1  0.144330  0.196070  0.645770  1.0  -0.0725
  C  C572  1  0.189430  0.241470  0.626470  1.0  -0.0771
  C  C573  1  0.234730  0.240670  0.612470  1.0  -0.0653
  C  C574  1  0.231530  0.190770  0.612170  1.0  -0.1409
  C  C575  1  0.187430  0.146470  0.632670  1.0  -0.0408
  C  C576  1  0.285030  0.289470  0.596970  1.0  0.1243
  C  C577  1  0.332430  0.288370  0.596970  1.0  -0.1072
  C  C578  1  0.478930  0.380270  0.579070  1.0  -0.1992
  C  C579  1  0.524830  0.378070  0.579470  1.0  0.1737
  C  C580  1  0.330000  0.566400  0.488800  1.0  0.7295
  C  C581  1  0.328200  0.517800  0.515000  1.0  -0.1113
  C  C582  1  0.281600  0.470600  0.520900  1.0  -0.0727
  C  C583  1  0.281300  0.425200  0.540200  1.0  -0.0778
  C  C584  1  0.327400  0.426000  0.554200  1.0  -0.0649
  C  C585  1  0.374100  0.475900  0.554500  1.0  -0.1408
  C  C586  1  0.374300  0.520200  0.534000  1.0  -0.0403
  C  C587  1  0.328900  0.377200  0.569700  1.0  0.1245
  C  C588  1  0.377400  0.378300  0.569700  1.0  -0.1069
  C  C589  1  0.432000  0.286400  0.587600  1.0  -0.1986
  C  C590  1  0.480100  0.288600  0.587200  1.0  0.1752
  C  C591  1  0.996670  0.899730  0.822130  1.0  0.7295
  C  C592  1  0.994870  0.851130  0.848330  1.0  -0.1113
  C  C593  1  0.948270  0.803930  0.854230  1.0  -0.0727
  C  C594  1  0.947970  0.758530  0.873530  1.0  -0.0778
  C  C595  1  0.994070  0.759330  0.887530  1.0  -0.0649
  C  C596  1  0.040770  0.809230  0.887830  1.0  -0.1412
  C  C597  1  0.040970  0.853530  0.867330  1.0  -0.0403
  C  C598  1  0.995570  0.710530  0.903030  1.0  0.1233
  C  C599  1  0.044070  0.711630  0.903030  1.0  -0.1067
  C  C600  1  0.098670  0.619730  0.920930  1.0  -0.199
  C  C601  1  0.146770  0.621930  0.920530  1.0  0.1746
  C  C602  1  0.663330  0.233070  0.155470  1.0  0.7297
  C  C603  1  0.661530  0.184470  0.181670  1.0  -0.1113
  C  C604  1  0.614930  0.137270  0.187570  1.0  -0.0727
  C  C605  1  0.614630  0.091870  0.206870  1.0  -0.0778
  C  C606  1  0.660730  0.092670  0.220870  1.0  -0.0649
  C  C607  1  0.707430  0.142570  0.221170  1.0  -0.1408
  C  C608  1  0.707630  0.186870  0.200670  1.0  -0.0403
  C  C609  1  0.662230  0.043870  0.236370  1.0  0.1233
  C  C610  1  0.710730  0.044970  0.236370  1.0  -0.1072
  C  C611  1  0.765330  0.953070  0.254270  1.0  -0.1986
  C  C612  1  0.813430  0.955270  0.253870  1.0  0.1746
  C  C613  1  0.236400  0.670000  0.488800  1.0  0.7317
  C  C614  1  0.189600  0.671800  0.515000  1.0  -0.1106
  C  C615  1  0.189000  0.718400  0.520900  1.0  -0.074
  C  C616  1  0.143900  0.718700  0.540200  1.0  -0.0818
  C  C617  1  0.098600  0.672600  0.554200  1.0  -0.0649
  C  C618  1  0.101800  0.625900  0.554500  1.0  -0.1447
  C  C619  1  0.145900  0.625700  0.534000  1.0  -0.0409
  C  C620  1  0.048300  0.671100  0.569700  1.0  0.1239
  C  C621  1  0.000900  0.622600  0.569700  1.0  -0.1074
  C  C622  1  0.854400  0.568000  0.587600  1.0  -0.1945
  C  C623  1  0.808500  0.519900  0.587200  1.0  0.174
  C  C624  1  0.903070  0.003330  0.822130  1.0  0.7319
  C  C625  1  0.856270  0.005130  0.848330  1.0  -0.1106
  C  C626  1  0.855670  0.051730  0.854230  1.0  -0.074
  C  C627  1  0.810570  0.052030  0.873530  1.0  -0.0819
  C  C628  1  0.765270  0.005930  0.887530  1.0  -0.0646
  C  C629  1  0.768470  0.959230  0.887830  1.0  -0.1444
  C  C630  1  0.812570  0.959030  0.867330  1.0  -0.0409
  C  C631  1  0.714970  0.004430  0.903030  1.0  0.1228
  C  C632  1  0.667570  0.955930  0.903030  1.0  -0.1079
  C  C633  1  0.521070  0.901330  0.920930  1.0  -0.1945
  C  C634  1  0.475170  0.853230  0.920530  1.0  0.1777
  C  C635  1  0.569730  0.336670  0.155470  1.0  0.7318
  C  C636  1  0.522930  0.338470  0.181670  1.0  -0.1106
  C  C637  1  0.522330  0.385070  0.187570  1.0  -0.074
  C  C638  1  0.477230  0.385370  0.206870  1.0  -0.0818
  C  C639  1  0.431930  0.339270  0.220870  1.0  -0.0649
  C  C640  1  0.435130  0.292570  0.221170  1.0  -0.1447
  C  C641  1  0.479230  0.292370  0.200670  1.0  -0.0409
  C  C642  1  0.381630  0.337770  0.236370  1.0  0.1238
  C  C643  1  0.334230  0.289270  0.236370  1.0  -0.1077
  C  C644  1  0.187730  0.234670  0.254270  1.0  -0.1945
  C  C645  1  0.141830  0.186570  0.253870  1.0  0.1726
  C  C646  1  0.433600  0.763600  0.488800  1.0  0.7287
  C  C647  1  0.482200  0.810400  0.515000  1.0  -0.111
  C  C648  1  0.529400  0.811000  0.520900  1.0  -0.0706
  C  C649  1  0.574800  0.856100  0.540200  1.0  -0.077
  C  C650  1  0.574000  0.901400  0.554200  1.0  -0.0665
  C  C651  1  0.524100  0.898200  0.554500  1.0  -0.1419
  C  C652  1  0.479800  0.854100  0.534000  1.0  -0.0397
  C  C653  1  0.622800  0.951700  0.569700  1.0  0.1235
  C  C654  1  0.621700  0.999100  0.569700  1.0  -0.1077
  C  C655  1  0.713600  0.145600  0.587600  1.0  -0.1912
  C  C656  1  0.711400  0.191500  0.587200  1.0  0.1734
  C  C657  1  0.100270  0.096930  0.822130  1.0  0.7286
  C  C658  1  0.148870  0.143730  0.848330  1.0  -0.111
  C  C659  1  0.196070  0.144330  0.854230  1.0  -0.0706
  C  C660  1  0.241470  0.189430  0.873530  1.0  -0.077
  C  C661  1  0.240670  0.234730  0.887530  1.0  -0.0676
  C  C662  1  0.190770  0.231530  0.887830  1.0  -0.1419
  C  C663  1  0.146470  0.187430  0.867330  1.0  -0.0397
  C  C664  1  0.289470  0.285030  0.903030  1.0  0.1246
  C  C665  1  0.288370  0.332430  0.903030  1.0  -0.1079
  C  C666  1  0.380270  0.478930  0.920930  1.0  -0.1912
  C  C667  1  0.378070  0.524830  0.920530  1.0  0.1735
  C  C668  1  0.766930  0.430270  0.155470  1.0  0.7289
  C  C669  1  0.815530  0.477070  0.181670  1.0  -0.111
  C  C670  1  0.862730  0.477670  0.187570  1.0  -0.0706
  C  C671  1  0.908130  0.522770  0.206870  1.0  -0.077
  C  C672  1  0.907330  0.568070  0.220870  1.0  -0.0665
  C  C673  1  0.857430  0.564870  0.221170  1.0  -0.1419
  C  C674  1  0.813130  0.520770  0.200670  1.0  -0.0397
  C  C675  1  0.956130  0.618370  0.236370  1.0  0.1236
  C  C676  1  0.955030  0.665770  0.236370  1.0  -0.1079
  C  C677  1  0.046930  0.812270  0.254270  1.0  -0.1912
  C  C678  1  0.044730  0.858170  0.253870  1.0  0.177
  C  C679  1  0.666667  0.620680  0.083330  1.0  0.0726
  C  C680  1  0.666667  0.569280  0.083330  1.0  0.115
  C  C681  1  0.379320  0.045980  0.083330  1.0  0.0665
  C  C682  1  0.430720  0.097380  0.083330  1.0  0.1129
  C  C683  1  0.954020  0.333333  0.083330  1.0  0.0649
  C  C684  1  0.902620  0.333333  0.083330  1.0  0.1107
  C  C685  1  0.620680  0.666667  0.416670  1.0  0.0717
  C  C686  1  0.569280  0.666667  0.416670  1.0  0.1127
  C  C687  1  0.287350  0.000000  0.750000  1.0  0.0654
  C  C688  1  0.235950  0.000000  0.750000  1.0  0.1109
  C  C689  1  0.045980  0.379320  0.416670  1.0  0.0665
  C  C690  1  0.097380  0.430720  0.416670  1.0  0.1129
  C  C691  1  0.712650  0.712650  0.750000  1.0  0.0672
  C  C692  1  0.764050  0.764050  0.750000  1.0  0.1149
  C  C693  1  0.333333  0.954020  0.416670  1.0  0.0657
  C  C694  1  0.333333  0.902620  0.416670  1.0  0.1128
  C  C695  1  0.000000  0.287350  0.750000  1.0  0.0662
  C  C696  1  0.000000  0.235950  0.750000  1.0  0.1131
  C  C697  1  0.333333  0.379320  0.916670  1.0  0.0725
  C  C698  1  0.333333  0.430720  0.916670  1.0  0.1134
  C  C699  1  0.000000  0.712650  0.250000  1.0  0.0662
  C  C700  1  0.000000  0.764050  0.250000  1.0  0.1115
  C  C701  1  0.620680  0.954020  0.916670  1.0  0.0662
  C  C702  1  0.569280  0.902620  0.916670  1.0  0.1114
  C  C703  1  0.287350  0.287350  0.250000  1.0  0.0669
  C  C704  1  0.235950  0.235950  0.250000  1.0  0.1136
  C  C705  1  0.045980  0.666667  0.916670  1.0  0.0655
  C  C706  1  0.097380  0.666667  0.916670  1.0  0.1103
  C  C707  1  0.712650  0.000000  0.250000  1.0  0.066
  C  C708  1  0.764050  0.000000  0.250000  1.0  0.1107
  C  C709  1  0.379320  0.333333  0.583330  1.0  0.0723
  C  C710  1  0.430720  0.333333  0.583330  1.0  0.1126
  C  C711  1  0.954020  0.620680  0.583330  1.0  0.0662
  C  C712  1  0.902620  0.569280  0.583330  1.0  0.1114
  C  C713  1  0.666667  0.045980  0.583330  1.0  0.0657
  C  C714  1  0.666667  0.097380  0.583330  1.0  0.1114
  N  N715  1  0.666667  0.473280  0.083330  1.0  -0.2705
  N  N716  1  0.666667  0.716880  0.083330  1.0  -0.413
  N  N717  1  0.526720  0.193380  0.083330  1.0  -0.27
  N  N718  1  0.283120  0.949780  0.083330  1.0  -0.4129
  N  N719  1  0.806620  0.333333  0.083330  1.0  -0.2671
  N  N720  1  0.050220  0.333333  0.083330  1.0  -0.4114
  N  N721  1  0.473280  0.666667  0.416670  1.0  -0.2677
  N  N722  1  0.716880  0.666667  0.416670  1.0  -0.4111
  N  N723  1  0.139950  0.000000  0.750000  1.0  -0.2672
  N  N724  1  0.383550  0.000000  0.750000  1.0  -0.4111
  N  N725  1  0.193380  0.526720  0.416670  1.0  -0.27
  N  N726  1  0.949780  0.283120  0.416670  1.0  -0.4129
  N  N727  1  0.860050  0.860050  0.750000  1.0  -0.2701
  N  N728  1  0.616450  0.616450  0.750000  1.0  -0.4136
  N  N729  1  0.333333  0.806620  0.416670  1.0  -0.2698
  N  N730  1  0.333333  0.050220  0.416670  1.0  -0.4132
  N  N731  1  0.000000  0.139950  0.750000  1.0  -0.27
  N  N732  1  0.000000  0.383550  0.750000  1.0  -0.413
  N  N733  1  0.333333  0.526720  0.916670  1.0  -0.2692
  N  N734  1  0.333333  0.283120  0.916670  1.0  -0.4123
  N  N735  1  0.000000  0.860050  0.250000  1.0  -0.2688
  N  N736  1  0.000000  0.616450  0.250000  1.0  -0.4124
  N  N737  1  0.473280  0.806620  0.916670  1.0  -0.2697
  N  N738  1  0.716880  0.050220  0.916670  1.0  -0.4129
  N  N739  1  0.139950  0.139950  0.250000  1.0  -0.2699
  N  N740  1  0.383550  0.383550  0.250000  1.0  -0.4136
  N  N741  1  0.193380  0.666667  0.916670  1.0  -0.2666
  N  N742  1  0.949780  0.666667  0.916670  1.0  -0.413
  N  N743  1  0.860050  0.000000  0.250000  1.0  -0.2668
  N  N744  1  0.616450  0.000000  0.250000  1.0  -0.4128
  N  N745  1  0.526720  0.333333  0.583330  1.0  -0.2674
  N  N746  1  0.283120  0.333333  0.583330  1.0  -0.4129
  N  N747  1  0.806620  0.473280  0.583330  1.0  -0.2698
  N  N748  1  0.050220  0.716880  0.583330  1.0  -0.4129
  N  N749  1  0.666667  0.193380  0.583330  1.0  -0.2685
  N  N750  1  0.666667  0.949780  0.583330  1.0  -0.4125
  O  O751  1  0.434880  0.713280  0.982300  1.0  -0.6051
  O  O752  1  0.396100  0.625340  0.975500  1.0  -0.5933
  O  O753  1  0.101550  0.046610  0.315630  1.0  -0.6049
  O  O754  1  0.062770  0.958670  0.308830  1.0  -0.5933
  O  O755  1  0.768210  0.379950  0.648970  1.0  -0.6048
  O  O756  1  0.729430  0.292010  0.642170  1.0  -0.5935
  O  O757  1  0.286720  0.721600  0.982300  1.0  -0.6062
  O  O758  1  0.374660  0.770760  0.975500  1.0  -0.5941
  O  O759  1  0.953390  0.054930  0.315630  1.0  -0.6062
  O  O760  1  0.041330  0.104090  0.308830  1.0  -0.5941
  O  O761  1  0.620050  0.388270  0.648970  1.0  -0.6066
  O  O762  1  0.707990  0.437430  0.642170  1.0  -0.5945
  O  O763  1  0.278400  0.565120  0.982300  1.0  -0.6065
  O  O764  1  0.229240  0.603900  0.975500  1.0  -0.5939
  O  O765  1  0.945070  0.898450  0.315630  1.0  -0.6059
  O  O766  1  0.895910  0.937230  0.308830  1.0  -0.594
  O  O767  1  0.611730  0.231790  0.648970  1.0  -0.6065
  O  O768  1  0.562570  0.270570  0.642170  1.0  -0.5937
  O  O769  1  0.713280  0.434880  0.517700  1.0  -0.6099
  O  O770  1  0.625340  0.396100  0.524500  1.0  -0.5934
  O  O771  1  0.379950  0.768210  0.851030  1.0  -0.6096
  O  O772  1  0.292010  0.729430  0.857830  1.0  -0.5937
  O  O773  1  0.046610  0.101550  0.184370  1.0  -0.6098
  O  O774  1  0.958670  0.062770  0.191170  1.0  -0.5934
  O  O775  1  0.721600  0.286720  0.517700  1.0  -0.6081
  O  O776  1  0.770760  0.374660  0.524500  1.0  -0.5929
  O  O777  1  0.388270  0.620050  0.851030  1.0  -0.6084
  O  O778  1  0.437430  0.707990  0.857830  1.0  -0.5933
  O  O779  1  0.054930  0.953390  0.184370  1.0  -0.608
  O  O780  1  0.104090  0.041330  0.191170  1.0  -0.5929
  O  O781  1  0.565120  0.278400  0.517700  1.0  -0.6099
  O  O782  1  0.603900  0.229240  0.524500  1.0  -0.5944
  O  O783  1  0.231790  0.611730  0.851030  1.0  -0.6099
  O  O784  1  0.270570  0.562570  0.857830  1.0  -0.5941
  O  O785  1  0.898450  0.945070  0.184370  1.0  -0.6093
  O  O786  1  0.937230  0.895910  0.191170  1.0  -0.5946
  O  O787  1  0.565120  0.286720  0.017700  1.0  -0.608
  O  O788  1  0.603900  0.374660  0.024500  1.0  -0.5929
  O  O789  1  0.231790  0.620050  0.351030  1.0  -0.6077
  O  O790  1  0.270570  0.707990  0.357830  1.0  -0.5932
  O  O791  1  0.898450  0.953390  0.684370  1.0  -0.6078
  O  O792  1  0.937230  0.041330  0.691170  1.0  -0.5929
  O  O793  1  0.713280  0.278400  0.017700  1.0  -0.6086
  O  O794  1  0.625340  0.229240  0.024500  1.0  -0.5937
  O  O795  1  0.379950  0.611730  0.351030  1.0  -0.6089
  O  O796  1  0.292010  0.562570  0.357830  1.0  -0.594
  O  O797  1  0.046610  0.945070  0.684370  1.0  -0.6085
  O  O798  1  0.958670  0.895910  0.691170  1.0  -0.5937
  O  O799  1  0.721600  0.434880  0.017700  1.0  -0.6088
  O  O800  1  0.770760  0.396100  0.024500  1.0  -0.593
  O  O801  1  0.388270  0.768210  0.351030  1.0  -0.6088
  O  O802  1  0.437430  0.729430  0.357830  1.0  -0.5928
  O  O803  1  0.054930  0.101550  0.684370  1.0  -0.6082
  O  O804  1  0.104090  0.062770  0.691170  1.0  -0.5932
  O  O805  1  0.286720  0.565120  0.482300  1.0  -0.6058
  O  O806  1  0.374660  0.603900  0.475500  1.0  -0.5937
  O  O807  1  0.953390  0.898450  0.815630  1.0  -0.6057
  O  O808  1  0.041330  0.937230  0.808830  1.0  -0.5937
  O  O809  1  0.620050  0.231790  0.148970  1.0  -0.6055
  O  O810  1  0.707990  0.270570  0.142170  1.0  -0.5939
  O  O811  1  0.278400  0.713280  0.482300  1.0  -0.605
  O  O812  1  0.229240  0.625340  0.475500  1.0  -0.5929
  O  O813  1  0.945070  0.046610  0.815630  1.0  -0.605
  O  O814  1  0.895910  0.958670  0.808830  1.0  -0.5929
  O  O815  1  0.611730  0.379950  0.148970  1.0  -0.6054
  O  O816  1  0.562570  0.292010  0.142170  1.0  -0.5933
  O  O817  1  0.434880  0.721600  0.482300  1.0  -0.6053
  O  O818  1  0.396100  0.770760  0.475500  1.0  -0.5941
  O  O819  1  0.101550  0.054930  0.815630  1.0  -0.6048
  O  O820  1  0.062770  0.104090  0.808830  1.0  -0.5943
  O  O821  1  0.768210  0.388270  0.148970  1.0  -0.6053
  O  O822  1  0.729430  0.437430  0.142170  1.0  -0.5939
  O  O823  1  0.666667  0.333333  0.083330  1.0  -0.6452
  O  O824  1  0.000000  0.000000  0.750000  1.0  -0.6451
  O  O825  1  0.333333  0.666667  0.416670  1.0  -0.6452
  O  O826  1  0.333333  0.666667  0.916670  1.0  -0.6452
  O  O827  1  0.000000  0.000000  0.250000  1.0  -0.6451
  O  O828  1  0.666667  0.333333  0.583330  1.0  -0.6452
