# generated using pymatgen
data_Ni3H44C72N6O13
_symmetry_space_group_name_H-M   'P 1'
_cell_length_a   29.10600000
_cell_length_b   29.10600000
_cell_length_c   23.41700000
_cell_angle_alpha   90.00000000
_cell_angle_beta   90.00000000
_cell_angle_gamma   120.00000000
_symmetry_Int_Tables_number   1
_chemical_formula_structural   Ni3H44C72N6O13
_chemical_formula_sum   'Ni18 H264 C432 N36 O78'
_cell_volume   17180.14945871
_cell_formula_units_Z   6
loop_
 _symmetry_equiv_pos_site_id
 _symmetry_equiv_pos_as_xyz
  1  'x, y, z'
loop_
 _atom_site_type_symbol
 _atom_site_label
 _atom_site_symmetry_multiplicity
 _atom_site_fract_x
 _atom_site_fract_y
 _atom_site_fract_z
 _atom_site_occupancy
 _atom_site_charge
  Ni  Ni1  1  0.666667  0.402170  0.083330  1.0  0.8743
  Ni  Ni2  1  0.597830  0.264490  0.083330  1.0  0.8716
  Ni  Ni3  1  0.735510  0.333333  0.083330  1.0  0.8721
  Ni  Ni4  1  0.402170  0.666667  0.416670  1.0  0.8721
  Ni  Ni5  1  0.068840  0.000000  0.750000  1.0  0.8721
  Ni  Ni6  1  0.264490  0.597830  0.416670  1.0  0.8716
  Ni  Ni7  1  0.931160  0.931160  0.750000  1.0  0.8727
  Ni  Ni8  1  0.333333  0.735510  0.416670  1.0  0.8742
  Ni  Ni9  1  0.000000  0.068840  0.750000  1.0  0.8742
  Ni  Ni10  1  0.333333  0.597830  0.916670  1.0  0.8713
  Ni  Ni11  1  0.000000  0.931160  0.250000  1.0  0.8714
  Ni  Ni12  1  0.402170  0.735510  0.916670  1.0  0.8716
  Ni  Ni13  1  0.068840  0.068840  0.250000  1.0  0.8727
  Ni  Ni14  1  0.264490  0.666667  0.916670  1.0  0.873
  Ni  Ni15  1  0.931160  0.000000  0.250000  1.0  0.873
  Ni  Ni16  1  0.597830  0.333333  0.583330  1.0  0.8731
  Ni  Ni17  1  0.735510  0.402170  0.583330  1.0  0.8717
  Ni  Ni18  1  0.666667  0.264490  0.583330  1.0  0.8714
  H  H19  1  0.531000  0.752000  0.012900  1.0  0.1202
  H  H20  1  0.607200  0.752200  0.044400  1.0  0.1303
  H  H21  1  0.521900  0.594400  0.065900  1.0  0.1324
  H  H22  1  0.447700  0.593300  0.029800  1.0  0.1223
  H  H23  1  0.590800  0.591700  0.057800  1.0  0.1265
  H  H24  1  0.746800  0.600500  0.088600  1.0  0.1409
  H  H25  1  0.744400  0.519900  0.089300  1.0  0.1013
  H  H26  1  0.197670  0.085330  0.346230  1.0  0.1202
  H  H27  1  0.273870  0.085530  0.377730  1.0  0.1303
  H  H28  1  0.188570  0.927730  0.399230  1.0  0.1323
  H  H29  1  0.114370  0.926630  0.363130  1.0  0.1223
  H  H30  1  0.257470  0.925030  0.391130  1.0  0.1264
  H  H31  1  0.413470  0.933830  0.421930  1.0  0.1409
  H  H32  1  0.411070  0.853230  0.422630  1.0  0.1014
  H  H33  1  0.864330  0.418670  0.679570  1.0  0.1202
  H  H34  1  0.940530  0.418870  0.711070  1.0  0.1303
  H  H35  1  0.855230  0.261070  0.732570  1.0  0.1323
  H  H36  1  0.781030  0.259970  0.696470  1.0  0.1224
  H  H37  1  0.924130  0.258370  0.724470  1.0  0.1271
  H  H38  1  0.080130  0.267170  0.755270  1.0  0.1407
  H  H39  1  0.077730  0.186570  0.755970  1.0  0.1013
  H  H40  1  0.248000  0.779000  0.012900  1.0  0.1188
  H  H41  1  0.247800  0.855000  0.044400  1.0  0.1292
  H  H42  1  0.405600  0.927500  0.065900  1.0  0.1315
  H  H43  1  0.406700  0.854400  0.029800  1.0  0.1218
  H  H44  1  0.408300  0.999100  0.057800  1.0  0.1261
  H  H45  1  0.399500  0.146300  0.088600  1.0  0.1416
  H  H46  1  0.480100  0.224500  0.089300  1.0  0.1007
  H  H47  1  0.914670  0.112330  0.346230  1.0  0.1188
  H  H48  1  0.914470  0.188330  0.377730  1.0  0.1292
  H  H49  1  0.072270  0.260830  0.399230  1.0  0.1315
  H  H50  1  0.073370  0.187730  0.363130  1.0  0.1218
  H  H51  1  0.074970  0.332430  0.391130  1.0  0.1268
  H  H52  1  0.066170  0.479630  0.421930  1.0  0.1417
  H  H53  1  0.146770  0.557830  0.422630  1.0  0.1006
  H  H54  1  0.581330  0.445670  0.679570  1.0  0.1188
  H  H55  1  0.581130  0.521670  0.711070  1.0  0.1292
  H  H56  1  0.738930  0.594170  0.732570  1.0  0.1316
  H  H57  1  0.740030  0.521070  0.696470  1.0  0.1217
  H  H58  1  0.741630  0.665770  0.724470  1.0  0.1262
  H  H59  1  0.732830  0.812970  0.755270  1.0  0.1417
  H  H60  1  0.813430  0.891170  0.755970  1.0  0.1007
  H  H61  1  0.221000  0.469000  0.012900  1.0  0.1208
  H  H62  1  0.145000  0.392800  0.044400  1.0  0.1292
  H  H63  1  0.072500  0.478100  0.065900  1.0  0.1317
  H  H64  1  0.145600  0.552300  0.029800  1.0  0.1227
  H  H65  1  0.000900  0.409200  0.057800  1.0  0.1255
  H  H66  1  0.853700  0.253200  0.088600  1.0  0.1421
  H  H67  1  0.775500  0.255600  0.089300  1.0  0.1017
  H  H68  1  0.887670  0.802330  0.346230  1.0  0.1208
  H  H69  1  0.811670  0.726130  0.377730  1.0  0.1292
  H  H70  1  0.739170  0.811430  0.399230  1.0  0.1317
  H  H71  1  0.812270  0.885630  0.363130  1.0  0.1225
  H  H72  1  0.667570  0.742530  0.391130  1.0  0.1255
  H  H73  1  0.520370  0.586530  0.421930  1.0  0.1421
  H  H74  1  0.442170  0.588930  0.422630  1.0  0.1018
  H  H75  1  0.554330  0.135670  0.679570  1.0  0.1208
  H  H76  1  0.478330  0.059470  0.711070  1.0  0.1292
  H  H77  1  0.405830  0.144770  0.732570  1.0  0.1318
  H  H78  1  0.478930  0.218970  0.696470  1.0  0.1226
  H  H79  1  0.334230  0.075870  0.724470  1.0  0.1254
  H  H80  1  0.187030  0.919870  0.755270  1.0  0.1419
  H  H81  1  0.108830  0.922270  0.755970  1.0  0.1018
  H  H82  1  0.752000  0.531000  0.487100  1.0  0.1216
  H  H83  1  0.752200  0.607200  0.455600  1.0  0.1295
  H  H84  1  0.594400  0.521900  0.434100  1.0  0.132
  H  H85  1  0.593300  0.447700  0.470200  1.0  0.1221
  H  H86  1  0.591700  0.590800  0.442200  1.0  0.1262
  H  H87  1  0.600500  0.746800  0.411400  1.0  0.1423
  H  H88  1  0.519900  0.744400  0.410700  1.0  0.102
  H  H89  1  0.418670  0.864330  0.820430  1.0  0.1216
  H  H90  1  0.418870  0.940530  0.788930  1.0  0.1295
  H  H91  1  0.261070  0.855230  0.767430  1.0  0.1319
  H  H92  1  0.259970  0.781030  0.803530  1.0  0.1222
  H  H93  1  0.258370  0.924130  0.775530  1.0  0.1268
  H  H94  1  0.267170  0.080130  0.744730  1.0  0.1421
  H  H95  1  0.186570  0.077730  0.744030  1.0  0.102
  H  H96  1  0.085330  0.197670  0.153770  1.0  0.1216
  H  H97  1  0.085530  0.273870  0.122270  1.0  0.1295
  H  H98  1  0.927730  0.188570  0.100770  1.0  0.1319
  H  H99  1  0.926630  0.114370  0.136870  1.0  0.1221
  H  H100  1  0.925030  0.257470  0.108870  1.0  0.1261
  H  H101  1  0.933830  0.413470  0.078070  1.0  0.1423
  H  H102  1  0.853230  0.411070  0.077370  1.0  0.1021
  H  H103  1  0.779000  0.248000  0.487100  1.0  0.1203
  H  H104  1  0.855000  0.247800  0.455600  1.0  0.1297
  H  H105  1  0.927500  0.405600  0.434100  1.0  0.1327
  H  H106  1  0.854400  0.406700  0.470200  1.0  0.1227
  H  H107  1  0.999100  0.408300  0.442200  1.0  0.1246
  H  H108  1  0.146300  0.399500  0.411400  1.0  0.1412
  H  H109  1  0.224500  0.480100  0.410700  1.0  0.102
  H  H110  1  0.445670  0.581330  0.820430  1.0  0.1203
  H  H111  1  0.521670  0.581130  0.788930  1.0  0.1297
  H  H112  1  0.594170  0.738930  0.767430  1.0  0.1327
  H  H113  1  0.521070  0.740030  0.803530  1.0  0.1226
  H  H114  1  0.665770  0.741630  0.775530  1.0  0.1247
  H  H115  1  0.812970  0.732830  0.744730  1.0  0.1412
  H  H116  1  0.891170  0.813430  0.744030  1.0  0.102
  H  H117  1  0.112330  0.914670  0.153770  1.0  0.1203
  H  H118  1  0.188330  0.914470  0.122270  1.0  0.1297
  H  H119  1  0.260830  0.072270  0.100770  1.0  0.1326
  H  H120  1  0.187730  0.073370  0.136870  1.0  0.1227
  H  H121  1  0.332430  0.074970  0.108870  1.0  0.1253
  H  H122  1  0.479630  0.066170  0.078070  1.0  0.1412
  H  H123  1  0.557830  0.146770  0.077370  1.0  0.1019
  H  H124  1  0.469000  0.221000  0.487100  1.0  0.1195
  H  H125  1  0.392800  0.145000  0.455600  1.0  0.1289
  H  H126  1  0.478100  0.072500  0.434100  1.0  0.132
  H  H127  1  0.552300  0.145600  0.470200  1.0  0.1225
  H  H128  1  0.409200  0.000900  0.442200  1.0  0.1252
  H  H129  1  0.253200  0.853700  0.411400  1.0  0.142
  H  H130  1  0.255600  0.775500  0.410700  1.0  0.101
  H  H131  1  0.135670  0.554330  0.820430  1.0  0.1195
  H  H132  1  0.059470  0.478330  0.788930  1.0  0.1289
  H  H133  1  0.144770  0.405830  0.767430  1.0  0.1321
  H  H134  1  0.218970  0.478930  0.803530  1.0  0.1224
  H  H135  1  0.075870  0.334230  0.775530  1.0  0.1251
  H  H136  1  0.919870  0.187030  0.744730  1.0  0.1418
  H  H137  1  0.922270  0.108830  0.744030  1.0  0.101
  H  H138  1  0.802330  0.887670  0.153770  1.0  0.1195
  H  H139  1  0.726130  0.811670  0.122270  1.0  0.1288
  H  H140  1  0.811430  0.739170  0.100770  1.0  0.1321
  H  H141  1  0.885630  0.812270  0.136870  1.0  0.1224
  H  H142  1  0.742530  0.667570  0.108870  1.0  0.1251
  H  H143  1  0.586530  0.520370  0.078070  1.0  0.1421
  H  H144  1  0.588930  0.442170  0.077370  1.0  0.101
  H  H145  1  0.469000  0.248000  0.987100  1.0  0.1204
  H  H146  1  0.392800  0.247800  0.955600  1.0  0.1296
  H  H147  1  0.478100  0.405600  0.934100  1.0  0.1332
  H  H148  1  0.552300  0.406700  0.970200  1.0  0.1223
  H  H149  1  0.409200  0.408300  0.942200  1.0  0.1238
  H  H150  1  0.253200  0.399500  0.911400  1.0  0.1414
  H  H151  1  0.255600  0.480100  0.910700  1.0  0.1012
  H  H152  1  0.135670  0.581330  0.320430  1.0  0.1204
  H  H153  1  0.059470  0.581130  0.288930  1.0  0.1296
  H  H154  1  0.144770  0.738930  0.267430  1.0  0.1331
  H  H155  1  0.218970  0.740030  0.303530  1.0  0.1224
  H  H156  1  0.075870  0.741630  0.275530  1.0  0.1244
  H  H157  1  0.919870  0.732830  0.244730  1.0  0.1412
  H  H158  1  0.922270  0.813430  0.244030  1.0  0.1012
  H  H159  1  0.802330  0.914670  0.653770  1.0  0.1204
  H  H160  1  0.726130  0.914470  0.622270  1.0  0.1296
  H  H161  1  0.811430  0.072270  0.600770  1.0  0.1331
  H  H162  1  0.885630  0.073370  0.636870  1.0  0.1223
  H  H163  1  0.742530  0.074970  0.608870  1.0  0.1237
  H  H164  1  0.586530  0.066170  0.578070  1.0  0.1414
  H  H165  1  0.588930  0.146770  0.577370  1.0  0.1013
  H  H166  1  0.752000  0.221000  0.987100  1.0  0.1194
  H  H167  1  0.752200  0.145000  0.955600  1.0  0.1278
  H  H168  1  0.594400  0.072500  0.934100  1.0  0.1319
  H  H169  1  0.593300  0.145600  0.970200  1.0  0.1222
  H  H170  1  0.591700  0.000900  0.942200  1.0  0.1259
  H  H171  1  0.600500  0.853700  0.911400  1.0  0.1417
  H  H172  1  0.519900  0.775500  0.910700  1.0  0.1013
  H  H173  1  0.418670  0.554330  0.320430  1.0  0.1194
  H  H174  1  0.418870  0.478330  0.288930  1.0  0.1278
  H  H175  1  0.261070  0.405830  0.267430  1.0  0.1319
  H  H176  1  0.259970  0.478930  0.303530  1.0  0.1221
  H  H177  1  0.258370  0.334230  0.275530  1.0  0.126
  H  H178  1  0.267170  0.187030  0.244730  1.0  0.1417
  H  H179  1  0.186570  0.108830  0.244030  1.0  0.1013
  H  H180  1  0.085330  0.887670  0.653770  1.0  0.1194
  H  H181  1  0.085530  0.811670  0.622270  1.0  0.1278
  H  H182  1  0.927730  0.739170  0.600770  1.0  0.1319
  H  H183  1  0.926630  0.812270  0.636870  1.0  0.1223
  H  H184  1  0.925030  0.667570  0.608870  1.0  0.1266
  H  H185  1  0.933830  0.520370  0.578070  1.0  0.1418
  H  H186  1  0.853230  0.442170  0.577370  1.0  0.1012
  H  H187  1  0.779000  0.531000  0.987100  1.0  0.1217
  H  H188  1  0.855000  0.607200  0.955600  1.0  0.1298
  H  H189  1  0.927500  0.521900  0.934100  1.0  0.132
  H  H190  1  0.854400  0.447700  0.970200  1.0  0.1222
  H  H191  1  0.999100  0.590800  0.942200  1.0  0.1256
  H  H192  1  0.146300  0.746800  0.911400  1.0  0.1424
  H  H193  1  0.224500  0.744400  0.910700  1.0  0.1023
  H  H194  1  0.445670  0.864330  0.320430  1.0  0.1217
  H  H195  1  0.521670  0.940530  0.288930  1.0  0.1298
  H  H196  1  0.594170  0.855230  0.267430  1.0  0.1321
  H  H197  1  0.521070  0.781030  0.303530  1.0  0.122
  H  H198  1  0.665770  0.924130  0.275530  1.0  0.1255
  H  H199  1  0.812970  0.080130  0.244730  1.0  0.1423
  H  H200  1  0.891170  0.077730  0.244030  1.0  0.1023
  H  H201  1  0.112330  0.197670  0.653770  1.0  0.1217
  H  H202  1  0.188330  0.273870  0.622270  1.0  0.1298
  H  H203  1  0.260830  0.188570  0.600770  1.0  0.1321
  H  H204  1  0.187730  0.114370  0.636870  1.0  0.122
  H  H205  1  0.332430  0.257470  0.608870  1.0  0.1256
  H  H206  1  0.479630  0.413470  0.578070  1.0  0.1424
  H  H207  1  0.557830  0.411070  0.577370  1.0  0.1024
  H  H208  1  0.248000  0.469000  0.512900  1.0  0.1218
  H  H209  1  0.247800  0.392800  0.544400  1.0  0.1292
  H  H210  1  0.405600  0.478100  0.565900  1.0  0.1321
  H  H211  1  0.406700  0.552300  0.529800  1.0  0.1224
  H  H212  1  0.408300  0.409200  0.557800  1.0  0.1248
  H  H213  1  0.399500  0.253200  0.588600  1.0  0.1418
  H  H214  1  0.480100  0.255600  0.589300  1.0  0.1022
  H  H215  1  0.914670  0.802330  0.846230  1.0  0.1218
  H  H216  1  0.914470  0.726130  0.877730  1.0  0.1292
  H  H217  1  0.072270  0.811430  0.899230  1.0  0.132
  H  H218  1  0.073370  0.885630  0.863130  1.0  0.1224
  H  H219  1  0.074970  0.742530  0.891130  1.0  0.1247
  H  H220  1  0.066170  0.586530  0.921930  1.0  0.1418
  H  H221  1  0.146770  0.588930  0.922630  1.0  0.1023
  H  H222  1  0.581330  0.135670  0.179570  1.0  0.1218
  H  H223  1  0.581130  0.059470  0.211070  1.0  0.1291
  H  H224  1  0.738930  0.144770  0.232570  1.0  0.132
  H  H225  1  0.740030  0.218970  0.196470  1.0  0.1225
  H  H226  1  0.741630  0.075870  0.224470  1.0  0.1254
  H  H227  1  0.732830  0.919870  0.255270  1.0  0.1416
  H  H228  1  0.813430  0.922270  0.255970  1.0  0.1022
  H  H229  1  0.221000  0.752000  0.512900  1.0  0.1201
  H  H230  1  0.145000  0.752200  0.544400  1.0  0.1304
  H  H231  1  0.072500  0.594400  0.565900  1.0  0.1324
  H  H232  1  0.145600  0.593300  0.529800  1.0  0.1227
  H  H233  1  0.000900  0.591700  0.557800  1.0  0.1259
  H  H234  1  0.853700  0.600500  0.588600  1.0  0.1409
  H  H235  1  0.775500  0.519900  0.589300  1.0  0.1011
  H  H236  1  0.887670  0.085330  0.846230  1.0  0.1201
  H  H237  1  0.811670  0.085530  0.877730  1.0  0.1304
  H  H238  1  0.739170  0.927730  0.899230  1.0  0.1324
  H  H239  1  0.812270  0.926630  0.863130  1.0  0.1228
  H  H240  1  0.667570  0.925030  0.891130  1.0  0.1266
  H  H241  1  0.520370  0.933830  0.921930  1.0  0.141
  H  H242  1  0.442170  0.853230  0.922630  1.0  0.1011
  H  H243  1  0.554330  0.418670  0.179570  1.0  0.1201
  H  H244  1  0.478330  0.418870  0.211070  1.0  0.1304
  H  H245  1  0.405830  0.261070  0.232570  1.0  0.1324
  H  H246  1  0.478930  0.259970  0.196470  1.0  0.1226
  H  H247  1  0.334230  0.258370  0.224470  1.0  0.126
  H  H248  1  0.187030  0.267170  0.255270  1.0  0.141
  H  H249  1  0.108830  0.186570  0.255970  1.0  0.1011
  H  H250  1  0.531000  0.779000  0.512900  1.0  0.119
  H  H251  1  0.607200  0.855000  0.544400  1.0  0.1281
  H  H252  1  0.521900  0.927500  0.565900  1.0  0.1315
  H  H253  1  0.447700  0.854400  0.529800  1.0  0.1228
  H  H254  1  0.590800  0.999100  0.557800  1.0  0.1268
  H  H255  1  0.746800  0.146300  0.588600  1.0  0.1415
  H  H256  1  0.744400  0.224500  0.589300  1.0  0.1003
  H  H257  1  0.197670  0.112330  0.846230  1.0  0.119
  H  H258  1  0.273870  0.188330  0.877730  1.0  0.1281
  H  H259  1  0.188570  0.260830  0.899230  1.0  0.1316
  H  H260  1  0.114370  0.187730  0.863130  1.0  0.1226
  H  H261  1  0.257470  0.332430  0.891130  1.0  0.1268
  H  H262  1  0.413470  0.479630  0.921930  1.0  0.1415
  H  H263  1  0.411070  0.557830  0.922630  1.0  0.1004
  H  H264  1  0.864330  0.445670  0.179570  1.0  0.119
  H  H265  1  0.940530  0.521670  0.211070  1.0  0.1281
  H  H266  1  0.855230  0.594170  0.232570  1.0  0.1316
  H  H267  1  0.781030  0.521070  0.196470  1.0  0.1226
  H  H268  1  0.924130  0.665770  0.224470  1.0  0.1267
  H  H269  1  0.080130  0.812970  0.255270  1.0  0.1413
  H  H270  1  0.077730  0.891170  0.255970  1.0  0.1004
  H  H271  1  0.666667  0.333333  0.126000  1.0  0.152
  H  H272  1  0.333333  0.666667  0.459330  1.0  0.152
  H  H273  1  0.000000  0.000000  0.792670  1.0  0.152
  H  H274  1  0.333333  0.666667  0.374000  1.0  0.1557
  H  H275  1  0.000000  0.000000  0.707330  1.0  0.1557
  H  H276  1  0.666667  0.333333  0.040670  1.0  0.1557
  H  H277  1  0.333333  0.666667  0.874000  1.0  0.1557
  H  H278  1  0.000000  0.000000  0.207330  1.0  0.1557
  H  H279  1  0.666667  0.333333  0.540670  1.0  0.1557
  H  H280  1  0.666667  0.333333  0.626000  1.0  0.152
  H  H281  1  0.333333  0.666667  0.959330  1.0  0.152
  H  H282  1  0.000000  0.000000  0.292670  1.0  0.152
  C  C283  1  0.433700  0.670400  0.988300  1.0  0.7205
  C  C284  1  0.482000  0.672600  0.014200  1.0  -0.0528
  C  C285  1  0.529300  0.719300  0.021300  1.0  -0.0484
  C  C286  1  0.574900  0.719500  0.040600  1.0  -0.0752
  C  C287  1  0.573500  0.672900  0.054100  1.0  -0.0749
  C  C288  1  0.524600  0.626500  0.052500  1.0  -0.1396
  C  C289  1  0.480200  0.626000  0.031900  1.0  -0.0301
  C  C290  1  0.622600  0.671700  0.069600  1.0  0.0786
  C  C291  1  0.622100  0.623300  0.068700  1.0  -0.1491
  C  C292  1  0.713600  0.568400  0.086500  1.0  -0.1754
  C  C293  1  0.711900  0.520200  0.086700  1.0  0.1669
  C  C294  1  0.100370  0.003730  0.321630  1.0  0.7012
  C  C295  1  0.148670  0.005930  0.347530  1.0  -0.0526
  C  C296  1  0.195970  0.052630  0.354630  1.0  -0.0487
  C  C297  1  0.241570  0.052830  0.373930  1.0  -0.075
  C  C298  1  0.240170  0.006230  0.387430  1.0  -0.0749
  C  C299  1  0.191270  0.959830  0.385830  1.0  -0.1395
  C  C300  1  0.146870  0.959330  0.365230  1.0  -0.0261
  C  C301  1  0.289270  0.005030  0.402930  1.0  0.0782
  C  C302  1  0.288770  0.956630  0.402030  1.0  -0.1491
  C  C303  1  0.380270  0.901730  0.419830  1.0  -0.175
  C  C304  1  0.378570  0.853530  0.420030  1.0  0.167
  C  C305  1  0.767030  0.337070  0.654970  1.0  0.7011
  C  C306  1  0.815330  0.339270  0.680870  1.0  -0.0528
  C  C307  1  0.862630  0.385970  0.687970  1.0  -0.0484
  C  C308  1  0.908230  0.386170  0.707270  1.0  -0.0752
  C  C309  1  0.906830  0.339570  0.720770  1.0  -0.0749
  C  C310  1  0.857930  0.293170  0.719170  1.0  -0.1396
  C  C311  1  0.813530  0.292670  0.698570  1.0  -0.0261
  C  C312  1  0.955930  0.338370  0.736270  1.0  0.0802
  C  C313  1  0.955430  0.289970  0.735370  1.0  -0.1496
  C  C314  1  0.046930  0.235070  0.753170  1.0  -0.1757
  C  C315  1  0.045230  0.186870  0.753370  1.0  0.1668
  C  C316  1  0.329600  0.763300  0.988300  1.0  0.7211
  C  C317  1  0.327400  0.809400  0.014200  1.0  -0.0527
  C  C318  1  0.280700  0.810000  0.021300  1.0  -0.0464
  C  C319  1  0.280500  0.855400  0.040600  1.0  -0.0751
  C  C320  1  0.327100  0.900600  0.054100  1.0  -0.0749
  C  C321  1  0.373500  0.898100  0.052500  1.0  -0.1376
  C  C322  1  0.374000  0.854200  0.031900  1.0  -0.0253
  C  C323  1  0.328300  0.950900  0.069600  1.0  0.0795
  C  C324  1  0.376700  0.998800  0.068700  1.0  -0.1509
  C  C325  1  0.431600  0.145200  0.086500  1.0  -0.1757
  C  C326  1  0.479800  0.191700  0.086700  1.0  0.1667
  C  C327  1  0.996270  0.096630  0.321630  1.0  0.7211
  C  C328  1  0.994070  0.142730  0.347530  1.0  -0.0529
  C  C329  1  0.947370  0.143330  0.354630  1.0  -0.0462
  C  C330  1  0.947170  0.188730  0.373930  1.0  -0.0749
  C  C331  1  0.993770  0.233930  0.387430  1.0  -0.0748
  C  C332  1  0.040170  0.231430  0.385830  1.0  -0.1378
  C  C333  1  0.040670  0.187530  0.365230  1.0  -0.0253
  C  C334  1  0.994970  0.284230  0.402930  1.0  0.0831
  C  C335  1  0.043370  0.332130  0.402030  1.0  -0.1506
  C  C336  1  0.098270  0.478530  0.419830  1.0  -0.1752
  C  C337  1  0.146470  0.525030  0.420030  1.0  0.1666
  C  C338  1  0.662930  0.429970  0.654970  1.0  0.7023
  C  C339  1  0.660730  0.476070  0.680870  1.0  -0.0527
  C  C340  1  0.614030  0.476670  0.687970  1.0  -0.0464
  C  C341  1  0.613830  0.522070  0.707270  1.0  -0.0751
  C  C342  1  0.660430  0.567270  0.720770  1.0  -0.0749
  C  C343  1  0.706830  0.564770  0.719170  1.0  -0.1376
  C  C344  1  0.707330  0.520870  0.698570  1.0  -0.0253
  C  C345  1  0.661630  0.617570  0.736270  1.0  0.0795
  C  C346  1  0.710030  0.665470  0.735370  1.0  -0.1504
  C  C347  1  0.764930  0.811870  0.753170  1.0  -0.1754
  C  C348  1  0.813130  0.858370  0.753370  1.0  0.1668
  C  C349  1  0.236700  0.566300  0.988300  1.0  0.7032
  C  C350  1  0.190600  0.518000  0.014200  1.0  -0.0522
  C  C351  1  0.190000  0.470700  0.021300  1.0  -0.0463
  C  C352  1  0.144600  0.425100  0.040600  1.0  -0.0711
  C  C353  1  0.099400  0.426500  0.054100  1.0  -0.0755
  C  C354  1  0.101900  0.475400  0.052500  1.0  -0.1374
  C  C355  1  0.145800  0.519800  0.031900  1.0  -0.0259
  C  C356  1  0.049100  0.377400  0.069600  1.0  0.081
  C  C357  1  0.001200  0.377900  0.068700  1.0  -0.1479
  C  C358  1  0.854800  0.286400  0.086500  1.0  -0.1786
  C  C359  1  0.808300  0.288100  0.086700  1.0  0.1674
  C  C360  1  0.903370  0.899630  0.321630  1.0  0.7032
  C  C361  1  0.857270  0.851330  0.347530  1.0  -0.0522
  C  C362  1  0.856670  0.804030  0.354630  1.0  -0.0463
  C  C363  1  0.811270  0.758430  0.373930  1.0  -0.0712
  C  C364  1  0.766070  0.759830  0.387430  1.0  -0.0755
  C  C365  1  0.768570  0.808730  0.385830  1.0  -0.1374
  C  C366  1  0.812470  0.853130  0.365230  1.0  -0.0259
  C  C367  1  0.715770  0.710730  0.402930  1.0  0.0793
  C  C368  1  0.667870  0.711230  0.402030  1.0  -0.1489
  C  C369  1  0.521470  0.619730  0.419830  1.0  -0.1787
  C  C370  1  0.474970  0.621430  0.420030  1.0  0.1677
  C  C371  1  0.570030  0.232970  0.654970  1.0  0.7032
  C  C372  1  0.523930  0.184670  0.680870  1.0  -0.0522
  C  C373  1  0.523330  0.137370  0.687970  1.0  -0.0463
  C  C374  1  0.477930  0.091770  0.707270  1.0  -0.0711
  C  C375  1  0.432730  0.093170  0.720770  1.0  -0.0755
  C  C376  1  0.435230  0.142070  0.719170  1.0  -0.1374
  C  C377  1  0.479130  0.186470  0.698570  1.0  -0.0259
  C  C378  1  0.382430  0.044070  0.736270  1.0  0.0792
  C  C379  1  0.334530  0.044570  0.735370  1.0  -0.148
  C  C380  1  0.188130  0.953070  0.753170  1.0  -0.1786
  C  C381  1  0.141630  0.954770  0.753370  1.0  0.1675
  C  C382  1  0.670400  0.433700  0.511700  1.0  0.7179
  C  C383  1  0.672600  0.482000  0.485800  1.0  -0.0536
  C  C384  1  0.719300  0.529300  0.478700  1.0  -0.0458
  C  C385  1  0.719500  0.574900  0.459400  1.0  -0.0709
  C  C386  1  0.672900  0.573500  0.445900  1.0  -0.0754
  C  C387  1  0.626500  0.524600  0.447500  1.0  -0.1369
  C  C388  1  0.626000  0.480200  0.468100  1.0  -0.0281
  C  C389  1  0.671700  0.622600  0.430400  1.0  0.0821
  C  C390  1  0.623300  0.622100  0.431300  1.0  -0.1465
  C  C391  1  0.568400  0.713600  0.413500  1.0  -0.1787
  C  C392  1  0.520200  0.711900  0.413300  1.0  0.1675
  C  C393  1  0.337070  0.767030  0.845030  1.0  0.7006
  C  C394  1  0.339270  0.815330  0.819130  1.0  -0.0536
  C  C395  1  0.385970  0.862630  0.812030  1.0  -0.0458
  C  C396  1  0.386170  0.908230  0.792730  1.0  -0.0709
  C  C397  1  0.339570  0.906830  0.779230  1.0  -0.0754
  C  C398  1  0.293170  0.857930  0.780830  1.0  -0.1369
  C  C399  1  0.292670  0.813530  0.801430  1.0  -0.0243
  C  C400  1  0.338370  0.955930  0.763730  1.0  0.0838
  C  C401  1  0.289970  0.955430  0.764630  1.0  -0.147
  C  C402  1  0.235070  0.046930  0.746830  1.0  -0.179
  C  C403  1  0.186870  0.045230  0.746630  1.0  0.1674
  C  C404  1  0.003730  0.100370  0.178370  1.0  0.7008
  C  C405  1  0.005930  0.148670  0.152470  1.0  -0.0535
  C  C406  1  0.052630  0.195970  0.145370  1.0  -0.0463
  C  C407  1  0.052830  0.241570  0.126070  1.0  -0.0706
  C  C408  1  0.006230  0.240170  0.112570  1.0  -0.0754
  C  C409  1  0.959830  0.191270  0.114170  1.0  -0.1367
  C  C410  1  0.959330  0.146870  0.134770  1.0  -0.0243
  C  C411  1  0.005030  0.289270  0.097070  1.0  0.0816
  C  C412  1  0.956630  0.288770  0.097970  1.0  -0.1466
  C  C413  1  0.901730  0.380270  0.080170  1.0  -0.1783
  C  C414  1  0.853530  0.378570  0.079970  1.0  0.1676
  C  C415  1  0.763300  0.329600  0.511700  1.0  0.7188
  C  C416  1  0.809400  0.327400  0.485800  1.0  -0.053
  C  C417  1  0.810000  0.280700  0.478700  1.0  -0.0496
  C  C418  1  0.855400  0.280500  0.459400  1.0  -0.0749
  C  C419  1  0.900600  0.327100  0.445900  1.0  -0.0743
  C  C420  1  0.898100  0.373500  0.447500  1.0  -0.1401
  C  C421  1  0.854200  0.374000  0.468100  1.0  -0.0271
  C  C422  1  0.950900  0.328300  0.430400  1.0  0.0816
  C  C423  1  0.998800  0.376700  0.431300  1.0  -0.151
  C  C424  1  0.145200  0.431600  0.413500  1.0  -0.1754
  C  C425  1  0.191700  0.479800  0.413300  1.0  0.1668
  C  C426  1  0.429970  0.662930  0.845030  1.0  0.7006
  C  C427  1  0.476070  0.660730  0.819130  1.0  -0.053
  C  C428  1  0.476670  0.614030  0.812030  1.0  -0.0496
  C  C429  1  0.522070  0.613830  0.792730  1.0  -0.0749
  C  C430  1  0.567270  0.660430  0.779230  1.0  -0.0743
  C  C431  1  0.564770  0.706830  0.780830  1.0  -0.1401
  C  C432  1  0.520870  0.707330  0.801430  1.0  -0.0271
  C  C433  1  0.617570  0.661630  0.763730  1.0  0.0816
  C  C434  1  0.665470  0.710030  0.764630  1.0  -0.1507
  C  C435  1  0.811870  0.764930  0.746830  1.0  -0.1751
  C  C436  1  0.858370  0.813130  0.746630  1.0  0.167
  C  C437  1  0.096630  0.996270  0.178370  1.0  0.7188
  C  C438  1  0.142730  0.994070  0.152470  1.0  -0.0532
  C  C439  1  0.143330  0.947370  0.145370  1.0  -0.0492
  C  C440  1  0.188730  0.947170  0.126070  1.0  -0.0748
  C  C441  1  0.233930  0.993770  0.112570  1.0  -0.0742
  C  C442  1  0.231430  0.040170  0.114170  1.0  -0.1402
  C  C443  1  0.187530  0.040670  0.134770  1.0  -0.0271
  C  C444  1  0.284230  0.994970  0.097070  1.0  0.0852
  C  C445  1  0.332130  0.043370  0.097970  1.0  -0.1507
  C  C446  1  0.478530  0.098270  0.080170  1.0  -0.1749
  C  C447  1  0.525030  0.146470  0.079970  1.0  0.1667
  C  C448  1  0.566300  0.236700  0.511700  1.0  0.7005
  C  C449  1  0.518000  0.190600  0.485800  1.0  -0.0529
  C  C450  1  0.470700  0.190000  0.478700  1.0  -0.0464
  C  C451  1  0.425100  0.144600  0.459400  1.0  -0.0739
  C  C452  1  0.426500  0.099400  0.445900  1.0  -0.0749
  C  C453  1  0.475400  0.101900  0.447500  1.0  -0.1375
  C  C454  1  0.519800  0.145800  0.468100  1.0  -0.0257
  C  C455  1  0.377400  0.049100  0.430400  1.0  0.0842
  C  C456  1  0.377900  0.001200  0.431300  1.0  -0.1505
  C  C457  1  0.286400  0.854800  0.413500  1.0  -0.175
  C  C458  1  0.288100  0.808300  0.413300  1.0  0.1668
  C  C459  1  0.232970  0.570030  0.845030  1.0  0.7005
  C  C460  1  0.184670  0.523930  0.819130  1.0  -0.0529
  C  C461  1  0.137370  0.523330  0.812030  1.0  -0.0464
  C  C462  1  0.091770  0.477930  0.792730  1.0  -0.0739
  C  C463  1  0.093170  0.432730  0.779230  1.0  -0.0749
  C  C464  1  0.142070  0.435230  0.780830  1.0  -0.1375
  C  C465  1  0.186470  0.479130  0.801430  1.0  -0.0257
  C  C466  1  0.044070  0.382430  0.763730  1.0  0.0825
  C  C467  1  0.044570  0.334530  0.764630  1.0  -0.1506
  C  C468  1  0.953070  0.188130  0.746830  1.0  -0.175
  C  C469  1  0.954770  0.141630  0.746630  1.0  0.1669
  C  C470  1  0.899630  0.903370  0.178370  1.0  0.7006
  C  C471  1  0.851330  0.857270  0.152470  1.0  -0.0529
  C  C472  1  0.804030  0.856670  0.145370  1.0  -0.0465
  C  C473  1  0.758430  0.811270  0.126070  1.0  -0.0741
  C  C474  1  0.759830  0.766070  0.112570  1.0  -0.0749
  C  C475  1  0.808730  0.768570  0.114170  1.0  -0.1375
  C  C476  1  0.853130  0.812470  0.134770  1.0  -0.0257
  C  C477  1  0.710730  0.715770  0.097070  1.0  0.0825
  C  C478  1  0.711230  0.667870  0.097970  1.0  -0.1514
  C  C479  1  0.619730  0.521470  0.080170  1.0  -0.175
  C  C480  1  0.621430  0.474970  0.079970  1.0  0.1671
  C  C481  1  0.566300  0.329600  0.011700  1.0  0.7171
  C  C482  1  0.518000  0.327400  0.985800  1.0  -0.0534
  C  C483  1  0.470700  0.280700  0.978700  1.0  -0.0488
  C  C484  1  0.425100  0.280500  0.959400  1.0  -0.0743
  C  C485  1  0.426500  0.327100  0.945900  1.0  -0.0751
  C  C486  1  0.475400  0.373500  0.947500  1.0  -0.1408
  C  C487  1  0.519800  0.374000  0.968100  1.0  -0.0319
  C  C488  1  0.377400  0.328300  0.930400  1.0  0.0797
  C  C489  1  0.377900  0.376700  0.931300  1.0  -0.15
  C  C490  1  0.286400  0.431600  0.913500  1.0  -0.1746
  C  C491  1  0.288100  0.479800  0.913300  1.0  0.1676
  C  C492  1  0.232970  0.662930  0.345030  1.0  0.7004
  C  C493  1  0.184670  0.660730  0.319130  1.0  -0.0534
  C  C494  1  0.137370  0.614030  0.312030  1.0  -0.0488
  C  C495  1  0.091770  0.613830  0.292730  1.0  -0.0743
  C  C496  1  0.093170  0.660430  0.279230  1.0  -0.0751
  C  C497  1  0.142070  0.706830  0.280830  1.0  -0.1408
  C  C498  1  0.186470  0.707330  0.301430  1.0  -0.0277
  C  C499  1  0.044070  0.661630  0.263730  1.0  0.0814
  C  C500  1  0.044570  0.710030  0.264630  1.0  -0.1505
  C  C501  1  0.953070  0.764930  0.246830  1.0  -0.1749
  C  C502  1  0.954770  0.813130  0.246630  1.0  0.1675
  C  C503  1  0.899630  0.996270  0.678370  1.0  0.7006
  C  C504  1  0.851330  0.994070  0.652470  1.0  -0.0533
  C  C505  1  0.804030  0.947370  0.645370  1.0  -0.0493
  C  C506  1  0.758430  0.947170  0.626070  1.0  -0.0742
  C  C507  1  0.759830  0.993770  0.612570  1.0  -0.0751
  C  C508  1  0.808730  0.040170  0.614170  1.0  -0.1408
  C  C509  1  0.853130  0.040670  0.634770  1.0  -0.0277
  C  C510  1  0.710730  0.994970  0.597070  1.0  0.0793
  C  C511  1  0.711230  0.043370  0.597970  1.0  -0.1501
  C  C512  1  0.619730  0.098270  0.580170  1.0  -0.1742
  C  C513  1  0.621430  0.146470  0.579970  1.0  0.1677
  C  C514  1  0.670400  0.236700  0.011700  1.0  0.7177
  C  C515  1  0.672600  0.190600  0.985800  1.0  -0.0521
  C  C516  1  0.719300  0.190000  0.978700  1.0  -0.0464
  C  C517  1  0.719500  0.144600  0.959400  1.0  -0.0716
  C  C518  1  0.672900  0.099400  0.945900  1.0  -0.0756
  C  C519  1  0.626500  0.101900  0.947500  1.0  -0.1373
  C  C520  1  0.626000  0.145800  0.968100  1.0  -0.0269
  C  C521  1  0.671700  0.049100  0.930400  1.0  0.0796
  C  C522  1  0.623300  0.001200  0.931300  1.0  -0.1496
  C  C523  1  0.568400  0.854800  0.913500  1.0  -0.1744
  C  C524  1  0.520200  0.808300  0.913300  1.0  0.1673
  C  C525  1  0.337070  0.570030  0.345030  1.0  0.7005
  C  C526  1  0.339270  0.523930  0.319130  1.0  -0.0521
  C  C527  1  0.385970  0.523330  0.312030  1.0  -0.0464
  C  C528  1  0.386170  0.477930  0.292730  1.0  -0.0716
  C  C529  1  0.339570  0.432730  0.279230  1.0  -0.0756
  C  C530  1  0.293170  0.435230  0.280830  1.0  -0.1373
  C  C531  1  0.292670  0.479130  0.301430  1.0  -0.0269
  C  C532  1  0.338370  0.382430  0.263730  1.0  0.0796
  C  C533  1  0.289970  0.334530  0.264630  1.0  -0.1493
  C  C534  1  0.235070  0.188130  0.246830  1.0  -0.1741
  C  C535  1  0.186870  0.141630  0.246630  1.0  0.1674
  C  C536  1  0.003730  0.903370  0.678370  1.0  0.7177
  C  C537  1  0.005930  0.857270  0.652470  1.0  -0.0523
  C  C538  1  0.052630  0.856670  0.645370  1.0  -0.0462
  C  C539  1  0.052830  0.811270  0.626070  1.0  -0.0715
  C  C540  1  0.006230  0.766070  0.612570  1.0  -0.0756
  C  C541  1  0.959830  0.768570  0.614170  1.0  -0.1374
  C  C542  1  0.959330  0.812470  0.634770  1.0  -0.027
  C  C543  1  0.005030  0.715770  0.597070  1.0  0.0832
  C  C544  1  0.956630  0.667870  0.597970  1.0  -0.1493
  C  C545  1  0.901730  0.521470  0.580170  1.0  -0.1739
  C  C546  1  0.853530  0.474970  0.579970  1.0  0.1672
  C  C547  1  0.763300  0.433700  0.011700  1.0  0.7012
  C  C548  1  0.809400  0.482000  0.985800  1.0  -0.0533
  C  C549  1  0.810000  0.529300  0.978700  1.0  -0.0479
  C  C550  1  0.855400  0.574900  0.959400  1.0  -0.071
  C  C551  1  0.900600  0.573500  0.945900  1.0  -0.0744
  C  C552  1  0.898100  0.524600  0.947500  1.0  -0.1378
  C  C553  1  0.854200  0.480200  0.968100  1.0  -0.0259
  C  C554  1  0.950900  0.622600  0.930400  1.0  0.0814
  C  C555  1  0.998800  0.622100  0.931300  1.0  -0.1465
  C  C556  1  0.145200  0.713600  0.913500  1.0  -0.1787
  C  C557  1  0.191700  0.711900  0.913300  1.0  0.1673
  C  C558  1  0.429970  0.767030  0.345030  1.0  0.7012
  C  C559  1  0.476070  0.815330  0.319130  1.0  -0.0533
  C  C560  1  0.476670  0.862630  0.312030  1.0  -0.0479
  C  C561  1  0.522070  0.908230  0.292730  1.0  -0.071
  C  C562  1  0.567270  0.906830  0.279230  1.0  -0.0744
  C  C563  1  0.564770  0.857930  0.280830  1.0  -0.1378
  C  C564  1  0.520870  0.813530  0.301430  1.0  -0.0259
  C  C565  1  0.617570  0.955930  0.263730  1.0  0.0796
  C  C566  1  0.665470  0.955430  0.264630  1.0  -0.1466
  C  C567  1  0.811870  0.046930  0.246830  1.0  -0.1787
  C  C568  1  0.858370  0.045230  0.246630  1.0  0.1674
  C  C569  1  0.096630  0.100370  0.678370  1.0  0.7013
  C  C570  1  0.142730  0.148670  0.652470  1.0  -0.0533
  C  C571  1  0.143330  0.195970  0.645370  1.0  -0.0479
  C  C572  1  0.188730  0.241570  0.626070  1.0  -0.0711
  C  C573  1  0.233930  0.240170  0.612570  1.0  -0.0744
  C  C574  1  0.231430  0.191270  0.614170  1.0  -0.1378
  C  C575  1  0.187530  0.146870  0.634770  1.0  -0.0259
  C  C576  1  0.284230  0.289270  0.597070  1.0  0.0797
  C  C577  1  0.332130  0.288770  0.597970  1.0  -0.1474
  C  C578  1  0.478530  0.380270  0.580170  1.0  -0.1787
  C  C579  1  0.525030  0.378570  0.579970  1.0  0.1676
  C  C580  1  0.329600  0.566300  0.488300  1.0  0.7214
  C  C581  1  0.327400  0.518000  0.514200  1.0  -0.0529
  C  C582  1  0.280700  0.470700  0.521300  1.0  -0.0476
  C  C583  1  0.280500  0.425100  0.540600  1.0  -0.0716
  C  C584  1  0.327100  0.426500  0.554100  1.0  -0.0746
  C  C585  1  0.373500  0.475400  0.552500  1.0  -0.1379
  C  C586  1  0.374000  0.519800  0.531900  1.0  -0.0299
  C  C587  1  0.328300  0.377400  0.569600  1.0  0.0827
  C  C588  1  0.376700  0.377900  0.568700  1.0  -0.1479
  C  C589  1  0.431600  0.286400  0.586500  1.0  -0.179
  C  C590  1  0.479800  0.288100  0.586700  1.0  0.1675
  C  C591  1  0.996270  0.899630  0.821630  1.0  0.7028
  C  C592  1  0.994070  0.851330  0.847530  1.0  -0.0528
  C  C593  1  0.947370  0.804030  0.854630  1.0  -0.0481
  C  C594  1  0.947170  0.758430  0.873930  1.0  -0.0714
  C  C595  1  0.993770  0.759830  0.887430  1.0  -0.0746
  C  C596  1  0.040170  0.808730  0.885830  1.0  -0.1377
  C  C597  1  0.040670  0.853130  0.865230  1.0  -0.0257
  C  C598  1  0.994970  0.710730  0.902930  1.0  0.0823
  C  C599  1  0.043370  0.711230  0.902030  1.0  -0.148
  C  C600  1  0.098270  0.619730  0.919830  1.0  -0.1786
  C  C601  1  0.146470  0.621430  0.920030  1.0  0.1675
  C  C602  1  0.662930  0.232970  0.154970  1.0  0.7027
  C  C603  1  0.660730  0.184670  0.180870  1.0  -0.0529
  C  C604  1  0.614030  0.137370  0.187970  1.0  -0.0476
  C  C605  1  0.613830  0.091770  0.207270  1.0  -0.0716
  C  C606  1  0.660430  0.093170  0.220770  1.0  -0.0746
  C  C607  1  0.706830  0.142070  0.219170  1.0  -0.1379
  C  C608  1  0.707330  0.186470  0.198570  1.0  -0.0257
  C  C609  1  0.661630  0.044070  0.236270  1.0  0.0844
  C  C610  1  0.710030  0.044570  0.235370  1.0  -0.1484
  C  C611  1  0.764930  0.953070  0.253170  1.0  -0.1793
  C  C612  1  0.813130  0.954770  0.253370  1.0  0.1674
  C  C613  1  0.236700  0.670400  0.488300  1.0  0.7213
  C  C614  1  0.190600  0.672600  0.514200  1.0  -0.0531
  C  C615  1  0.190000  0.719300  0.521300  1.0  -0.0484
  C  C616  1  0.144600  0.719500  0.540600  1.0  -0.0749
  C  C617  1  0.099400  0.672900  0.554100  1.0  -0.0749
  C  C618  1  0.101900  0.626500  0.552500  1.0  -0.1404
  C  C619  1  0.145800  0.626000  0.531900  1.0  -0.0263
  C  C620  1  0.049100  0.671700  0.569600  1.0  0.0818
  C  C621  1  0.001200  0.623300  0.568700  1.0  -0.1492
  C  C622  1  0.854800  0.568400  0.586500  1.0  -0.1755
  C  C623  1  0.808300  0.520200  0.586700  1.0  0.168
  C  C624  1  0.903370  0.003730  0.821630  1.0  0.7213
  C  C625  1  0.857270  0.005930  0.847530  1.0  -0.0532
  C  C626  1  0.856670  0.052630  0.854630  1.0  -0.0482
  C  C627  1  0.811270  0.052830  0.873930  1.0  -0.0747
  C  C628  1  0.766070  0.006230  0.887430  1.0  -0.0748
  C  C629  1  0.768570  0.959830  0.885830  1.0  -0.1406
  C  C630  1  0.812470  0.959330  0.865230  1.0  -0.0263
  C  C631  1  0.715770  0.005030  0.902930  1.0  0.0854
  C  C632  1  0.667870  0.956630  0.902030  1.0  -0.1488
  C  C633  1  0.521470  0.901730  0.919830  1.0  -0.175
  C  C634  1  0.474970  0.853530  0.920030  1.0  0.1679
  C  C635  1  0.570030  0.337070  0.154970  1.0  0.7035
  C  C636  1  0.523930  0.339270  0.180870  1.0  -0.0531
  C  C637  1  0.523330  0.385970  0.187970  1.0  -0.0484
  C  C638  1  0.477930  0.386170  0.207270  1.0  -0.0749
  C  C639  1  0.432730  0.339570  0.220770  1.0  -0.0749
  C  C640  1  0.435230  0.293170  0.219170  1.0  -0.1403
  C  C641  1  0.479130  0.292670  0.198570  1.0  -0.0263
  C  C642  1  0.382430  0.338370  0.236270  1.0  0.0818
  C  C643  1  0.334530  0.289970  0.235370  1.0  -0.1488
  C  C644  1  0.188130  0.235070  0.253170  1.0  -0.1752
  C  C645  1  0.141630  0.186870  0.253370  1.0  0.1681
  C  C646  1  0.433700  0.763300  0.488300  1.0  0.7014
  C  C647  1  0.482000  0.809400  0.514200  1.0  -0.0524
  C  C648  1  0.529300  0.810000  0.521300  1.0  -0.046
  C  C649  1  0.574900  0.855400  0.540600  1.0  -0.0719
  C  C650  1  0.573500  0.900600  0.554100  1.0  -0.0757
  C  C651  1  0.524600  0.898100  0.552500  1.0  -0.1384
  C  C652  1  0.480200  0.854200  0.531900  1.0  -0.027
  C  C653  1  0.622600  0.950900  0.569600  1.0  0.0848
  C  C654  1  0.622100  0.998800  0.568700  1.0  -0.149
  C  C655  1  0.713600  0.145200  0.586500  1.0  -0.174
  C  C656  1  0.711900  0.191700  0.586700  1.0  0.1669
  C  C657  1  0.100370  0.096630  0.821630  1.0  0.7014
  C  C658  1  0.148670  0.142730  0.847530  1.0  -0.0524
  C  C659  1  0.195970  0.143330  0.854630  1.0  -0.046
  C  C660  1  0.241570  0.188730  0.873930  1.0  -0.072
  C  C661  1  0.240170  0.233930  0.887430  1.0  -0.0757
  C  C662  1  0.191270  0.231430  0.885830  1.0  -0.1384
  C  C663  1  0.146870  0.187530  0.865230  1.0  -0.027
  C  C664  1  0.289270  0.284230  0.902930  1.0  0.0831
  C  C665  1  0.288770  0.332130  0.902030  1.0  -0.1499
  C  C666  1  0.380270  0.478530  0.919830  1.0  -0.1741
  C  C667  1  0.378570  0.525030  0.920030  1.0  0.1672
  C  C668  1  0.767030  0.429970  0.154970  1.0  0.7014
  C  C669  1  0.815330  0.476070  0.180870  1.0  -0.0524
  C  C670  1  0.862630  0.476670  0.187970  1.0  -0.046
  C  C671  1  0.908230  0.522070  0.207270  1.0  -0.0719
  C  C672  1  0.906830  0.567270  0.220770  1.0  -0.0757
  C  C673  1  0.857930  0.564770  0.219170  1.0  -0.1384
  C  C674  1  0.813530  0.520870  0.198570  1.0  -0.027
  C  C675  1  0.955930  0.617570  0.236270  1.0  0.0831
  C  C676  1  0.955430  0.665470  0.235370  1.0  -0.1491
  C  C677  1  0.046930  0.811870  0.253170  1.0  -0.174
  C  C678  1  0.045230  0.858370  0.253370  1.0  0.167
  C  C679  1  0.666667  0.621480  0.083330  1.0  0.0322
  C  C680  1  0.666667  0.570080  0.083330  1.0  0.1144
  C  C681  1  0.378520  0.045180  0.083330  1.0  0.0341
  C  C682  1  0.429920  0.096580  0.083330  1.0  0.1144
  C  C683  1  0.954820  0.333333  0.083330  1.0  0.0309
  C  C684  1  0.903420  0.333333  0.083330  1.0  0.1124
  C  C685  1  0.621480  0.666667  0.416670  1.0  0.031
  C  C686  1  0.570080  0.666667  0.416670  1.0  0.112
  C  C687  1  0.288150  0.000000  0.750000  1.0  0.0308
  C  C688  1  0.236750  0.000000  0.750000  1.0  0.112
  C  C689  1  0.045180  0.378520  0.416670  1.0  0.0341
  C  C690  1  0.096580  0.429920  0.416670  1.0  0.1143
  C  C691  1  0.711850  0.711850  0.750000  1.0  0.0317
  C  C692  1  0.763250  0.763250  0.750000  1.0  0.1145
  C  C693  1  0.333333  0.954820  0.416670  1.0  0.0321
  C  C694  1  0.333333  0.903420  0.416670  1.0  0.1148
  C  C695  1  0.000000  0.288150  0.750000  1.0  0.032
  C  C696  1  0.000000  0.236750  0.750000  1.0  0.1145
  C  C697  1  0.333333  0.378520  0.916670  1.0  0.0325
  C  C698  1  0.333333  0.429920  0.916670  1.0  0.1133
  C  C699  1  0.000000  0.711850  0.250000  1.0  0.0323
  C  C700  1  0.000000  0.763250  0.250000  1.0  0.1134
  C  C701  1  0.621480  0.954820  0.916670  1.0  0.0343
  C  C702  1  0.570080  0.903420  0.916670  1.0  0.1138
  C  C703  1  0.288150  0.288150  0.250000  1.0  0.0318
  C  C704  1  0.236750  0.236750  0.250000  1.0  0.114
  C  C705  1  0.045180  0.666667  0.916670  1.0  0.0315
  C  C706  1  0.096580  0.666667  0.916670  1.0  0.1126
  C  C707  1  0.711850  0.000000  0.250000  1.0  0.0315
  C  C708  1  0.763250  0.000000  0.250000  1.0  0.1125
  C  C709  1  0.378520  0.333333  0.583330  1.0  0.0317
  C  C710  1  0.429920  0.333333  0.583330  1.0  0.1124
  C  C711  1  0.954820  0.621480  0.583330  1.0  0.0343
  C  C712  1  0.903420  0.570080  0.583330  1.0  0.1139
  C  C713  1  0.666667  0.045180  0.583330  1.0  0.0324
  C  C714  1  0.666667  0.096580  0.583330  1.0  0.1138
  N  N715  1  0.666667  0.473780  0.083330  1.0  -0.2686
  N  N716  1  0.666667  0.717780  0.083330  1.0  -0.4213
  N  N717  1  0.526220  0.192880  0.083330  1.0  -0.2685
  N  N718  1  0.282220  0.948880  0.083330  1.0  -0.4212
  N  N719  1  0.807120  0.333333  0.083330  1.0  -0.2669
  N  N720  1  0.051120  0.333333  0.083330  1.0  -0.4213
  N  N721  1  0.473780  0.666667  0.416670  1.0  -0.2659
  N  N722  1  0.717780  0.666667  0.416670  1.0  -0.4212
  N  N723  1  0.140450  0.000000  0.750000  1.0  -0.2667
  N  N724  1  0.384450  0.000000  0.750000  1.0  -0.4214
  N  N725  1  0.192880  0.526220  0.416670  1.0  -0.2685
  N  N726  1  0.948880  0.282220  0.416670  1.0  -0.4213
  N  N727  1  0.859550  0.859550  0.750000  1.0  -0.2681
  N  N728  1  0.615550  0.615550  0.750000  1.0  -0.421
  N  N729  1  0.333333  0.807120  0.416670  1.0  -0.2695
  N  N730  1  0.333333  0.051120  0.416670  1.0  -0.4212
  N  N731  1  0.000000  0.140450  0.750000  1.0  -0.2694
  N  N732  1  0.000000  0.384450  0.750000  1.0  -0.4214
  N  N733  1  0.333333  0.526220  0.916670  1.0  -0.2677
  N  N734  1  0.333333  0.282220  0.916670  1.0  -0.422
  N  N735  1  0.000000  0.859550  0.250000  1.0  -0.2686
  N  N736  1  0.000000  0.615550  0.250000  1.0  -0.4223
  N  N737  1  0.473780  0.807120  0.916670  1.0  -0.2694
  N  N738  1  0.717780  0.051120  0.916670  1.0  -0.4219
  N  N739  1  0.140450  0.140450  0.250000  1.0  -0.269
  N  N740  1  0.384450  0.384450  0.250000  1.0  -0.4216
  N  N741  1  0.192880  0.666667  0.916670  1.0  -0.2664
  N  N742  1  0.948880  0.666667  0.916670  1.0  -0.421
  N  N743  1  0.859550  0.000000  0.250000  1.0  -0.2663
  N  N744  1  0.615550  0.000000  0.250000  1.0  -0.4211
  N  N745  1  0.526220  0.333333  0.583330  1.0  -0.2656
  N  N746  1  0.282220  0.333333  0.583330  1.0  -0.4211
  N  N747  1  0.807120  0.473780  0.583330  1.0  -0.2695
  N  N748  1  0.051120  0.717780  0.583330  1.0  -0.4218
  N  N749  1  0.666667  0.192880  0.583330  1.0  -0.2688
  N  N750  1  0.666667  0.948880  0.583330  1.0  -0.422
  O  O751  1  0.434130  0.713770  0.982800  1.0  -0.6067
  O  O752  1  0.396830  0.625730  0.973100  1.0  -0.5952
  O  O753  1  0.100800  0.047100  0.316130  1.0  -0.6067
  O  O754  1  0.063500  0.959060  0.306430  1.0  -0.5952
  O  O755  1  0.767460  0.380440  0.649470  1.0  -0.6037
  O  O756  1  0.730160  0.292400  0.639770  1.0  -0.5952
  O  O757  1  0.286230  0.720360  0.982800  1.0  -0.6063
  O  O758  1  0.374270  0.771100  0.973100  1.0  -0.5932
  O  O759  1  0.952900  0.053690  0.316130  1.0  -0.6063
  O  O760  1  0.040940  0.104430  0.306430  1.0  -0.5932
  O  O761  1  0.619560  0.387030  0.649470  1.0  -0.6032
  O  O762  1  0.707600  0.437770  0.639770  1.0  -0.5933
  O  O763  1  0.279640  0.565870  0.982800  1.0  -0.6043
  O  O764  1  0.228900  0.603170  0.973100  1.0  -0.5932
  O  O765  1  0.946310  0.899200  0.316130  1.0  -0.6043
  O  O766  1  0.895570  0.936500  0.306430  1.0  -0.5932
  O  O767  1  0.612970  0.232540  0.649470  1.0  -0.6071
  O  O768  1  0.562230  0.269840  0.639770  1.0  -0.5932
  O  O769  1  0.713770  0.434130  0.517200  1.0  -0.6099
  O  O770  1  0.625730  0.396830  0.526900  1.0  -0.592
  O  O771  1  0.380440  0.767460  0.850530  1.0  -0.6069
  O  O772  1  0.292400  0.730160  0.860230  1.0  -0.5919
  O  O773  1  0.047100  0.100800  0.183870  1.0  -0.6099
  O  O774  1  0.959060  0.063500  0.193570  1.0  -0.5919
  O  O775  1  0.720360  0.286230  0.517200  1.0  -0.609
  O  O776  1  0.771100  0.374270  0.526900  1.0  -0.594
  O  O777  1  0.387030  0.619560  0.850530  1.0  -0.6059
  O  O778  1  0.437770  0.707600  0.860230  1.0  -0.594
  O  O779  1  0.053690  0.952900  0.183870  1.0  -0.609
  O  O780  1  0.104430  0.040940  0.193570  1.0  -0.594
  O  O781  1  0.565870  0.279640  0.517200  1.0  -0.6065
  O  O782  1  0.603170  0.228900  0.526900  1.0  -0.5931
  O  O783  1  0.232540  0.612970  0.850530  1.0  -0.6094
  O  O784  1  0.269840  0.562230  0.860230  1.0  -0.593
  O  O785  1  0.899200  0.946310  0.183870  1.0  -0.6065
  O  O786  1  0.936500  0.895570  0.193570  1.0  -0.593
  O  O787  1  0.565870  0.286230  0.017200  1.0  -0.609
  O  O788  1  0.603170  0.374270  0.026900  1.0  -0.5942
  O  O789  1  0.232540  0.619560  0.350530  1.0  -0.6059
  O  O790  1  0.269840  0.707600  0.360230  1.0  -0.5942
  O  O791  1  0.899200  0.952900  0.683870  1.0  -0.609
  O  O792  1  0.936500  0.040940  0.693570  1.0  -0.5941
  O  O793  1  0.713770  0.279640  0.017200  1.0  -0.6095
  O  O794  1  0.625730  0.228900  0.026900  1.0  -0.5915
  O  O795  1  0.380440  0.612970  0.350530  1.0  -0.6065
  O  O796  1  0.292400  0.562230  0.360230  1.0  -0.5914
  O  O797  1  0.047100  0.946310  0.683870  1.0  -0.6096
  O  O798  1  0.959060  0.895570  0.693570  1.0  -0.5915
  O  O799  1  0.720360  0.434130  0.017200  1.0  -0.605
  O  O800  1  0.771100  0.396830  0.026900  1.0  -0.5923
  O  O801  1  0.387030  0.767460  0.350530  1.0  -0.6079
  O  O802  1  0.437770  0.730160  0.360230  1.0  -0.5922
  O  O803  1  0.053690  0.100800  0.683870  1.0  -0.605
  O  O804  1  0.104430  0.063500  0.693570  1.0  -0.5923
  O  O805  1  0.286230  0.565870  0.482800  1.0  -0.6061
  O  O806  1  0.374270  0.603170  0.473100  1.0  -0.5931
  O  O807  1  0.952900  0.899200  0.816130  1.0  -0.6061
  O  O808  1  0.040940  0.936500  0.806430  1.0  -0.5931
  O  O809  1  0.619560  0.232540  0.149470  1.0  -0.6029
  O  O810  1  0.707600  0.269840  0.139770  1.0  -0.5931
  O  O811  1  0.279640  0.713770  0.482800  1.0  -0.607
  O  O812  1  0.228900  0.625730  0.473100  1.0  -0.5952
  O  O813  1  0.946310  0.047100  0.816130  1.0  -0.607
  O  O814  1  0.895570  0.959060  0.806430  1.0  -0.5952
  O  O815  1  0.612970  0.380440  0.149470  1.0  -0.6039
  O  O816  1  0.562230  0.292400  0.139770  1.0  -0.5952
  O  O817  1  0.434130  0.720360  0.482800  1.0  -0.6036
  O  O818  1  0.396830  0.771100  0.473100  1.0  -0.5922
  O  O819  1  0.100800  0.053690  0.816130  1.0  -0.6036
  O  O820  1  0.063500  0.104430  0.806430  1.0  -0.5922
  O  O821  1  0.767460  0.387030  0.149470  1.0  -0.6064
  O  O822  1  0.730160  0.437770  0.139770  1.0  -0.5922
  O  O823  1  0.666667  0.333333  0.083330  1.0  -0.6392
  O  O824  1  0.000000  0.000000  0.750000  1.0  -0.6393
  O  O825  1  0.333333  0.666667  0.416670  1.0  -0.6393
  O  O826  1  0.333333  0.666667  0.916670  1.0  -0.6393
  O  O827  1  0.000000  0.000000  0.250000  1.0  -0.6393
  O  O828  1  0.666667  0.333333  0.583330  1.0  -0.6392
