# generated using pymatgen
data_Ni3H44C72N6O13
_symmetry_space_group_name_H-M   'P 1'
_cell_length_a   29.05000000
_cell_length_b   29.05000000
_cell_length_c   24.50200000
_cell_angle_alpha   90.00000000
_cell_angle_beta   90.00000000
_cell_angle_gamma   120.00000000
_symmetry_Int_Tables_number   1
_chemical_formula_structural   Ni3H44C72N6O13
_chemical_formula_sum   'Ni18 H264 C432 N36 O78'
_cell_volume   17907.06626328
_cell_formula_units_Z   6
loop_
 _symmetry_equiv_pos_site_id
 _symmetry_equiv_pos_as_xyz
  1  'x, y, z'
loop_
 _atom_site_type_symbol
 _atom_site_label
 _atom_site_symmetry_multiplicity
 _atom_site_fract_x
 _atom_site_fract_y
 _atom_site_fract_z
 _atom_site_occupancy
 _atom_site_charge
  Ni  Ni1  1  0.666667  0.402240  0.083330  1.0  0.8474
  Ni  Ni2  1  0.597760  0.264420  0.083330  1.0  0.8507
  Ni  Ni3  1  0.735580  0.333333  0.083330  1.0  0.8473
  Ni  Ni4  1  0.402240  0.666667  0.416670  1.0  0.8472
  Ni  Ni5  1  0.068910  0.000000  0.750000  1.0  0.8473
  Ni  Ni6  1  0.264420  0.597760  0.416670  1.0  0.8507
  Ni  Ni7  1  0.931090  0.931090  0.750000  1.0  0.848
  Ni  Ni8  1  0.333333  0.735580  0.416670  1.0  0.8474
  Ni  Ni9  1  0.000000  0.068910  0.750000  1.0  0.8474
  Ni  Ni10  1  0.333333  0.597760  0.916670  1.0  0.8451
  Ni  Ni11  1  0.000000  0.931090  0.250000  1.0  0.8451
  Ni  Ni12  1  0.402240  0.735580  0.916670  1.0  0.8472
  Ni  Ni13  1  0.068910  0.068910  0.250000  1.0  0.8443
  Ni  Ni14  1  0.264420  0.666667  0.916670  1.0  0.8481
  Ni  Ni15  1  0.931090  0.000000  0.250000  1.0  0.8481
  Ni  Ni16  1  0.597760  0.333333  0.583330  1.0  0.8481
  Ni  Ni17  1  0.735580  0.402240  0.583330  1.0  0.8472
  Ni  Ni18  1  0.666667  0.264420  0.583330  1.0  0.8451
  H  H19  1  0.530200  0.751300  0.014000  1.0  0.1008
  H  H20  1  0.604900  0.752300  0.046400  1.0  0.1083
  H  H21  1  0.522400  0.595100  0.061100  1.0  0.1214
  H  H22  1  0.448700  0.594700  0.027200  1.0  0.1059
  H  H23  1  0.591300  0.593500  0.057700  1.0  0.1153
  H  H24  1  0.746000  0.600600  0.086400  1.0  0.1251
  H  H25  1  0.743600  0.520800  0.088100  1.0  0.0756
  H  H26  1  0.196870  0.084630  0.347330  1.0  0.1008
  H  H27  1  0.271570  0.085630  0.379730  1.0  0.1083
  H  H28  1  0.189070  0.928430  0.394430  1.0  0.1214
  H  H29  1  0.115370  0.928030  0.360530  1.0  0.1059
  H  H30  1  0.257970  0.926830  0.391030  1.0  0.1153
  H  H31  1  0.412670  0.933930  0.419730  1.0  0.1253
  H  H32  1  0.410270  0.854130  0.421430  1.0  0.0756
  H  H33  1  0.863530  0.417970  0.680670  1.0  0.1008
  H  H34  1  0.938230  0.418970  0.713070  1.0  0.1083
  H  H35  1  0.855730  0.261770  0.727770  1.0  0.1214
  H  H36  1  0.782030  0.261370  0.693870  1.0  0.1059
  H  H37  1  0.924630  0.260170  0.724370  1.0  0.1152
  H  H38  1  0.079330  0.267270  0.753070  1.0  0.1251
  H  H39  1  0.076930  0.187470  0.754770  1.0  0.0756
  H  H40  1  0.248700  0.778900  0.014000  1.0  0.099
  H  H41  1  0.247700  0.852600  0.046400  1.0  0.1078
  H  H42  1  0.404900  0.927300  0.061100  1.0  0.1201
  H  H43  1  0.405300  0.854000  0.027200  1.0  0.106
  H  H44  1  0.406500  0.997800  0.057700  1.0  0.1152
  H  H45  1  0.399400  0.145400  0.086400  1.0  0.1249
  H  H46  1  0.479200  0.222800  0.088100  1.0  0.0746
  H  H47  1  0.915370  0.112230  0.347330  1.0  0.099
  H  H48  1  0.914370  0.185930  0.379730  1.0  0.1078
  H  H49  1  0.071570  0.260630  0.394430  1.0  0.1201
  H  H50  1  0.071970  0.187330  0.360530  1.0  0.106
  H  H51  1  0.073170  0.331130  0.391030  1.0  0.1153
  H  H52  1  0.066070  0.478730  0.419730  1.0  0.1249
  H  H53  1  0.145870  0.556130  0.421430  1.0  0.0747
  H  H54  1  0.582030  0.445570  0.680670  1.0  0.099
  H  H55  1  0.581030  0.519270  0.713070  1.0  0.1078
  H  H56  1  0.738230  0.593970  0.727770  1.0  0.1201
  H  H57  1  0.738630  0.520670  0.693870  1.0  0.106
  H  H58  1  0.739830  0.664470  0.724370  1.0  0.1152
  H  H59  1  0.732730  0.812070  0.753070  1.0  0.1251
  H  H60  1  0.812530  0.889470  0.754770  1.0  0.0747
  H  H61  1  0.221100  0.469800  0.014000  1.0  0.1006
  H  H62  1  0.147400  0.395100  0.046400  1.0  0.108
  H  H63  1  0.072700  0.477600  0.061100  1.0  0.1207
  H  H64  1  0.146000  0.551300  0.027200  1.0  0.1057
  H  H65  1  0.002200  0.408700  0.057700  1.0  0.1152
  H  H66  1  0.854600  0.254000  0.086400  1.0  0.1258
  H  H67  1  0.777200  0.256400  0.088100  1.0  0.0754
  H  H68  1  0.887770  0.803130  0.347330  1.0  0.1006
  H  H69  1  0.814070  0.728430  0.379730  1.0  0.108
  H  H70  1  0.739370  0.810930  0.394430  1.0  0.1207
  H  H71  1  0.812670  0.884630  0.360530  1.0  0.1057
  H  H72  1  0.668870  0.742030  0.391030  1.0  0.1153
  H  H73  1  0.521270  0.587330  0.419730  1.0  0.1256
  H  H74  1  0.443870  0.589730  0.421430  1.0  0.0753
  H  H75  1  0.554430  0.136470  0.680670  1.0  0.1006
  H  H76  1  0.480730  0.061770  0.713070  1.0  0.1079
  H  H77  1  0.406030  0.144270  0.727770  1.0  0.1207
  H  H78  1  0.479330  0.217970  0.693870  1.0  0.1057
  H  H79  1  0.335530  0.075370  0.724370  1.0  0.1153
  H  H80  1  0.187930  0.920670  0.753070  1.0  0.1254
  H  H81  1  0.110530  0.923070  0.754770  1.0  0.0754
  H  H82  1  0.751300  0.530200  0.486000  1.0  0.1001
  H  H83  1  0.752300  0.604900  0.453600  1.0  0.1084
  H  H84  1  0.595100  0.522400  0.438900  1.0  0.1214
  H  H85  1  0.594700  0.448700  0.472800  1.0  0.1052
  H  H86  1  0.593500  0.591300  0.442300  1.0  0.1153
  H  H87  1  0.600600  0.746000  0.413600  1.0  0.1258
  H  H88  1  0.520800  0.743600  0.411900  1.0  0.0762
  H  H89  1  0.417970  0.863530  0.819330  1.0  0.1001
  H  H90  1  0.418970  0.938230  0.786930  1.0  0.1084
  H  H91  1  0.261770  0.855730  0.772230  1.0  0.1214
  H  H92  1  0.261370  0.782030  0.806130  1.0  0.1052
  H  H93  1  0.260170  0.924630  0.775630  1.0  0.1152
  H  H94  1  0.267270  0.079330  0.746930  1.0  0.1258
  H  H95  1  0.187470  0.076930  0.745230  1.0  0.0762
  H  H96  1  0.084630  0.196870  0.152670  1.0  0.1001
  H  H97  1  0.085630  0.271570  0.120270  1.0  0.1084
  H  H98  1  0.928430  0.189070  0.105570  1.0  0.1215
  H  H99  1  0.928030  0.115370  0.139470  1.0  0.1052
  H  H100  1  0.926830  0.257970  0.108970  1.0  0.1153
  H  H101  1  0.933930  0.412670  0.080270  1.0  0.1261
  H  H102  1  0.854130  0.410270  0.078570  1.0  0.0761
  H  H103  1  0.778900  0.248700  0.486000  1.0  0.1
  H  H104  1  0.852600  0.247700  0.453600  1.0  0.108
  H  H105  1  0.927300  0.404900  0.438900  1.0  0.1213
  H  H106  1  0.854000  0.405300  0.472800  1.0  0.1055
  H  H107  1  0.997800  0.406500  0.442300  1.0  0.1146
  H  H108  1  0.145400  0.399400  0.413600  1.0  0.1249
  H  H109  1  0.222800  0.479200  0.411900  1.0  0.0763
  H  H110  1  0.445570  0.582030  0.819330  1.0  0.1
  H  H111  1  0.519270  0.581030  0.786930  1.0  0.108
  H  H112  1  0.593970  0.738230  0.772230  1.0  0.1213
  H  H113  1  0.520670  0.738630  0.806130  1.0  0.1055
  H  H114  1  0.664470  0.739830  0.775630  1.0  0.1146
  H  H115  1  0.812070  0.732730  0.746930  1.0  0.1251
  H  H116  1  0.889470  0.812530  0.745230  1.0  0.0763
  H  H117  1  0.112230  0.915370  0.152670  1.0  0.1
  H  H118  1  0.185930  0.914370  0.120270  1.0  0.108
  H  H119  1  0.260630  0.071570  0.105570  1.0  0.1213
  H  H120  1  0.187330  0.071970  0.139470  1.0  0.1055
  H  H121  1  0.331130  0.073170  0.108970  1.0  0.1146
  H  H122  1  0.478730  0.066070  0.080270  1.0  0.1249
  H  H123  1  0.556130  0.145870  0.078570  1.0  0.0763
  H  H124  1  0.469800  0.221100  0.486000  1.0  0.0995
  H  H125  1  0.395100  0.147400  0.453600  1.0  0.108
  H  H126  1  0.477600  0.072700  0.438900  1.0  0.1199
  H  H127  1  0.551300  0.146000  0.472800  1.0  0.1055
  H  H128  1  0.408700  0.002200  0.442300  1.0  0.1146
  H  H129  1  0.254000  0.854600  0.413600  1.0  0.1249
  H  H130  1  0.256400  0.777200  0.411900  1.0  0.0746
  H  H131  1  0.136470  0.554430  0.819330  1.0  0.0995
  H  H132  1  0.061770  0.480730  0.786930  1.0  0.1079
  H  H133  1  0.144270  0.406030  0.772230  1.0  0.1199
  H  H134  1  0.217970  0.479330  0.806130  1.0  0.1055
  H  H135  1  0.075370  0.335530  0.775630  1.0  0.1147
  H  H136  1  0.920670  0.187930  0.746930  1.0  0.1245
  H  H137  1  0.923070  0.110530  0.745230  1.0  0.0746
  H  H138  1  0.803130  0.887770  0.152670  1.0  0.0995
  H  H139  1  0.728430  0.814070  0.120270  1.0  0.108
  H  H140  1  0.810930  0.739370  0.105570  1.0  0.1199
  H  H141  1  0.884630  0.812670  0.139470  1.0  0.1055
  H  H142  1  0.742030  0.668870  0.108970  1.0  0.1147
  H  H143  1  0.587330  0.521270  0.080270  1.0  0.1246
  H  H144  1  0.589730  0.443870  0.078570  1.0  0.0745
  H  H145  1  0.469800  0.248700  0.986000  1.0  0.1002
  H  H146  1  0.395100  0.247700  0.953600  1.0  0.108
  H  H147  1  0.477600  0.404900  0.938900  1.0  0.1211
  H  H148  1  0.551300  0.405300  0.972800  1.0  0.1054
  H  H149  1  0.408700  0.406500  0.942300  1.0  0.1144
  H  H150  1  0.254000  0.399400  0.913600  1.0  0.1239
  H  H151  1  0.256400  0.479200  0.911900  1.0  0.0749
  H  H152  1  0.136470  0.582030  0.319330  1.0  0.1002
  H  H153  1  0.061770  0.581030  0.286930  1.0  0.108
  H  H154  1  0.144270  0.738230  0.272230  1.0  0.1211
  H  H155  1  0.217970  0.738630  0.306130  1.0  0.1054
  H  H156  1  0.075370  0.739830  0.275630  1.0  0.1143
  H  H157  1  0.920670  0.732730  0.246930  1.0  0.1239
  H  H158  1  0.923070  0.812530  0.245230  1.0  0.075
  H  H159  1  0.803130  0.915370  0.652670  1.0  0.1002
  H  H160  1  0.728430  0.914370  0.620270  1.0  0.108
  H  H161  1  0.810930  0.071570  0.605570  1.0  0.1211
  H  H162  1  0.884630  0.071970  0.639470  1.0  0.1054
  H  H163  1  0.742030  0.073170  0.608970  1.0  0.1144
  H  H164  1  0.587330  0.066070  0.580270  1.0  0.1241
  H  H165  1  0.589730  0.145870  0.578570  1.0  0.0749
  H  H166  1  0.751300  0.221100  0.986000  1.0  0.0995
  H  H167  1  0.752300  0.147400  0.953600  1.0  0.107
  H  H168  1  0.595100  0.072700  0.938900  1.0  0.1198
  H  H169  1  0.594700  0.146000  0.972800  1.0  0.1071
  H  H170  1  0.593500  0.002200  0.942300  1.0  0.1147
  H  H171  1  0.600600  0.854600  0.913600  1.0  0.1244
  H  H172  1  0.520800  0.777200  0.911900  1.0  0.0748
  H  H173  1  0.417970  0.554430  0.319330  1.0  0.0995
  H  H174  1  0.418970  0.480730  0.286930  1.0  0.107
  H  H175  1  0.261770  0.406030  0.272230  1.0  0.1198
  H  H176  1  0.261370  0.479330  0.306130  1.0  0.1071
  H  H177  1  0.260170  0.335530  0.275630  1.0  0.1147
  H  H178  1  0.267270  0.187930  0.246930  1.0  0.1246
  H  H179  1  0.187470  0.110530  0.245230  1.0  0.0748
  H  H180  1  0.084630  0.887770  0.652670  1.0  0.0995
  H  H181  1  0.085630  0.814070  0.620270  1.0  0.107
  H  H182  1  0.928430  0.739370  0.605570  1.0  0.1197
  H  H183  1  0.928030  0.812670  0.639470  1.0  0.1071
  H  H184  1  0.926830  0.668870  0.608970  1.0  0.1147
  H  H185  1  0.933930  0.521270  0.580270  1.0  0.1244
  H  H186  1  0.854130  0.443870  0.578570  1.0  0.0748
  H  H187  1  0.778900  0.530200  0.986000  1.0  0.1004
  H  H188  1  0.852600  0.604900  0.953600  1.0  0.1084
  H  H189  1  0.927300  0.522400  0.938900  1.0  0.1199
  H  H190  1  0.854000  0.448700  0.972800  1.0  0.1053
  H  H191  1  0.997800  0.591300  0.942300  1.0  0.1152
  H  H192  1  0.145400  0.746000  0.913600  1.0  0.1259
  H  H193  1  0.222800  0.743600  0.911900  1.0  0.076
  H  H194  1  0.445570  0.863530  0.319330  1.0  0.1004
  H  H195  1  0.519270  0.938230  0.286930  1.0  0.1084
  H  H196  1  0.593970  0.855730  0.272230  1.0  0.1199
  H  H197  1  0.520670  0.782030  0.306130  1.0  0.1053
  H  H198  1  0.664470  0.924630  0.275630  1.0  0.1153
  H  H199  1  0.812070  0.079330  0.246930  1.0  0.1256
  H  H200  1  0.889470  0.076930  0.245230  1.0  0.0761
  H  H201  1  0.112230  0.196870  0.652670  1.0  0.1004
  H  H202  1  0.185930  0.271570  0.620270  1.0  0.1084
  H  H203  1  0.260630  0.189070  0.605570  1.0  0.12
  H  H204  1  0.187330  0.115370  0.639470  1.0  0.1053
  H  H205  1  0.331130  0.257970  0.608970  1.0  0.1153
  H  H206  1  0.478730  0.412670  0.580270  1.0  0.1257
  H  H207  1  0.556130  0.410270  0.578570  1.0  0.076
  H  H208  1  0.248700  0.469800  0.514000  1.0  0.1006
  H  H209  1  0.247700  0.395100  0.546400  1.0  0.1078
  H  H210  1  0.404900  0.477600  0.561100  1.0  0.1203
  H  H211  1  0.405300  0.551300  0.527200  1.0  0.1059
  H  H212  1  0.406500  0.408700  0.557700  1.0  0.1153
  H  H213  1  0.399400  0.254000  0.586400  1.0  0.125
  H  H214  1  0.479200  0.256400  0.588100  1.0  0.0755
  H  H215  1  0.915370  0.803130  0.847330  1.0  0.1006
  H  H216  1  0.914370  0.728430  0.879730  1.0  0.1078
  H  H217  1  0.071570  0.810930  0.894430  1.0  0.1203
  H  H218  1  0.071970  0.884630  0.860530  1.0  0.1059
  H  H219  1  0.073170  0.742030  0.891030  1.0  0.1153
  H  H220  1  0.066070  0.587330  0.919730  1.0  0.1252
  H  H221  1  0.145870  0.589730  0.921430  1.0  0.0755
  H  H222  1  0.582030  0.136470  0.180670  1.0  0.1006
  H  H223  1  0.581030  0.061770  0.213070  1.0  0.1078
  H  H224  1  0.738230  0.144270  0.227770  1.0  0.1203
  H  H225  1  0.738630  0.217970  0.193870  1.0  0.1059
  H  H226  1  0.739830  0.075370  0.224370  1.0  0.1152
  H  H227  1  0.732730  0.920670  0.253070  1.0  0.125
  H  H228  1  0.812530  0.923070  0.254770  1.0  0.0755
  H  H229  1  0.221100  0.751300  0.514000  1.0  0.1009
  H  H230  1  0.147400  0.752300  0.546400  1.0  0.1086
  H  H231  1  0.072700  0.595100  0.561100  1.0  0.1212
  H  H232  1  0.146000  0.594700  0.527200  1.0  0.1062
  H  H233  1  0.002200  0.593500  0.557700  1.0  0.1156
  H  H234  1  0.854600  0.600600  0.586400  1.0  0.1244
  H  H235  1  0.777200  0.520800  0.588100  1.0  0.0749
  H  H236  1  0.887770  0.084630  0.847330  1.0  0.1009
  H  H237  1  0.814070  0.085630  0.879730  1.0  0.1086
  H  H238  1  0.739370  0.928430  0.894430  1.0  0.1212
  H  H239  1  0.812670  0.928030  0.860530  1.0  0.1062
  H  H240  1  0.668870  0.926830  0.891030  1.0  0.1157
  H  H241  1  0.521270  0.933930  0.919730  1.0  0.1244
  H  H242  1  0.443870  0.854130  0.921430  1.0  0.0749
  H  H243  1  0.554430  0.417970  0.180670  1.0  0.1009
  H  H244  1  0.480730  0.418970  0.213070  1.0  0.1086
  H  H245  1  0.406030  0.261770  0.227770  1.0  0.1212
  H  H246  1  0.479330  0.261370  0.193870  1.0  0.1062
  H  H247  1  0.335530  0.260170  0.224370  1.0  0.1157
  H  H248  1  0.187930  0.267270  0.253070  1.0  0.1246
  H  H249  1  0.110530  0.187470  0.254770  1.0  0.0749
  H  H250  1  0.530200  0.778900  0.514000  1.0  0.0994
  H  H251  1  0.604900  0.852600  0.546400  1.0  0.1068
  H  H252  1  0.522400  0.927300  0.561100  1.0  0.1197
  H  H253  1  0.448700  0.854000  0.527200  1.0  0.1081
  H  H254  1  0.591300  0.997800  0.557700  1.0  0.1151
  H  H255  1  0.746000  0.145400  0.586400  1.0  0.1247
  H  H256  1  0.743600  0.222800  0.588100  1.0  0.0742
  H  H257  1  0.196870  0.112230  0.847330  1.0  0.0994
  H  H258  1  0.271570  0.185930  0.879730  1.0  0.1068
  H  H259  1  0.189070  0.260630  0.894430  1.0  0.1197
  H  H260  1  0.115370  0.187330  0.860530  1.0  0.1082
  H  H261  1  0.257970  0.331130  0.891030  1.0  0.1151
  H  H262  1  0.412670  0.478730  0.919730  1.0  0.1245
  H  H263  1  0.410270  0.556130  0.921430  1.0  0.0741
  H  H264  1  0.863530  0.445570  0.180670  1.0  0.0994
  H  H265  1  0.938230  0.519270  0.213070  1.0  0.1067
  H  H266  1  0.855730  0.593970  0.227770  1.0  0.1197
  H  H267  1  0.782030  0.520670  0.193870  1.0  0.1081
  H  H268  1  0.924630  0.664470  0.224370  1.0  0.1151
  H  H269  1  0.079330  0.812070  0.253070  1.0  0.1243
  H  H270  1  0.076930  0.889470  0.254770  1.0  0.0742
  H  H271  1  0.666667  0.333333  0.123300  1.0  0.1415
  H  H272  1  0.333333  0.666667  0.456630  1.0  0.1415
  H  H273  1  0.000000  0.000000  0.789970  1.0  0.1433
  H  H274  1  0.333333  0.666667  0.376700  1.0  0.1436
  H  H275  1  0.000000  0.000000  0.710030  1.0  0.1437
  H  H276  1  0.666667  0.333333  0.043370  1.0  0.1391
  H  H277  1  0.333333  0.666667  0.876700  1.0  0.1436
  H  H278  1  0.000000  0.000000  0.210030  1.0  0.1437
  H  H279  1  0.666667  0.333333  0.543370  1.0  0.1433
  H  H280  1  0.666667  0.333333  0.623300  1.0  0.1415
  H  H281  1  0.333333  0.666667  0.956630  1.0  0.1367
  H  H282  1  0.000000  0.000000  0.289970  1.0  0.1415
  C  C283  1  0.434220  0.670510  0.985660  1.0  0.7366
  C  C284  1  0.482560  0.672530  0.011800  1.0  -0.0789
  C  C285  1  0.528900  0.719300  0.021100  1.0  -0.0434
  C  C286  1  0.574100  0.719900  0.040900  1.0  -0.0384
  C  C287  1  0.574300  0.674000  0.052300  1.0  -0.0956
  C  C288  1  0.525100  0.626800  0.049300  1.0  -0.1477
  C  C289  1  0.480700  0.626600  0.029200  1.0  0.0234
  C  C290  1  0.622700  0.672400  0.069000  1.0  0.2076
  C  C291  1  0.621900  0.624300  0.068300  1.0  -0.1294
  C  C292  1  0.713500  0.569100  0.085400  1.0  -0.1941
  C  C293  1  0.711700  0.520800  0.085900  1.0  0.1657
  C  C294  1  0.100890  0.003840  0.318990  1.0  0.7361
  C  C295  1  0.149230  0.005860  0.345130  1.0  -0.0783
  C  C296  1  0.195570  0.052630  0.354430  1.0  -0.0431
  C  C297  1  0.240770  0.053230  0.374230  1.0  -0.0381
  C  C298  1  0.240970  0.007330  0.385630  1.0  -0.0967
  C  C299  1  0.191770  0.960130  0.382630  1.0  -0.1476
  C  C300  1  0.147370  0.959930  0.362530  1.0  0.0234
  C  C301  1  0.289370  0.005730  0.402330  1.0  0.208
  C  C302  1  0.288570  0.957630  0.401630  1.0  -0.1294
  C  C303  1  0.380170  0.902430  0.418730  1.0  -0.1942
  C  C304  1  0.378370  0.854130  0.419230  1.0  0.166
  C  C305  1  0.767550  0.337180  0.652330  1.0  0.7356
  C  C306  1  0.815890  0.339200  0.678470  1.0  -0.0789
  C  C307  1  0.862230  0.385970  0.687770  1.0  -0.0434
  C  C308  1  0.907430  0.386570  0.707570  1.0  -0.0384
  C  C309  1  0.907630  0.340670  0.718970  1.0  -0.0956
  C  C310  1  0.858430  0.293470  0.715970  1.0  -0.1477
  C  C311  1  0.814030  0.293270  0.695870  1.0  0.0234
  C  C312  1  0.956030  0.339070  0.735670  1.0  0.207
  C  C313  1  0.955230  0.290970  0.734970  1.0  -0.1294
  C  C314  1  0.046830  0.235770  0.752070  1.0  -0.1942
  C  C315  1  0.045030  0.187470  0.752570  1.0  0.1651
  C  C316  1  0.329490  0.763710  0.985660  1.0  0.7376
  C  C317  1  0.327470  0.810030  0.011800  1.0  -0.0785
  C  C318  1  0.280700  0.809600  0.021100  1.0  -0.0416
  C  C319  1  0.280100  0.854200  0.040900  1.0  -0.036
  C  C320  1  0.326000  0.900300  0.052300  1.0  -0.0971
  C  C321  1  0.373200  0.898300  0.049300  1.0  -0.1455
  C  C322  1  0.373400  0.854100  0.029200  1.0  0.0224
  C  C323  1  0.327600  0.950300  0.069000  1.0  0.2096
  C  C324  1  0.375700  0.997600  0.068300  1.0  -0.1294
  C  C325  1  0.430900  0.144400  0.085400  1.0  -0.1959
  C  C326  1  0.479200  0.190900  0.085900  1.0  0.1675
  C  C327  1  0.996160  0.097040  0.318990  1.0  0.737
  C  C328  1  0.994140  0.143360  0.345130  1.0  -0.0801
  C  C329  1  0.947370  0.142930  0.354430  1.0  -0.0416
  C  C330  1  0.946770  0.187530  0.374230  1.0  -0.0359
  C  C331  1  0.992670  0.233630  0.385630  1.0  -0.0969
  C  C332  1  0.039870  0.231630  0.382630  1.0  -0.1455
  C  C333  1  0.040070  0.187430  0.362530  1.0  0.0224
  C  C334  1  0.994270  0.283630  0.402330  1.0  0.21
  C  C335  1  0.042370  0.330930  0.401630  1.0  -0.1295
  C  C336  1  0.097570  0.477730  0.418730  1.0  -0.1959
  C  C337  1  0.145870  0.524230  0.419230  1.0  0.1683
  C  C338  1  0.662820  0.430380  0.652330  1.0  0.7368
  C  C339  1  0.660800  0.476700  0.678470  1.0  -0.0785
  C  C340  1  0.614030  0.476270  0.687770  1.0  -0.0416
  C  C341  1  0.613430  0.520870  0.707570  1.0  -0.0359
  C  C342  1  0.659330  0.566970  0.718970  1.0  -0.0971
  C  C343  1  0.706530  0.564970  0.715970  1.0  -0.1455
  C  C344  1  0.706730  0.520770  0.695870  1.0  0.0224
  C  C345  1  0.660930  0.616970  0.735670  1.0  0.2097
  C  C346  1  0.709030  0.664270  0.734970  1.0  -0.1297
  C  C347  1  0.764230  0.811070  0.752070  1.0  -0.1958
  C  C348  1  0.812530  0.857570  0.752570  1.0  0.1676
  C  C349  1  0.236290  0.565780  0.985660  1.0  0.738
  C  C350  1  0.189970  0.517440  0.011800  1.0  -0.0783
  C  C351  1  0.190400  0.471100  0.021100  1.0  -0.0431
  C  C352  1  0.145800  0.425900  0.040900  1.0  -0.036
  C  C353  1  0.099700  0.425700  0.052300  1.0  -0.097
  C  C354  1  0.101700  0.474900  0.049300  1.0  -0.1457
  C  C355  1  0.145900  0.519300  0.029200  1.0  0.0227
  C  C356  1  0.049700  0.377300  0.069000  1.0  0.2096
  C  C357  1  0.002400  0.378100  0.068300  1.0  -0.1273
  C  C358  1  0.855600  0.286500  0.085400  1.0  -0.1966
  C  C359  1  0.809100  0.288300  0.085900  1.0  0.1666
  C  C360  1  0.902960  0.899110  0.318990  1.0  0.7381
  C  C361  1  0.856640  0.850770  0.345130  1.0  -0.0783
  C  C362  1  0.857070  0.804430  0.354430  1.0  -0.0431
  C  C363  1  0.812470  0.759230  0.374230  1.0  -0.036
  C  C364  1  0.766370  0.759030  0.385630  1.0  -0.0969
  C  C365  1  0.768370  0.808230  0.382630  1.0  -0.1458
  C  C366  1  0.812570  0.852630  0.362530  1.0  0.0227
  C  C367  1  0.716370  0.710630  0.402330  1.0  0.2089
  C  C368  1  0.669070  0.711430  0.401630  1.0  -0.1271
  C  C369  1  0.522270  0.619830  0.418730  1.0  -0.1965
  C  C370  1  0.475770  0.621630  0.419230  1.0  0.1663
  C  C371  1  0.569620  0.232450  0.652330  1.0  0.7376
  C  C372  1  0.523300  0.184110  0.678470  1.0  -0.0783
  C  C373  1  0.523730  0.137770  0.687770  1.0  -0.0431
  C  C374  1  0.479130  0.092570  0.707570  1.0  -0.036
  C  C375  1  0.433030  0.092370  0.718970  1.0  -0.0969
  C  C376  1  0.435030  0.141570  0.715970  1.0  -0.1457
  C  C377  1  0.479230  0.185970  0.695870  1.0  0.0227
  C  C378  1  0.383030  0.043970  0.735670  1.0  0.2091
  C  C379  1  0.335730  0.044770  0.734970  1.0  -0.1272
  C  C380  1  0.188930  0.953170  0.752070  1.0  -0.1971
  C  C381  1  0.142430  0.954970  0.752570  1.0  0.1662
  C  C382  1  0.670510  0.434220  0.514340  1.0  0.736
  C  C383  1  0.672530  0.482560  0.488200  1.0  -0.0793
  C  C384  1  0.719300  0.528900  0.478900  1.0  -0.042
  C  C385  1  0.719900  0.574100  0.459100  1.0  -0.035
  C  C386  1  0.674000  0.574300  0.447700  1.0  -0.0966
  C  C387  1  0.626800  0.525100  0.450700  1.0  -0.1458
  C  C388  1  0.626600  0.480700  0.470800  1.0  0.0236
  C  C389  1  0.672400  0.622700  0.431000  1.0  0.2118
  C  C390  1  0.624300  0.621900  0.431700  1.0  -0.1274
  C  C391  1  0.569100  0.713500  0.414600  1.0  -0.1975
  C  C392  1  0.520800  0.711700  0.414100  1.0  0.166
  C  C393  1  0.337180  0.767550  0.847670  1.0  0.7361
  C  C394  1  0.339200  0.815890  0.821530  1.0  -0.0794
  C  C395  1  0.385970  0.862230  0.812230  1.0  -0.042
  C  C396  1  0.386570  0.907430  0.792430  1.0  -0.035
  C  C397  1  0.340670  0.907630  0.781030  1.0  -0.0966
  C  C398  1  0.293470  0.858430  0.784030  1.0  -0.1458
  C  C399  1  0.293270  0.814030  0.804130  1.0  0.0236
  C  C400  1  0.339070  0.956030  0.764330  1.0  0.2112
  C  C401  1  0.290970  0.955230  0.765030  1.0  -0.1274
  C  C402  1  0.235770  0.046830  0.747930  1.0  -0.1976
  C  C403  1  0.187470  0.045030  0.747430  1.0  0.1654
  C  C404  1  0.003840  0.100890  0.181010  1.0  0.7366
  C  C405  1  0.005860  0.149230  0.154870  1.0  -0.079
  C  C406  1  0.052630  0.195570  0.145570  1.0  -0.0417
  C  C407  1  0.053230  0.240770  0.125770  1.0  -0.0347
  C  C408  1  0.007330  0.240970  0.114370  1.0  -0.0977
  C  C409  1  0.960130  0.191770  0.117370  1.0  -0.1458
  C  C410  1  0.959930  0.147370  0.137470  1.0  0.0236
  C  C411  1  0.005730  0.289370  0.097670  1.0  0.2122
  C  C412  1  0.957630  0.288570  0.098370  1.0  -0.1274
  C  C413  1  0.902430  0.380170  0.081270  1.0  -0.1976
  C  C414  1  0.854130  0.378370  0.080770  1.0  0.1663
  C  C415  1  0.763710  0.329490  0.514340  1.0  0.7364
  C  C416  1  0.810030  0.327470  0.488200  1.0  -0.0795
  C  C417  1  0.809600  0.280700  0.478900  1.0  -0.0428
  C  C418  1  0.854200  0.280100  0.459100  1.0  -0.0379
  C  C419  1  0.900300  0.326000  0.447700  1.0  -0.0953
  C  C420  1  0.898300  0.373200  0.450700  1.0  -0.1489
  C  C421  1  0.854100  0.373400  0.470800  1.0  0.0218
  C  C422  1  0.950300  0.327600  0.431000  1.0  0.2098
  C  C423  1  0.997600  0.375700  0.431700  1.0  -0.13
  C  C424  1  0.144400  0.430900  0.414600  1.0  -0.1946
  C  C425  1  0.190900  0.479200  0.414100  1.0  0.1666
  C  C426  1  0.430380  0.662820  0.847670  1.0  0.7364
  C  C427  1  0.476700  0.660800  0.821530  1.0  -0.0795
  C  C428  1  0.476270  0.614030  0.812230  1.0  -0.0428
  C  C429  1  0.520870  0.613430  0.792430  1.0  -0.0378
  C  C430  1  0.566970  0.659330  0.781030  1.0  -0.0953
  C  C431  1  0.564970  0.706530  0.784030  1.0  -0.1489
  C  C432  1  0.520770  0.706730  0.804130  1.0  0.0218
  C  C433  1  0.616970  0.660930  0.764330  1.0  0.2099
  C  C434  1  0.664270  0.709030  0.765030  1.0  -0.13
  C  C435  1  0.811070  0.764230  0.747930  1.0  -0.1945
  C  C436  1  0.857570  0.812530  0.747430  1.0  0.1667
  C  C437  1  0.097040  0.996160  0.181010  1.0  0.7365
  C  C438  1  0.143360  0.994140  0.154870  1.0  -0.0807
  C  C439  1  0.142930  0.947370  0.145570  1.0  -0.0427
  C  C440  1  0.187530  0.946770  0.125770  1.0  -0.0378
  C  C441  1  0.233630  0.992670  0.114370  1.0  -0.095
  C  C442  1  0.231630  0.039870  0.117370  1.0  -0.1489
  C  C443  1  0.187430  0.040070  0.137470  1.0  0.0219
  C  C444  1  0.283630  0.994270  0.097670  1.0  0.2102
  C  C445  1  0.330930  0.042370  0.098370  1.0  -0.13
  C  C446  1  0.477730  0.097570  0.081270  1.0  -0.1946
  C  C447  1  0.524230  0.145870  0.080770  1.0  0.1675
  C  C448  1  0.565780  0.236290  0.514340  1.0  0.737
  C  C449  1  0.517440  0.189970  0.488200  1.0  -0.0789
  C  C450  1  0.471100  0.190400  0.478900  1.0  -0.0415
  C  C451  1  0.425900  0.145800  0.459100  1.0  -0.0348
  C  C452  1  0.425700  0.099700  0.447700  1.0  -0.0967
  C  C453  1  0.474900  0.101700  0.450700  1.0  -0.1458
  C  C454  1  0.519300  0.145900  0.470800  1.0  0.0225
  C  C455  1  0.377300  0.049700  0.431000  1.0  0.2109
  C  C456  1  0.378100  0.002400  0.431700  1.0  -0.13
  C  C457  1  0.286500  0.855600  0.414600  1.0  -0.1953
  C  C458  1  0.288300  0.809100  0.414100  1.0  0.1676
  C  C459  1  0.232450  0.569620  0.847670  1.0  0.7369
  C  C460  1  0.184110  0.523300  0.821530  1.0  -0.0789
  C  C461  1  0.137770  0.523730  0.812230  1.0  -0.0415
  C  C462  1  0.092570  0.479130  0.792430  1.0  -0.0348
  C  C463  1  0.092370  0.433030  0.781030  1.0  -0.0965
  C  C464  1  0.141570  0.435030  0.784030  1.0  -0.1458
  C  C465  1  0.185970  0.479230  0.804130  1.0  0.0225
  C  C466  1  0.043970  0.383030  0.764330  1.0  0.2104
  C  C467  1  0.044770  0.335730  0.765030  1.0  -0.1297
  C  C468  1  0.953170  0.188930  0.747930  1.0  -0.1958
  C  C469  1  0.954970  0.142430  0.747430  1.0  0.1672
  C  C470  1  0.899110  0.902960  0.181010  1.0  0.7373
  C  C471  1  0.850770  0.856640  0.154870  1.0  -0.079
  C  C472  1  0.804430  0.857070  0.145570  1.0  -0.0415
  C  C473  1  0.759230  0.812470  0.125770  1.0  -0.0348
  C  C474  1  0.759030  0.766370  0.114370  1.0  -0.0965
  C  C475  1  0.808230  0.768370  0.117370  1.0  -0.1458
  C  C476  1  0.852630  0.812570  0.137470  1.0  0.0225
  C  C477  1  0.710630  0.716370  0.097670  1.0  0.2102
  C  C478  1  0.711430  0.669070  0.098370  1.0  -0.1299
  C  C479  1  0.619830  0.522270  0.081270  1.0  -0.1952
  C  C480  1  0.621630  0.475770  0.080770  1.0  0.1674
  C  C481  1  0.565780  0.329490  0.014340  1.0  0.7382
  C  C482  1  0.517440  0.327470  0.988200  1.0  -0.0795
  C  C483  1  0.471100  0.280700  0.978900  1.0  -0.0428
  C  C484  1  0.425900  0.280100  0.959100  1.0  -0.037
  C  C485  1  0.425700  0.326000  0.947700  1.0  -0.0959
  C  C486  1  0.474900  0.373200  0.950700  1.0  -0.1492
  C  C487  1  0.519300  0.373400  0.970800  1.0  0.0213
  C  C488  1  0.377300  0.327600  0.931000  1.0  0.2086
  C  C489  1  0.378100  0.375700  0.931700  1.0  -0.1292
  C  C490  1  0.286500  0.430900  0.914600  1.0  -0.1941
  C  C491  1  0.288300  0.479200  0.914100  1.0  0.1664
  C  C492  1  0.232450  0.662820  0.347670  1.0  0.7372
  C  C493  1  0.184110  0.660800  0.321530  1.0  -0.0795
  C  C494  1  0.137770  0.614030  0.312230  1.0  -0.0428
  C  C495  1  0.092570  0.613430  0.292430  1.0  -0.0369
  C  C496  1  0.092370  0.659330  0.281030  1.0  -0.0958
  C  C497  1  0.141570  0.706530  0.284030  1.0  -0.1492
  C  C498  1  0.185970  0.706730  0.304130  1.0  0.0213
  C  C499  1  0.043970  0.660930  0.264330  1.0  0.208
  C  C500  1  0.044770  0.709030  0.265030  1.0  -0.1292
  C  C501  1  0.953170  0.764230  0.247930  1.0  -0.1941
  C  C502  1  0.954970  0.812530  0.247430  1.0  0.1657
  C  C503  1  0.899110  0.996160  0.681010  1.0  0.7377
  C  C504  1  0.850770  0.994140  0.654870  1.0  -0.0792
  C  C505  1  0.804430  0.947370  0.645570  1.0  -0.0426
  C  C506  1  0.759230  0.946770  0.625770  1.0  -0.0367
  C  C507  1  0.759030  0.992670  0.614370  1.0  -0.0969
  C  C508  1  0.808230  0.039870  0.617370  1.0  -0.1492
  C  C509  1  0.852630  0.040070  0.637470  1.0  0.0214
  C  C510  1  0.710630  0.994270  0.597670  1.0  0.209
  C  C511  1  0.711430  0.042370  0.598370  1.0  -0.1292
  C  C512  1  0.619830  0.097570  0.581270  1.0  -0.194
  C  C513  1  0.621630  0.145870  0.580770  1.0  0.1667
  C  C514  1  0.670510  0.236290  0.014340  1.0  0.7375
  C  C515  1  0.672530  0.189970  0.988200  1.0  -0.0787
  C  C516  1  0.719300  0.190400  0.978900  1.0  -0.0422
  C  C517  1  0.719900  0.145800  0.959100  1.0  -0.0343
  C  C518  1  0.674000  0.099700  0.947700  1.0  -0.0971
  C  C519  1  0.626800  0.101700  0.950700  1.0  -0.1462
  C  C520  1  0.626600  0.145900  0.970800  1.0  0.0208
  C  C521  1  0.672400  0.049700  0.931000  1.0  0.209
  C  C522  1  0.624300  0.002400  0.931700  1.0  -0.1301
  C  C523  1  0.569100  0.855600  0.914600  1.0  -0.1953
  C  C524  1  0.520800  0.809100  0.914100  1.0  0.1668
  C  C525  1  0.337180  0.569620  0.347670  1.0  0.7364
  C  C526  1  0.339200  0.523300  0.321530  1.0  -0.0787
  C  C527  1  0.385970  0.523730  0.312230  1.0  -0.0422
  C  C528  1  0.386570  0.479130  0.292430  1.0  -0.0342
  C  C529  1  0.340670  0.433030  0.281030  1.0  -0.0971
  C  C530  1  0.293470  0.435030  0.284030  1.0  -0.1462
  C  C531  1  0.293270  0.479230  0.304130  1.0  0.0208
  C  C532  1  0.339070  0.383030  0.264330  1.0  0.2091
  C  C533  1  0.290970  0.335730  0.265030  1.0  -0.1301
  C  C534  1  0.235770  0.188930  0.247930  1.0  -0.1953
  C  C535  1  0.187470  0.142430  0.247430  1.0  0.1669
  C  C536  1  0.003840  0.902960  0.681010  1.0  0.7366
  C  C537  1  0.005860  0.856640  0.654870  1.0  -0.0799
  C  C538  1  0.052630  0.857070  0.645570  1.0  -0.0422
  C  C539  1  0.053230  0.812470  0.625770  1.0  -0.0342
  C  C540  1  0.007330  0.766370  0.614370  1.0  -0.0969
  C  C541  1  0.960130  0.768370  0.617370  1.0  -0.1462
  C  C542  1  0.959930  0.812570  0.637470  1.0  0.0208
  C  C543  1  0.005730  0.716370  0.597670  1.0  0.2094
  C  C544  1  0.957630  0.669070  0.598370  1.0  -0.13
  C  C545  1  0.902430  0.522270  0.581270  1.0  -0.1953
  C  C546  1  0.854130  0.475770  0.580770  1.0  0.1676
  C  C547  1  0.763710  0.434220  0.014340  1.0  0.7374
  C  C548  1  0.810030  0.482560  0.988200  1.0  -0.0793
  C  C549  1  0.809600  0.528900  0.978900  1.0  -0.0425
  C  C550  1  0.854200  0.574100  0.959100  1.0  -0.035
  C  C551  1  0.900300  0.574300  0.947700  1.0  -0.0961
  C  C552  1  0.898300  0.525100  0.950700  1.0  -0.1463
  C  C553  1  0.854100  0.480700  0.970800  1.0  0.0228
  C  C554  1  0.950300  0.622700  0.931000  1.0  0.2104
  C  C555  1  0.997600  0.621900  0.931700  1.0  -0.1274
  C  C556  1  0.144400  0.713500  0.914600  1.0  -0.1964
  C  C557  1  0.190900  0.711700  0.914100  1.0  0.1671
  C  C558  1  0.430380  0.767550  0.347670  1.0  0.7363
  C  C559  1  0.476700  0.815890  0.321530  1.0  -0.0793
  C  C560  1  0.476270  0.862230  0.312230  1.0  -0.0425
  C  C561  1  0.520870  0.907430  0.292430  1.0  -0.035
  C  C562  1  0.566970  0.907630  0.281030  1.0  -0.0959
  C  C563  1  0.564970  0.858430  0.284030  1.0  -0.1463
  C  C564  1  0.520770  0.814030  0.304130  1.0  0.0228
  C  C565  1  0.616970  0.956030  0.264330  1.0  0.2099
  C  C566  1  0.664270  0.955230  0.265030  1.0  -0.1273
  C  C567  1  0.811070  0.046830  0.247930  1.0  -0.197
  C  C568  1  0.857570  0.045030  0.247430  1.0  0.1667
  C  C569  1  0.097040  0.100890  0.681010  1.0  0.7369
  C  C570  1  0.143360  0.149230  0.654870  1.0  -0.0793
  C  C571  1  0.142930  0.195570  0.645570  1.0  -0.0425
  C  C572  1  0.187530  0.240770  0.625770  1.0  -0.0351
  C  C573  1  0.233630  0.240970  0.614370  1.0  -0.0959
  C  C574  1  0.231630  0.191770  0.617370  1.0  -0.1463
  C  C575  1  0.187430  0.147370  0.637470  1.0  0.0228
  C  C576  1  0.283630  0.289370  0.597670  1.0  0.2097
  C  C577  1  0.330930  0.288570  0.598370  1.0  -0.1273
  C  C578  1  0.477730  0.380170  0.581270  1.0  -0.1964
  C  C579  1  0.524230  0.378370  0.580770  1.0  0.1668
  C  C580  1  0.329490  0.565780  0.485660  1.0  0.7373
  C  C581  1  0.327470  0.517440  0.511800  1.0  -0.0793
  C  C582  1  0.280700  0.471100  0.521100  1.0  -0.0425
  C  C583  1  0.280100  0.425900  0.540900  1.0  -0.0359
  C  C584  1  0.326000  0.425700  0.552300  1.0  -0.0964
  C  C585  1  0.373200  0.474900  0.549300  1.0  -0.1467
  C  C586  1  0.373400  0.519300  0.529200  1.0  0.0227
  C  C587  1  0.327600  0.377300  0.569000  1.0  0.2114
  C  C588  1  0.375700  0.378100  0.568300  1.0  -0.1271
  C  C589  1  0.430900  0.286500  0.585400  1.0  -0.1957
  C  C590  1  0.479200  0.288300  0.585900  1.0  0.1672
  C  C591  1  0.996160  0.899110  0.818990  1.0  0.7378
  C  C592  1  0.994140  0.850770  0.845130  1.0  -0.0786
  C  C593  1  0.947370  0.804430  0.854430  1.0  -0.0423
  C  C594  1  0.946770  0.759230  0.874230  1.0  -0.0357
  C  C595  1  0.992670  0.759030  0.885630  1.0  -0.0975
  C  C596  1  0.039870  0.808230  0.882630  1.0  -0.1466
  C  C597  1  0.040070  0.852630  0.862530  1.0  0.0227
  C  C598  1  0.994270  0.710630  0.902330  1.0  0.2118
  C  C599  1  0.042370  0.711430  0.901630  1.0  -0.1271
  C  C600  1  0.097570  0.619830  0.918730  1.0  -0.1958
  C  C601  1  0.145870  0.621630  0.919230  1.0  0.1675
  C  C602  1  0.662820  0.232450  0.152330  1.0  0.7373
  C  C603  1  0.660800  0.184110  0.178470  1.0  -0.0793
  C  C604  1  0.614030  0.137770  0.187770  1.0  -0.0425
  C  C605  1  0.613430  0.092570  0.207570  1.0  -0.0359
  C  C606  1  0.659330  0.092370  0.218970  1.0  -0.0964
  C  C607  1  0.706530  0.141570  0.215970  1.0  -0.1467
  C  C608  1  0.706730  0.185970  0.195870  1.0  0.0227
  C  C609  1  0.660930  0.043970  0.235670  1.0  0.2108
  C  C610  1  0.709030  0.044770  0.234970  1.0  -0.1271
  C  C611  1  0.764230  0.953170  0.252070  1.0  -0.1958
  C  C612  1  0.812530  0.954970  0.252570  1.0  0.1666
  C  C613  1  0.236290  0.670510  0.485660  1.0  0.7391
  C  C614  1  0.189970  0.672530  0.511800  1.0  -0.0782
  C  C615  1  0.190400  0.719300  0.521100  1.0  -0.044
  C  C616  1  0.145800  0.719900  0.540900  1.0  -0.0384
  C  C617  1  0.099700  0.674000  0.552300  1.0  -0.0959
  C  C618  1  0.101700  0.626800  0.549300  1.0  -0.1483
  C  C619  1  0.145900  0.626600  0.529200  1.0  0.0234
  C  C620  1  0.049700  0.672400  0.569000  1.0  0.2089
  C  C621  1  0.002400  0.624300  0.568300  1.0  -0.1286
  C  C622  1  0.855600  0.569100  0.585400  1.0  -0.1941
  C  C623  1  0.809100  0.520800  0.585900  1.0  0.1656
  C  C624  1  0.902960  0.003840  0.818990  1.0  0.739
  C  C625  1  0.856640  0.005860  0.845130  1.0  -0.0799
  C  C626  1  0.857070  0.052630  0.854430  1.0  -0.044
  C  C627  1  0.812470  0.053230  0.874230  1.0  -0.0384
  C  C628  1  0.766370  0.007330  0.885630  1.0  -0.0957
  C  C629  1  0.768370  0.960130  0.882630  1.0  -0.1483
  C  C630  1  0.812570  0.959930  0.862530  1.0  0.0234
  C  C631  1  0.716370  0.005730  0.902330  1.0  0.2095
  C  C632  1  0.669070  0.957630  0.901630  1.0  -0.1286
  C  C633  1  0.522270  0.902430  0.918730  1.0  -0.1942
  C  C634  1  0.475770  0.854130  0.919230  1.0  0.1665
  C  C635  1  0.569620  0.337180  0.152330  1.0  0.739
  C  C636  1  0.523300  0.339200  0.178470  1.0  -0.0781
  C  C637  1  0.523730  0.385970  0.187770  1.0  -0.044
  C  C638  1  0.479130  0.386570  0.207570  1.0  -0.0384
  C  C639  1  0.433030  0.340670  0.218970  1.0  -0.0959
  C  C640  1  0.435030  0.293470  0.215970  1.0  -0.1483
  C  C641  1  0.479230  0.293270  0.195870  1.0  0.0234
  C  C642  1  0.383030  0.339070  0.235670  1.0  0.209
  C  C643  1  0.335730  0.290970  0.234970  1.0  -0.1286
  C  C644  1  0.188930  0.235770  0.252070  1.0  -0.1941
  C  C645  1  0.142430  0.187470  0.252570  1.0  0.1657
  C  C646  1  0.434220  0.763710  0.485660  1.0  0.7359
  C  C647  1  0.482560  0.810030  0.511800  1.0  -0.0779
  C  C648  1  0.528900  0.809600  0.521100  1.0  -0.0427
  C  C649  1  0.574100  0.854200  0.540900  1.0  -0.0346
  C  C650  1  0.574300  0.900300  0.552300  1.0  -0.0973
  C  C651  1  0.525100  0.898300  0.549300  1.0  -0.1453
  C  C652  1  0.480700  0.854100  0.529200  1.0  0.0208
  C  C653  1  0.622700  0.950300  0.569000  1.0  0.2121
  C  C654  1  0.621900  0.997600  0.568300  1.0  -0.1297
  C  C655  1  0.713500  0.144400  0.585400  1.0  -0.1956
  C  C656  1  0.711700  0.190900  0.585900  1.0  0.1672
  C  C657  1  0.100890  0.097040  0.818990  1.0  0.7363
  C  C658  1  0.149230  0.143360  0.845130  1.0  -0.0779
  C  C659  1  0.195570  0.142930  0.854430  1.0  -0.0427
  C  C660  1  0.240770  0.187530  0.874230  1.0  -0.0346
  C  C661  1  0.240970  0.233630  0.885630  1.0  -0.0972
  C  C662  1  0.191770  0.231630  0.882630  1.0  -0.1454
  C  C663  1  0.147370  0.187430  0.862530  1.0  0.0208
  C  C664  1  0.289370  0.283630  0.902330  1.0  0.2114
  C  C665  1  0.288570  0.330930  0.901630  1.0  -0.1296
  C  C666  1  0.380170  0.477730  0.918730  1.0  -0.1956
  C  C667  1  0.378370  0.524230  0.919230  1.0  0.167
  C  C668  1  0.767550  0.430380  0.152330  1.0  0.7358
  C  C669  1  0.815890  0.476700  0.178470  1.0  -0.0779
  C  C670  1  0.862230  0.476270  0.187770  1.0  -0.0427
  C  C671  1  0.907430  0.520870  0.207570  1.0  -0.0346
  C  C672  1  0.907630  0.566970  0.218970  1.0  -0.0972
  C  C673  1  0.858430  0.564970  0.215970  1.0  -0.1453
  C  C674  1  0.814030  0.520770  0.195870  1.0  0.0208
  C  C675  1  0.956030  0.616970  0.235670  1.0  0.2116
  C  C676  1  0.955230  0.664270  0.234970  1.0  -0.1296
  C  C677  1  0.046830  0.811070  0.252070  1.0  -0.196
  C  C678  1  0.045030  0.857570  0.252570  1.0  0.1668
  C  C679  1  0.666667  0.621880  0.083330  1.0  0.0481
  C  C680  1  0.666667  0.570480  0.083330  1.0  0.083
  C  C681  1  0.378120  0.044780  0.083330  1.0  0.0489
  C  C682  1  0.429520  0.096180  0.083330  1.0  0.0823
  C  C683  1  0.955220  0.333333  0.083330  1.0  0.0475
  C  C684  1  0.903820  0.333333  0.083330  1.0  0.082
  C  C685  1  0.621880  0.666667  0.416670  1.0  0.0475
  C  C686  1  0.570480  0.666667  0.416670  1.0  0.0821
  C  C687  1  0.288550  0.000000  0.750000  1.0  0.0475
  C  C688  1  0.237150  0.000000  0.750000  1.0  0.0819
  C  C689  1  0.044780  0.378120  0.416670  1.0  0.0488
  C  C690  1  0.096180  0.429520  0.416670  1.0  0.0821
  C  C691  1  0.711450  0.711450  0.750000  1.0  0.048
  C  C692  1  0.762850  0.762850  0.750000  1.0  0.0826
  C  C693  1  0.333333  0.955220  0.416670  1.0  0.048
  C  C694  1  0.333333  0.903820  0.416670  1.0  0.0828
  C  C695  1  0.000000  0.288550  0.750000  1.0  0.0481
  C  C696  1  0.000000  0.237150  0.750000  1.0  0.0828
  C  C697  1  0.333333  0.378120  0.916670  1.0  0.048
  C  C698  1  0.333333  0.429520  0.916670  1.0  0.0821
  C  C699  1  0.000000  0.711450  0.250000  1.0  0.048
  C  C700  1  0.000000  0.762850  0.250000  1.0  0.0819
  C  C701  1  0.621880  0.955220  0.916670  1.0  0.0483
  C  C702  1  0.570480  0.903820  0.916670  1.0  0.0825
  C  C703  1  0.288550  0.288550  0.250000  1.0  0.0474
  C  C704  1  0.237150  0.237150  0.250000  1.0  0.0829
  C  C705  1  0.044780  0.666667  0.916670  1.0  0.048
  C  C706  1  0.096180  0.666667  0.916670  1.0  0.0801
  C  C707  1  0.711450  0.000000  0.250000  1.0  0.0481
  C  C708  1  0.762850  0.000000  0.250000  1.0  0.0801
  C  C709  1  0.378120  0.333333  0.583330  1.0  0.048
  C  C710  1  0.429520  0.333333  0.583330  1.0  0.0803
  C  C711  1  0.955220  0.621880  0.583330  1.0  0.0483
  C  C712  1  0.903820  0.570480  0.583330  1.0  0.0825
  C  C713  1  0.666667  0.044780  0.583330  1.0  0.048
  C  C714  1  0.666667  0.096180  0.583330  1.0  0.082
  N  N715  1  0.666667  0.474030  0.083330  1.0  -0.279
  N  N716  1  0.666667  0.718450  0.083330  1.0  -0.4206
  N  N717  1  0.525970  0.192630  0.083330  1.0  -0.2788
  N  N718  1  0.281550  0.948210  0.083330  1.0  -0.4202
  N  N719  1  0.807370  0.333333  0.083330  1.0  -0.2767
  N  N720  1  0.051790  0.333333  0.083330  1.0  -0.4182
  N  N721  1  0.474030  0.666667  0.416670  1.0  -0.2769
  N  N722  1  0.718450  0.666667  0.416670  1.0  -0.4177
  N  N723  1  0.140700  0.000000  0.750000  1.0  -0.2768
  N  N724  1  0.385120  0.000000  0.750000  1.0  -0.4181
  N  N725  1  0.192630  0.525970  0.416670  1.0  -0.2788
  N  N726  1  0.948210  0.281550  0.416670  1.0  -0.4202
  N  N727  1  0.859300  0.859300  0.750000  1.0  -0.2786
  N  N728  1  0.614880  0.614880  0.750000  1.0  -0.4201
  N  N729  1  0.333333  0.807370  0.416670  1.0  -0.2786
  N  N730  1  0.333333  0.051790  0.416670  1.0  -0.4212
  N  N731  1  0.000000  0.140700  0.750000  1.0  -0.2788
  N  N732  1  0.000000  0.385120  0.750000  1.0  -0.4212
  N  N733  1  0.333333  0.525970  0.916670  1.0  -0.2781
  N  N734  1  0.333333  0.281550  0.916670  1.0  -0.4197
  N  N735  1  0.000000  0.859300  0.250000  1.0  -0.278
  N  N736  1  0.000000  0.614880  0.250000  1.0  -0.42
  N  N737  1  0.474030  0.807370  0.916670  1.0  -0.2786
  N  N738  1  0.718450  0.051790  0.916670  1.0  -0.4205
  N  N739  1  0.140700  0.140700  0.250000  1.0  -0.2786
  N  N740  1  0.385120  0.385120  0.250000  1.0  -0.4202
  N  N741  1  0.192630  0.666667  0.916670  1.0  -0.2759
  N  N742  1  0.948210  0.666667  0.916670  1.0  -0.4193
  N  N743  1  0.859300  0.000000  0.250000  1.0  -0.276
  N  N744  1  0.614880  0.000000  0.250000  1.0  -0.4193
  N  N745  1  0.525970  0.333333  0.583330  1.0  -0.2763
  N  N746  1  0.281550  0.333333  0.583330  1.0  -0.419
  N  N747  1  0.807370  0.474030  0.583330  1.0  -0.2787
  N  N748  1  0.051790  0.718450  0.583330  1.0  -0.4206
  N  N749  1  0.666667  0.192630  0.583330  1.0  -0.2779
  N  N750  1  0.666667  0.948210  0.583330  1.0  -0.42
  O  O751  1  0.435500  0.713690  0.979160  1.0  -0.6163
  O  O752  1  0.396870  0.625510  0.972360  1.0  -0.622
  O  O753  1  0.102170  0.047020  0.312490  1.0  -0.617
  O  O754  1  0.063540  0.958840  0.305690  1.0  -0.6218
  O  O755  1  0.768830  0.380360  0.645830  1.0  -0.617
  O  O756  1  0.730200  0.292180  0.639030  1.0  -0.622
  O  O757  1  0.286310  0.721810  0.979160  1.0  -0.6156
  O  O758  1  0.374490  0.771360  0.972360  1.0  -0.623
  O  O759  1  0.952980  0.055140  0.312490  1.0  -0.6164
  O  O760  1  0.041160  0.104690  0.305690  1.0  -0.6228
  O  O761  1  0.619640  0.388480  0.645830  1.0  -0.6166
  O  O762  1  0.707820  0.438030  0.639030  1.0  -0.6228
  O  O763  1  0.278190  0.564500  0.979160  1.0  -0.6166
  O  O764  1  0.228640  0.603130  0.972360  1.0  -0.6212
  O  O765  1  0.944860  0.897830  0.312490  1.0  -0.6171
  O  O766  1  0.895310  0.936460  0.305690  1.0  -0.621
  O  O767  1  0.611520  0.231170  0.645830  1.0  -0.6167
  O  O768  1  0.561970  0.269800  0.639030  1.0  -0.621
  O  O769  1  0.713690  0.435500  0.520840  1.0  -0.6166
  O  O770  1  0.625510  0.396870  0.527640  1.0  -0.6216
  O  O771  1  0.380360  0.768830  0.854170  1.0  -0.6168
  O  O772  1  0.292180  0.730200  0.860970  1.0  -0.6215
  O  O773  1  0.047020  0.102170  0.187510  1.0  -0.617
  O  O774  1  0.958840  0.063540  0.194310  1.0  -0.6214
  O  O775  1  0.721810  0.286310  0.520840  1.0  -0.6159
  O  O776  1  0.771360  0.374490  0.527640  1.0  -0.6214
  O  O777  1  0.388480  0.619640  0.854170  1.0  -0.6162
  O  O778  1  0.438030  0.707820  0.860970  1.0  -0.6212
  O  O779  1  0.055140  0.952980  0.187510  1.0  -0.6159
  O  O780  1  0.104690  0.041160  0.194310  1.0  -0.6212
  O  O781  1  0.564500  0.278190  0.520840  1.0  -0.6157
  O  O782  1  0.603130  0.228640  0.527640  1.0  -0.6227
  O  O783  1  0.231170  0.611520  0.854170  1.0  -0.6153
  O  O784  1  0.269800  0.561970  0.860970  1.0  -0.6224
  O  O785  1  0.897830  0.944860  0.187510  1.0  -0.6158
  O  O786  1  0.936460  0.895310  0.194310  1.0  -0.6225
  O  O787  1  0.564500  0.286310  0.020840  1.0  -0.6157
  O  O788  1  0.603130  0.374490  0.027640  1.0  -0.6221
  O  O789  1  0.231170  0.619640  0.354170  1.0  -0.6158
  O  O790  1  0.269800  0.707820  0.360970  1.0  -0.6222
  O  O791  1  0.897830  0.952980  0.687510  1.0  -0.616
  O  O792  1  0.936460  0.041160  0.694310  1.0  -0.622
  O  O793  1  0.713690  0.278190  0.020840  1.0  -0.6155
  O  O794  1  0.625510  0.228640  0.027640  1.0  -0.6213
  O  O795  1  0.380360  0.611520  0.354170  1.0  -0.6161
  O  O796  1  0.292180  0.561970  0.360970  1.0  -0.6212
  O  O797  1  0.047020  0.944860  0.687510  1.0  -0.6158
  O  O798  1  0.958840  0.895310  0.694310  1.0  -0.6211
  O  O799  1  0.721810  0.435500  0.020840  1.0  -0.6148
  O  O800  1  0.771360  0.396870  0.027640  1.0  -0.622
  O  O801  1  0.388480  0.768830  0.354170  1.0  -0.615
  O  O802  1  0.438030  0.730200  0.360970  1.0  -0.6217
  O  O803  1  0.055140  0.102170  0.687510  1.0  -0.6154
  O  O804  1  0.104690  0.063540  0.694310  1.0  -0.6219
  O  O805  1  0.286310  0.564500  0.479160  1.0  -0.6159
  O  O806  1  0.374490  0.603130  0.472360  1.0  -0.6217
  O  O807  1  0.952980  0.897830  0.812490  1.0  -0.6162
  O  O808  1  0.041160  0.936460  0.805690  1.0  -0.6215
  O  O809  1  0.619640  0.231170  0.145830  1.0  -0.6162
  O  O810  1  0.707820  0.269800  0.139030  1.0  -0.6217
  O  O811  1  0.278190  0.713690  0.479160  1.0  -0.6164
  O  O812  1  0.228640  0.625510  0.472360  1.0  -0.6221
  O  O813  1  0.944860  0.047020  0.812490  1.0  -0.6164
  O  O814  1  0.895310  0.958840  0.805690  1.0  -0.6219
  O  O815  1  0.611520  0.380360  0.145830  1.0  -0.6167
  O  O816  1  0.561970  0.292180  0.139030  1.0  -0.6219
  O  O817  1  0.435500  0.721810  0.479160  1.0  -0.6167
  O  O818  1  0.396870  0.771360  0.472360  1.0  -0.6219
  O  O819  1  0.102170  0.055140  0.812490  1.0  -0.6167
  O  O820  1  0.063540  0.104690  0.805690  1.0  -0.6216
  O  O821  1  0.768830  0.388480  0.145830  1.0  -0.6163
  O  O822  1  0.730200  0.438030  0.139030  1.0  -0.6216
  O  O823  1  0.666667  0.333333  0.083330  1.0  -0.6592
  O  O824  1  0.000000  0.000000  0.750000  1.0  -0.6591
  O  O825  1  0.333333  0.666667  0.416670  1.0  -0.6593
  O  O826  1  0.333333  0.666667  0.916670  1.0  -0.6593
  O  O827  1  0.000000  0.000000  0.250000  1.0  -0.6591
  O  O828  1  0.666667  0.333333  0.583330  1.0  -0.6592
