# generated using pymatgen
data_Ni4H15C60N12(OF24)3
_symmetry_space_group_name_H-M   'P 1'
_cell_length_a   32.40020000
_cell_length_b   32.40020000
_cell_length_c   32.40020000
_cell_angle_alpha   90.00000000
_cell_angle_beta   90.00000000
_cell_angle_gamma   90.00000000
_symmetry_Int_Tables_number   1
_chemical_formula_structural   Ni4H15C60N12(OF24)3
_chemical_formula_sum   'Ni32 H120 C480 N96 O24 F576'
_cell_volume   34012.85385989
_cell_formula_units_Z   8
loop_
 _symmetry_equiv_pos_site_id
 _symmetry_equiv_pos_as_xyz
  1  'x, y, z'
loop_
 _atom_site_type_symbol
 _atom_site_label
 _atom_site_symmetry_multiplicity
 _atom_site_fract_x
 _atom_site_fract_y
 _atom_site_fract_z
 _atom_site_occupancy
 _atom_site_charge
  Ni  Ni1  1  0.040760  0.040760  0.040760  1.0  0.6385
  Ni  Ni2  1  0.040760  0.540760  0.540760  1.0  0.6385
  Ni  Ni3  1  0.540760  0.040760  0.540760  1.0  0.6385
  Ni  Ni4  1  0.540760  0.540760  0.040760  1.0  0.6385
  Ni  Ni5  1  0.959240  0.959240  0.040760  1.0  0.6422
  Ni  Ni6  1  0.959240  0.459240  0.540760  1.0  0.6422
  Ni  Ni7  1  0.459240  0.959240  0.540760  1.0  0.6422
  Ni  Ni8  1  0.459240  0.459240  0.040760  1.0  0.6422
  Ni  Ni9  1  0.959240  0.040760  0.959240  1.0  0.6403
  Ni  Ni10  1  0.959240  0.540760  0.459240  1.0  0.6403
  Ni  Ni11  1  0.459240  0.040760  0.459240  1.0  0.6403
  Ni  Ni12  1  0.459240  0.540760  0.959240  1.0  0.6403
  Ni  Ni13  1  0.040760  0.959240  0.959240  1.0  0.6404
  Ni  Ni14  1  0.040760  0.459240  0.459240  1.0  0.6404
  Ni  Ni15  1  0.540760  0.959240  0.459240  1.0  0.6404
  Ni  Ni16  1  0.540760  0.459240  0.959240  1.0  0.6404
  Ni  Ni17  1  0.040760  0.040760  0.959240  1.0  0.639
  Ni  Ni18  1  0.040760  0.540760  0.459240  1.0  0.639
  Ni  Ni19  1  0.540760  0.040760  0.459240  1.0  0.639
  Ni  Ni20  1  0.540760  0.540760  0.959240  1.0  0.639
  Ni  Ni21  1  0.959240  0.959240  0.959240  1.0  0.6426
  Ni  Ni22  1  0.959240  0.459240  0.459240  1.0  0.6426
  Ni  Ni23  1  0.459240  0.959240  0.459240  1.0  0.6426
  Ni  Ni24  1  0.459240  0.459240  0.959240  1.0  0.6426
  Ni  Ni25  1  0.040760  0.959240  0.040760  1.0  0.6405
  Ni  Ni26  1  0.040760  0.459240  0.540760  1.0  0.6405
  Ni  Ni27  1  0.540760  0.959240  0.540760  1.0  0.6405
  Ni  Ni28  1  0.540760  0.459240  0.040760  1.0  0.6405
  Ni  Ni29  1  0.959240  0.040760  0.040760  1.0  0.6381
  Ni  Ni30  1  0.959240  0.540760  0.540760  1.0  0.6381
  Ni  Ni31  1  0.459240  0.040760  0.540760  1.0  0.6381
  Ni  Ni32  1  0.459240  0.540760  0.040760  1.0  0.6381
  H  H33  1  0.076390  0.000000  0.000000  1.0  0.1859
  H  H34  1  0.076390  0.500000  0.500000  1.0  0.1859
  H  H35  1  0.576390  0.000000  0.500000  1.0  0.1859
  H  H36  1  0.576390  0.500000  0.000000  1.0  0.1859
  H  H37  1  0.923610  0.000000  0.000000  1.0  0.184
  H  H38  1  0.923610  0.500000  0.500000  1.0  0.184
  H  H39  1  0.423610  0.000000  0.500000  1.0  0.184
  H  H40  1  0.423610  0.500000  0.000000  1.0  0.184
  H  H41  1  0.000000  0.076390  0.000000  1.0  0.1877
  H  H42  1  0.000000  0.576390  0.500000  1.0  0.1877
  H  H43  1  0.500000  0.076390  0.500000  1.0  0.1877
  H  H44  1  0.500000  0.576390  0.000000  1.0  0.1877
  H  H45  1  0.000000  0.923610  0.000000  1.0  0.1887
  H  H46  1  0.000000  0.423610  0.500000  1.0  0.1887
  H  H47  1  0.500000  0.923610  0.500000  1.0  0.1887
  H  H48  1  0.500000  0.423610  0.000000  1.0  0.1887
  H  H49  1  0.000000  0.000000  0.076390  1.0  0.1848
  H  H50  1  0.000000  0.500000  0.576390  1.0  0.1848
  H  H51  1  0.500000  0.000000  0.576390  1.0  0.1848
  H  H52  1  0.500000  0.500000  0.076390  1.0  0.1848
  H  H53  1  0.000000  0.000000  0.923610  1.0  0.1863
  H  H54  1  0.000000  0.500000  0.423610  1.0  0.1863
  H  H55  1  0.500000  0.000000  0.423610  1.0  0.1863
  H  H56  1  0.500000  0.500000  0.923610  1.0  0.1863
  H  H57  1  0.383910  0.383910  0.938160  1.0  0.1565
  H  H58  1  0.383910  0.883910  0.438160  1.0  0.1565
  H  H59  1  0.883910  0.383910  0.438160  1.0  0.1565
  H  H60  1  0.883910  0.883910  0.938160  1.0  0.1565
  H  H61  1  0.616090  0.616090  0.938160  1.0  0.1561
  H  H62  1  0.616090  0.116090  0.438160  1.0  0.1561
  H  H63  1  0.116090  0.616090  0.438160  1.0  0.1561
  H  H64  1  0.116090  0.116090  0.938160  1.0  0.1561
  H  H65  1  0.616090  0.383910  0.061840  1.0  0.1561
  H  H66  1  0.616090  0.883910  0.561840  1.0  0.1561
  H  H67  1  0.116090  0.383910  0.561840  1.0  0.1561
  H  H68  1  0.116090  0.883910  0.061840  1.0  0.1561
  H  H69  1  0.383910  0.616090  0.061840  1.0  0.1555
  H  H70  1  0.383910  0.116090  0.561840  1.0  0.1555
  H  H71  1  0.883910  0.616090  0.561840  1.0  0.1555
  H  H72  1  0.883910  0.116090  0.061840  1.0  0.1555
  H  H73  1  0.938160  0.383910  0.383910  1.0  0.1548
  H  H74  1  0.938160  0.883910  0.883910  1.0  0.1548
  H  H75  1  0.438160  0.383910  0.883910  1.0  0.1548
  H  H76  1  0.438160  0.883910  0.383910  1.0  0.1548
  H  H77  1  0.938160  0.616090  0.616090  1.0  0.1543
  H  H78  1  0.938160  0.116090  0.116090  1.0  0.1543
  H  H79  1  0.438160  0.616090  0.116090  1.0  0.1543
  H  H80  1  0.438160  0.116090  0.616090  1.0  0.1543
  H  H81  1  0.061840  0.616090  0.383910  1.0  0.1544
  H  H82  1  0.061840  0.116090  0.883910  1.0  0.1544
  H  H83  1  0.561840  0.616090  0.883910  1.0  0.1544
  H  H84  1  0.561840  0.116090  0.383910  1.0  0.1544
  H  H85  1  0.061840  0.383910  0.616090  1.0  0.1547
  H  H86  1  0.061840  0.883910  0.116090  1.0  0.1547
  H  H87  1  0.561840  0.383910  0.116090  1.0  0.1547
  H  H88  1  0.561840  0.883910  0.616090  1.0  0.1547
  H  H89  1  0.383910  0.938160  0.383910  1.0  0.155
  H  H90  1  0.383910  0.438160  0.883910  1.0  0.155
  H  H91  1  0.883910  0.938160  0.883910  1.0  0.155
  H  H92  1  0.883910  0.438160  0.383910  1.0  0.155
  H  H93  1  0.616090  0.938160  0.616090  1.0  0.1548
  H  H94  1  0.616090  0.438160  0.116090  1.0  0.1548
  H  H95  1  0.116090  0.938160  0.116090  1.0  0.1548
  H  H96  1  0.116090  0.438160  0.616090  1.0  0.1548
  H  H97  1  0.383910  0.061840  0.616090  1.0  0.1551
  H  H98  1  0.383910  0.561840  0.116090  1.0  0.1551
  H  H99  1  0.883910  0.061840  0.116090  1.0  0.1551
  H  H100  1  0.883910  0.561840  0.616090  1.0  0.1551
  H  H101  1  0.616090  0.061840  0.383910  1.0  0.1558
  H  H102  1  0.616090  0.561840  0.883910  1.0  0.1558
  H  H103  1  0.116090  0.061840  0.883910  1.0  0.1558
  H  H104  1  0.116090  0.561840  0.383910  1.0  0.1558
  H  H105  1  0.383910  0.383910  0.061840  1.0  0.1563
  H  H106  1  0.383910  0.883910  0.561840  1.0  0.1563
  H  H107  1  0.883910  0.383910  0.561840  1.0  0.1563
  H  H108  1  0.883910  0.883910  0.061840  1.0  0.1563
  H  H109  1  0.616090  0.616090  0.061840  1.0  0.1557
  H  H110  1  0.616090  0.116090  0.561840  1.0  0.1557
  H  H111  1  0.116090  0.616090  0.561840  1.0  0.1557
  H  H112  1  0.116090  0.116090  0.061840  1.0  0.1557
  H  H113  1  0.383910  0.616090  0.938160  1.0  0.1558
  H  H114  1  0.383910  0.116090  0.438160  1.0  0.1558
  H  H115  1  0.883910  0.616090  0.438160  1.0  0.1558
  H  H116  1  0.883910  0.116090  0.938160  1.0  0.1558
  H  H117  1  0.616090  0.383910  0.938160  1.0  0.1568
  H  H118  1  0.616090  0.883910  0.438160  1.0  0.1568
  H  H119  1  0.116090  0.383910  0.438160  1.0  0.1568
  H  H120  1  0.116090  0.883910  0.938160  1.0  0.1568
  H  H121  1  0.383910  0.938160  0.616090  1.0  0.1551
  H  H122  1  0.383910  0.438160  0.116090  1.0  0.1551
  H  H123  1  0.883910  0.938160  0.116090  1.0  0.1551
  H  H124  1  0.883910  0.438160  0.616090  1.0  0.1551
  H  H125  1  0.616090  0.938160  0.383910  1.0  0.1552
  H  H126  1  0.616090  0.438160  0.883910  1.0  0.1552
  H  H127  1  0.116090  0.938160  0.883910  1.0  0.1552
  H  H128  1  0.116090  0.438160  0.383910  1.0  0.1552
  H  H129  1  0.616090  0.061840  0.616090  1.0  0.1552
  H  H130  1  0.616090  0.561840  0.116090  1.0  0.1552
  H  H131  1  0.116090  0.061840  0.116090  1.0  0.1552
  H  H132  1  0.116090  0.561840  0.616090  1.0  0.1552
  H  H133  1  0.383910  0.061840  0.383910  1.0  0.1554
  H  H134  1  0.383910  0.561840  0.883910  1.0  0.1554
  H  H135  1  0.883910  0.061840  0.883910  1.0  0.1554
  H  H136  1  0.883910  0.561840  0.383910  1.0  0.1554
  H  H137  1  0.938160  0.383910  0.616090  1.0  0.1549
  H  H138  1  0.938160  0.883910  0.116090  1.0  0.1549
  H  H139  1  0.438160  0.383910  0.116090  1.0  0.1549
  H  H140  1  0.438160  0.883910  0.616090  1.0  0.1549
  H  H141  1  0.938160  0.616090  0.383910  1.0  0.1543
  H  H142  1  0.938160  0.116090  0.883910  1.0  0.1543
  H  H143  1  0.438160  0.616090  0.883910  1.0  0.1543
  H  H144  1  0.438160  0.116090  0.383910  1.0  0.1543
  H  H145  1  0.061840  0.383910  0.383910  1.0  0.1547
  H  H146  1  0.061840  0.883910  0.883910  1.0  0.1547
  H  H147  1  0.561840  0.383910  0.883910  1.0  0.1547
  H  H148  1  0.561840  0.883910  0.383910  1.0  0.1547
  H  H149  1  0.061840  0.616090  0.616090  1.0  0.1542
  H  H150  1  0.061840  0.116090  0.116090  1.0  0.1542
  H  H151  1  0.561840  0.616090  0.116090  1.0  0.1542
  H  H152  1  0.561840  0.116090  0.616090  1.0  0.1542
  C  C153  1  0.280340  0.280340  0.000000  1.0  -0.0121
  C  C154  1  0.313070  0.313070  0.000000  1.0  0.0776
  C  C155  1  0.340130  0.340130  0.000000  1.0  0.0746
  C  C156  1  0.372870  0.372870  0.000000  1.0  0.0801
  C  C157  1  0.280340  0.780340  0.500000  1.0  -0.0121
  C  C158  1  0.313070  0.813070  0.500000  1.0  0.0776
  C  C159  1  0.340130  0.840130  0.500000  1.0  0.0746
  C  C160  1  0.372870  0.872870  0.500000  1.0  0.0801
  C  C161  1  0.780340  0.280340  0.500000  1.0  -0.0121
  C  C162  1  0.813070  0.313070  0.500000  1.0  0.0776
  C  C163  1  0.840130  0.340130  0.500000  1.0  0.0746
  C  C164  1  0.872870  0.372870  0.500000  1.0  0.0801
  C  C165  1  0.780340  0.780340  0.000000  1.0  -0.0121
  C  C166  1  0.813070  0.813070  0.000000  1.0  0.0776
  C  C167  1  0.840130  0.840130  0.000000  1.0  0.0746
  C  C168  1  0.872870  0.872870  0.000000  1.0  0.0801
  C  C169  1  0.719660  0.719660  0.000000  1.0  -0.013
  C  C170  1  0.686930  0.686930  0.000000  1.0  0.0797
  C  C171  1  0.659870  0.659870  0.000000  1.0  0.073
  C  C172  1  0.627130  0.627130  0.000000  1.0  0.0798
  C  C173  1  0.719660  0.219660  0.500000  1.0  -0.013
  C  C174  1  0.686930  0.186930  0.500000  1.0  0.0797
  C  C175  1  0.659870  0.159870  0.500000  1.0  0.073
  C  C176  1  0.627130  0.127130  0.500000  1.0  0.0798
  C  C177  1  0.219660  0.719660  0.500000  1.0  -0.013
  C  C178  1  0.186930  0.686930  0.500000  1.0  0.0797
  C  C179  1  0.159870  0.659870  0.500000  1.0  0.073
  C  C180  1  0.127130  0.627130  0.500000  1.0  0.0798
  C  C181  1  0.219660  0.219660  0.000000  1.0  -0.013
  C  C182  1  0.186930  0.186930  0.000000  1.0  0.0797
  C  C183  1  0.159870  0.159870  0.000000  1.0  0.073
  C  C184  1  0.127130  0.127130  0.000000  1.0  0.0798
  C  C185  1  0.719660  0.280340  0.000000  1.0  -0.0127
  C  C186  1  0.686930  0.313070  0.000000  1.0  0.0798
  C  C187  1  0.659870  0.340130  0.000000  1.0  0.0742
  C  C188  1  0.627130  0.372870  0.000000  1.0  0.0804
  C  C189  1  0.719660  0.780340  0.500000  1.0  -0.0127
  C  C190  1  0.686930  0.813070  0.500000  1.0  0.0798
  C  C191  1  0.659870  0.840130  0.500000  1.0  0.0742
  C  C192  1  0.627130  0.872870  0.500000  1.0  0.0804
  C  C193  1  0.219660  0.280340  0.500000  1.0  -0.0127
  C  C194  1  0.186930  0.313070  0.500000  1.0  0.0798
  C  C195  1  0.159870  0.340130  0.500000  1.0  0.0742
  C  C196  1  0.127130  0.372870  0.500000  1.0  0.0804
  C  C197  1  0.219660  0.780340  0.000000  1.0  -0.0127
  C  C198  1  0.186930  0.813070  0.000000  1.0  0.0798
  C  C199  1  0.159870  0.840130  0.000000  1.0  0.0742
  C  C200  1  0.127130  0.872870  0.000000  1.0  0.0804
  C  C201  1  0.280340  0.719660  0.000000  1.0  -0.012
  C  C202  1  0.313070  0.686930  0.000000  1.0  0.0791
  C  C203  1  0.340130  0.659870  0.000000  1.0  0.0736
  C  C204  1  0.372870  0.627130  0.000000  1.0  0.08
  C  C205  1  0.280340  0.219660  0.500000  1.0  -0.012
  C  C206  1  0.313070  0.186930  0.500000  1.0  0.0791
  C  C207  1  0.340130  0.159870  0.500000  1.0  0.0736
  C  C208  1  0.372870  0.127130  0.500000  1.0  0.08
  C  C209  1  0.780340  0.719660  0.500000  1.0  -0.012
  C  C210  1  0.813070  0.686930  0.500000  1.0  0.0791
  C  C211  1  0.840130  0.659870  0.500000  1.0  0.0736
  C  C212  1  0.872870  0.627130  0.500000  1.0  0.08
  C  C213  1  0.780340  0.219660  0.000000  1.0  -0.012
  C  C214  1  0.813070  0.186930  0.000000  1.0  0.0791
  C  C215  1  0.840130  0.159870  0.000000  1.0  0.0736
  C  C216  1  0.872870  0.127130  0.000000  1.0  0.08
  C  C217  1  0.000000  0.280340  0.280340  1.0  -0.014
  C  C218  1  0.000000  0.313070  0.313070  1.0  0.0782
  C  C219  1  0.000000  0.340130  0.340130  1.0  0.0749
  C  C220  1  0.000000  0.372870  0.372870  1.0  0.0812
  C  C221  1  0.000000  0.780340  0.780340  1.0  -0.014
  C  C222  1  0.000000  0.813070  0.813070  1.0  0.0782
  C  C223  1  0.000000  0.840130  0.840130  1.0  0.0749
  C  C224  1  0.000000  0.872870  0.872870  1.0  0.0812
  C  C225  1  0.500000  0.280340  0.780340  1.0  -0.014
  C  C226  1  0.500000  0.313070  0.813070  1.0  0.0782
  C  C227  1  0.500000  0.340130  0.840130  1.0  0.0749
  C  C228  1  0.500000  0.372870  0.872870  1.0  0.0812
  C  C229  1  0.500000  0.780340  0.280340  1.0  -0.014
  C  C230  1  0.500000  0.813070  0.313070  1.0  0.0782
  C  C231  1  0.500000  0.840130  0.340130  1.0  0.0749
  C  C232  1  0.500000  0.872870  0.372870  1.0  0.0812
  C  C233  1  0.000000  0.719660  0.719660  1.0  -0.015
  C  C234  1  0.000000  0.686930  0.686930  1.0  0.0768
  C  C235  1  0.000000  0.659870  0.659870  1.0  0.073
  C  C236  1  0.000000  0.627130  0.627130  1.0  0.0804
  C  C237  1  0.000000  0.219660  0.219660  1.0  -0.015
  C  C238  1  0.000000  0.186930  0.186930  1.0  0.0768
  C  C239  1  0.000000  0.159870  0.159870  1.0  0.073
  C  C240  1  0.000000  0.127130  0.127130  1.0  0.0804
  C  C241  1  0.500000  0.719660  0.219660  1.0  -0.015
  C  C242  1  0.500000  0.686930  0.186930  1.0  0.0768
  C  C243  1  0.500000  0.659870  0.159870  1.0  0.073
  C  C244  1  0.500000  0.627130  0.127130  1.0  0.0804
  C  C245  1  0.500000  0.219660  0.719660  1.0  -0.015
  C  C246  1  0.500000  0.186930  0.686930  1.0  0.0768
  C  C247  1  0.500000  0.159870  0.659870  1.0  0.073
  C  C248  1  0.500000  0.127130  0.627130  1.0  0.0804
  C  C249  1  0.000000  0.719660  0.280340  1.0  -0.0143
  C  C250  1  0.000000  0.686930  0.313070  1.0  0.0798
  C  C251  1  0.000000  0.659870  0.340130  1.0  0.0737
  C  C252  1  0.000000  0.627130  0.372870  1.0  0.0817
  C  C253  1  0.000000  0.219660  0.780340  1.0  -0.0143
  C  C254  1  0.000000  0.186930  0.813070  1.0  0.0798
  C  C255  1  0.000000  0.159870  0.840130  1.0  0.0737
  C  C256  1  0.000000  0.127130  0.872870  1.0  0.0817
  C  C257  1  0.500000  0.719660  0.780340  1.0  -0.0143
  C  C258  1  0.500000  0.686930  0.813070  1.0  0.0798
  C  C259  1  0.500000  0.659870  0.840130  1.0  0.0737
  C  C260  1  0.500000  0.627130  0.872870  1.0  0.0817
  C  C261  1  0.500000  0.219660  0.280340  1.0  -0.0143
  C  C262  1  0.500000  0.186930  0.313070  1.0  0.0798
  C  C263  1  0.500000  0.159870  0.340130  1.0  0.0737
  C  C264  1  0.500000  0.127130  0.372870  1.0  0.0817
  C  C265  1  0.000000  0.280340  0.719660  1.0  -0.0144
  C  C266  1  0.000000  0.313070  0.686930  1.0  0.0767
  C  C267  1  0.000000  0.340130  0.659870  1.0  0.0745
  C  C268  1  0.000000  0.372870  0.627130  1.0  0.0806
  C  C269  1  0.000000  0.780340  0.219660  1.0  -0.0144
  C  C270  1  0.000000  0.813070  0.186930  1.0  0.0767
  C  C271  1  0.000000  0.840130  0.159870  1.0  0.0745
  C  C272  1  0.000000  0.872870  0.127130  1.0  0.0806
  C  C273  1  0.500000  0.280340  0.219660  1.0  -0.0144
  C  C274  1  0.500000  0.313070  0.186930  1.0  0.0767
  C  C275  1  0.500000  0.340130  0.159870  1.0  0.0745
  C  C276  1  0.500000  0.372870  0.127130  1.0  0.0806
  C  C277  1  0.500000  0.780340  0.719660  1.0  -0.0144
  C  C278  1  0.500000  0.813070  0.686930  1.0  0.0767
  C  C279  1  0.500000  0.840130  0.659870  1.0  0.0745
  C  C280  1  0.500000  0.872870  0.627130  1.0  0.0806
  C  C281  1  0.280340  0.000000  0.280340  1.0  -0.0124
  C  C282  1  0.313070  0.000000  0.313070  1.0  0.0808
  C  C283  1  0.340130  0.000000  0.340130  1.0  0.0742
  C  C284  1  0.372870  0.000000  0.372870  1.0  0.0808
  C  C285  1  0.280340  0.500000  0.780340  1.0  -0.0124
  C  C286  1  0.313070  0.500000  0.813070  1.0  0.0808
  C  C287  1  0.340130  0.500000  0.840130  1.0  0.0742
  C  C288  1  0.372870  0.500000  0.872870  1.0  0.0808
  C  C289  1  0.780340  0.000000  0.780340  1.0  -0.0124
  C  C290  1  0.813070  0.000000  0.813070  1.0  0.0808
  C  C291  1  0.840130  0.000000  0.840130  1.0  0.0742
  C  C292  1  0.872870  0.000000  0.872870  1.0  0.0808
  C  C293  1  0.780340  0.500000  0.280340  1.0  -0.0124
  C  C294  1  0.813070  0.500000  0.313070  1.0  0.0808
  C  C295  1  0.840130  0.500000  0.340130  1.0  0.0742
  C  C296  1  0.872870  0.500000  0.372870  1.0  0.0808
  C  C297  1  0.719660  0.000000  0.719660  1.0  -0.014
  C  C298  1  0.686930  0.000000  0.686930  1.0  0.0796
  C  C299  1  0.659870  0.000000  0.659870  1.0  0.0735
  C  C300  1  0.627130  0.000000  0.627130  1.0  0.0801
  C  C301  1  0.719660  0.500000  0.219660  1.0  -0.014
  C  C302  1  0.686930  0.500000  0.186930  1.0  0.0796
  C  C303  1  0.659870  0.500000  0.159870  1.0  0.0735
  C  C304  1  0.627130  0.500000  0.127130  1.0  0.0801
  C  C305  1  0.219660  0.000000  0.219660  1.0  -0.014
  C  C306  1  0.186930  0.000000  0.186930  1.0  0.0796
  C  C307  1  0.159870  0.000000  0.159870  1.0  0.0735
  C  C308  1  0.127130  0.000000  0.127130  1.0  0.0801
  C  C309  1  0.219660  0.500000  0.719660  1.0  -0.014
  C  C310  1  0.186930  0.500000  0.686930  1.0  0.0796
  C  C311  1  0.159870  0.500000  0.659870  1.0  0.0735
  C  C312  1  0.127130  0.500000  0.627130  1.0  0.0801
  C  C313  1  0.280340  0.000000  0.719660  1.0  -0.0131
  C  C314  1  0.313070  0.000000  0.686930  1.0  0.0778
  C  C315  1  0.340130  0.000000  0.659870  1.0  0.0738
  C  C316  1  0.372870  0.000000  0.627130  1.0  0.0794
  C  C317  1  0.280340  0.500000  0.219660  1.0  -0.0131
  C  C318  1  0.313070  0.500000  0.186930  1.0  0.0778
  C  C319  1  0.340130  0.500000  0.159870  1.0  0.0738
  C  C320  1  0.372870  0.500000  0.127130  1.0  0.0794
  C  C321  1  0.780340  0.000000  0.219660  1.0  -0.0131
  C  C322  1  0.813070  0.000000  0.186930  1.0  0.0778
  C  C323  1  0.840130  0.000000  0.159870  1.0  0.0738
  C  C324  1  0.872870  0.000000  0.127130  1.0  0.0794
  C  C325  1  0.780340  0.500000  0.719660  1.0  -0.0131
  C  C326  1  0.813070  0.500000  0.686930  1.0  0.0778
  C  C327  1  0.840130  0.500000  0.659870  1.0  0.0738
  C  C328  1  0.872870  0.500000  0.627130  1.0  0.0794
  C  C329  1  0.719660  0.000000  0.280340  1.0  -0.0129
  C  C330  1  0.686930  0.000000  0.313070  1.0  0.0814
  C  C331  1  0.659870  0.000000  0.340130  1.0  0.0738
  C  C332  1  0.627130  0.000000  0.372870  1.0  0.0811
  C  C333  1  0.719660  0.500000  0.780340  1.0  -0.0129
  C  C334  1  0.686930  0.500000  0.813070  1.0  0.0814
  C  C335  1  0.659870  0.500000  0.840130  1.0  0.0738
  C  C336  1  0.627130  0.500000  0.872870  1.0  0.0811
  C  C337  1  0.219660  0.000000  0.780340  1.0  -0.0129
  C  C338  1  0.186930  0.000000  0.813070  1.0  0.0814
  C  C339  1  0.159870  0.000000  0.840130  1.0  0.0738
  C  C340  1  0.127130  0.000000  0.872870  1.0  0.0811
  C  C341  1  0.219660  0.500000  0.280340  1.0  -0.0129
  C  C342  1  0.186930  0.500000  0.313070  1.0  0.0814
  C  C343  1  0.159870  0.500000  0.340130  1.0  0.0738
  C  C344  1  0.127130  0.500000  0.372870  1.0  0.0811
  C  C345  1  0.265170  0.265170  0.962850  1.0  -0.0206
  C  C346  1  0.281970  0.281970  0.921680  1.0  0.0807
  C  C347  1  0.390320  0.390320  0.966040  1.0  0.0642
  C  C348  1  0.265170  0.765170  0.462850  1.0  -0.0206
  C  C349  1  0.281970  0.781970  0.421680  1.0  0.0807
  C  C350  1  0.390320  0.890320  0.466040  1.0  0.0642
  C  C351  1  0.765170  0.265170  0.462850  1.0  -0.0206
  C  C352  1  0.781970  0.281970  0.421680  1.0  0.0807
  C  C353  1  0.890320  0.390320  0.466040  1.0  0.0642
  C  C354  1  0.765170  0.765170  0.962850  1.0  -0.0206
  C  C355  1  0.781970  0.781970  0.921680  1.0  0.0807
  C  C356  1  0.890320  0.890320  0.966040  1.0  0.0642
  C  C357  1  0.734830  0.734830  0.962850  1.0  -0.0202
  C  C358  1  0.718030  0.718030  0.921680  1.0  0.0863
  C  C359  1  0.609680  0.609680  0.966040  1.0  0.0637
  C  C360  1  0.734830  0.234830  0.462850  1.0  -0.0202
  C  C361  1  0.718030  0.218030  0.421680  1.0  0.0863
  C  C362  1  0.609680  0.109680  0.466040  1.0  0.0637
  C  C363  1  0.234830  0.734830  0.462850  1.0  -0.0202
  C  C364  1  0.218030  0.718030  0.421680  1.0  0.0863
  C  C365  1  0.109680  0.609680  0.466040  1.0  0.0637
  C  C366  1  0.234830  0.234830  0.962850  1.0  -0.0202
  C  C367  1  0.218030  0.218030  0.921680  1.0  0.0863
  C  C368  1  0.109680  0.109680  0.966040  1.0  0.0637
  C  C369  1  0.734830  0.265170  0.037150  1.0  -0.0211
  C  C370  1  0.718030  0.281970  0.078320  1.0  0.0837
  C  C371  1  0.609680  0.390320  0.033960  1.0  0.0633
  C  C372  1  0.734830  0.765170  0.537150  1.0  -0.0211
  C  C373  1  0.718030  0.781970  0.578320  1.0  0.0837
  C  C374  1  0.609680  0.890320  0.533960  1.0  0.0633
  C  C375  1  0.234830  0.265170  0.537150  1.0  -0.0211
  C  C376  1  0.218030  0.281970  0.578320  1.0  0.0837
  C  C377  1  0.109680  0.390320  0.533960  1.0  0.0633
  C  C378  1  0.234830  0.765170  0.037150  1.0  -0.0211
  C  C379  1  0.218030  0.781970  0.078320  1.0  0.0837
  C  C380  1  0.109680  0.890320  0.033960  1.0  0.0633
  C  C381  1  0.265170  0.734830  0.037150  1.0  -0.0216
  C  C382  1  0.281970  0.718030  0.078320  1.0  0.0854
  C  C383  1  0.390320  0.609680  0.033960  1.0  0.0629
  C  C384  1  0.265170  0.234830  0.537150  1.0  -0.0216
  C  C385  1  0.281970  0.218030  0.578320  1.0  0.0854
  C  C386  1  0.390320  0.109680  0.533960  1.0  0.0629
  C  C387  1  0.765170  0.734830  0.537150  1.0  -0.0216
  C  C388  1  0.781970  0.718030  0.578320  1.0  0.0854
  C  C389  1  0.890320  0.609680  0.533960  1.0  0.0629
  C  C390  1  0.765170  0.234830  0.037150  1.0  -0.0216
  C  C391  1  0.781970  0.218030  0.078320  1.0  0.0854
  C  C392  1  0.890320  0.109680  0.033960  1.0  0.0629
  C  C393  1  0.962850  0.265170  0.265170  1.0  -0.0209
  C  C394  1  0.921680  0.281970  0.281970  1.0  0.083
  C  C395  1  0.966040  0.390320  0.390320  1.0  0.0633
  C  C396  1  0.962850  0.765170  0.765170  1.0  -0.0209
  C  C397  1  0.921680  0.781970  0.781970  1.0  0.083
  C  C398  1  0.966040  0.890320  0.890320  1.0  0.0633
  C  C399  1  0.462850  0.265170  0.765170  1.0  -0.0209
  C  C400  1  0.421680  0.281970  0.781970  1.0  0.083
  C  C401  1  0.466040  0.390320  0.890320  1.0  0.0633
  C  C402  1  0.462850  0.765170  0.265170  1.0  -0.0209
  C  C403  1  0.421680  0.781970  0.281970  1.0  0.083
  C  C404  1  0.466040  0.890320  0.390320  1.0  0.0633
  C  C405  1  0.962850  0.734830  0.734830  1.0  -0.0199
  C  C406  1  0.921680  0.718030  0.718030  1.0  0.0862
  C  C407  1  0.966040  0.609680  0.609680  1.0  0.0614
  C  C408  1  0.962850  0.234830  0.234830  1.0  -0.0199
  C  C409  1  0.921680  0.218030  0.218030  1.0  0.0862
  C  C410  1  0.966040  0.109680  0.109680  1.0  0.0614
  C  C411  1  0.462850  0.734830  0.234830  1.0  -0.0199
  C  C412  1  0.421680  0.718030  0.218030  1.0  0.0862
  C  C413  1  0.466040  0.609680  0.109680  1.0  0.0614
  C  C414  1  0.462850  0.234830  0.734830  1.0  -0.0199
  C  C415  1  0.421680  0.218030  0.718030  1.0  0.0862
  C  C416  1  0.466040  0.109680  0.609680  1.0  0.0614
  C  C417  1  0.037150  0.734830  0.265170  1.0  -0.0226
  C  C418  1  0.078320  0.718030  0.281970  1.0  0.0852
  C  C419  1  0.033960  0.609680  0.390320  1.0  0.0646
  C  C420  1  0.037150  0.234830  0.765170  1.0  -0.0226
  C  C421  1  0.078320  0.218030  0.781970  1.0  0.0852
  C  C422  1  0.033960  0.109680  0.890320  1.0  0.0646
  C  C423  1  0.537150  0.734830  0.765170  1.0  -0.0226
  C  C424  1  0.578320  0.718030  0.781970  1.0  0.0852
  C  C425  1  0.533960  0.609680  0.890320  1.0  0.0646
  C  C426  1  0.537150  0.234830  0.265170  1.0  -0.0226
  C  C427  1  0.578320  0.218030  0.281970  1.0  0.0852
  C  C428  1  0.533960  0.109680  0.390320  1.0  0.0646
  C  C429  1  0.037150  0.265170  0.734830  1.0  -0.0221
  C  C430  1  0.078320  0.281970  0.718030  1.0  0.0816
  C  C431  1  0.033960  0.390320  0.609680  1.0  0.0642
  C  C432  1  0.037150  0.765170  0.234830  1.0  -0.0221
  C  C433  1  0.078320  0.781970  0.218030  1.0  0.0816
  C  C434  1  0.033960  0.890320  0.109680  1.0  0.0642
  C  C435  1  0.537150  0.265170  0.234830  1.0  -0.0221
  C  C436  1  0.578320  0.281970  0.218030  1.0  0.0816
  C  C437  1  0.533960  0.390320  0.109680  1.0  0.0642
  C  C438  1  0.537150  0.765170  0.734830  1.0  -0.0221
  C  C439  1  0.578320  0.781970  0.718030  1.0  0.0816
  C  C440  1  0.533960  0.890320  0.609680  1.0  0.0642
  C  C441  1  0.265170  0.962850  0.265170  1.0  -0.0224
  C  C442  1  0.281970  0.921680  0.281970  1.0  0.0848
  C  C443  1  0.390320  0.966040  0.390320  1.0  0.0654
  C  C444  1  0.265170  0.462850  0.765170  1.0  -0.0224
  C  C445  1  0.281970  0.421680  0.781970  1.0  0.0848
  C  C446  1  0.390320  0.466040  0.890320  1.0  0.0654
  C  C447  1  0.765170  0.962850  0.765170  1.0  -0.0224
  C  C448  1  0.781970  0.921680  0.781970  1.0  0.0848
  C  C449  1  0.890320  0.966040  0.890320  1.0  0.0654
  C  C450  1  0.765170  0.462850  0.265170  1.0  -0.0224
  C  C451  1  0.781970  0.421680  0.281970  1.0  0.0848
  C  C452  1  0.890320  0.466040  0.390320  1.0  0.0654
  C  C453  1  0.734830  0.962850  0.734830  1.0  -0.0218
  C  C454  1  0.718030  0.921680  0.718030  1.0  0.0851
  C  C455  1  0.609680  0.966040  0.609680  1.0  0.0647
  C  C456  1  0.734830  0.462850  0.234830  1.0  -0.0218
  C  C457  1  0.718030  0.421680  0.218030  1.0  0.0851
  C  C458  1  0.609680  0.466040  0.109680  1.0  0.0647
  C  C459  1  0.234830  0.962850  0.234830  1.0  -0.0218
  C  C460  1  0.218030  0.921680  0.218030  1.0  0.0851
  C  C461  1  0.109680  0.966040  0.109680  1.0  0.0647
  C  C462  1  0.234830  0.462850  0.734830  1.0  -0.0218
  C  C463  1  0.218030  0.421680  0.718030  1.0  0.0851
  C  C464  1  0.109680  0.466040  0.609680  1.0  0.0647
  C  C465  1  0.265170  0.037150  0.734830  1.0  -0.0235
  C  C466  1  0.281970  0.078320  0.718030  1.0  0.0804
  C  C467  1  0.390320  0.033960  0.609680  1.0  0.0649
  C  C468  1  0.265170  0.537150  0.234830  1.0  -0.0235
  C  C469  1  0.281970  0.578320  0.218030  1.0  0.0804
  C  C470  1  0.390320  0.533960  0.109680  1.0  0.0649
  C  C471  1  0.765170  0.037150  0.234830  1.0  -0.0235
  C  C472  1  0.781970  0.078320  0.218030  1.0  0.0804
  C  C473  1  0.890320  0.033960  0.109680  1.0  0.0649
  C  C474  1  0.765170  0.537150  0.734830  1.0  -0.0235
  C  C475  1  0.781970  0.578320  0.718030  1.0  0.0804
  C  C476  1  0.890320  0.533960  0.609680  1.0  0.0649
  C  C477  1  0.734830  0.037150  0.265170  1.0  -0.0242
  C  C478  1  0.718030  0.078320  0.281970  1.0  0.0833
  C  C479  1  0.609680  0.033960  0.390320  1.0  0.0649
  C  C480  1  0.734830  0.537150  0.765170  1.0  -0.0242
  C  C481  1  0.718030  0.578320  0.781970  1.0  0.0833
  C  C482  1  0.609680  0.533960  0.890320  1.0  0.0649
  C  C483  1  0.234830  0.037150  0.765170  1.0  -0.0242
  C  C484  1  0.218030  0.078320  0.781970  1.0  0.0833
  C  C485  1  0.109680  0.033960  0.890320  1.0  0.0649
  C  C486  1  0.234830  0.537150  0.265170  1.0  -0.0242
  C  C487  1  0.218030  0.578320  0.281970  1.0  0.0833
  C  C488  1  0.109680  0.533960  0.390320  1.0  0.0649
  C  C489  1  0.265170  0.265170  0.037150  1.0  -0.0214
  C  C490  1  0.281970  0.281970  0.078320  1.0  0.0811
  C  C491  1  0.390320  0.390320  0.033960  1.0  0.0641
  C  C492  1  0.265170  0.765170  0.537150  1.0  -0.0214
  C  C493  1  0.281970  0.781970  0.578320  1.0  0.0811
  C  C494  1  0.390320  0.890320  0.533960  1.0  0.0641
  C  C495  1  0.765170  0.265170  0.537150  1.0  -0.0214
  C  C496  1  0.781970  0.281970  0.578320  1.0  0.0811
  C  C497  1  0.890320  0.390320  0.533960  1.0  0.0641
  C  C498  1  0.765170  0.765170  0.037150  1.0  -0.0214
  C  C499  1  0.781970  0.781970  0.078320  1.0  0.0811
  C  C500  1  0.890320  0.890320  0.033960  1.0  0.0641
  C  C501  1  0.734830  0.734830  0.037150  1.0  -0.0213
  C  C502  1  0.718030  0.718030  0.078320  1.0  0.0867
  C  C503  1  0.609680  0.609680  0.033960  1.0  0.0623
  C  C504  1  0.734830  0.234830  0.537150  1.0  -0.0213
  C  C505  1  0.718030  0.218030  0.578320  1.0  0.0867
  C  C506  1  0.609680  0.109680  0.533960  1.0  0.0623
  C  C507  1  0.234830  0.734830  0.537150  1.0  -0.0213
  C  C508  1  0.218030  0.718030  0.578320  1.0  0.0867
  C  C509  1  0.109680  0.609680  0.533960  1.0  0.0623
  C  C510  1  0.234830  0.234830  0.037150  1.0  -0.0213
  C  C511  1  0.218030  0.218030  0.078320  1.0  0.0867
  C  C512  1  0.109680  0.109680  0.033960  1.0  0.0623
  C  C513  1  0.265170  0.734830  0.962850  1.0  -0.0208
  C  C514  1  0.281970  0.718030  0.921680  1.0  0.0846
  C  C515  1  0.390320  0.609680  0.966040  1.0  0.0645
  C  C516  1  0.265170  0.234830  0.462850  1.0  -0.0208
  C  C517  1  0.281970  0.218030  0.421680  1.0  0.0846
  C  C518  1  0.390320  0.109680  0.466040  1.0  0.0645
  C  C519  1  0.765170  0.734830  0.462850  1.0  -0.0208
  C  C520  1  0.781970  0.718030  0.421680  1.0  0.0846
  C  C521  1  0.890320  0.609680  0.466040  1.0  0.0645
  C  C522  1  0.765170  0.234830  0.962850  1.0  -0.0208
  C  C523  1  0.781970  0.218030  0.921680  1.0  0.0846
  C  C524  1  0.890320  0.109680  0.966040  1.0  0.0645
  C  C525  1  0.734830  0.265170  0.962850  1.0  -0.02
  C  C526  1  0.718030  0.281970  0.921680  1.0  0.0827
  C  C527  1  0.609680  0.390320  0.966040  1.0  0.0634
  C  C528  1  0.734830  0.765170  0.462850  1.0  -0.02
  C  C529  1  0.718030  0.781970  0.421680  1.0  0.0827
  C  C530  1  0.609680  0.890320  0.466040  1.0  0.0634
  C  C531  1  0.234830  0.265170  0.462850  1.0  -0.02
  C  C532  1  0.218030  0.281970  0.421680  1.0  0.0827
  C  C533  1  0.109680  0.390320  0.466040  1.0  0.0634
  C  C534  1  0.234830  0.765170  0.962850  1.0  -0.02
  C  C535  1  0.218030  0.781970  0.921680  1.0  0.0827
  C  C536  1  0.109680  0.890320  0.966040  1.0  0.0634
  C  C537  1  0.265170  0.962850  0.734830  1.0  -0.0218
  C  C538  1  0.281970  0.921680  0.718030  1.0  0.0836
  C  C539  1  0.390320  0.966040  0.609680  1.0  0.0652
  C  C540  1  0.265170  0.462850  0.234830  1.0  -0.0218
  C  C541  1  0.281970  0.421680  0.218030  1.0  0.0836
  C  C542  1  0.390320  0.466040  0.109680  1.0  0.0652
  C  C543  1  0.765170  0.962850  0.234830  1.0  -0.0218
  C  C544  1  0.781970  0.921680  0.218030  1.0  0.0836
  C  C545  1  0.890320  0.966040  0.109680  1.0  0.0652
  C  C546  1  0.765170  0.462850  0.734830  1.0  -0.0218
  C  C547  1  0.781970  0.421680  0.718030  1.0  0.0836
  C  C548  1  0.890320  0.466040  0.609680  1.0  0.0652
  C  C549  1  0.734830  0.962850  0.265170  1.0  -0.0224
  C  C550  1  0.718030  0.921680  0.281970  1.0  0.0857
  C  C551  1  0.609680  0.966040  0.390320  1.0  0.0649
  C  C552  1  0.734830  0.462850  0.765170  1.0  -0.0224
  C  C553  1  0.718030  0.421680  0.781970  1.0  0.0857
  C  C554  1  0.609680  0.466040  0.890320  1.0  0.0649
  C  C555  1  0.234830  0.962850  0.765170  1.0  -0.0224
  C  C556  1  0.218030  0.921680  0.781970  1.0  0.0857
  C  C557  1  0.109680  0.966040  0.890320  1.0  0.0649
  C  C558  1  0.234830  0.462850  0.265170  1.0  -0.0224
  C  C559  1  0.218030  0.421680  0.281970  1.0  0.0857
  C  C560  1  0.109680  0.466040  0.390320  1.0  0.0649
  C  C561  1  0.734830  0.037150  0.734830  1.0  -0.0235
  C  C562  1  0.718030  0.078320  0.718030  1.0  0.0833
  C  C563  1  0.609680  0.033960  0.609680  1.0  0.0638
  C  C564  1  0.734830  0.537150  0.234830  1.0  -0.0235
  C  C565  1  0.718030  0.578320  0.218030  1.0  0.0833
  C  C566  1  0.609680  0.533960  0.109680  1.0  0.0638
  C  C567  1  0.234830  0.037150  0.234830  1.0  -0.0235
  C  C568  1  0.218030  0.078320  0.218030  1.0  0.0833
  C  C569  1  0.109680  0.033960  0.109680  1.0  0.0638
  C  C570  1  0.234830  0.537150  0.734830  1.0  -0.0235
  C  C571  1  0.218030  0.578320  0.718030  1.0  0.0833
  C  C572  1  0.109680  0.533960  0.609680  1.0  0.0638
  C  C573  1  0.265170  0.037150  0.265170  1.0  -0.0243
  C  C574  1  0.281970  0.078320  0.281970  1.0  0.081
  C  C575  1  0.390320  0.033960  0.390320  1.0  0.066
  C  C576  1  0.265170  0.537150  0.765170  1.0  -0.0243
  C  C577  1  0.281970  0.578320  0.781970  1.0  0.081
  C  C578  1  0.390320  0.533960  0.890320  1.0  0.066
  C  C579  1  0.765170  0.037150  0.765170  1.0  -0.0243
  C  C580  1  0.781970  0.078320  0.781970  1.0  0.081
  C  C581  1  0.890320  0.033960  0.890320  1.0  0.066
  C  C582  1  0.765170  0.537150  0.265170  1.0  -0.0243
  C  C583  1  0.781970  0.578320  0.281970  1.0  0.081
  C  C584  1  0.890320  0.533960  0.390320  1.0  0.066
  C  C585  1  0.962850  0.265170  0.734830  1.0  -0.0198
  C  C586  1  0.921680  0.281970  0.718030  1.0  0.0837
  C  C587  1  0.966040  0.390320  0.609680  1.0  0.0628
  C  C588  1  0.962850  0.765170  0.234830  1.0  -0.0198
  C  C589  1  0.921680  0.781970  0.218030  1.0  0.0837
  C  C590  1  0.966040  0.890320  0.109680  1.0  0.0628
  C  C591  1  0.462850  0.265170  0.234830  1.0  -0.0198
  C  C592  1  0.421680  0.281970  0.218030  1.0  0.0837
  C  C593  1  0.466040  0.390320  0.109680  1.0  0.0628
  C  C594  1  0.462850  0.765170  0.734830  1.0  -0.0198
  C  C595  1  0.421680  0.781970  0.718030  1.0  0.0837
  C  C596  1  0.466040  0.890320  0.609680  1.0  0.0628
  C  C597  1  0.962850  0.734830  0.265170  1.0  -0.0209
  C  C598  1  0.921680  0.718030  0.281970  1.0  0.086
  C  C599  1  0.966040  0.609680  0.390320  1.0  0.0629
  C  C600  1  0.962850  0.234830  0.765170  1.0  -0.0209
  C  C601  1  0.921680  0.218030  0.781970  1.0  0.086
  C  C602  1  0.966040  0.109680  0.890320  1.0  0.0629
  C  C603  1  0.462850  0.734830  0.765170  1.0  -0.0209
  C  C604  1  0.421680  0.718030  0.781970  1.0  0.086
  C  C605  1  0.466040  0.609680  0.890320  1.0  0.0629
  C  C606  1  0.462850  0.234830  0.265170  1.0  -0.0209
  C  C607  1  0.421680  0.218030  0.281970  1.0  0.086
  C  C608  1  0.466040  0.109680  0.390320  1.0  0.0629
  C  C609  1  0.037150  0.265170  0.265170  1.0  -0.0224
  C  C610  1  0.078320  0.281970  0.281970  1.0  0.0818
  C  C611  1  0.033960  0.390320  0.390320  1.0  0.064
  C  C612  1  0.037150  0.765170  0.765170  1.0  -0.0224
  C  C613  1  0.078320  0.781970  0.781970  1.0  0.0818
  C  C614  1  0.033960  0.890320  0.890320  1.0  0.064
  C  C615  1  0.537150  0.265170  0.765170  1.0  -0.0224
  C  C616  1  0.578320  0.281970  0.781970  1.0  0.0818
  C  C617  1  0.533960  0.390320  0.890320  1.0  0.064
  C  C618  1  0.537150  0.765170  0.265170  1.0  -0.0224
  C  C619  1  0.578320  0.781970  0.281970  1.0  0.0818
  C  C620  1  0.533960  0.890320  0.390320  1.0  0.064
  C  C621  1  0.037150  0.734830  0.734830  1.0  -0.0222
  C  C622  1  0.078320  0.718030  0.718030  1.0  0.0837
  C  C623  1  0.033960  0.609680  0.609680  1.0  0.0634
  C  C624  1  0.037150  0.234830  0.234830  1.0  -0.0222
  C  C625  1  0.078320  0.218030  0.218030  1.0  0.0837
  C  C626  1  0.033960  0.109680  0.109680  1.0  0.0634
  C  C627  1  0.537150  0.734830  0.234830  1.0  -0.0222
  C  C628  1  0.578320  0.718030  0.218030  1.0  0.0837
  C  C629  1  0.533960  0.609680  0.109680  1.0  0.0634
  C  C630  1  0.537150  0.234830  0.734830  1.0  -0.0222
  C  C631  1  0.578320  0.218030  0.718030  1.0  0.0837
  C  C632  1  0.533960  0.109680  0.609680  1.0  0.0634
  N  N633  1  0.418540  0.418540  0.979010  1.0  -0.2079
  N  N634  1  0.418540  0.918540  0.479010  1.0  -0.2079
  N  N635  1  0.918540  0.418540  0.479010  1.0  -0.2079
  N  N636  1  0.918540  0.918540  0.979010  1.0  -0.2079
  N  N637  1  0.581460  0.581460  0.979010  1.0  -0.2052
  N  N638  1  0.581460  0.081460  0.479010  1.0  -0.2052
  N  N639  1  0.081460  0.581460  0.479010  1.0  -0.2052
  N  N640  1  0.081460  0.081460  0.979010  1.0  -0.2052
  N  N641  1  0.581460  0.418540  0.020990  1.0  -0.2062
  N  N642  1  0.581460  0.918540  0.520990  1.0  -0.2062
  N  N643  1  0.081460  0.418540  0.520990  1.0  -0.2062
  N  N644  1  0.081460  0.918540  0.020990  1.0  -0.2062
  N  N645  1  0.418540  0.581460  0.020990  1.0  -0.2057
  N  N646  1  0.418540  0.081460  0.520990  1.0  -0.2057
  N  N647  1  0.918540  0.581460  0.520990  1.0  -0.2057
  N  N648  1  0.918540  0.081460  0.020990  1.0  -0.2057
  N  N649  1  0.979010  0.418540  0.418540  1.0  -0.2065
  N  N650  1  0.979010  0.918540  0.918540  1.0  -0.2065
  N  N651  1  0.479010  0.418540  0.918540  1.0  -0.2065
  N  N652  1  0.479010  0.918540  0.418540  1.0  -0.2065
  N  N653  1  0.979010  0.581460  0.581460  1.0  -0.2043
  N  N654  1  0.979010  0.081460  0.081460  1.0  -0.2043
  N  N655  1  0.479010  0.581460  0.081460  1.0  -0.2043
  N  N656  1  0.479010  0.081460  0.581460  1.0  -0.2043
  N  N657  1  0.020990  0.581460  0.418540  1.0  -0.2046
  N  N658  1  0.020990  0.081460  0.918540  1.0  -0.2046
  N  N659  1  0.520990  0.581460  0.918540  1.0  -0.2046
  N  N660  1  0.520990  0.081460  0.418540  1.0  -0.2046
  N  N661  1  0.020990  0.418540  0.581460  1.0  -0.2077
  N  N662  1  0.020990  0.918540  0.081460  1.0  -0.2077
  N  N663  1  0.520990  0.418540  0.081460  1.0  -0.2077
  N  N664  1  0.520990  0.918540  0.581460  1.0  -0.2077
  N  N665  1  0.418540  0.979010  0.418540  1.0  -0.2031
  N  N666  1  0.418540  0.479010  0.918540  1.0  -0.2031
  N  N667  1  0.918540  0.979010  0.918540  1.0  -0.2031
  N  N668  1  0.918540  0.479010  0.418540  1.0  -0.2031
  N  N669  1  0.581460  0.979010  0.581460  1.0  -0.2029
  N  N670  1  0.581460  0.479010  0.081460  1.0  -0.2029
  N  N671  1  0.081460  0.979010  0.081460  1.0  -0.2029
  N  N672  1  0.081460  0.479010  0.581460  1.0  -0.2029
  N  N673  1  0.418540  0.020990  0.581460  1.0  -0.2048
  N  N674  1  0.418540  0.520990  0.081460  1.0  -0.2048
  N  N675  1  0.918540  0.020990  0.081460  1.0  -0.2048
  N  N676  1  0.918540  0.520990  0.581460  1.0  -0.2048
  N  N677  1  0.581460  0.020990  0.418540  1.0  -0.2021
  N  N678  1  0.581460  0.520990  0.918540  1.0  -0.2021
  N  N679  1  0.081460  0.020990  0.918540  1.0  -0.2021
  N  N680  1  0.081460  0.520990  0.418540  1.0  -0.2021
  N  N681  1  0.418540  0.418540  0.020990  1.0  -0.2063
  N  N682  1  0.418540  0.918540  0.520990  1.0  -0.2063
  N  N683  1  0.918540  0.418540  0.520990  1.0  -0.2063
  N  N684  1  0.918540  0.918540  0.020990  1.0  -0.2063
  N  N685  1  0.581460  0.581460  0.020990  1.0  -0.2046
  N  N686  1  0.581460  0.081460  0.520990  1.0  -0.2046
  N  N687  1  0.081460  0.581460  0.520990  1.0  -0.2046
  N  N688  1  0.081460  0.081460  0.020990  1.0  -0.2046
  N  N689  1  0.418540  0.581460  0.979010  1.0  -0.2071
  N  N690  1  0.418540  0.081460  0.479010  1.0  -0.2071
  N  N691  1  0.918540  0.581460  0.479010  1.0  -0.2071
  N  N692  1  0.918540  0.081460  0.979010  1.0  -0.2071
  N  N693  1  0.581460  0.418540  0.979010  1.0  -0.2064
  N  N694  1  0.581460  0.918540  0.479010  1.0  -0.2064
  N  N695  1  0.081460  0.418540  0.479010  1.0  -0.2064
  N  N696  1  0.081460  0.918540  0.979010  1.0  -0.2064
  N  N697  1  0.418540  0.979010  0.581460  1.0  -0.2053
  N  N698  1  0.418540  0.479010  0.081460  1.0  -0.2053
  N  N699  1  0.918540  0.979010  0.081460  1.0  -0.2053
  N  N700  1  0.918540  0.479010  0.581460  1.0  -0.2053
  N  N701  1  0.581460  0.979010  0.418540  1.0  -0.203
  N  N702  1  0.581460  0.479010  0.918540  1.0  -0.203
  N  N703  1  0.081460  0.979010  0.918540  1.0  -0.203
  N  N704  1  0.081460  0.479010  0.418540  1.0  -0.203
  N  N705  1  0.581460  0.020990  0.581460  1.0  -0.2023
  N  N706  1  0.581460  0.520990  0.081460  1.0  -0.2023
  N  N707  1  0.081460  0.020990  0.081460  1.0  -0.2023
  N  N708  1  0.081460  0.520990  0.581460  1.0  -0.2023
  N  N709  1  0.418540  0.020990  0.418540  1.0  -0.2023
  N  N710  1  0.418540  0.520990  0.918540  1.0  -0.2023
  N  N711  1  0.918540  0.020990  0.918540  1.0  -0.2023
  N  N712  1  0.918540  0.520990  0.418540  1.0  -0.2023
  N  N713  1  0.979010  0.418540  0.581460  1.0  -0.2062
  N  N714  1  0.979010  0.918540  0.081460  1.0  -0.2062
  N  N715  1  0.479010  0.418540  0.081460  1.0  -0.2062
  N  N716  1  0.479010  0.918540  0.581460  1.0  -0.2062
  N  N717  1  0.979010  0.581460  0.418540  1.0  -0.2037
  N  N718  1  0.979010  0.081460  0.918540  1.0  -0.2037
  N  N719  1  0.479010  0.581460  0.918540  1.0  -0.2037
  N  N720  1  0.479010  0.081460  0.418540  1.0  -0.2037
  N  N721  1  0.020990  0.418540  0.418540  1.0  -0.2064
  N  N722  1  0.020990  0.918540  0.918540  1.0  -0.2064
  N  N723  1  0.520990  0.418540  0.918540  1.0  -0.2064
  N  N724  1  0.520990  0.918540  0.418540  1.0  -0.2064
  N  N725  1  0.020990  0.581460  0.581460  1.0  -0.2062
  N  N726  1  0.020990  0.081460  0.081460  1.0  -0.2062
  N  N727  1  0.520990  0.581460  0.081460  1.0  -0.2062
  N  N728  1  0.520990  0.081460  0.581460  1.0  -0.2062
  O  O729  1  0.047070  0.000000  0.000000  1.0  -0.6254
  O  O730  1  0.047070  0.500000  0.500000  1.0  -0.6254
  O  O731  1  0.547070  0.000000  0.500000  1.0  -0.6254
  O  O732  1  0.547070  0.500000  0.000000  1.0  -0.6254
  O  O733  1  0.952930  0.000000  0.000000  1.0  -0.6265
  O  O734  1  0.952930  0.500000  0.500000  1.0  -0.6265
  O  O735  1  0.452930  0.000000  0.500000  1.0  -0.6265
  O  O736  1  0.452930  0.500000  0.000000  1.0  -0.6265
  O  O737  1  0.000000  0.047070  0.000000  1.0  -0.6227
  O  O738  1  0.000000  0.547070  0.500000  1.0  -0.6227
  O  O739  1  0.500000  0.047070  0.500000  1.0  -0.6227
  O  O740  1  0.500000  0.547070  0.000000  1.0  -0.6227
  O  O741  1  0.000000  0.952930  0.000000  1.0  -0.6266
  O  O742  1  0.000000  0.452930  0.500000  1.0  -0.6266
  O  O743  1  0.500000  0.952930  0.500000  1.0  -0.6266
  O  O744  1  0.500000  0.452930  0.000000  1.0  -0.6266
  O  O745  1  0.000000  0.000000  0.047070  1.0  -0.6302
  O  O746  1  0.000000  0.500000  0.547070  1.0  -0.6302
  O  O747  1  0.500000  0.000000  0.547070  1.0  -0.6302
  O  O748  1  0.500000  0.500000  0.047070  1.0  -0.6302
  O  O749  1  0.000000  0.000000  0.952930  1.0  -0.6262
  O  O750  1  0.000000  0.500000  0.452930  1.0  -0.6262
  O  O751  1  0.500000  0.000000  0.452930  1.0  -0.6262
  O  O752  1  0.500000  0.500000  0.952930  1.0  -0.6262
  F  F753  1  0.315700  0.260210  0.910510  1.0  -0.0655
  F  F754  1  0.252740  0.278360  0.892220  1.0  -0.0706
  F  F755  1  0.292230  0.322100  0.926200  1.0  -0.0108
  F  F756  1  0.315700  0.760210  0.410510  1.0  -0.0655
  F  F757  1  0.252740  0.778360  0.392220  1.0  -0.0704
  F  F758  1  0.292230  0.822100  0.426200  1.0  -0.0108
  F  F759  1  0.815700  0.260210  0.410510  1.0  -0.0655
  F  F760  1  0.752740  0.278360  0.392220  1.0  -0.0706
  F  F761  1  0.792230  0.322100  0.426200  1.0  -0.0108
  F  F762  1  0.815700  0.760210  0.910510  1.0  -0.0655
  F  F763  1  0.752740  0.778360  0.892220  1.0  -0.0704
  F  F764  1  0.792230  0.822100  0.926200  1.0  -0.0108
  F  F765  1  0.684300  0.739790  0.910510  1.0  -0.0583
  F  F766  1  0.747260  0.721640  0.892220  1.0  -0.0745
  F  F767  1  0.707770  0.677900  0.926200  1.0  -0.0076
  F  F768  1  0.684300  0.239790  0.410510  1.0  -0.0583
  F  F769  1  0.747260  0.221640  0.392220  1.0  -0.0747
  F  F770  1  0.707770  0.177900  0.426200  1.0  -0.0076
  F  F771  1  0.184300  0.739790  0.410510  1.0  -0.0583
  F  F772  1  0.247260  0.721640  0.392220  1.0  -0.0745
  F  F773  1  0.207770  0.677900  0.426200  1.0  -0.0076
  F  F774  1  0.184300  0.239790  0.910510  1.0  -0.0583
  F  F775  1  0.247260  0.221640  0.892220  1.0  -0.0747
  F  F776  1  0.207770  0.177900  0.926200  1.0  -0.0076
  F  F777  1  0.684300  0.260210  0.089490  1.0  -0.0568
  F  F778  1  0.747260  0.278360  0.107780  1.0  -0.0746
  F  F779  1  0.707770  0.322100  0.073800  1.0  -0.0084
  F  F780  1  0.684300  0.760210  0.589490  1.0  -0.0568
  F  F781  1  0.747260  0.778360  0.607780  1.0  -0.0755
  F  F782  1  0.707770  0.822100  0.573800  1.0  -0.0084
  F  F783  1  0.184300  0.260210  0.589490  1.0  -0.0568
  F  F784  1  0.247260  0.278360  0.607780  1.0  -0.0746
  F  F785  1  0.207770  0.322100  0.573800  1.0  -0.0084
  F  F786  1  0.184300  0.760210  0.089490  1.0  -0.0568
  F  F787  1  0.247260  0.778360  0.107780  1.0  -0.0755
  F  F788  1  0.207770  0.822100  0.073800  1.0  -0.0084
  F  F789  1  0.315700  0.739790  0.089490  1.0  -0.0649
  F  F790  1  0.252740  0.721640  0.107780  1.0  -0.0739
  F  F791  1  0.292230  0.677900  0.073800  1.0  -0.0074
  F  F792  1  0.315700  0.239790  0.589490  1.0  -0.0649
  F  F793  1  0.252740  0.221640  0.607780  1.0  -0.0739
  F  F794  1  0.292230  0.177900  0.573800  1.0  -0.0074
  F  F795  1  0.815700  0.739790  0.589490  1.0  -0.0649
  F  F796  1  0.752740  0.721640  0.607780  1.0  -0.0739
  F  F797  1  0.792230  0.677900  0.573800  1.0  -0.0074
  F  F798  1  0.815700  0.239790  0.089490  1.0  -0.0649
  F  F799  1  0.752740  0.221640  0.107780  1.0  -0.0739
  F  F800  1  0.792230  0.177900  0.073800  1.0  -0.0074
  F  F801  1  0.910510  0.315700  0.260210  1.0  -0.0715
  F  F802  1  0.892220  0.252740  0.278360  1.0  -0.0645
  F  F803  1  0.926200  0.292230  0.322100  1.0  -0.012
  F  F804  1  0.910510  0.815700  0.760210  1.0  -0.0715
  F  F805  1  0.892220  0.752740  0.778360  1.0  -0.0645
  F  F806  1  0.926200  0.792230  0.822100  1.0  -0.012
  F  F807  1  0.410510  0.315700  0.760210  1.0  -0.0715
  F  F808  1  0.392220  0.252740  0.778360  1.0  -0.0645
  F  F809  1  0.426200  0.292230  0.822100  1.0  -0.012
  F  F810  1  0.410510  0.815700  0.260210  1.0  -0.0715
  F  F811  1  0.392220  0.752740  0.278360  1.0  -0.0645
  F  F812  1  0.426200  0.792230  0.322100  1.0  -0.012
  F  F813  1  0.910510  0.684300  0.739790  1.0  -0.0688
  F  F814  1  0.892220  0.747260  0.721640  1.0  -0.0621
  F  F815  1  0.926200  0.707770  0.677900  1.0  -0.0132
  F  F816  1  0.910510  0.184300  0.239790  1.0  -0.0688
  F  F817  1  0.892220  0.247260  0.221640  1.0  -0.0619
  F  F818  1  0.926200  0.207770  0.177900  1.0  -0.0132
  F  F819  1  0.410510  0.684300  0.239790  1.0  -0.0688
  F  F820  1  0.392220  0.747260  0.221640  1.0  -0.0619
  F  F821  1  0.426200  0.707770  0.177900  1.0  -0.0132
  F  F822  1  0.410510  0.184300  0.739790  1.0  -0.0688
  F  F823  1  0.392220  0.247260  0.721640  1.0  -0.0621
  F  F824  1  0.426200  0.207770  0.677900  1.0  -0.0132
  F  F825  1  0.089490  0.684300  0.260210  1.0  -0.0713
  F  F826  1  0.107780  0.747260  0.278360  1.0  -0.0734
  F  F827  1  0.073800  0.707770  0.322100  1.0  -0.0108
  F  F828  1  0.089490  0.184300  0.760210  1.0  -0.0713
  F  F829  1  0.107780  0.247260  0.778360  1.0  -0.0746
  F  F830  1  0.073800  0.207770  0.822100  1.0  -0.0108
  F  F831  1  0.589490  0.684300  0.760210  1.0  -0.0713
  F  F832  1  0.607780  0.747260  0.778360  1.0  -0.0746
  F  F833  1  0.573800  0.707770  0.822100  1.0  -0.0108
  F  F834  1  0.589490  0.184300  0.260210  1.0  -0.0713
  F  F835  1  0.607780  0.247260  0.278360  1.0  -0.0746
  F  F836  1  0.573800  0.207770  0.322100  1.0  -0.0108
  F  F837  1  0.089490  0.315700  0.739790  1.0  -0.0672
  F  F838  1  0.107780  0.252740  0.721640  1.0  -0.0731
  F  F839  1  0.073800  0.292230  0.677900  1.0  -0.0138
  F  F840  1  0.089490  0.815700  0.239790  1.0  -0.0672
  F  F841  1  0.107780  0.752740  0.221640  1.0  -0.0731
  F  F842  1  0.073800  0.792230  0.177900  1.0  -0.0138
  F  F843  1  0.589490  0.315700  0.239790  1.0  -0.0672
  F  F844  1  0.607780  0.252740  0.221640  1.0  -0.0731
  F  F845  1  0.573800  0.292230  0.177900  1.0  -0.0138
  F  F846  1  0.589490  0.815700  0.739790  1.0  -0.0672
  F  F847  1  0.607780  0.752740  0.721640  1.0  -0.0731
  F  F848  1  0.573800  0.792230  0.677900  1.0  -0.0138
  F  F849  1  0.260210  0.910510  0.315700  1.0  -0.064
  F  F850  1  0.278360  0.892220  0.252740  1.0  -0.0754
  F  F851  1  0.322100  0.926200  0.292230  1.0  -0.0083
  F  F852  1  0.260210  0.410510  0.815700  1.0  -0.064
  F  F853  1  0.278360  0.392220  0.752740  1.0  -0.0748
  F  F854  1  0.322100  0.426200  0.792230  1.0  -0.0083
  F  F855  1  0.760210  0.910510  0.815700  1.0  -0.064
  F  F856  1  0.778360  0.892220  0.752740  1.0  -0.0754
  F  F857  1  0.822100  0.926200  0.792230  1.0  -0.0083
  F  F858  1  0.760210  0.410510  0.315700  1.0  -0.064
  F  F859  1  0.778360  0.392220  0.252740  1.0  -0.0754
  F  F860  1  0.822100  0.426200  0.292230  1.0  -0.0083
  F  F861  1  0.739790  0.910510  0.684300  1.0  -0.0661
  F  F862  1  0.721640  0.892220  0.747260  1.0  -0.0647
  F  F863  1  0.677900  0.926200  0.707770  1.0  -0.0007
  F  F864  1  0.739790  0.410510  0.184300  1.0  -0.0661
  F  F865  1  0.721640  0.392220  0.247260  1.0  -0.0647
  F  F866  1  0.677900  0.426200  0.207770  1.0  -0.0007
  F  F867  1  0.239790  0.910510  0.184300  1.0  -0.0661
  F  F868  1  0.221640  0.892220  0.247260  1.0  -0.0647
  F  F869  1  0.177900  0.926200  0.207770  1.0  -0.0007
  F  F870  1  0.239790  0.410510  0.684300  1.0  -0.0661
  F  F871  1  0.221640  0.392220  0.747260  1.0  -0.0647
  F  F872  1  0.177900  0.426200  0.707770  1.0  -0.0007
  F  F873  1  0.260210  0.089490  0.684300  1.0  -0.066
  F  F874  1  0.278360  0.107780  0.747260  1.0  -0.0776
  F  F875  1  0.322100  0.073800  0.707770  1.0  -0.008
  F  F876  1  0.260210  0.589490  0.184300  1.0  -0.066
  F  F877  1  0.278360  0.607780  0.247260  1.0  -0.0773
  F  F878  1  0.322100  0.573800  0.207770  1.0  -0.008
  F  F879  1  0.760210  0.089490  0.184300  1.0  -0.066
  F  F880  1  0.778360  0.107780  0.247260  1.0  -0.0773
  F  F881  1  0.822100  0.073800  0.207770  1.0  -0.008
  F  F882  1  0.760210  0.589490  0.684300  1.0  -0.066
  F  F883  1  0.778360  0.607780  0.747260  1.0  -0.0773
  F  F884  1  0.822100  0.573800  0.707770  1.0  -0.008
  F  F885  1  0.739790  0.089490  0.315700  1.0  -0.0666
  F  F886  1  0.721640  0.107780  0.252740  1.0  -0.0648
  F  F887  1  0.677900  0.073800  0.292230  1.0  -0.0007
  F  F888  1  0.739790  0.589490  0.815700  1.0  -0.0666
  F  F889  1  0.721640  0.607780  0.752740  1.0  -0.0648
  F  F890  1  0.677900  0.573800  0.792230  1.0  -0.0007
  F  F891  1  0.239790  0.089490  0.815700  1.0  -0.0666
  F  F892  1  0.221640  0.107780  0.752740  1.0  -0.0651
  F  F893  1  0.177900  0.073800  0.792230  1.0  -0.0007
  F  F894  1  0.239790  0.589490  0.315700  1.0  -0.0666
  F  F895  1  0.221640  0.607780  0.252740  1.0  -0.0648
  F  F896  1  0.177900  0.573800  0.292230  1.0  -0.0007
  F  F897  1  0.260210  0.315700  0.089490  1.0  -0.0656
  F  F898  1  0.278360  0.252740  0.107780  1.0  -0.0734
  F  F899  1  0.322100  0.292230  0.073800  1.0  -0.0079
  F  F900  1  0.260210  0.815700  0.589490  1.0  -0.0656
  F  F901  1  0.278360  0.752740  0.607780  1.0  -0.0736
  F  F902  1  0.322100  0.792230  0.573800  1.0  -0.0079
  F  F903  1  0.760210  0.315700  0.589490  1.0  -0.0656
  F  F904  1  0.778360  0.252740  0.607780  1.0  -0.0734
  F  F905  1  0.822100  0.292230  0.573800  1.0  -0.0079
  F  F906  1  0.760210  0.815700  0.089490  1.0  -0.0656
  F  F907  1  0.778360  0.752740  0.107780  1.0  -0.0734
  F  F908  1  0.822100  0.792230  0.073800  1.0  -0.0079
  F  F909  1  0.739790  0.684300  0.089490  1.0  -0.0664
  F  F910  1  0.721640  0.747260  0.107780  1.0  -0.0631
  F  F911  1  0.677900  0.707770  0.073800  1.0  -0.0002
  F  F912  1  0.739790  0.184300  0.589490  1.0  -0.0664
  F  F913  1  0.721640  0.247260  0.607780  1.0  -0.0631
  F  F914  1  0.677900  0.207770  0.573800  1.0  -0.0002
  F  F915  1  0.239790  0.684300  0.589490  1.0  -0.0664
  F  F916  1  0.221640  0.747260  0.607780  1.0  -0.0633
  F  F917  1  0.177900  0.707770  0.573800  1.0  -0.0002
  F  F918  1  0.239790  0.184300  0.089490  1.0  -0.0664
  F  F919  1  0.221640  0.247260  0.107780  1.0  -0.0631
  F  F920  1  0.177900  0.207770  0.073800  1.0  -0.0002
  F  F921  1  0.260210  0.684300  0.910510  1.0  -0.0666
  F  F922  1  0.278360  0.747260  0.892220  1.0  -0.0725
  F  F923  1  0.322100  0.707770  0.926200  1.0  -0.008
  F  F924  1  0.260210  0.184300  0.410510  1.0  -0.0666
  F  F925  1  0.278360  0.247260  0.392220  1.0  -0.0734
  F  F926  1  0.322100  0.207770  0.426200  1.0  -0.008
  F  F927  1  0.760210  0.684300  0.410510  1.0  -0.0666
  F  F928  1  0.778360  0.747260  0.392220  1.0  -0.0734
  F  F929  1  0.822100  0.707770  0.426200  1.0  -0.008
  F  F930  1  0.760210  0.184300  0.910510  1.0  -0.0666
  F  F931  1  0.778360  0.247260  0.892220  1.0  -0.0734
  F  F932  1  0.822100  0.207770  0.926200  1.0  -0.008
  F  F933  1  0.739790  0.315700  0.910510  1.0  -0.069
  F  F934  1  0.721640  0.252740  0.892220  1.0  -0.0617
  F  F935  1  0.677900  0.292230  0.926200  1.0  -0.0026
  F  F936  1  0.739790  0.815700  0.410510  1.0  -0.069
  F  F937  1  0.721640  0.752740  0.392220  1.0  -0.0617
  F  F938  1  0.677900  0.792230  0.426200  1.0  -0.0026
  F  F939  1  0.239790  0.315700  0.410510  1.0  -0.069
  F  F940  1  0.221640  0.252740  0.392220  1.0  -0.0617
  F  F941  1  0.177900  0.292230  0.426200  1.0  -0.0026
  F  F942  1  0.239790  0.815700  0.910510  1.0  -0.069
  F  F943  1  0.221640  0.752740  0.892220  1.0  -0.0617
  F  F944  1  0.177900  0.792230  0.926200  1.0  -0.0026
  F  F945  1  0.315700  0.910510  0.739790  1.0  -0.0646
  F  F946  1  0.252740  0.892220  0.721640  1.0  -0.0725
  F  F947  1  0.292230  0.926200  0.677900  1.0  -0.0115
  F  F948  1  0.315700  0.410510  0.239790  1.0  -0.0646
  F  F949  1  0.252740  0.392220  0.221640  1.0  -0.0725
  F  F950  1  0.292230  0.426200  0.177900  1.0  -0.0115
  F  F951  1  0.815700  0.910510  0.239790  1.0  -0.0646
  F  F952  1  0.752740  0.892220  0.221640  1.0  -0.0729
  F  F953  1  0.792230  0.926200  0.177900  1.0  -0.0115
  F  F954  1  0.815700  0.410510  0.739790  1.0  -0.0646
  F  F955  1  0.752740  0.392220  0.721640  1.0  -0.0725
  F  F956  1  0.792230  0.426200  0.677900  1.0  -0.0115
  F  F957  1  0.684300  0.910510  0.260210  1.0  -0.0609
  F  F958  1  0.747260  0.892220  0.278360  1.0  -0.0736
  F  F959  1  0.707770  0.926200  0.322100  1.0  -0.0075
  F  F960  1  0.684300  0.410510  0.760210  1.0  -0.0609
  F  F961  1  0.747260  0.392220  0.778360  1.0  -0.0729
  F  F962  1  0.707770  0.426200  0.822100  1.0  -0.0075
  F  F963  1  0.184300  0.910510  0.760210  1.0  -0.0609
  F  F964  1  0.247260  0.892220  0.778360  1.0  -0.0729
  F  F965  1  0.207770  0.926200  0.822100  1.0  -0.0075
  F  F966  1  0.184300  0.410510  0.260210  1.0  -0.0609
  F  F967  1  0.247260  0.392220  0.278360  1.0  -0.0729
  F  F968  1  0.207770  0.426200  0.322100  1.0  -0.0075
  F  F969  1  0.684300  0.089490  0.739790  1.0  -0.0573
  F  F970  1  0.747260  0.107780  0.721640  1.0  -0.0756
  F  F971  1  0.707770  0.073800  0.677900  1.0  -0.0093
  F  F972  1  0.684300  0.589490  0.239790  1.0  -0.0573
  F  F973  1  0.747260  0.607780  0.221640  1.0  -0.0751
  F  F974  1  0.707770  0.573800  0.177900  1.0  -0.0093
  F  F975  1  0.184300  0.089490  0.239790  1.0  -0.0573
  F  F976  1  0.247260  0.107780  0.221640  1.0  -0.0751
  F  F977  1  0.207770  0.073800  0.177900  1.0  -0.0093
  F  F978  1  0.184300  0.589490  0.739790  1.0  -0.0573
  F  F979  1  0.247260  0.607780  0.721640  1.0  -0.0756
  F  F980  1  0.207770  0.573800  0.677900  1.0  -0.0093
  F  F981  1  0.315700  0.089490  0.260210  1.0  -0.0708
  F  F982  1  0.252740  0.107780  0.278360  1.0  -0.0759
  F  F983  1  0.292230  0.073800  0.322100  1.0  -0.0083
  F  F984  1  0.315700  0.589490  0.760210  1.0  -0.0708
  F  F985  1  0.252740  0.607780  0.778360  1.0  -0.0759
  F  F986  1  0.292230  0.573800  0.822100  1.0  -0.0083
  F  F987  1  0.815700  0.089490  0.760210  1.0  -0.0708
  F  F988  1  0.752740  0.107780  0.778360  1.0  -0.0759
  F  F989  1  0.792230  0.073800  0.822100  1.0  -0.0083
  F  F990  1  0.815700  0.589490  0.260210  1.0  -0.0708
  F  F991  1  0.752740  0.607780  0.278360  1.0  -0.0759
  F  F992  1  0.792230  0.573800  0.322100  1.0  -0.0083
  F  F993  1  0.910510  0.260210  0.684300  1.0  -0.0656
  F  F994  1  0.892220  0.278360  0.747260  1.0  -0.0654
  F  F995  1  0.926200  0.322100  0.707770  1.0  -0.0132
  F  F996  1  0.910510  0.760210  0.184300  1.0  -0.0656
  F  F997  1  0.892220  0.778360  0.247260  1.0  -0.0673
  F  F998  1  0.926200  0.822100  0.207770  1.0  -0.0132
  F  F999  1  0.410510  0.260210  0.184300  1.0  -0.0656
  F  F1000  1  0.392220  0.278360  0.247260  1.0  -0.0654
  F  F1001  1  0.426200  0.322100  0.207770  1.0  -0.0132
  F  F1002  1  0.410510  0.760210  0.684300  1.0  -0.0656
  F  F1003  1  0.392220  0.778360  0.747260  1.0  -0.0673
  F  F1004  1  0.426200  0.822100  0.707770  1.0  -0.0132
  F  F1005  1  0.910510  0.739790  0.315700  1.0  -0.0662
  F  F1006  1  0.892220  0.721640  0.252740  1.0  -0.0663
  F  F1007  1  0.926200  0.677900  0.292230  1.0  -0.01
  F  F1008  1  0.910510  0.239790  0.815700  1.0  -0.0662
  F  F1009  1  0.892220  0.221640  0.752740  1.0  -0.0663
  F  F1010  1  0.926200  0.177900  0.792230  1.0  -0.01
  F  F1011  1  0.410510  0.739790  0.815700  1.0  -0.0662
  F  F1012  1  0.392220  0.721640  0.752740  1.0  -0.0663
  F  F1013  1  0.426200  0.677900  0.792230  1.0  -0.01
  F  F1014  1  0.410510  0.239790  0.315700  1.0  -0.0662
  F  F1015  1  0.392220  0.221640  0.252740  1.0  -0.0663
  F  F1016  1  0.426200  0.177900  0.292230  1.0  -0.01
  F  F1017  1  0.089490  0.260210  0.315700  1.0  -0.066
  F  F1018  1  0.107780  0.278360  0.252740  1.0  -0.0761
  F  F1019  1  0.073800  0.322100  0.292230  1.0  -0.0127
  F  F1020  1  0.089490  0.760210  0.815700  1.0  -0.066
  F  F1021  1  0.107780  0.778360  0.752740  1.0  -0.0761
  F  F1022  1  0.073800  0.822100  0.792230  1.0  -0.0127
  F  F1023  1  0.589490  0.260210  0.815700  1.0  -0.066
  F  F1024  1  0.607780  0.278360  0.752740  1.0  -0.0763
  F  F1025  1  0.573800  0.322100  0.792230  1.0  -0.0127
  F  F1026  1  0.589490  0.760210  0.315700  1.0  -0.066
  F  F1027  1  0.607780  0.778360  0.252740  1.0  -0.0761
  F  F1028  1  0.573800  0.822100  0.292230  1.0  -0.0127
  F  F1029  1  0.089490  0.739790  0.684300  1.0  -0.0691
  F  F1030  1  0.107780  0.721640  0.747260  1.0  -0.0739
  F  F1031  1  0.073800  0.677900  0.707770  1.0  -0.0113
  F  F1032  1  0.089490  0.239790  0.184300  1.0  -0.0691
  F  F1033  1  0.107780  0.221640  0.247260  1.0  -0.0739
  F  F1034  1  0.073800  0.177900  0.207770  1.0  -0.0113
  F  F1035  1  0.589490  0.739790  0.184300  1.0  -0.0691
  F  F1036  1  0.607780  0.721640  0.247260  1.0  -0.0739
  F  F1037  1  0.573800  0.677900  0.207770  1.0  -0.0113
  F  F1038  1  0.589490  0.239790  0.684300  1.0  -0.0691
  F  F1039  1  0.607780  0.221640  0.747260  1.0  -0.0737
  F  F1040  1  0.573800  0.177900  0.707770  1.0  -0.0113
  F  F1041  1  0.684300  0.739790  0.089490  1.0  -0.0576
  F  F1042  1  0.747260  0.721640  0.107780  1.0  -0.0732
  F  F1043  1  0.707770  0.677900  0.073800  1.0  -0.0061
  F  F1044  1  0.684300  0.239790  0.589490  1.0  -0.0576
  F  F1045  1  0.747260  0.221640  0.607780  1.0  -0.0732
  F  F1046  1  0.707770  0.177900  0.573800  1.0  -0.0061
  F  F1047  1  0.184300  0.739790  0.589490  1.0  -0.0576
  F  F1048  1  0.247260  0.721640  0.607780  1.0  -0.0732
  F  F1049  1  0.207770  0.677900  0.573800  1.0  -0.0061
  F  F1050  1  0.184300  0.239790  0.089490  1.0  -0.0576
  F  F1051  1  0.247260  0.221640  0.107780  1.0  -0.0732
  F  F1052  1  0.207770  0.177900  0.073800  1.0  -0.0061
  F  F1053  1  0.315700  0.260210  0.089490  1.0  -0.0646
  F  F1054  1  0.252740  0.278360  0.107780  1.0  -0.0733
  F  F1055  1  0.292230  0.322100  0.073800  1.0  -0.0105
  F  F1056  1  0.315700  0.760210  0.589490  1.0  -0.0646
  F  F1057  1  0.252740  0.778360  0.607780  1.0  -0.0746
  F  F1058  1  0.292230  0.822100  0.573800  1.0  -0.0105
  F  F1059  1  0.815700  0.260210  0.589490  1.0  -0.0646
  F  F1060  1  0.752740  0.278360  0.607780  1.0  -0.0733
  F  F1061  1  0.792230  0.322100  0.573800  1.0  -0.0105
  F  F1062  1  0.815700  0.760210  0.089490  1.0  -0.0646
  F  F1063  1  0.752740  0.778360  0.107780  1.0  -0.0746
  F  F1064  1  0.792230  0.822100  0.073800  1.0  -0.0105
  F  F1065  1  0.315700  0.739790  0.910510  1.0  -0.0664
  F  F1066  1  0.252740  0.721640  0.892220  1.0  -0.0728
  F  F1067  1  0.292230  0.677900  0.926200  1.0  -0.0087
  F  F1068  1  0.315700  0.239790  0.410510  1.0  -0.0664
  F  F1069  1  0.252740  0.221640  0.392220  1.0  -0.0715
  F  F1070  1  0.292230  0.177900  0.426200  1.0  -0.0087
  F  F1071  1  0.815700  0.739790  0.410510  1.0  -0.0664
  F  F1072  1  0.752740  0.721640  0.392220  1.0  -0.0728
  F  F1073  1  0.792230  0.677900  0.426200  1.0  -0.0087
  F  F1074  1  0.815700  0.239790  0.910510  1.0  -0.0664
  F  F1075  1  0.752740  0.221640  0.892220  1.0  -0.0715
  F  F1076  1  0.792230  0.177900  0.926200  1.0  -0.0087
  F  F1077  1  0.684300  0.260210  0.910510  1.0  -0.0575
  F  F1078  1  0.747260  0.278360  0.892220  1.0  -0.0735
  F  F1079  1  0.707770  0.322100  0.926200  1.0  -0.0094
  F  F1080  1  0.684300  0.760210  0.410510  1.0  -0.0575
  F  F1081  1  0.747260  0.778360  0.392220  1.0  -0.0747
  F  F1082  1  0.707770  0.822100  0.426200  1.0  -0.0094
  F  F1083  1  0.184300  0.260210  0.410510  1.0  -0.0575
  F  F1084  1  0.247260  0.278360  0.392220  1.0  -0.0735
  F  F1085  1  0.207770  0.322100  0.426200  1.0  -0.0094
  F  F1086  1  0.184300  0.760210  0.910510  1.0  -0.0575
  F  F1087  1  0.247260  0.778360  0.892220  1.0  -0.0747
  F  F1088  1  0.207770  0.822100  0.926200  1.0  -0.0094
  F  F1089  1  0.089490  0.684300  0.739790  1.0  -0.0679
  F  F1090  1  0.107780  0.747260  0.721640  1.0  -0.0729
  F  F1091  1  0.073800  0.707770  0.677900  1.0  -0.0132
  F  F1092  1  0.089490  0.184300  0.239790  1.0  -0.0679
  F  F1093  1  0.107780  0.247260  0.221640  1.0  -0.0729
  F  F1094  1  0.073800  0.207770  0.177900  1.0  -0.0132
  F  F1095  1  0.589490  0.684300  0.239790  1.0  -0.0679
  F  F1096  1  0.607780  0.747260  0.221640  1.0  -0.0729
  F  F1097  1  0.573800  0.707770  0.177900  1.0  -0.0132
  F  F1098  1  0.589490  0.184300  0.739790  1.0  -0.0679
  F  F1099  1  0.607780  0.247260  0.721640  1.0  -0.0729
  F  F1100  1  0.573800  0.207770  0.677900  1.0  -0.0132
  F  F1101  1  0.089490  0.315700  0.260210  1.0  -0.073
  F  F1102  1  0.107780  0.252740  0.278360  1.0  -0.0727
  F  F1103  1  0.073800  0.292230  0.322100  1.0  -0.013
  F  F1104  1  0.089490  0.815700  0.760210  1.0  -0.073
  F  F1105  1  0.107780  0.752740  0.778360  1.0  -0.0727
  F  F1106  1  0.073800  0.792230  0.822100  1.0  -0.013
  F  F1107  1  0.589490  0.315700  0.760210  1.0  -0.073
  F  F1108  1  0.607780  0.252740  0.778360  1.0  -0.0727
  F  F1109  1  0.573800  0.292230  0.822100  1.0  -0.013
  F  F1110  1  0.589490  0.815700  0.260210  1.0  -0.073
  F  F1111  1  0.607780  0.752740  0.278360  1.0  -0.0719
  F  F1112  1  0.573800  0.792230  0.322100  1.0  -0.013
  F  F1113  1  0.910510  0.315700  0.739790  1.0  -0.0672
  F  F1114  1  0.892220  0.252740  0.721640  1.0  -0.063
  F  F1115  1  0.926200  0.292230  0.677900  1.0  -0.0138
  F  F1116  1  0.910510  0.815700  0.239790  1.0  -0.0672
  F  F1117  1  0.892220  0.752740  0.221640  1.0  -0.0616
  F  F1118  1  0.926200  0.792230  0.177900  1.0  -0.0138
  F  F1119  1  0.410510  0.315700  0.239790  1.0  -0.0672
  F  F1120  1  0.392220  0.252740  0.221640  1.0  -0.063
  F  F1121  1  0.426200  0.292230  0.177900  1.0  -0.0138
  F  F1122  1  0.410510  0.815700  0.739790  1.0  -0.0672
  F  F1123  1  0.392220  0.752740  0.721640  1.0  -0.063
  F  F1124  1  0.426200  0.792230  0.677900  1.0  -0.0138
  F  F1125  1  0.910510  0.684300  0.260210  1.0  -0.0704
  F  F1126  1  0.892220  0.747260  0.278360  1.0  -0.0636
  F  F1127  1  0.926200  0.707770  0.322100  1.0  -0.01
  F  F1128  1  0.910510  0.184300  0.760210  1.0  -0.0704
  F  F1129  1  0.892220  0.247260  0.778360  1.0  -0.0652
  F  F1130  1  0.926200  0.207770  0.822100  1.0  -0.01
  F  F1131  1  0.410510  0.684300  0.760210  1.0  -0.0704
  F  F1132  1  0.392220  0.747260  0.778360  1.0  -0.0652
  F  F1133  1  0.426200  0.707770  0.822100  1.0  -0.01
  F  F1134  1  0.410510  0.184300  0.260210  1.0  -0.0704
  F  F1135  1  0.392220  0.247260  0.278360  1.0  -0.0652
  F  F1136  1  0.426200  0.207770  0.322100  1.0  -0.01
  F  F1137  1  0.739790  0.089490  0.684300  1.0  -0.0684
  F  F1138  1  0.721640  0.107780  0.747260  1.0  -0.0672
  F  F1139  1  0.677900  0.073800  0.707770  1.0  0.0003
  F  F1140  1  0.739790  0.589490  0.184300  1.0  -0.0684
  F  F1141  1  0.721640  0.607780  0.247260  1.0  -0.0672
  F  F1142  1  0.677900  0.573800  0.207770  1.0  0.0003
  F  F1143  1  0.239790  0.089490  0.184300  1.0  -0.0684
  F  F1144  1  0.221640  0.107780  0.247260  1.0  -0.0657
  F  F1145  1  0.177900  0.073800  0.207770  1.0  0.0003
  F  F1146  1  0.239790  0.589490  0.684300  1.0  -0.0684
  F  F1147  1  0.221640  0.607780  0.747260  1.0  -0.0657
  F  F1148  1  0.177900  0.573800  0.707770  1.0  0.0003
  F  F1149  1  0.260210  0.089490  0.315700  1.0  -0.0651
  F  F1150  1  0.278360  0.107780  0.252740  1.0  -0.0783
  F  F1151  1  0.322100  0.073800  0.292230  1.0  -0.0075
  F  F1152  1  0.260210  0.589490  0.815700  1.0  -0.0651
  F  F1153  1  0.278360  0.607780  0.752740  1.0  -0.0777
  F  F1154  1  0.322100  0.573800  0.792230  1.0  -0.0075
  F  F1155  1  0.760210  0.089490  0.815700  1.0  -0.0651
  F  F1156  1  0.778360  0.107780  0.752740  1.0  -0.0783
  F  F1157  1  0.822100  0.073800  0.792230  1.0  -0.0075
  F  F1158  1  0.760210  0.589490  0.315700  1.0  -0.0651
  F  F1159  1  0.778360  0.607780  0.252740  1.0  -0.0783
  F  F1160  1  0.822100  0.573800  0.292230  1.0  -0.0075
  F  F1161  1  0.739790  0.910510  0.315700  1.0  -0.0651
  F  F1162  1  0.721640  0.892220  0.252740  1.0  -0.0634
  F  F1163  1  0.677900  0.926200  0.292230  1.0  -0.0011
  F  F1164  1  0.739790  0.410510  0.815700  1.0  -0.0651
  F  F1165  1  0.721640  0.392220  0.752740  1.0  -0.0634
  F  F1166  1  0.677900  0.426200  0.792230  1.0  -0.0011
  F  F1167  1  0.239790  0.910510  0.815700  1.0  -0.0651
  F  F1168  1  0.221640  0.892220  0.752740  1.0  -0.0634
  F  F1169  1  0.177900  0.926200  0.792230  1.0  -0.0011
  F  F1170  1  0.239790  0.410510  0.315700  1.0  -0.0651
  F  F1171  1  0.221640  0.392220  0.252740  1.0  -0.0634
  F  F1172  1  0.177900  0.426200  0.292230  1.0  -0.0011
  F  F1173  1  0.260210  0.910510  0.684300  1.0  -0.0647
  F  F1174  1  0.278360  0.892220  0.747260  1.0  -0.0732
  F  F1175  1  0.322100  0.926200  0.707770  1.0  -0.0089
  F  F1176  1  0.260210  0.410510  0.184300  1.0  -0.0647
  F  F1177  1  0.278360  0.392220  0.247260  1.0  -0.0732
  F  F1178  1  0.322100  0.426200  0.207770  1.0  -0.0089
  F  F1179  1  0.760210  0.910510  0.184300  1.0  -0.0647
  F  F1180  1  0.778360  0.892220  0.247260  1.0  -0.0738
  F  F1181  1  0.822100  0.926200  0.207770  1.0  -0.0089
  F  F1182  1  0.760210  0.410510  0.684300  1.0  -0.0647
  F  F1183  1  0.778360  0.392220  0.747260  1.0  -0.0738
  F  F1184  1  0.822100  0.426200  0.707770  1.0  -0.0089
  F  F1185  1  0.739790  0.684300  0.910510  1.0  -0.0677
  F  F1186  1  0.721640  0.747260  0.892220  1.0  -0.0584
  F  F1187  1  0.677900  0.707770  0.926200  1.0  -0.0015
  F  F1188  1  0.739790  0.184300  0.410510  1.0  -0.0677
  F  F1189  1  0.721640  0.247260  0.392220  1.0  -0.0584
  F  F1190  1  0.677900  0.207770  0.426200  1.0  -0.0015
  F  F1191  1  0.239790  0.684300  0.410510  1.0  -0.0677
  F  F1192  1  0.221640  0.747260  0.392220  1.0  -0.0584
  F  F1193  1  0.177900  0.707770  0.426200  1.0  -0.0015
  F  F1194  1  0.239790  0.184300  0.910510  1.0  -0.0677
  F  F1195  1  0.221640  0.247260  0.892220  1.0  -0.0584
  F  F1196  1  0.177900  0.207770  0.926200  1.0  -0.0015
  F  F1197  1  0.260210  0.315700  0.910510  1.0  -0.0671
  F  F1198  1  0.278360  0.252740  0.892220  1.0  -0.0735
  F  F1199  1  0.322100  0.292230  0.926200  1.0  -0.0088
  F  F1200  1  0.260210  0.815700  0.410510  1.0  -0.0671
  F  F1201  1  0.278360  0.752740  0.392220  1.0  -0.073
  F  F1202  1  0.322100  0.792230  0.426200  1.0  -0.0088
  F  F1203  1  0.760210  0.315700  0.410510  1.0  -0.0671
  F  F1204  1  0.778360  0.252740  0.392220  1.0  -0.0735
  F  F1205  1  0.822100  0.292230  0.426200  1.0  -0.0088
  F  F1206  1  0.760210  0.815700  0.910510  1.0  -0.0671
  F  F1207  1  0.778360  0.752740  0.892220  1.0  -0.0735
  F  F1208  1  0.822100  0.792230  0.926200  1.0  -0.0088
  F  F1209  1  0.739790  0.315700  0.089490  1.0  -0.0667
  F  F1210  1  0.721640  0.252740  0.107780  1.0  -0.0621
  F  F1211  1  0.677900  0.292230  0.073800  1.0  -0.0014
  F  F1212  1  0.739790  0.815700  0.589490  1.0  -0.0667
  F  F1213  1  0.721640  0.752740  0.607780  1.0  -0.0621
  F  F1214  1  0.677900  0.792230  0.573800  1.0  -0.0014
  F  F1215  1  0.239790  0.315700  0.589490  1.0  -0.0667
  F  F1216  1  0.221640  0.252740  0.607780  1.0  -0.0621
  F  F1217  1  0.177900  0.292230  0.573800  1.0  -0.0014
  F  F1218  1  0.239790  0.815700  0.089490  1.0  -0.0667
  F  F1219  1  0.221640  0.752740  0.107780  1.0  -0.061
  F  F1220  1  0.177900  0.792230  0.073800  1.0  -0.0014
  F  F1221  1  0.260210  0.684300  0.089490  1.0  -0.0655
  F  F1222  1  0.278360  0.747260  0.107780  1.0  -0.0735
  F  F1223  1  0.322100  0.707770  0.073800  1.0  -0.0067
  F  F1224  1  0.260210  0.184300  0.589490  1.0  -0.0655
  F  F1225  1  0.278360  0.247260  0.607780  1.0  -0.074
  F  F1226  1  0.322100  0.207770  0.573800  1.0  -0.0067
  F  F1227  1  0.760210  0.684300  0.589490  1.0  -0.0655
  F  F1228  1  0.778360  0.747260  0.607780  1.0  -0.074
  F  F1229  1  0.822100  0.707770  0.573800  1.0  -0.0067
  F  F1230  1  0.760210  0.184300  0.089490  1.0  -0.0655
  F  F1231  1  0.778360  0.247260  0.107780  1.0  -0.074
  F  F1232  1  0.822100  0.207770  0.073800  1.0  -0.0067
  F  F1233  1  0.684300  0.089490  0.260210  1.0  -0.0613
  F  F1234  1  0.747260  0.107780  0.278360  1.0  -0.0751
  F  F1235  1  0.707770  0.073800  0.322100  1.0  -0.0074
  F  F1236  1  0.684300  0.589490  0.760210  1.0  -0.0613
  F  F1237  1  0.747260  0.607780  0.778360  1.0  -0.0751
  F  F1238  1  0.707770  0.573800  0.822100  1.0  -0.0074
  F  F1239  1  0.184300  0.089490  0.760210  1.0  -0.0613
  F  F1240  1  0.247260  0.107780  0.778360  1.0  -0.0751
  F  F1241  1  0.207770  0.073800  0.822100  1.0  -0.0074
  F  F1242  1  0.184300  0.589490  0.260210  1.0  -0.0613
  F  F1243  1  0.247260  0.607780  0.278360  1.0  -0.0751
  F  F1244  1  0.207770  0.573800  0.322100  1.0  -0.0074
  F  F1245  1  0.315700  0.089490  0.739790  1.0  -0.0651
  F  F1246  1  0.252740  0.107780  0.721640  1.0  -0.0727
  F  F1247  1  0.292230  0.073800  0.677900  1.0  -0.0115
  F  F1248  1  0.315700  0.589490  0.239790  1.0  -0.0651
  F  F1249  1  0.252740  0.607780  0.221640  1.0  -0.0727
  F  F1250  1  0.292230  0.573800  0.177900  1.0  -0.0115
  F  F1251  1  0.815700  0.089490  0.239790  1.0  -0.0651
  F  F1252  1  0.752740  0.107780  0.221640  1.0  -0.0717
  F  F1253  1  0.792230  0.073800  0.177900  1.0  -0.0115
  F  F1254  1  0.815700  0.589490  0.739790  1.0  -0.0651
  F  F1255  1  0.752740  0.607780  0.721640  1.0  -0.0727
  F  F1256  1  0.792230  0.573800  0.677900  1.0  -0.0115
  F  F1257  1  0.315700  0.910510  0.260210  1.0  -0.069
  F  F1258  1  0.252740  0.892220  0.278360  1.0  -0.0734
  F  F1259  1  0.292230  0.926200  0.322100  1.0  -0.0083
  F  F1260  1  0.315700  0.410510  0.760210  1.0  -0.069
  F  F1261  1  0.252740  0.392220  0.778360  1.0  -0.0743
  F  F1262  1  0.292230  0.426200  0.822100  1.0  -0.0083
  F  F1263  1  0.815700  0.910510  0.760210  1.0  -0.069
  F  F1264  1  0.752740  0.892220  0.778360  1.0  -0.0743
  F  F1265  1  0.792230  0.926200  0.822100  1.0  -0.0083
  F  F1266  1  0.815700  0.410510  0.260210  1.0  -0.069
  F  F1267  1  0.752740  0.392220  0.278360  1.0  -0.0734
  F  F1268  1  0.792230  0.426200  0.322100  1.0  -0.0083
  F  F1269  1  0.684300  0.910510  0.739790  1.0  -0.0581
  F  F1270  1  0.747260  0.892220  0.721640  1.0  -0.0743
  F  F1271  1  0.707770  0.926200  0.677900  1.0  -0.0094
  F  F1272  1  0.684300  0.410510  0.239790  1.0  -0.0581
  F  F1273  1  0.747260  0.392220  0.221640  1.0  -0.0729
  F  F1274  1  0.707770  0.426200  0.177900  1.0  -0.0094
  F  F1275  1  0.184300  0.910510  0.239790  1.0  -0.0581
  F  F1276  1  0.247260  0.892220  0.221640  1.0  -0.0729
  F  F1277  1  0.207770  0.926200  0.177900  1.0  -0.0094
  F  F1278  1  0.184300  0.410510  0.739790  1.0  -0.0581
  F  F1279  1  0.247260  0.392220  0.721640  1.0  -0.0743
  F  F1280  1  0.207770  0.426200  0.677900  1.0  -0.0094
  F  F1281  1  0.089490  0.739790  0.315700  1.0  -0.0669
  F  F1282  1  0.107780  0.721640  0.252740  1.0  -0.0758
  F  F1283  1  0.073800  0.677900  0.292230  1.0  -0.0105
  F  F1284  1  0.089490  0.239790  0.815700  1.0  -0.0669
  F  F1285  1  0.107780  0.221640  0.752740  1.0  -0.0748
  F  F1286  1  0.073800  0.177900  0.792230  1.0  -0.0105
  F  F1287  1  0.589490  0.739790  0.815700  1.0  -0.0669
  F  F1288  1  0.607780  0.721640  0.752740  1.0  -0.0758
  F  F1289  1  0.573800  0.677900  0.792230  1.0  -0.0105
  F  F1290  1  0.589490  0.239790  0.315700  1.0  -0.0669
  F  F1291  1  0.607780  0.221640  0.252740  1.0  -0.0758
  F  F1292  1  0.573800  0.177900  0.292230  1.0  -0.0105
  F  F1293  1  0.089490  0.260210  0.684300  1.0  -0.0669
  F  F1294  1  0.107780  0.278360  0.747260  1.0  -0.0742
  F  F1295  1  0.073800  0.322100  0.707770  1.0  -0.0129
  F  F1296  1  0.089490  0.760210  0.184300  1.0  -0.0669
  F  F1297  1  0.107780  0.778360  0.247260  1.0  -0.0754
  F  F1298  1  0.073800  0.822100  0.207770  1.0  -0.0129
  F  F1299  1  0.589490  0.260210  0.184300  1.0  -0.0669
  F  F1300  1  0.607780  0.278360  0.247260  1.0  -0.0754
  F  F1301  1  0.573800  0.322100  0.207770  1.0  -0.0129
  F  F1302  1  0.589490  0.760210  0.684300  1.0  -0.0669
  F  F1303  1  0.607780  0.778360  0.747260  1.0  -0.0754
  F  F1304  1  0.573800  0.822100  0.707770  1.0  -0.0129
  F  F1305  1  0.910510  0.739790  0.684300  1.0  -0.0676
  F  F1306  1  0.892220  0.721640  0.747260  1.0  -0.0652
  F  F1307  1  0.926200  0.677900  0.707770  1.0  -0.011
  F  F1308  1  0.910510  0.239790  0.184300  1.0  -0.0676
  F  F1309  1  0.892220  0.221640  0.247260  1.0  -0.0652
  F  F1310  1  0.926200  0.177900  0.207770  1.0  -0.011
  F  F1311  1  0.410510  0.739790  0.184300  1.0  -0.0676
  F  F1312  1  0.392220  0.721640  0.247260  1.0  -0.0652
  F  F1313  1  0.426200  0.677900  0.207770  1.0  -0.011
  F  F1314  1  0.410510  0.239790  0.684300  1.0  -0.0676
  F  F1315  1  0.392220  0.221640  0.747260  1.0  -0.0652
  F  F1316  1  0.426200  0.177900  0.707770  1.0  -0.011
  F  F1317  1  0.910510  0.260210  0.315700  1.0  -0.0647
  F  F1318  1  0.892220  0.278360  0.252740  1.0  -0.065
  F  F1319  1  0.926200  0.322100  0.292230  1.0  -0.0123
  F  F1320  1  0.910510  0.760210  0.815700  1.0  -0.0647
  F  F1321  1  0.892220  0.778360  0.752740  1.0  -0.065
  F  F1322  1  0.926200  0.822100  0.792230  1.0  -0.0123
  F  F1323  1  0.410510  0.260210  0.815700  1.0  -0.0647
  F  F1324  1  0.392220  0.278360  0.752740  1.0  -0.0634
  F  F1325  1  0.426200  0.322100  0.792230  1.0  -0.0123
  F  F1326  1  0.410510  0.760210  0.315700  1.0  -0.0647
  F  F1327  1  0.392220  0.778360  0.252740  1.0  -0.065
  F  F1328  1  0.426200  0.822100  0.292230  1.0  -0.0123
