# generated using pymatgen
data_ZnH14(C13O2)2
_symmetry_space_group_name_H-M   'P 1'
_cell_length_a   32.86430000
_cell_length_b   32.86430000
_cell_length_c   32.86430000
_cell_angle_alpha   90.00000000
_cell_angle_beta   90.00000000
_cell_angle_gamma   90.00000000
_symmetry_Int_Tables_number   1
_chemical_formula_structural   ZnH14(C13O2)2
_chemical_formula_sum   'Zn24 H336 C624 O96'
_cell_volume   35495.48863566
_cell_formula_units_Z   24
loop_
 _symmetry_equiv_pos_site_id
 _symmetry_equiv_pos_as_xyz
  1  'x, y, z'
loop_
 _atom_site_type_symbol
 _atom_site_label
 _atom_site_symmetry_multiplicity
 _atom_site_fract_x
 _atom_site_fract_y
 _atom_site_fract_z
 _atom_site_occupancy
 _atom_site_charge
  Zn  Zn1  1  0.250000  0.750000  0.045880  1.0  1.1009
  Zn  Zn2  1  0.250000  0.750000  0.454120  1.0  1.0973
  Zn  Zn3  1  0.045880  0.250000  0.750000  1.0  1.103
  Zn  Zn4  1  0.454120  0.250000  0.750000  1.0  1.0994
  Zn  Zn5  1  0.750000  0.045880  0.250000  1.0  1.1017
  Zn  Zn6  1  0.750000  0.454120  0.250000  1.0  1.1073
  Zn  Zn7  1  0.250000  0.750000  0.545880  1.0  1.1009
  Zn  Zn8  1  0.250000  0.750000  0.954120  1.0  1.0973
  Zn  Zn9  1  0.750000  0.954120  0.250000  1.0  1.1073
  Zn  Zn10  1  0.750000  0.545880  0.250000  1.0  1.1017
  Zn  Zn11  1  0.954120  0.250000  0.750000  1.0  1.0994
  Zn  Zn12  1  0.545880  0.250000  0.750000  1.0  1.103
  Zn  Zn13  1  0.750000  0.250000  0.454120  1.0  1.0973
  Zn  Zn14  1  0.750000  0.250000  0.045880  1.0  1.1009
  Zn  Zn15  1  0.250000  0.045880  0.750000  1.0  1.1017
  Zn  Zn16  1  0.250000  0.454120  0.750000  1.0  1.1073
  Zn  Zn17  1  0.045880  0.750000  0.250000  1.0  1.103
  Zn  Zn18  1  0.454120  0.750000  0.250000  1.0  1.0994
  Zn  Zn19  1  0.750000  0.250000  0.954120  1.0  1.0973
  Zn  Zn20  1  0.750000  0.250000  0.545880  1.0  1.1009
  Zn  Zn21  1  0.954120  0.750000  0.250000  1.0  1.0994
  Zn  Zn22  1  0.545880  0.750000  0.250000  1.0  1.103
  Zn  Zn23  1  0.250000  0.954120  0.750000  1.0  1.1073
  Zn  Zn24  1  0.250000  0.545880  0.750000  1.0  1.1017
  H  H25  1  0.179000  0.855300  0.057000  1.0  0.1134
  H  H26  1  0.145100  0.910500  0.095500  1.0  0.1105
  H  H27  1  0.102000  0.966400  0.096500  1.0  0.1114
  H  H28  1  0.093100  0.964000  0.974900  1.0  0.0957
  H  H29  1  0.133800  0.913000  0.935300  1.0  0.0897
  H  H30  1  0.171500  0.854600  0.933800  1.0  0.1186
  H  H31  1  0.086700  0.035000  0.986500  1.0  0.1205
  H  H32  1  0.321000  0.644700  0.057000  1.0  0.1135
  H  H33  1  0.354900  0.589500  0.095500  1.0  0.1115
  H  H34  1  0.398000  0.533600  0.096500  1.0  0.1126
  H  H35  1  0.406900  0.536000  0.974900  1.0  0.0951
  H  H36  1  0.366200  0.587000  0.935300  1.0  0.0898
  H  H37  1  0.328500  0.645400  0.933800  1.0  0.1185
  H  H38  1  0.413300  0.465000  0.986500  1.0  0.1209
  H  H39  1  0.321000  0.855300  0.443000  1.0  0.1134
  H  H40  1  0.354900  0.910500  0.404500  1.0  0.1116
  H  H41  1  0.398000  0.966400  0.403500  1.0  0.1111
  H  H42  1  0.406900  0.964000  0.525100  1.0  0.0952
  H  H43  1  0.366200  0.913000  0.564700  1.0  0.0894
  H  H44  1  0.328500  0.854600  0.566200  1.0  0.1182
  H  H45  1  0.413300  0.035000  0.513500  1.0  0.1205
  H  H46  1  0.179000  0.644700  0.443000  1.0  0.1135
  H  H47  1  0.145100  0.589500  0.404500  1.0  0.1123
  H  H48  1  0.102000  0.533600  0.403500  1.0  0.112
  H  H49  1  0.093100  0.536000  0.525100  1.0  0.0951
  H  H50  1  0.133800  0.587000  0.564700  1.0  0.0894
  H  H51  1  0.171500  0.645400  0.566200  1.0  0.1182
  H  H52  1  0.086700  0.465000  0.513500  1.0  0.1208
  H  H53  1  0.057000  0.179000  0.855300  1.0  0.1122
  H  H54  1  0.095500  0.145100  0.910500  1.0  0.1127
  H  H55  1  0.096500  0.102000  0.966400  1.0  0.1123
  H  H56  1  0.974900  0.093100  0.964000  1.0  0.0933
  H  H57  1  0.935300  0.133800  0.913000  1.0  0.0874
  H  H58  1  0.933800  0.171500  0.854600  1.0  0.118
  H  H59  1  0.986500  0.086700  0.035000  1.0  0.1197
  H  H60  1  0.057000  0.321000  0.644700  1.0  0.1113
  H  H61  1  0.095500  0.354900  0.589500  1.0  0.1122
  H  H62  1  0.096500  0.398000  0.533600  1.0  0.1116
  H  H63  1  0.974900  0.406900  0.536000  1.0  0.0933
  H  H64  1  0.935300  0.366200  0.587000  1.0  0.0885
  H  H65  1  0.933800  0.328500  0.645400  1.0  0.1179
  H  H66  1  0.986500  0.413300  0.465000  1.0  0.12
  H  H67  1  0.443000  0.321000  0.855300  1.0  0.111
  H  H68  1  0.404500  0.354900  0.910500  1.0  0.1119
  H  H69  1  0.403500  0.398000  0.966400  1.0  0.1128
  H  H70  1  0.525100  0.406900  0.964000  1.0  0.0939
  H  H71  1  0.564700  0.366200  0.913000  1.0  0.0877
  H  H72  1  0.566200  0.328500  0.854600  1.0  0.1182
  H  H73  1  0.513500  0.413300  0.035000  1.0  0.1206
  H  H74  1  0.443000  0.179000  0.644700  1.0  0.1104
  H  H75  1  0.404500  0.145100  0.589500  1.0  0.1119
  H  H76  1  0.403500  0.102000  0.533600  1.0  0.112
  H  H77  1  0.525100  0.093100  0.536000  1.0  0.0932
  H  H78  1  0.564700  0.133800  0.587000  1.0  0.0883
  H  H79  1  0.566200  0.171500  0.645400  1.0  0.118
  H  H80  1  0.513500  0.086700  0.465000  1.0  0.1211
  H  H81  1  0.855300  0.057000  0.179000  1.0  0.113
  H  H82  1  0.910500  0.095500  0.145100  1.0  0.1116
  H  H83  1  0.966400  0.096500  0.102000  1.0  0.1131
  H  H84  1  0.964000  0.974900  0.093100  1.0  0.0949
  H  H85  1  0.913000  0.935300  0.133800  1.0  0.0895
  H  H86  1  0.854600  0.933800  0.171500  1.0  0.1179
  H  H87  1  0.035000  0.986500  0.086700  1.0  0.1208
  H  H88  1  0.644700  0.057000  0.321000  1.0  0.1134
  H  H89  1  0.589500  0.095500  0.354900  1.0  0.1119
  H  H90  1  0.533600  0.096500  0.398000  1.0  0.1134
  H  H91  1  0.536000  0.974900  0.406900  1.0  0.0953
  H  H92  1  0.587000  0.935300  0.366200  1.0  0.0894
  H  H93  1  0.645400  0.933800  0.328500  1.0  0.1181
  H  H94  1  0.465000  0.986500  0.413300  1.0  0.1209
  H  H95  1  0.855300  0.443000  0.321000  1.0  0.113
  H  H96  1  0.910500  0.404500  0.354900  1.0  0.1107
  H  H97  1  0.966400  0.403500  0.398000  1.0  0.1129
  H  H98  1  0.964000  0.525100  0.406900  1.0  0.0956
  H  H99  1  0.913000  0.564700  0.366200  1.0  0.0898
  H  H100  1  0.854600  0.566200  0.328500  1.0  0.1191
  H  H101  1  0.035000  0.513500  0.413300  1.0  0.1213
  H  H102  1  0.644700  0.443000  0.179000  1.0  0.1129
  H  H103  1  0.589500  0.404500  0.145100  1.0  0.1111
  H  H104  1  0.533600  0.403500  0.102000  1.0  0.1125
  H  H105  1  0.536000  0.525100  0.093100  1.0  0.0952
  H  H106  1  0.587000  0.564700  0.133800  1.0  0.0897
  H  H107  1  0.645400  0.566200  0.171500  1.0  0.1185
  H  H108  1  0.465000  0.513500  0.086700  1.0  0.1209
  H  H109  1  0.144700  0.821000  0.557000  1.0  0.1137
  H  H110  1  0.089500  0.854900  0.595500  1.0  0.111
  H  H111  1  0.033600  0.898000  0.596500  1.0  0.113
  H  H112  1  0.036000  0.906900  0.474900  1.0  0.0949
  H  H113  1  0.087000  0.866200  0.435300  1.0  0.09
  H  H114  1  0.145400  0.828500  0.433800  1.0  0.1184
  H  H115  1  0.965000  0.913300  0.486500  1.0  0.1191
  H  H116  1  0.355300  0.679000  0.557000  1.0  0.1136
  H  H117  1  0.410500  0.645100  0.595500  1.0  0.1109
  H  H118  1  0.466400  0.602000  0.596500  1.0  0.1131
  H  H119  1  0.464000  0.593100  0.474900  1.0  0.0942
  H  H120  1  0.413000  0.633800  0.435300  1.0  0.0898
  H  H121  1  0.354600  0.671500  0.433800  1.0  0.1185
  H  H122  1  0.535000  0.586700  0.486500  1.0  0.1192
  H  H123  1  0.144700  0.679000  0.943000  1.0  0.1134
  H  H124  1  0.089500  0.645100  0.904500  1.0  0.1121
  H  H125  1  0.033600  0.602000  0.903500  1.0  0.1124
  H  H126  1  0.036000  0.593100  0.025100  1.0  0.0944
  H  H127  1  0.087000  0.633800  0.064700  1.0  0.0894
  H  H128  1  0.145400  0.671500  0.066200  1.0  0.1178
  H  H129  1  0.965000  0.586700  0.013500  1.0  0.1189
  H  H130  1  0.355300  0.821000  0.943000  1.0  0.1133
  H  H131  1  0.410500  0.854900  0.904500  1.0  0.1115
  H  H132  1  0.466400  0.898000  0.903500  1.0  0.1129
  H  H133  1  0.464000  0.906900  0.025100  1.0  0.0949
  H  H134  1  0.413000  0.866200  0.064700  1.0  0.0901
  H  H135  1  0.354600  0.828500  0.066200  1.0  0.1182
  H  H136  1  0.535000  0.913300  0.013500  1.0  0.1191
  H  H137  1  0.821000  0.943000  0.355300  1.0  0.1118
  H  H138  1  0.854900  0.904500  0.410500  1.0  0.1106
  H  H139  1  0.898000  0.903500  0.466400  1.0  0.1116
  H  H140  1  0.906900  0.025100  0.464000  1.0  0.094
  H  H141  1  0.866200  0.064700  0.413000  1.0  0.0877
  H  H142  1  0.828500  0.066200  0.354600  1.0  0.1192
  H  H143  1  0.913300  0.013500  0.535000  1.0  0.1221
  H  H144  1  0.679000  0.943000  0.144700  1.0  0.112
  H  H145  1  0.645100  0.904500  0.089500  1.0  0.1108
  H  H146  1  0.602000  0.903500  0.033600  1.0  0.1109
  H  H147  1  0.593100  0.025100  0.036000  1.0  0.0938
  H  H148  1  0.633800  0.064700  0.087000  1.0  0.0885
  H  H149  1  0.671500  0.066200  0.145400  1.0  0.119
  H  H150  1  0.586700  0.013500  0.965000  1.0  0.1219
  H  H151  1  0.679000  0.557000  0.355300  1.0  0.1125
  H  H152  1  0.645100  0.595500  0.410500  1.0  0.1117
  H  H153  1  0.602000  0.596500  0.466400  1.0  0.1114
  H  H154  1  0.593100  0.474900  0.464000  1.0  0.0937
  H  H155  1  0.633800  0.435300  0.413000  1.0  0.0874
  H  H156  1  0.671500  0.433800  0.354600  1.0  0.1182
  H  H157  1  0.586700  0.486500  0.535000  1.0  0.1214
  H  H158  1  0.821000  0.557000  0.144700  1.0  0.1119
  H  H159  1  0.854900  0.595500  0.089500  1.0  0.1118
  H  H160  1  0.898000  0.596500  0.033600  1.0  0.1122
  H  H161  1  0.906900  0.474900  0.036000  1.0  0.093
  H  H162  1  0.866200  0.435300  0.087000  1.0  0.0877
  H  H163  1  0.828500  0.433800  0.145400  1.0  0.1183
  H  H164  1  0.913300  0.486500  0.965000  1.0  0.1213
  H  H165  1  0.943000  0.144700  0.679000  1.0  0.1114
  H  H166  1  0.904500  0.089500  0.645100  1.0  0.1119
  H  H167  1  0.903500  0.033600  0.602000  1.0  0.1129
  H  H168  1  0.025100  0.036000  0.593100  1.0  0.0953
  H  H169  1  0.064700  0.087000  0.633800  1.0  0.0895
  H  H170  1  0.066200  0.145400  0.671500  1.0  0.118
  H  H171  1  0.013500  0.965000  0.586700  1.0  0.1211
  H  H172  1  0.943000  0.355300  0.821000  1.0  0.1118
  H  H173  1  0.904500  0.410500  0.854900  1.0  0.1122
  H  H174  1  0.903500  0.466400  0.898000  1.0  0.1127
  H  H175  1  0.025100  0.464000  0.906900  1.0  0.0954
  H  H176  1  0.064700  0.413000  0.866200  1.0  0.0891
  H  H177  1  0.066200  0.354600  0.828500  1.0  0.1181
  H  H178  1  0.013500  0.535000  0.913300  1.0  0.1212
  H  H179  1  0.557000  0.144700  0.821000  1.0  0.113
  H  H180  1  0.595500  0.089500  0.854900  1.0  0.1129
  H  H181  1  0.596500  0.033600  0.898000  1.0  0.1122
  H  H182  1  0.474900  0.036000  0.906900  1.0  0.0951
  H  H183  1  0.435300  0.087000  0.866200  1.0  0.0893
  H  H184  1  0.433800  0.145400  0.828500  1.0  0.118
  H  H185  1  0.486500  0.965000  0.913300  1.0  0.1207
  H  H186  1  0.557000  0.355300  0.679000  1.0  0.1121
  H  H187  1  0.595500  0.410500  0.645100  1.0  0.1118
  H  H188  1  0.596500  0.466400  0.602000  1.0  0.1124
  H  H189  1  0.474900  0.464000  0.593100  1.0  0.0951
  H  H190  1  0.435300  0.413000  0.633800  1.0  0.0894
  H  H191  1  0.433800  0.354600  0.671500  1.0  0.1179
  H  H192  1  0.486500  0.535000  0.586700  1.0  0.1201
  H  H193  1  0.855300  0.179000  0.443000  1.0  0.1133
  H  H194  1  0.910500  0.145100  0.404500  1.0  0.1117
  H  H195  1  0.966400  0.102000  0.403500  1.0  0.1134
  H  H196  1  0.964000  0.093100  0.525100  1.0  0.0945
  H  H197  1  0.913000  0.133800  0.564700  1.0  0.0897
  H  H198  1  0.854600  0.171500  0.566200  1.0  0.118
  H  H199  1  0.035000  0.086700  0.513500  1.0  0.1188
  H  H200  1  0.644700  0.321000  0.443000  1.0  0.1133
  H  H201  1  0.589500  0.354900  0.404500  1.0  0.1118
  H  H202  1  0.533600  0.398000  0.403500  1.0  0.1121
  H  H203  1  0.536000  0.406900  0.525100  1.0  0.0948
  H  H204  1  0.587000  0.366200  0.564700  1.0  0.0898
  H  H205  1  0.645400  0.328500  0.566200  1.0  0.1181
  H  H206  1  0.465000  0.413300  0.513500  1.0  0.1193
  H  H207  1  0.855300  0.321000  0.057000  1.0  0.1136
  H  H208  1  0.910500  0.354900  0.095500  1.0  0.1107
  H  H209  1  0.966400  0.398000  0.096500  1.0  0.1128
  H  H210  1  0.964000  0.406900  0.974900  1.0  0.0948
  H  H211  1  0.913000  0.366200  0.935300  1.0  0.0902
  H  H212  1  0.854600  0.328500  0.933800  1.0  0.1185
  H  H213  1  0.035000  0.413300  0.986500  1.0  0.1191
  H  H214  1  0.644700  0.179000  0.057000  1.0  0.1137
  H  H215  1  0.589500  0.145100  0.095500  1.0  0.1113
  H  H216  1  0.533600  0.102000  0.096500  1.0  0.1134
  H  H217  1  0.536000  0.093100  0.974900  1.0  0.0942
  H  H218  1  0.587000  0.133800  0.935300  1.0  0.0896
  H  H219  1  0.645400  0.171500  0.933800  1.0  0.1184
  H  H220  1  0.465000  0.086700  0.986500  1.0  0.1193
  H  H221  1  0.179000  0.057000  0.644700  1.0  0.1122
  H  H222  1  0.145100  0.095500  0.589500  1.0  0.1115
  H  H223  1  0.102000  0.096500  0.533600  1.0  0.1122
  H  H224  1  0.093100  0.974900  0.536000  1.0  0.0934
  H  H225  1  0.133800  0.935300  0.587000  1.0  0.088
  H  H226  1  0.171500  0.933800  0.645400  1.0  0.1183
  H  H227  1  0.086700  0.986500  0.465000  1.0  0.122
  H  H228  1  0.321000  0.057000  0.855300  1.0  0.1124
  H  H229  1  0.354900  0.095500  0.910500  1.0  0.1118
  H  H230  1  0.398000  0.096500  0.966400  1.0  0.1114
  H  H231  1  0.406900  0.974900  0.964000  1.0  0.0937
  H  H232  1  0.366200  0.935300  0.913000  1.0  0.0876
  H  H233  1  0.328500  0.933800  0.854600  1.0  0.118
  H  H234  1  0.413300  0.986500  0.035000  1.0  0.1219
  H  H235  1  0.321000  0.443000  0.644700  1.0  0.1116
  H  H236  1  0.354900  0.404500  0.589500  1.0  0.1109
  H  H237  1  0.398000  0.403500  0.533600  1.0  0.1109
  H  H238  1  0.406900  0.525100  0.536000  1.0  0.0937
  H  H239  1  0.366200  0.564700  0.587000  1.0  0.0881
  H  H240  1  0.328500  0.566200  0.645400  1.0  0.1189
  H  H241  1  0.413300  0.513500  0.465000  1.0  0.1219
  H  H242  1  0.179000  0.443000  0.855300  1.0  0.1122
  H  H243  1  0.145100  0.404500  0.910500  1.0  0.1109
  H  H244  1  0.102000  0.403500  0.966400  1.0  0.1113
  H  H245  1  0.093100  0.525100  0.964000  1.0  0.0938
  H  H246  1  0.133800  0.564700  0.913000  1.0  0.0877
  H  H247  1  0.171500  0.566200  0.854600  1.0  0.1192
  H  H248  1  0.086700  0.513500  0.035000  1.0  0.1212
  H  H249  1  0.057000  0.855300  0.321000  1.0  0.1123
  H  H250  1  0.095500  0.910500  0.354900  1.0  0.1126
  H  H251  1  0.096500  0.966400  0.398000  1.0  0.1125
  H  H252  1  0.974900  0.964000  0.406900  1.0  0.095
  H  H253  1  0.935300  0.913000  0.366200  1.0  0.0894
  H  H254  1  0.933800  0.854600  0.328500  1.0  0.1179
  H  H255  1  0.986500  0.035000  0.413300  1.0  0.1209
  H  H256  1  0.057000  0.644700  0.179000  1.0  0.1127
  H  H257  1  0.095500  0.589500  0.145100  1.0  0.112
  H  H258  1  0.096500  0.533600  0.102000  1.0  0.1122
  H  H259  1  0.974900  0.536000  0.093100  1.0  0.0949
  H  H260  1  0.935300  0.587000  0.133800  1.0  0.0894
  H  H261  1  0.933800  0.645400  0.171500  1.0  0.1175
  H  H262  1  0.986500  0.465000  0.086700  1.0  0.1205
  H  H263  1  0.443000  0.855300  0.179000  1.0  0.1115
  H  H264  1  0.404500  0.910500  0.145100  1.0  0.112
  H  H265  1  0.403500  0.966400  0.102000  1.0  0.1129
  H  H266  1  0.525100  0.964000  0.093100  1.0  0.0953
  H  H267  1  0.564700  0.913000  0.133800  1.0  0.0892
  H  H268  1  0.566200  0.854600  0.171500  1.0  0.118
  H  H269  1  0.513500  0.035000  0.086700  1.0  0.1204
  H  H270  1  0.443000  0.644700  0.321000  1.0  0.1118
  H  H271  1  0.404500  0.589500  0.354900  1.0  0.1123
  H  H272  1  0.403500  0.533600  0.398000  1.0  0.1125
  H  H273  1  0.525100  0.536000  0.406900  1.0  0.0955
  H  H274  1  0.564700  0.587000  0.366200  1.0  0.0893
  H  H275  1  0.566200  0.645400  0.328500  1.0  0.1186
  H  H276  1  0.513500  0.465000  0.413300  1.0  0.1212
  H  H277  1  0.821000  0.144700  0.943000  1.0  0.1134
  H  H278  1  0.854900  0.089500  0.904500  1.0  0.1116
  H  H279  1  0.898000  0.033600  0.903500  1.0  0.1116
  H  H280  1  0.906900  0.036000  0.025100  1.0  0.0954
  H  H281  1  0.866200  0.087000  0.064700  1.0  0.0893
  H  H282  1  0.828500  0.145400  0.066200  1.0  0.118
  H  H283  1  0.913300  0.965000  0.013500  1.0  0.1207
  H  H284  1  0.679000  0.355300  0.943000  1.0  0.1134
  H  H285  1  0.645100  0.410500  0.904500  1.0  0.1123
  H  H286  1  0.602000  0.466400  0.903500  1.0  0.1123
  H  H287  1  0.593100  0.464000  0.025100  1.0  0.095
  H  H288  1  0.633800  0.413000  0.064700  1.0  0.0892
  H  H289  1  0.671500  0.354600  0.066200  1.0  0.118
  H  H290  1  0.586700  0.535000  0.013500  1.0  0.1205
  H  H291  1  0.679000  0.144700  0.557000  1.0  0.1138
  H  H292  1  0.645100  0.089500  0.595500  1.0  0.1107
  H  H293  1  0.602000  0.033600  0.596500  1.0  0.1111
  H  H294  1  0.593100  0.036000  0.474900  1.0  0.0956
  H  H295  1  0.633800  0.087000  0.435300  1.0  0.0903
  H  H296  1  0.671500  0.145400  0.433800  1.0  0.1186
  H  H297  1  0.586700  0.965000  0.486500  1.0  0.1206
  H  H298  1  0.821000  0.355300  0.557000  1.0  0.1135
  H  H299  1  0.854900  0.410500  0.595500  1.0  0.1115
  H  H300  1  0.898000  0.466400  0.596500  1.0  0.1122
  H  H301  1  0.906900  0.464000  0.474900  1.0  0.0951
  H  H302  1  0.866200  0.413000  0.435300  1.0  0.0895
  H  H303  1  0.828500  0.354600  0.433800  1.0  0.1186
  H  H304  1  0.913300  0.535000  0.486500  1.0  0.1212
  H  H305  1  0.943000  0.821000  0.144700  1.0  0.1108
  H  H306  1  0.904500  0.854900  0.089500  1.0  0.112
  H  H307  1  0.903500  0.898000  0.033600  1.0  0.1122
  H  H308  1  0.025100  0.906900  0.036000  1.0  0.0936
  H  H309  1  0.064700  0.866200  0.087000  1.0  0.0882
  H  H310  1  0.066200  0.828500  0.145400  1.0  0.1181
  H  H311  1  0.013500  0.913300  0.965000  1.0  0.1209
  H  H312  1  0.943000  0.679000  0.355300  1.0  0.111
  H  H313  1  0.904500  0.645100  0.410500  1.0  0.1123
  H  H314  1  0.903500  0.602000  0.466400  1.0  0.113
  H  H315  1  0.025100  0.593100  0.464000  1.0  0.0936
  H  H316  1  0.064700  0.633800  0.413000  1.0  0.0873
  H  H317  1  0.066200  0.671500  0.354600  1.0  0.1183
  H  H318  1  0.013500  0.586700  0.535000  1.0  0.1201
  H  H319  1  0.557000  0.679000  0.144700  1.0  0.1116
  H  H320  1  0.595500  0.645100  0.089500  1.0  0.1123
  H  H321  1  0.596500  0.602000  0.033600  1.0  0.112
  H  H322  1  0.474900  0.593100  0.036000  1.0  0.0928
  H  H323  1  0.435300  0.633800  0.087000  1.0  0.0882
  H  H324  1  0.433800  0.671500  0.145400  1.0  0.1179
  H  H325  1  0.486500  0.586700  0.965000  1.0  0.1206
  H  H326  1  0.557000  0.821000  0.355300  1.0  0.1116
  H  H327  1  0.595500  0.854900  0.410500  1.0  0.1121
  H  H328  1  0.596500  0.898000  0.466400  1.0  0.1118
  H  H329  1  0.474900  0.906900  0.464000  1.0  0.0936
  H  H330  1  0.435300  0.866200  0.413000  1.0  0.0881
  H  H331  1  0.433800  0.828500  0.354600  1.0  0.1179
  H  H332  1  0.486500  0.913300  0.535000  1.0  0.12
  H  H333  1  0.144700  0.943000  0.821000  1.0  0.1131
  H  H334  1  0.089500  0.904500  0.854900  1.0  0.111
  H  H335  1  0.033600  0.903500  0.898000  1.0  0.1122
  H  H336  1  0.036000  0.025100  0.906900  1.0  0.0955
  H  H337  1  0.087000  0.064700  0.866200  1.0  0.0896
  H  H338  1  0.145400  0.066200  0.828500  1.0  0.1189
  H  H339  1  0.965000  0.013500  0.913300  1.0  0.121
  H  H340  1  0.355300  0.943000  0.679000  1.0  0.1127
  H  H341  1  0.410500  0.904500  0.645100  1.0  0.1107
  H  H342  1  0.466400  0.903500  0.602000  1.0  0.113
  H  H343  1  0.464000  0.025100  0.593100  1.0  0.095
  H  H344  1  0.413000  0.064700  0.633800  1.0  0.0896
  H  H345  1  0.354600  0.066200  0.671500  1.0  0.1186
  H  H346  1  0.535000  0.013500  0.586700  1.0  0.1204
  H  H347  1  0.144700  0.557000  0.679000  1.0  0.1134
  H  H348  1  0.089500  0.595500  0.645100  1.0  0.1117
  H  H349  1  0.033600  0.596500  0.602000  1.0  0.1129
  H  H350  1  0.036000  0.474900  0.593100  1.0  0.095
  H  H351  1  0.087000  0.435300  0.633800  1.0  0.0897
  H  H352  1  0.145400  0.433800  0.671500  1.0  0.118
  H  H353  1  0.965000  0.486500  0.586700  1.0  0.1212
  H  H354  1  0.355300  0.557000  0.821000  1.0  0.1133
  H  H355  1  0.410500  0.595500  0.854900  1.0  0.1119
  H  H356  1  0.466400  0.596500  0.898000  1.0  0.1134
  H  H357  1  0.464000  0.474900  0.906900  1.0  0.0953
  H  H358  1  0.413000  0.435300  0.866200  1.0  0.0894
  H  H359  1  0.354600  0.433800  0.828500  1.0  0.1178
  H  H360  1  0.535000  0.486500  0.913300  1.0  0.1212
  C  C361  1  0.205830  0.812930  0.994740  1.0  0.7103
  C  C362  1  0.179870  0.850590  0.996040  1.0  -0.1345
  C  C363  1  0.169780  0.867650  0.032490  1.0  -0.1109
  C  C364  1  0.146190  0.902870  0.034390  1.0  0.0152
  C  C365  1  0.135010  0.921090  0.070610  1.0  -0.1153
  C  C366  1  0.109310  0.954510  0.071150  1.0  -0.121
  C  C367  1  0.094260  0.970800  0.035610  1.0  0.0284
  C  C368  1  0.104290  0.953160  0.999230  1.0  -0.1536
  C  C369  1  0.130490  0.919630  0.996700  1.0  0.0275
  C  C370  1  0.142290  0.901150  0.960220  1.0  -0.0925
  C  C371  1  0.165230  0.867200  0.959050  1.0  -0.0962
  C  C372  1  0.064630  0.005060  0.035710  1.0  0.0352
  C  C373  1  0.065560  0.034880  0.006140  1.0  -0.1337
  C  C374  1  0.294170  0.687070  0.994740  1.0  0.7103
  C  C375  1  0.320130  0.649410  0.996040  1.0  -0.1346
  C  C376  1  0.330220  0.632350  0.032490  1.0  -0.1127
  C  C377  1  0.353810  0.597130  0.034390  1.0  0.0158
  C  C378  1  0.364990  0.578910  0.070610  1.0  -0.1178
  C  C379  1  0.390690  0.545490  0.071150  1.0  -0.1215
  C  C380  1  0.405740  0.529200  0.035610  1.0  0.0263
  C  C381  1  0.395710  0.546840  0.999230  1.0  -0.1521
  C  C382  1  0.369510  0.580370  0.996700  1.0  0.0276
  C  C383  1  0.357710  0.598850  0.960220  1.0  -0.0929
  C  C384  1  0.334770  0.632800  0.959050  1.0  -0.0969
  C  C385  1  0.435370  0.494940  0.035710  1.0  0.0349
  C  C386  1  0.434440  0.465120  0.006140  1.0  -0.1333
  C  C387  1  0.294170  0.812930  0.505260  1.0  0.7103
  C  C388  1  0.320130  0.850590  0.503960  1.0  -0.1351
  C  C389  1  0.330220  0.867650  0.467510  1.0  -0.1115
  C  C390  1  0.353810  0.902870  0.465610  1.0  0.0171
  C  C391  1  0.364990  0.921090  0.429390  1.0  -0.119
  C  C392  1  0.390690  0.954510  0.428850  1.0  -0.1203
  C  C393  1  0.405740  0.970800  0.464390  1.0  0.0271
  C  C394  1  0.395710  0.953160  0.500770  1.0  -0.151
  C  C395  1  0.369510  0.919630  0.503300  1.0  0.0267
  C  C396  1  0.357710  0.901150  0.539780  1.0  -0.0926
  C  C397  1  0.334770  0.867200  0.540950  1.0  -0.0983
  C  C398  1  0.435370  0.005060  0.464290  1.0  0.0338
  C  C399  1  0.434440  0.034880  0.493860  1.0  -0.1337
  C  C400  1  0.205830  0.687070  0.505260  1.0  0.7103
  C  C401  1  0.179870  0.649410  0.503960  1.0  -0.1354
  C  C402  1  0.169780  0.632350  0.467510  1.0  -0.1108
  C  C403  1  0.146190  0.597130  0.465610  1.0  0.0156
  C  C404  1  0.135010  0.578910  0.429390  1.0  -0.1179
  C  C405  1  0.109310  0.545490  0.428850  1.0  -0.1207
  C  C406  1  0.094260  0.529200  0.464390  1.0  0.0288
  C  C407  1  0.104290  0.546840  0.500770  1.0  -0.1531
  C  C408  1  0.130490  0.580370  0.503300  1.0  0.0272
  C  C409  1  0.142290  0.598850  0.539780  1.0  -0.0922
  C  C410  1  0.165230  0.632800  0.540950  1.0  -0.0976
  C  C411  1  0.064630  0.494940  0.464290  1.0  0.0355
  C  C412  1  0.065560  0.465120  0.493860  1.0  -0.1334
  C  C413  1  0.994740  0.205830  0.812930  1.0  0.7108
  C  C414  1  0.996040  0.179870  0.850590  1.0  -0.135
  C  C415  1  0.032490  0.169780  0.867650  1.0  -0.1096
  C  C416  1  0.034390  0.146190  0.902870  1.0  0.016
  C  C417  1  0.070610  0.135010  0.921090  1.0  -0.1163
  C  C418  1  0.071150  0.109310  0.954510  1.0  -0.1196
  C  C419  1  0.035610  0.094260  0.970800  1.0  0.0307
  C  C420  1  0.999230  0.104290  0.953160  1.0  -0.1548
  C  C421  1  0.996700  0.130490  0.919630  1.0  0.0264
  C  C422  1  0.960220  0.142290  0.901150  1.0  -0.0909
  C  C423  1  0.959050  0.165230  0.867200  1.0  -0.0937
  C  C424  1  0.035710  0.064630  0.005060  1.0  0.0359
  C  C425  1  0.006140  0.065560  0.034880  1.0  -0.1326
  C  C426  1  0.994740  0.294170  0.687070  1.0  0.7106
  C  C427  1  0.996040  0.320130  0.649410  1.0  -0.1355
  C  C428  1  0.032490  0.330220  0.632350  1.0  -0.1102
  C  C429  1  0.034390  0.353810  0.597130  1.0  0.0157
  C  C430  1  0.070610  0.364990  0.578910  1.0  -0.1162
  C  C431  1  0.071150  0.390690  0.545490  1.0  -0.1203
  C  C432  1  0.035610  0.405740  0.529200  1.0  0.031
  C  C433  1  0.999230  0.395710  0.546840  1.0  -0.1541
  C  C434  1  0.996700  0.369510  0.580370  1.0  0.0258
  C  C435  1  0.960220  0.357710  0.598850  1.0  -0.0907
  C  C436  1  0.959050  0.334770  0.632800  1.0  -0.0942
  C  C437  1  0.035710  0.435370  0.494940  1.0  0.0376
  C  C438  1  0.006140  0.434440  0.465120  1.0  -0.131
  C  C439  1  0.505260  0.294170  0.812930  1.0  0.7105
  C  C440  1  0.503960  0.320130  0.850590  1.0  -0.1359
  C  C441  1  0.467510  0.330220  0.867650  1.0  -0.1115
  C  C442  1  0.465610  0.353810  0.902870  1.0  0.0149
  C  C443  1  0.429390  0.364990  0.921090  1.0  -0.1173
  C  C444  1  0.428850  0.390690  0.954510  1.0  -0.121
  C  C445  1  0.464390  0.405740  0.970800  1.0  0.0315
  C  C446  1  0.500770  0.395710  0.953160  1.0  -0.1531
  C  C447  1  0.503300  0.369510  0.919630  1.0  0.0265
  C  C448  1  0.539780  0.357710  0.901150  1.0  -0.0901
  C  C449  1  0.540950  0.334770  0.867200  1.0  -0.0941
  C  C450  1  0.464290  0.435370  0.005060  1.0  0.0359
  C  C451  1  0.493860  0.434440  0.034880  1.0  -0.13
  C  C452  1  0.505260  0.205830  0.687070  1.0  0.7106
  C  C453  1  0.503960  0.179870  0.649410  1.0  -0.1354
  C  C454  1  0.467510  0.169780  0.632350  1.0  -0.1119
  C  C455  1  0.465610  0.146190  0.597130  1.0  0.0159
  C  C456  1  0.429390  0.135010  0.578910  1.0  -0.1181
  C  C457  1  0.428850  0.109310  0.545490  1.0  -0.12
  C  C458  1  0.464390  0.094260  0.529200  1.0  0.03
  C  C459  1  0.500770  0.104290  0.546840  1.0  -0.1532
  C  C460  1  0.503300  0.130490  0.580370  1.0  0.0269
  C  C461  1  0.539780  0.142290  0.598850  1.0  -0.0895
  C  C462  1  0.540950  0.165230  0.632800  1.0  -0.0946
  C  C463  1  0.464290  0.064630  0.494940  1.0  0.0341
  C  C464  1  0.493860  0.065560  0.465120  1.0  -0.1295
  C  C465  1  0.812930  0.994740  0.205830  1.0  0.7097
  C  C466  1  0.850590  0.996040  0.179870  1.0  -0.1352
  C  C467  1  0.867650  0.032490  0.169780  1.0  -0.1125
  C  C468  1  0.902870  0.034390  0.146190  1.0  0.0175
  C  C469  1  0.921090  0.070610  0.135010  1.0  -0.119
  C  C470  1  0.954510  0.071150  0.109310  1.0  -0.1257
  C  C471  1  0.970800  0.035610  0.094260  1.0  0.0273
  C  C472  1  0.953160  0.999230  0.104290  1.0  -0.153
  C  C473  1  0.919630  0.996700  0.130490  1.0  0.028
  C  C474  1  0.901150  0.960220  0.142290  1.0  -0.0914
  C  C475  1  0.867200  0.959050  0.165230  1.0  -0.097
  C  C476  1  0.005060  0.035710  0.064630  1.0  0.0336
  C  C477  1  0.034880  0.006140  0.065560  1.0  -0.1293
  C  C478  1  0.687070  0.994740  0.294170  1.0  0.7097
  C  C479  1  0.649410  0.996040  0.320130  1.0  -0.1354
  C  C480  1  0.632350  0.032490  0.330220  1.0  -0.1117
  C  C481  1  0.597130  0.034390  0.353810  1.0  0.0163
  C  C482  1  0.578910  0.070610  0.364990  1.0  -0.1187
  C  C483  1  0.545490  0.071150  0.390690  1.0  -0.1254
  C  C484  1  0.529200  0.035610  0.405740  1.0  0.0282
  C  C485  1  0.546840  0.999230  0.395710  1.0  -0.1518
  C  C486  1  0.580370  0.996700  0.369510  1.0  0.0282
  C  C487  1  0.598850  0.960220  0.357710  1.0  -0.0923
  C  C488  1  0.632800  0.959050  0.334770  1.0  -0.0958
  C  C489  1  0.494940  0.035710  0.435370  1.0  0.0343
  C  C490  1  0.465120  0.006140  0.434440  1.0  -0.1293
  C  C491  1  0.812930  0.505260  0.294170  1.0  0.7097
  C  C492  1  0.850590  0.503960  0.320130  1.0  -0.1356
  C  C493  1  0.867650  0.467510  0.330220  1.0  -0.1108
  C  C494  1  0.902870  0.465610  0.353810  1.0  0.016
  C  C495  1  0.921090  0.429390  0.364990  1.0  -0.1196
  C  C496  1  0.954510  0.428850  0.390690  1.0  -0.1268
  C  C497  1  0.970800  0.464390  0.405740  1.0  0.0287
  C  C498  1  0.953160  0.500770  0.395710  1.0  -0.1528
  C  C499  1  0.919630  0.503300  0.369510  1.0  0.027
  C  C500  1  0.901150  0.539780  0.357710  1.0  -0.0921
  C  C501  1  0.867200  0.540950  0.334770  1.0  -0.0983
  C  C502  1  0.005060  0.464290  0.435370  1.0  0.0348
  C  C503  1  0.034880  0.493860  0.434440  1.0  -0.13
  C  C504  1  0.687070  0.505260  0.205830  1.0  0.7098
  C  C505  1  0.649410  0.503960  0.179870  1.0  -0.1352
  C  C506  1  0.632350  0.467510  0.169780  1.0  -0.1095
  C  C507  1  0.597130  0.465610  0.146190  1.0  0.016
  C  C508  1  0.578910  0.429390  0.135010  1.0  -0.1171
  C  C509  1  0.545490  0.428850  0.109310  1.0  -0.1278
  C  C510  1  0.529200  0.464390  0.094260  1.0  0.0275
  C  C511  1  0.546840  0.500770  0.104290  1.0  -0.1529
  C  C512  1  0.580370  0.503300  0.130490  1.0  0.0283
  C  C513  1  0.598850  0.539780  0.142290  1.0  -0.0931
  C  C514  1  0.632800  0.540950  0.165230  1.0  -0.0977
  C  C515  1  0.494940  0.464290  0.064630  1.0  0.0342
  C  C516  1  0.465120  0.493860  0.065560  1.0  -0.1305
  C  C517  1  0.187070  0.794170  0.494740  1.0  0.7091
  C  C518  1  0.149410  0.820130  0.496040  1.0  -0.1353
  C  C519  1  0.132350  0.830220  0.532490  1.0  -0.1101
  C  C520  1  0.097130  0.853810  0.534390  1.0  0.0171
  C  C521  1  0.078910  0.864990  0.570610  1.0  -0.1187
  C  C522  1  0.045490  0.890690  0.571150  1.0  -0.1287
  C  C523  1  0.029200  0.905740  0.535610  1.0  0.0298
  C  C524  1  0.046840  0.895710  0.499230  1.0  -0.1525
  C  C525  1  0.080370  0.869510  0.496700  1.0  0.027
  C  C526  1  0.098850  0.857710  0.460220  1.0  -0.0958
  C  C527  1  0.132800  0.834770  0.459050  1.0  -0.0962
  C  C528  1  0.994940  0.935370  0.535710  1.0  0.0355
  C  C529  1  0.965120  0.934440  0.506140  1.0  -0.1285
  C  C530  1  0.312930  0.705830  0.494740  1.0  0.7092
  C  C531  1  0.350590  0.679870  0.496040  1.0  -0.1349
  C  C532  1  0.367650  0.669780  0.532490  1.0  -0.1115
  C  C533  1  0.402870  0.646190  0.534390  1.0  0.0179
  C  C534  1  0.421090  0.635010  0.570610  1.0  -0.1196
  C  C535  1  0.454510  0.609310  0.571150  1.0  -0.1243
  C  C536  1  0.470800  0.594260  0.535610  1.0  0.0296
  C  C537  1  0.453160  0.604290  0.499230  1.0  -0.1544
  C  C538  1  0.419630  0.630490  0.496700  1.0  0.0274
  C  C539  1  0.401150  0.642290  0.460220  1.0  -0.0943
  C  C540  1  0.367200  0.665230  0.459050  1.0  -0.0967
  C  C541  1  0.505060  0.564630  0.535710  1.0  0.0343
  C  C542  1  0.534880  0.565560  0.506140  1.0  -0.1299
  C  C543  1  0.187070  0.705830  0.005260  1.0  0.7093
  C  C544  1  0.149410  0.679870  0.003960  1.0  -0.1353
  C  C545  1  0.132350  0.669780  0.967510  1.0  -0.1102
  C  C546  1  0.097130  0.646190  0.965610  1.0  0.0179
  C  C547  1  0.078910  0.635010  0.929390  1.0  -0.1199
  C  C548  1  0.045490  0.609310  0.928850  1.0  -0.1238
  C  C549  1  0.029200  0.594260  0.964390  1.0  0.0287
  C  C550  1  0.046840  0.604290  0.000770  1.0  -0.1529
  C  C551  1  0.080370  0.630490  0.003300  1.0  0.0271
  C  C552  1  0.098850  0.642290  0.039780  1.0  -0.0956
  C  C553  1  0.132800  0.665230  0.040950  1.0  -0.0971
  C  C554  1  0.994940  0.564630  0.964290  1.0  0.0329
  C  C555  1  0.965120  0.565560  0.993860  1.0  -0.1298
  C  C556  1  0.312930  0.794170  0.005260  1.0  0.709
  C  C557  1  0.350590  0.820130  0.003960  1.0  -0.1358
  C  C558  1  0.367650  0.830220  0.967510  1.0  -0.1107
  C  C559  1  0.402870  0.853810  0.965610  1.0  0.0176
  C  C560  1  0.421090  0.864990  0.929390  1.0  -0.1217
  C  C561  1  0.454510  0.890690  0.928850  1.0  -0.1256
  C  C562  1  0.470800  0.905740  0.964390  1.0  0.0306
  C  C563  1  0.453160  0.895710  0.000770  1.0  -0.1526
  C  C564  1  0.419630  0.869510  0.003300  1.0  0.0263
  C  C565  1  0.401150  0.857710  0.039780  1.0  -0.0947
  C  C566  1  0.367200  0.834770  0.040950  1.0  -0.0981
  C  C567  1  0.505060  0.935370  0.964290  1.0  0.036
  C  C568  1  0.534880  0.934440  0.993860  1.0  -0.1291
  C  C569  1  0.794170  0.005260  0.312930  1.0  0.7113
  C  C570  1  0.820130  0.003960  0.350590  1.0  -0.136
  C  C571  1  0.830220  0.967510  0.367650  1.0  -0.1116
  C  C572  1  0.853810  0.965610  0.402870  1.0  0.0172
  C  C573  1  0.864990  0.929390  0.421090  1.0  -0.1167
  C  C574  1  0.890690  0.928850  0.454510  1.0  -0.1229
  C  C575  1  0.905740  0.964390  0.470800  1.0  0.0281
  C  C576  1  0.895710  0.000770  0.453160  1.0  -0.151
  C  C577  1  0.869510  0.003300  0.419630  1.0  0.0278
  C  C578  1  0.857710  0.039780  0.401150  1.0  -0.091
  C  C579  1  0.834770  0.040950  0.367200  1.0  -0.0987
  C  C580  1  0.935370  0.964290  0.505060  1.0  0.0356
  C  C581  1  0.934440  0.993860  0.534880  1.0  -0.1358
  C  C582  1  0.705830  0.005260  0.187070  1.0  0.7112
  C  C583  1  0.679870  0.003960  0.149410  1.0  -0.136
  C  C584  1  0.669780  0.967510  0.132350  1.0  -0.1111
  C  C585  1  0.646190  0.965610  0.097130  1.0  0.0157
  C  C586  1  0.635010  0.929390  0.078910  1.0  -0.116
  C  C587  1  0.609310  0.928850  0.045490  1.0  -0.1213
  C  C588  1  0.594260  0.964390  0.029200  1.0  0.0292
  C  C589  1  0.604290  0.000770  0.046840  1.0  -0.1521
  C  C590  1  0.630490  0.003300  0.080370  1.0  0.0277
  C  C591  1  0.642290  0.039780  0.098850  1.0  -0.0912
  C  C592  1  0.665230  0.040950  0.132800  1.0  -0.0979
  C  C593  1  0.564630  0.964290  0.994940  1.0  0.0364
  C  C594  1  0.565560  0.993860  0.965120  1.0  -0.1348
  C  C595  1  0.705830  0.494740  0.312930  1.0  0.7112
  C  C596  1  0.679870  0.496040  0.350590  1.0  -0.1358
  C  C597  1  0.669780  0.532490  0.367650  1.0  -0.1125
  C  C598  1  0.646190  0.534390  0.402870  1.0  0.0168
  C  C599  1  0.635010  0.570610  0.421090  1.0  -0.1171
  C  C600  1  0.609310  0.571150  0.454510  1.0  -0.1228
  C  C601  1  0.594260  0.535610  0.470800  1.0  0.0288
  C  C602  1  0.604290  0.499230  0.453160  1.0  -0.152
  C  C603  1  0.630490  0.496700  0.419630  1.0  0.0282
  C  C604  1  0.642290  0.460220  0.401150  1.0  -0.0902
  C  C605  1  0.665230  0.459050  0.367200  1.0  -0.097
  C  C606  1  0.564630  0.535710  0.505060  1.0  0.0363
  C  C607  1  0.565560  0.506140  0.534880  1.0  -0.1349
  C  C608  1  0.794170  0.494740  0.187070  1.0  0.7112
  C  C609  1  0.820130  0.496040  0.149410  1.0  -0.1354
  C  C610  1  0.830220  0.532490  0.132350  1.0  -0.1141
  C  C611  1  0.853810  0.534390  0.097130  1.0  0.0174
  C  C612  1  0.864990  0.570610  0.078910  1.0  -0.118
  C  C613  1  0.890690  0.571150  0.045490  1.0  -0.1224
  C  C614  1  0.905740  0.535610  0.029200  1.0  0.0272
  C  C615  1  0.895710  0.499230  0.046840  1.0  -0.1501
  C  C616  1  0.869510  0.496700  0.080370  1.0  0.0277
  C  C617  1  0.857710  0.460220  0.098850  1.0  -0.0909
  C  C618  1  0.834770  0.459050  0.132800  1.0  -0.0975
  C  C619  1  0.935370  0.535710  0.994940  1.0  0.0347
  C  C620  1  0.934440  0.506140  0.965120  1.0  -0.1347
  C  C621  1  0.005260  0.187070  0.705830  1.0  0.7102
  C  C622  1  0.003960  0.149410  0.679870  1.0  -0.1349
  C  C623  1  0.967510  0.132350  0.669780  1.0  -0.1119
  C  C624  1  0.965610  0.097130  0.646190  1.0  0.0132
  C  C625  1  0.929390  0.078910  0.635010  1.0  -0.1176
  C  C626  1  0.928850  0.045490  0.609310  1.0  -0.1217
  C  C627  1  0.964390  0.029200  0.594260  1.0  0.0283
  C  C628  1  0.000770  0.046840  0.604290  1.0  -0.1541
  C  C629  1  0.003300  0.080370  0.630490  1.0  0.0281
  C  C630  1  0.039780  0.098850  0.642290  1.0  -0.0891
  C  C631  1  0.040950  0.132800  0.665230  1.0  -0.0947
  C  C632  1  0.964290  0.994940  0.564630  1.0  0.034
  C  C633  1  0.993860  0.965120  0.565560  1.0  -0.1305
  C  C634  1  0.005260  0.312930  0.794170  1.0  0.7101
  C  C635  1  0.003960  0.350590  0.820130  1.0  -0.135
  C  C636  1  0.967510  0.367650  0.830220  1.0  -0.1111
  C  C637  1  0.965610  0.402870  0.853810  1.0  0.0138
  C  C638  1  0.929390  0.421090  0.864990  1.0  -0.1191
  C  C639  1  0.928850  0.454510  0.890690  1.0  -0.1206
  C  C640  1  0.964390  0.470800  0.905740  1.0  0.0293
  C  C641  1  0.000770  0.453160  0.895710  1.0  -0.1535
  C  C642  1  0.003300  0.419630  0.869510  1.0  0.0267
  C  C643  1  0.039780  0.401150  0.857710  1.0  -0.0886
  C  C644  1  0.040950  0.367200  0.834770  1.0  -0.0937
  C  C645  1  0.964290  0.505060  0.935370  1.0  0.0345
  C  C646  1  0.993860  0.534880  0.934440  1.0  -0.1301
  C  C647  1  0.494740  0.187070  0.794170  1.0  0.7102
  C  C648  1  0.496040  0.149410  0.820130  1.0  -0.1348
  C  C649  1  0.532490  0.132350  0.830220  1.0  -0.1094
  C  C650  1  0.534390  0.097130  0.853810  1.0  0.0138
  C  C651  1  0.570610  0.078910  0.864990  1.0  -0.1173
  C  C652  1  0.571150  0.045490  0.890690  1.0  -0.1212
  C  C653  1  0.535610  0.029200  0.905740  1.0  0.0285
  C  C654  1  0.499230  0.046840  0.895710  1.0  -0.1544
  C  C655  1  0.496700  0.080370  0.869510  1.0  0.0265
  C  C656  1  0.460220  0.098850  0.857710  1.0  -0.09
  C  C657  1  0.459050  0.132800  0.834770  1.0  -0.094
  C  C658  1  0.535710  0.994940  0.935370  1.0  0.0355
  C  C659  1  0.506140  0.965120  0.934440  1.0  -0.1312
  C  C660  1  0.494740  0.312930  0.705830  1.0  0.7103
  C  C661  1  0.496040  0.350590  0.679870  1.0  -0.1348
  C  C662  1  0.532490  0.367650  0.669780  1.0  -0.1097
  C  C663  1  0.534390  0.402870  0.646190  1.0  0.0143
  C  C664  1  0.570610  0.421090  0.635010  1.0  -0.1146
  C  C665  1  0.571150  0.454510  0.609310  1.0  -0.1198
  C  C666  1  0.535610  0.470800  0.594260  1.0  0.0278
  C  C667  1  0.499230  0.453160  0.604290  1.0  -0.1555
  C  C668  1  0.496700  0.419630  0.630490  1.0  0.027
  C  C669  1  0.460220  0.401150  0.642290  1.0  -0.0897
  C  C670  1  0.459050  0.367200  0.665230  1.0  -0.094
  C  C671  1  0.535710  0.505060  0.564630  1.0  0.0342
  C  C672  1  0.506140  0.534880  0.565560  1.0  -0.132
  C  C673  1  0.812930  0.205830  0.505260  1.0  0.7091
  C  C674  1  0.850590  0.179870  0.503960  1.0  -0.135
  C  C675  1  0.867650  0.169780  0.467510  1.0  -0.1107
  C  C676  1  0.902870  0.146190  0.465610  1.0  0.0178
  C  C677  1  0.921090  0.135010  0.429390  1.0  -0.1222
  C  C678  1  0.954510  0.109310  0.428850  1.0  -0.1252
  C  C679  1  0.970800  0.094260  0.464390  1.0  0.0302
  C  C680  1  0.953160  0.104290  0.500770  1.0  -0.153
  C  C681  1  0.919630  0.130490  0.503300  1.0  0.0269
  C  C682  1  0.901150  0.142290  0.539780  1.0  -0.0938
  C  C683  1  0.867200  0.165230  0.540950  1.0  -0.0983
  C  C684  1  0.005060  0.064630  0.464290  1.0  0.0338
  C  C685  1  0.034880  0.065560  0.493860  1.0  -0.1297
  C  C686  1  0.687070  0.294170  0.505260  1.0  0.7091
  C  C687  1  0.649410  0.320130  0.503960  1.0  -0.1357
  C  C688  1  0.632350  0.330220  0.467510  1.0  -0.1104
  C  C689  1  0.597130  0.353810  0.465610  1.0  0.0177
  C  C690  1  0.578910  0.364990  0.429390  1.0  -0.1197
  C  C691  1  0.545490  0.390690  0.428850  1.0  -0.1236
  C  C692  1  0.529200  0.405740  0.464390  1.0  0.0296
  C  C693  1  0.546840  0.395710  0.500770  1.0  -0.1523
  C  C694  1  0.580370  0.369510  0.503300  1.0  0.0265
  C  C695  1  0.598850  0.357710  0.539780  1.0  -0.0956
  C  C696  1  0.632800  0.334770  0.540950  1.0  -0.0975
  C  C697  1  0.494940  0.435370  0.464290  1.0  0.0344
  C  C698  1  0.465120  0.434440  0.493860  1.0  -0.129
  C  C699  1  0.812930  0.294170  0.994740  1.0  0.709
  C  C700  1  0.850590  0.320130  0.996040  1.0  -0.1355
  C  C701  1  0.867650  0.330220  0.032490  1.0  -0.1115
  C  C702  1  0.902870  0.353810  0.034390  1.0  0.0172
  C  C703  1  0.921090  0.364990  0.070610  1.0  -0.121
  C  C704  1  0.954510  0.390690  0.071150  1.0  -0.1273
  C  C705  1  0.970800  0.405740  0.035610  1.0  0.0301
  C  C706  1  0.953160  0.395710  0.999230  1.0  -0.1533
  C  C707  1  0.919630  0.369510  0.996700  1.0  0.0267
  C  C708  1  0.901150  0.357710  0.960220  1.0  -0.0948
  C  C709  1  0.867200  0.334770  0.959050  1.0  -0.0958
  C  C710  1  0.005060  0.435370  0.035710  1.0  0.0365
  C  C711  1  0.034880  0.434440  0.006140  1.0  -0.129
  C  C712  1  0.687070  0.205830  0.994740  1.0  0.7093
  C  C713  1  0.649410  0.179870  0.996040  1.0  -0.1349
  C  C714  1  0.632350  0.169780  0.032490  1.0  -0.1097
  C  C715  1  0.597130  0.146190  0.034390  1.0  0.0175
  C  C716  1  0.578910  0.135010  0.070610  1.0  -0.1172
  C  C717  1  0.545490  0.109310  0.071150  1.0  -0.1267
  C  C718  1  0.529200  0.094260  0.035610  1.0  0.0288
  C  C719  1  0.546840  0.104290  0.999230  1.0  -0.1538
  C  C720  1  0.580370  0.130490  0.996700  1.0  0.0277
  C  C721  1  0.598850  0.142290  0.960220  1.0  -0.096
  C  C722  1  0.632800  0.165230  0.959050  1.0  -0.097
  C  C723  1  0.494940  0.064630  0.035710  1.0  0.0333
  C  C724  1  0.465120  0.065560  0.006140  1.0  -0.1291
  C  C725  1  0.205830  0.994740  0.687070  1.0  0.7112
  C  C726  1  0.179870  0.996040  0.649410  1.0  -0.1357
  C  C727  1  0.169780  0.032490  0.632350  1.0  -0.1132
  C  C728  1  0.146190  0.034390  0.597130  1.0  0.0175
  C  C729  1  0.135010  0.070610  0.578910  1.0  -0.1162
  C  C730  1  0.109310  0.071150  0.545490  1.0  -0.1239
  C  C731  1  0.094260  0.035610  0.529200  1.0  0.029
  C  C732  1  0.104290  0.999230  0.546840  1.0  -0.1521
  C  C733  1  0.130490  0.996700  0.580370  1.0  0.0281
  C  C734  1  0.142290  0.960220  0.598850  1.0  -0.0905
  C  C735  1  0.165230  0.959050  0.632800  1.0  -0.0972
  C  C736  1  0.064630  0.035710  0.494940  1.0  0.036
  C  C737  1  0.065560  0.006140  0.465120  1.0  -0.1346
  C  C738  1  0.294170  0.994740  0.812930  1.0  0.7112
  C  C739  1  0.320130  0.996040  0.850590  1.0  -0.1365
  C  C740  1  0.330220  0.032490  0.867650  1.0  -0.1131
  C  C741  1  0.353810  0.034390  0.902870  1.0  0.0173
  C  C742  1  0.364990  0.070610  0.921090  1.0  -0.1182
  C  C743  1  0.390690  0.071150  0.954510  1.0  -0.1221
  C  C744  1  0.405740  0.035610  0.970800  1.0  0.0278
  C  C745  1  0.395710  0.999230  0.953160  1.0  -0.1499
  C  C746  1  0.369510  0.996700  0.919630  1.0  0.0278
  C  C747  1  0.357710  0.960220  0.901150  1.0  -0.0909
  C  C748  1  0.334770  0.959050  0.867200  1.0  -0.097
  C  C749  1  0.435370  0.035710  0.005060  1.0  0.035
  C  C750  1  0.434440  0.006140  0.034880  1.0  -0.135
  C  C751  1  0.294170  0.505260  0.687070  1.0  0.7112
  C  C752  1  0.320130  0.503960  0.649410  1.0  -0.1355
  C  C753  1  0.330220  0.467510  0.632350  1.0  -0.1117
  C  C754  1  0.353810  0.465610  0.597130  1.0  0.017
  C  C755  1  0.364990  0.429390  0.578910  1.0  -0.1172
  C  C756  1  0.390690  0.428850  0.545490  1.0  -0.1228
  C  C757  1  0.405740  0.464390  0.529200  1.0  0.027
  C  C758  1  0.395710  0.500770  0.546840  1.0  -0.1511
  C  C759  1  0.369510  0.503300  0.580370  1.0  0.0276
  C  C760  1  0.357710  0.539780  0.598850  1.0  -0.0907
  C  C761  1  0.334770  0.540950  0.632800  1.0  -0.0991
  C  C762  1  0.435370  0.464290  0.494940  1.0  0.0351
  C  C763  1  0.434440  0.493860  0.465120  1.0  -0.1352
  C  C764  1  0.205830  0.505260  0.812930  1.0  0.7113
  C  C765  1  0.179870  0.503960  0.850590  1.0  -0.1355
  C  C766  1  0.169780  0.467510  0.867650  1.0  -0.111
  C  C767  1  0.146190  0.465610  0.902870  1.0  0.0152
  C  C768  1  0.135010  0.429390  0.921090  1.0  -0.1159
  C  C769  1  0.109310  0.428850  0.954510  1.0  -0.1214
  C  C770  1  0.094260  0.464390  0.970800  1.0  0.0293
  C  C771  1  0.104290  0.500770  0.953160  1.0  -0.1519
  C  C772  1  0.130490  0.503300  0.919630  1.0  0.0279
  C  C773  1  0.142290  0.539780  0.901150  1.0  -0.0914
  C  C774  1  0.165230  0.540950  0.867200  1.0  -0.0978
  C  C775  1  0.064630  0.464290  0.005060  1.0  0.0369
  C  C776  1  0.065560  0.493860  0.034880  1.0  -0.1348
  C  C777  1  0.994740  0.812930  0.294170  1.0  0.7102
  C  C778  1  0.996040  0.850590  0.320130  1.0  -0.1352
  C  C779  1  0.032490  0.867650  0.330220  1.0  -0.1096
  C  C780  1  0.034390  0.902870  0.353810  1.0  0.0137
  C  C781  1  0.070610  0.921090  0.364990  1.0  -0.1171
  C  C782  1  0.071150  0.954510  0.390690  1.0  -0.1202
  C  C783  1  0.035610  0.970800  0.405740  1.0  0.0294
  C  C784  1  0.999230  0.953160  0.395710  1.0  -0.1547
  C  C785  1  0.996700  0.919630  0.369510  1.0  0.026
  C  C786  1  0.960220  0.901150  0.357710  1.0  -0.0898
  C  C787  1  0.959050  0.867200  0.334770  1.0  -0.0932
  C  C788  1  0.035710  0.005060  0.435370  1.0  0.0353
  C  C789  1  0.006140  0.034880  0.434440  1.0  -0.1318
  C  C790  1  0.994740  0.687070  0.205830  1.0  0.7103
  C  C791  1  0.996040  0.649410  0.179870  1.0  -0.1346
  C  C792  1  0.032490  0.632350  0.169780  1.0  -0.1092
  C  C793  1  0.034390  0.597130  0.146190  1.0  0.0149
  C  C794  1  0.070610  0.578910  0.135010  1.0  -0.1147
  C  C795  1  0.071150  0.545490  0.109310  1.0  -0.1206
  C  C796  1  0.035610  0.529200  0.094260  1.0  0.0288
  C  C797  1  0.999230  0.546840  0.104290  1.0  -0.1555
  C  C798  1  0.996700  0.580370  0.130490  1.0  0.0269
  C  C799  1  0.960220  0.598850  0.142290  1.0  -0.0902
  C  C800  1  0.959050  0.632800  0.165230  1.0  -0.0949
  C  C801  1  0.035710  0.494940  0.064630  1.0  0.0357
  C  C802  1  0.006140  0.465120  0.065560  1.0  -0.1314
  C  C803  1  0.505260  0.812930  0.205830  1.0  0.7101
  C  C804  1  0.503960  0.850590  0.179870  1.0  -0.1348
  C  C805  1  0.467510  0.867650  0.169780  1.0  -0.1121
  C  C806  1  0.465610  0.902870  0.146190  1.0  0.0126
  C  C807  1  0.429390  0.921090  0.135010  1.0  -0.1175
  C  C808  1  0.428850  0.954510  0.109310  1.0  -0.1213
  C  C809  1  0.464390  0.970800  0.094260  1.0  0.0272
  C  C810  1  0.500770  0.953160  0.104290  1.0  -0.1539
  C  C811  1  0.503300  0.919630  0.130490  1.0  0.0279
  C  C812  1  0.539780  0.901150  0.142290  1.0  -0.0886
  C  C813  1  0.540950  0.867200  0.165230  1.0  -0.0944
  C  C814  1  0.464290  0.005060  0.064630  1.0  0.0331
  C  C815  1  0.493860  0.034880  0.065560  1.0  -0.1308
  C  C816  1  0.505260  0.687070  0.294170  1.0  0.7101
  C  C817  1  0.503960  0.649410  0.320130  1.0  -0.1347
  C  C818  1  0.467510  0.632350  0.330220  1.0  -0.111
  C  C819  1  0.465610  0.597130  0.353810  1.0  0.0135
  C  C820  1  0.429390  0.578910  0.364990  1.0  -0.1195
  C  C821  1  0.428850  0.545490  0.390690  1.0  -0.121
  C  C822  1  0.464390  0.529200  0.405740  1.0  0.028
  C  C823  1  0.500770  0.546840  0.395710  1.0  -0.1532
  C  C824  1  0.503300  0.580370  0.369510  1.0  0.027
  C  C825  1  0.539780  0.598850  0.357710  1.0  -0.089
  C  C826  1  0.540950  0.632800  0.334770  1.0  -0.0944
  C  C827  1  0.464290  0.494940  0.435370  1.0  0.0345
  C  C828  1  0.493860  0.465120  0.434440  1.0  -0.13
  C  C829  1  0.794170  0.187070  0.005260  1.0  0.7102
  C  C830  1  0.820130  0.149410  0.003960  1.0  -0.1347
  C  C831  1  0.830220  0.132350  0.967510  1.0  -0.1115
  C  C832  1  0.853810  0.097130  0.965610  1.0  0.017
  C  C833  1  0.864990  0.078910  0.929390  1.0  -0.1192
  C  C834  1  0.890690  0.045490  0.928850  1.0  -0.1205
  C  C835  1  0.905740  0.029200  0.964390  1.0  0.0266
  C  C836  1  0.895710  0.046840  0.000770  1.0  -0.151
  C  C837  1  0.869510  0.080370  0.003300  1.0  0.0268
  C  C838  1  0.857710  0.098850  0.039780  1.0  -0.0926
  C  C839  1  0.834770  0.132800  0.040950  1.0  -0.0989
  C  C840  1  0.935370  0.994940  0.964290  1.0  0.0341
  C  C841  1  0.934440  0.965120  0.993860  1.0  -0.1336
  C  C842  1  0.705830  0.312930  0.005260  1.0  0.7104
  C  C843  1  0.679870  0.350590  0.003960  1.0  -0.1348
  C  C844  1  0.669780  0.367650  0.967510  1.0  -0.1109
  C  C845  1  0.646190  0.402870  0.965610  1.0  0.0156
  C  C846  1  0.635010  0.421090  0.929390  1.0  -0.1181
  C  C847  1  0.609310  0.454510  0.928850  1.0  -0.12
  C  C848  1  0.594260  0.470800  0.964390  1.0  0.0287
  C  C849  1  0.604290  0.453160  0.000770  1.0  -0.1532
  C  C850  1  0.630490  0.419630  0.003300  1.0  0.027
  C  C851  1  0.642290  0.401150  0.039780  1.0  -0.092
  C  C852  1  0.665230  0.367200  0.040950  1.0  -0.0974
  C  C853  1  0.564630  0.505060  0.964290  1.0  0.0352
  C  C854  1  0.565560  0.534880  0.993860  1.0  -0.1332
  C  C855  1  0.705830  0.187070  0.494740  1.0  0.7103
  C  C856  1  0.679870  0.149410  0.496040  1.0  -0.135
  C  C857  1  0.669780  0.132350  0.532490  1.0  -0.1106
  C  C858  1  0.646190  0.097130  0.534390  1.0  0.0154
  C  C859  1  0.635010  0.078910  0.570610  1.0  -0.1154
  C  C860  1  0.609310  0.045490  0.571150  1.0  -0.1221
  C  C861  1  0.594260  0.029200  0.535610  1.0  0.0282
  C  C862  1  0.604290  0.046840  0.499230  1.0  -0.1536
  C  C863  1  0.630490  0.080370  0.496700  1.0  0.0275
  C  C864  1  0.642290  0.098850  0.460220  1.0  -0.0927
  C  C865  1  0.665230  0.132800  0.459050  1.0  -0.0975
  C  C866  1  0.564630  0.994940  0.535710  1.0  0.0357
  C  C867  1  0.565560  0.965120  0.506140  1.0  -0.1332
  C  C868  1  0.794170  0.312930  0.494740  1.0  0.7103
  C  C869  1  0.820130  0.350590  0.496040  1.0  -0.1351
  C  C870  1  0.830220  0.367650  0.532490  1.0  -0.1129
  C  C871  1  0.853810  0.402870  0.534390  1.0  0.0156
  C  C872  1  0.864990  0.421090  0.570610  1.0  -0.1174
  C  C873  1  0.890690  0.454510  0.571150  1.0  -0.1215
  C  C874  1  0.905740  0.470800  0.535610  1.0  0.0269
  C  C875  1  0.895710  0.453160  0.499230  1.0  -0.1521
  C  C876  1  0.869510  0.419630  0.496700  1.0  0.0274
  C  C877  1  0.857710  0.401150  0.460220  1.0  -0.0925
  C  C878  1  0.834770  0.367200  0.459050  1.0  -0.0956
  C  C879  1  0.935370  0.505060  0.535710  1.0  0.0347
  C  C880  1  0.934440  0.534880  0.506140  1.0  -0.1338
  C  C881  1  0.005260  0.794170  0.187070  1.0  0.7105
  C  C882  1  0.003960  0.820130  0.149410  1.0  -0.1358
  C  C883  1  0.967510  0.830220  0.132350  1.0  -0.1118
  C  C884  1  0.965610  0.853810  0.097130  1.0  0.0151
  C  C885  1  0.929390  0.864990  0.078910  1.0  -0.1178
  C  C886  1  0.928850  0.890690  0.045490  1.0  -0.1204
  C  C887  1  0.964390  0.905740  0.029200  1.0  0.0309
  C  C888  1  0.000770  0.895710  0.046840  1.0  -0.1531
  C  C889  1  0.003300  0.869510  0.080370  1.0  0.0265
  C  C890  1  0.039780  0.857710  0.098850  1.0  -0.09
  C  C891  1  0.040950  0.834770  0.132800  1.0  -0.0945
  C  C892  1  0.964290  0.935370  0.994940  1.0  0.0358
  C  C893  1  0.993860  0.934440  0.965120  1.0  -0.1302
  C  C894  1  0.005260  0.705830  0.312930  1.0  0.7107
  C  C895  1  0.003960  0.679870  0.350590  1.0  -0.135
  C  C896  1  0.967510  0.669780  0.367650  1.0  -0.1113
  C  C897  1  0.965610  0.646190  0.402870  1.0  0.0156
  C  C898  1  0.929390  0.635010  0.421090  1.0  -0.118
  C  C899  1  0.928850  0.609310  0.454510  1.0  -0.1209
  C  C900  1  0.964390  0.594260  0.470800  1.0  0.0305
  C  C901  1  0.000770  0.604290  0.453160  1.0  -0.1532
  C  C902  1  0.003300  0.630490  0.419630  1.0  0.0271
  C  C903  1  0.039780  0.642290  0.401150  1.0  -0.0895
  C  C904  1  0.040950  0.665230  0.367200  1.0  -0.0941
  C  C905  1  0.964290  0.564630  0.505060  1.0  0.0344
  C  C906  1  0.993860  0.565560  0.534880  1.0  -0.1299
  C  C907  1  0.494740  0.705830  0.187070  1.0  0.7107
  C  C908  1  0.496040  0.679870  0.149410  1.0  -0.135
  C  C909  1  0.532490  0.669780  0.132350  1.0  -0.1102
  C  C910  1  0.534390  0.646190  0.097130  1.0  0.0166
  C  C911  1  0.570610  0.635010  0.078910  1.0  -0.1153
  C  C912  1  0.571150  0.609310  0.045490  1.0  -0.1191
  C  C913  1  0.535610  0.594260  0.029200  1.0  0.0306
  C  C914  1  0.499230  0.604290  0.046840  1.0  -0.1546
  C  C915  1  0.496700  0.630490  0.080370  1.0  0.0262
  C  C916  1  0.460220  0.642290  0.098850  1.0  -0.0911
  C  C917  1  0.459050  0.665230  0.132800  1.0  -0.0948
  C  C918  1  0.535710  0.564630  0.994940  1.0  0.0354
  C  C919  1  0.506140  0.565560  0.965120  1.0  -0.1317
  C  C920  1  0.494740  0.794170  0.312930  1.0  0.7106
  C  C921  1  0.496040  0.820130  0.350590  1.0  -0.1359
  C  C922  1  0.532490  0.830220  0.367650  1.0  -0.1099
  C  C923  1  0.534390  0.853810  0.402870  1.0  0.0153
  C  C924  1  0.570610  0.864990  0.421090  1.0  -0.1167
  C  C925  1  0.571150  0.890690  0.454510  1.0  -0.1204
  C  C926  1  0.535610  0.905740  0.470800  1.0  0.0313
  C  C927  1  0.499230  0.895710  0.453160  1.0  -0.1541
  C  C928  1  0.496700  0.869510  0.419630  1.0  0.0258
  C  C929  1  0.460220  0.857710  0.401150  1.0  -0.0907
  C  C930  1  0.459050  0.834770  0.367200  1.0  -0.0935
  C  C931  1  0.535710  0.935370  0.505060  1.0  0.0382
  C  C932  1  0.506140  0.934440  0.534880  1.0  -0.1318
  C  C933  1  0.187070  0.005260  0.794170  1.0  0.7098
  C  C934  1  0.149410  0.003960  0.820130  1.0  -0.1353
  C  C935  1  0.132350  0.967510  0.830220  1.0  -0.1101
  C  C936  1  0.097130  0.965610  0.853810  1.0  0.0159
  C  C937  1  0.078910  0.929390  0.864990  1.0  -0.1174
  C  C938  1  0.045490  0.928850  0.890690  1.0  -0.126
  C  C939  1  0.029200  0.964390  0.905740  1.0  0.0277
  C  C940  1  0.046840  0.000770  0.895710  1.0  -0.1519
  C  C941  1  0.080370  0.003300  0.869510  1.0  0.0276
  C  C942  1  0.098850  0.039780  0.857710  1.0  -0.0932
  C  C943  1  0.132800  0.040950  0.834770  1.0  -0.0975
  C  C944  1  0.994940  0.964290  0.935370  1.0  0.0344
  C  C945  1  0.965120  0.993860  0.934440  1.0  -0.1295
  C  C946  1  0.312930  0.005260  0.705830  1.0  0.7097
  C  C947  1  0.350590  0.003960  0.679870  1.0  -0.1353
  C  C948  1  0.367650  0.967510  0.669780  1.0  -0.1105
  C  C949  1  0.402870  0.965610  0.646190  1.0  0.0161
  C  C950  1  0.421090  0.929390  0.635010  1.0  -0.1194
  C  C951  1  0.454510  0.928850  0.609310  1.0  -0.127
  C  C952  1  0.470800  0.964390  0.594260  1.0  0.0289
  C  C953  1  0.453160  0.000770  0.604290  1.0  -0.153
  C  C954  1  0.419630  0.003300  0.630490  1.0  0.028
  C  C955  1  0.401150  0.039780  0.642290  1.0  -0.0914
  C  C956  1  0.367200  0.040950  0.665230  1.0  -0.0989
  C  C957  1  0.505060  0.964290  0.564630  1.0  0.0354
  C  C958  1  0.534880  0.993860  0.565560  1.0  -0.13
  C  C959  1  0.187070  0.494740  0.705830  1.0  0.7098
  C  C960  1  0.149410  0.496040  0.679870  1.0  -0.1351
  C  C961  1  0.132350  0.532490  0.669780  1.0  -0.1111
  C  C962  1  0.097130  0.534390  0.646190  1.0  0.0173
  C  C963  1  0.078910  0.570610  0.635010  1.0  -0.1163
  C  C964  1  0.045490  0.571150  0.609310  1.0  -0.1271
  C  C965  1  0.029200  0.535610  0.594260  1.0  0.0267
  C  C966  1  0.046840  0.499230  0.604290  1.0  -0.1528
  C  C967  1  0.080370  0.496700  0.630490  1.0  0.028
  C  C968  1  0.098850  0.460220  0.642290  1.0  -0.0929
  C  C969  1  0.132800  0.459050  0.665230  1.0  -0.0966
  C  C970  1  0.994940  0.535710  0.564630  1.0  0.0324
  C  C971  1  0.965120  0.506140  0.565560  1.0  -0.1295
  C  C972  1  0.312930  0.494740  0.794170  1.0  0.7096
  C  C973  1  0.350590  0.496040  0.820130  1.0  -0.1358
  C  C974  1  0.367650  0.532490  0.830220  1.0  -0.1124
  C  C975  1  0.402870  0.534390  0.853810  1.0  0.0163
  C  C976  1  0.421090  0.570610  0.864990  1.0  -0.1217
  C  C977  1  0.454510  0.571150  0.890690  1.0  -0.1262
  C  C978  1  0.470800  0.535610  0.905740  1.0  0.0284
  C  C979  1  0.453160  0.499230  0.895710  1.0  -0.1524
  C  C980  1  0.419630  0.496700  0.869510  1.0  0.0277
  C  C981  1  0.401150  0.460220  0.857710  1.0  -0.0913
  C  C982  1  0.367200  0.459050  0.834770  1.0  -0.0965
  C  C983  1  0.505060  0.535710  0.935370  1.0  0.0348
  C  C984  1  0.534880  0.506140  0.934440  1.0  -0.1297
  O  O985  1  0.216070  0.798490  0.028700  1.0  -0.5987
  O  O986  1  0.215490  0.799700  0.960380  1.0  -0.5665
  O  O987  1  0.283930  0.701510  0.028700  1.0  -0.5989
  O  O988  1  0.284510  0.700300  0.960380  1.0  -0.5653
  O  O989  1  0.283930  0.798490  0.471300  1.0  -0.6004
  O  O990  1  0.284510  0.799700  0.539620  1.0  -0.566
  O  O991  1  0.216070  0.701510  0.471300  1.0  -0.5998
  O  O992  1  0.215490  0.700300  0.539620  1.0  -0.5664
  O  O993  1  0.028700  0.216070  0.798490  1.0  -0.5996
  O  O994  1  0.960380  0.215490  0.799700  1.0  -0.569
  O  O995  1  0.028700  0.283930  0.701510  1.0  -0.5998
  O  O996  1  0.960380  0.284510  0.700300  1.0  -0.569
  O  O997  1  0.471300  0.283930  0.798490  1.0  -0.5998
  O  O998  1  0.539620  0.284510  0.799700  1.0  -0.5692
  O  O999  1  0.471300  0.216070  0.701510  1.0  -0.5997
  O  O1000  1  0.539620  0.215490  0.700300  1.0  -0.5692
  O  O1001  1  0.798490  0.028700  0.216070  1.0  -0.6003
  O  O1002  1  0.799700  0.960380  0.215490  1.0  -0.5691
  O  O1003  1  0.701510  0.028700  0.283930  1.0  -0.5997
  O  O1004  1  0.700300  0.960380  0.284510  1.0  -0.5687
  O  O1005  1  0.798490  0.471300  0.283930  1.0  -0.6004
  O  O1006  1  0.799700  0.539620  0.284510  1.0  -0.5674
  O  O1007  1  0.701510  0.471300  0.216070  1.0  -0.5996
  O  O1008  1  0.700300  0.539620  0.215490  1.0  -0.567
  O  O1009  1  0.201510  0.783930  0.528700  1.0  -0.5988
  O  O1010  1  0.200300  0.784510  0.460380  1.0  -0.5668
  O  O1011  1  0.298490  0.716070  0.528700  1.0  -0.5995
  O  O1012  1  0.299700  0.715490  0.460380  1.0  -0.5668
  O  O1013  1  0.201510  0.716070  0.971300  1.0  -0.5996
  O  O1014  1  0.200300  0.715490  0.039620  1.0  -0.567
  O  O1015  1  0.298490  0.783930  0.971300  1.0  -0.6011
  O  O1016  1  0.299700  0.784510  0.039620  1.0  -0.5671
  O  O1017  1  0.783930  0.971300  0.298490  1.0  -0.5999
  O  O1018  1  0.784510  0.039620  0.299700  1.0  -0.5665
  O  O1019  1  0.716070  0.971300  0.201510  1.0  -0.5995
  O  O1020  1  0.715490  0.039620  0.200300  1.0  -0.5671
  O  O1021  1  0.716070  0.528700  0.298490  1.0  -0.5997
  O  O1022  1  0.715490  0.460380  0.299700  1.0  -0.5686
  O  O1023  1  0.783930  0.528700  0.201510  1.0  -0.5996
  O  O1024  1  0.784510  0.460380  0.200300  1.0  -0.5686
  O  O1025  1  0.971300  0.201510  0.716070  1.0  -0.5996
  O  O1026  1  0.039620  0.200300  0.715490  1.0  -0.5687
  O  O1027  1  0.971300  0.298490  0.783930  1.0  -0.5994
  O  O1028  1  0.039620  0.299700  0.784510  1.0  -0.5688
  O  O1029  1  0.528700  0.201510  0.783930  1.0  -0.5994
  O  O1030  1  0.460380  0.200300  0.784510  1.0  -0.5686
  O  O1031  1  0.528700  0.298490  0.716070  1.0  -0.5998
  O  O1032  1  0.460380  0.299700  0.715490  1.0  -0.5686
  O  O1033  1  0.798490  0.216070  0.471300  1.0  -0.6006
  O  O1034  1  0.799700  0.215490  0.539620  1.0  -0.5672
  O  O1035  1  0.701510  0.283930  0.471300  1.0  -0.6003
  O  O1036  1  0.700300  0.284510  0.539620  1.0  -0.5666
  O  O1037  1  0.798490  0.283930  0.028700  1.0  -0.5997
  O  O1038  1  0.799700  0.284510  0.960380  1.0  -0.5669
  O  O1039  1  0.701510  0.216070  0.028700  1.0  -0.5989
  O  O1040  1  0.700300  0.215490  0.960380  1.0  -0.5665
  O  O1041  1  0.216070  0.028700  0.701510  1.0  -0.5997
  O  O1042  1  0.215490  0.960380  0.700300  1.0  -0.5686
  O  O1043  1  0.283930  0.028700  0.798490  1.0  -0.5996
  O  O1044  1  0.284510  0.960380  0.799700  1.0  -0.5684
  O  O1045  1  0.283930  0.471300  0.701510  1.0  -0.6
  O  O1046  1  0.284510  0.539620  0.700300  1.0  -0.5666
  O  O1047  1  0.216070  0.471300  0.798490  1.0  -0.5998
  O  O1048  1  0.215490  0.539620  0.799700  1.0  -0.5671
  O  O1049  1  0.028700  0.798490  0.283930  1.0  -0.5997
  O  O1050  1  0.960380  0.799700  0.284510  1.0  -0.5686
  O  O1051  1  0.028700  0.701510  0.216070  1.0  -0.5998
  O  O1052  1  0.960380  0.700300  0.215490  1.0  -0.5686
  O  O1053  1  0.471300  0.798490  0.216070  1.0  -0.5995
  O  O1054  1  0.539620  0.799700  0.215490  1.0  -0.5686
  O  O1055  1  0.471300  0.701510  0.283930  1.0  -0.5994
  O  O1056  1  0.539620  0.700300  0.284510  1.0  -0.5689
  O  O1057  1  0.783930  0.201510  0.971300  1.0  -0.5999
  O  O1058  1  0.784510  0.200300  0.039620  1.0  -0.5662
  O  O1059  1  0.716070  0.298490  0.971300  1.0  -0.6002
  O  O1060  1  0.715490  0.299700  0.039620  1.0  -0.5666
  O  O1061  1  0.716070  0.201510  0.528700  1.0  -0.5986
  O  O1062  1  0.715490  0.200300  0.460380  1.0  -0.5661
  O  O1063  1  0.783930  0.298490  0.528700  1.0  -0.5989
  O  O1064  1  0.784510  0.299700  0.460380  1.0  -0.5657
  O  O1065  1  0.971300  0.783930  0.201510  1.0  -0.5998
  O  O1066  1  0.039620  0.784510  0.200300  1.0  -0.5692
  O  O1067  1  0.971300  0.716070  0.298490  1.0  -0.5996
  O  O1068  1  0.039620  0.715490  0.299700  1.0  -0.5691
  O  O1069  1  0.528700  0.716070  0.201510  1.0  -0.5996
  O  O1070  1  0.460380  0.715490  0.200300  1.0  -0.5692
  O  O1071  1  0.528700  0.783930  0.298490  1.0  -0.5996
  O  O1072  1  0.460380  0.784510  0.299700  1.0  -0.569
  O  O1073  1  0.201510  0.971300  0.783930  1.0  -0.5993
  O  O1074  1  0.200300  0.039620  0.784510  1.0  -0.5671
  O  O1075  1  0.298490  0.971300  0.716070  1.0  -0.6003
  O  O1076  1  0.299700  0.039620  0.715490  1.0  -0.5674
  O  O1077  1  0.201510  0.528700  0.716070  1.0  -0.5999
  O  O1078  1  0.200300  0.460380  0.715490  1.0  -0.5685
  O  O1079  1  0.298490  0.528700  0.783930  1.0  -0.6001
  O  O1080  1  0.299700  0.460380  0.784510  1.0  -0.5693
