# generated using pymatgen
data_CuH14(C13O2)2
_symmetry_space_group_name_H-M   'P 1'
_cell_length_a   32.99000000
_cell_length_b   32.99000000
_cell_length_c   32.99000000
_cell_angle_alpha   90.00000000
_cell_angle_beta   90.00000000
_cell_angle_gamma   90.00000000
_symmetry_Int_Tables_number   1
_chemical_formula_structural   CuH14(C13O2)2
_chemical_formula_sum   'Cu24 H336 C624 O96'
_cell_volume   35904.33989900
_cell_formula_units_Z   24
loop_
 _symmetry_equiv_pos_site_id
 _symmetry_equiv_pos_as_xyz
  1  'x, y, z'
loop_
 _atom_site_type_symbol
 _atom_site_label
 _atom_site_symmetry_multiplicity
 _atom_site_fract_x
 _atom_site_fract_y
 _atom_site_fract_z
 _atom_site_occupancy
 _atom_site_charge
  Cu  Cu1  1  0.960260  0.250000  0.750000  1.0  0.9018
  Cu  Cu2  1  0.539740  0.250000  0.750000  1.0  0.9034
  Cu  Cu3  1  0.750000  0.960260  0.250000  1.0  0.9037
  Cu  Cu4  1  0.750000  0.539740  0.250000  1.0  0.9009
  Cu  Cu5  1  0.250000  0.750000  0.960260  1.0  0.9034
  Cu  Cu6  1  0.250000  0.750000  0.539740  1.0  0.9026
  Cu  Cu7  1  0.750000  0.039740  0.250000  1.0  0.9009
  Cu  Cu8  1  0.750000  0.460260  0.250000  1.0  0.9037
  Cu  Cu9  1  0.039740  0.250000  0.750000  1.0  0.9034
  Cu  Cu10  1  0.460260  0.250000  0.750000  1.0  0.9018
  Cu  Cu11  1  0.250000  0.750000  0.460260  1.0  0.9034
  Cu  Cu12  1  0.250000  0.750000  0.039740  1.0  0.9026
  Cu  Cu13  1  0.250000  0.960260  0.750000  1.0  0.9037
  Cu  Cu14  1  0.250000  0.539740  0.750000  1.0  0.9009
  Cu  Cu15  1  0.960260  0.750000  0.250000  1.0  0.9018
  Cu  Cu16  1  0.539740  0.750000  0.250000  1.0  0.9034
  Cu  Cu17  1  0.750000  0.250000  0.539740  1.0  0.9026
  Cu  Cu18  1  0.750000  0.250000  0.960260  1.0  0.9034
  Cu  Cu19  1  0.039740  0.750000  0.250000  1.0  0.9034
  Cu  Cu20  1  0.460260  0.750000  0.250000  1.0  0.9018
  Cu  Cu21  1  0.250000  0.039740  0.750000  1.0  0.9009
  Cu  Cu22  1  0.250000  0.460260  0.750000  1.0  0.9037
  Cu  Cu23  1  0.750000  0.250000  0.039740  1.0  0.9026
  Cu  Cu24  1  0.750000  0.250000  0.460260  1.0  0.9034
  H  H25  1  0.942900  0.356200  0.680400  1.0  0.0964
  H  H26  1  0.062500  0.414300  0.637400  1.0  0.0966
  H  H27  1  0.063000  0.356200  0.678400  1.0  0.117
  H  H28  1  0.904400  0.411000  0.642400  1.0  0.1171
  H  H29  1  0.904900  0.465000  0.599500  1.0  0.112
  H  H30  1  0.025000  0.464700  0.596400  1.0  0.1027
  H  H31  1  0.915800  0.484400  0.533300  1.0  0.108
  H  H32  1  0.557100  0.143800  0.680400  1.0  0.0976
  H  H33  1  0.437500  0.085700  0.637400  1.0  0.0966
  H  H34  1  0.437000  0.143800  0.678400  1.0  0.1166
  H  H35  1  0.595600  0.089000  0.642400  1.0  0.1169
  H  H36  1  0.595100  0.035000  0.599500  1.0  0.1118
  H  H37  1  0.475000  0.035300  0.596400  1.0  0.1029
  H  H38  1  0.584200  0.015600  0.533300  1.0  0.1074
  H  H39  1  0.557100  0.356200  0.819600  1.0  0.0974
  H  H40  1  0.437500  0.414300  0.862600  1.0  0.0962
  H  H41  1  0.437000  0.356200  0.821600  1.0  0.1167
  H  H42  1  0.595600  0.411000  0.857600  1.0  0.1174
  H  H43  1  0.595100  0.465000  0.900500  1.0  0.1124
  H  H44  1  0.475000  0.464700  0.903600  1.0  0.1028
  H  H45  1  0.584200  0.484400  0.966700  1.0  0.1082
  H  H46  1  0.942900  0.143800  0.819600  1.0  0.0971
  H  H47  1  0.062500  0.085700  0.862600  1.0  0.0969
  H  H48  1  0.063000  0.143800  0.821600  1.0  0.1172
  H  H49  1  0.904400  0.089000  0.857600  1.0  0.1172
  H  H50  1  0.904900  0.035000  0.900500  1.0  0.1123
  H  H51  1  0.025000  0.035300  0.903600  1.0  0.1026
  H  H52  1  0.915800  0.015600  0.966700  1.0  0.1077
  H  H53  1  0.680400  0.942900  0.356200  1.0  0.0969
  H  H54  1  0.637400  0.062500  0.414300  1.0  0.0939
  H  H55  1  0.678400  0.063000  0.356200  1.0  0.1171
  H  H56  1  0.642400  0.904400  0.411000  1.0  0.1158
  H  H57  1  0.599500  0.904900  0.465000  1.0  0.1101
  H  H58  1  0.596400  0.025000  0.464700  1.0  0.1009
  H  H59  1  0.533300  0.915800  0.484400  1.0  0.1058
  H  H60  1  0.680400  0.557100  0.143800  1.0  0.097
  H  H61  1  0.637400  0.437500  0.085700  1.0  0.0941
  H  H62  1  0.678400  0.437000  0.143800  1.0  0.1172
  H  H63  1  0.642400  0.595600  0.089000  1.0  0.1161
  H  H64  1  0.599500  0.595100  0.035000  1.0  0.111
  H  H65  1  0.596400  0.475000  0.035300  1.0  0.1015
  H  H66  1  0.533300  0.584200  0.015600  1.0  0.1053
  H  H67  1  0.819600  0.557100  0.356200  1.0  0.097
  H  H68  1  0.862600  0.437500  0.414300  1.0  0.0934
  H  H69  1  0.821600  0.437000  0.356200  1.0  0.1166
  H  H70  1  0.857600  0.595600  0.411000  1.0  0.1166
  H  H71  1  0.900500  0.595100  0.465000  1.0  0.1101
  H  H72  1  0.903600  0.475000  0.464700  1.0  0.1019
  H  H73  1  0.966700  0.584200  0.484400  1.0  0.1063
  H  H74  1  0.819600  0.942900  0.143800  1.0  0.0964
  H  H75  1  0.862600  0.062500  0.085700  1.0  0.0937
  H  H76  1  0.821600  0.063000  0.143800  1.0  0.1174
  H  H77  1  0.857600  0.904400  0.089000  1.0  0.1155
  H  H78  1  0.900500  0.904900  0.035000  1.0  0.1099
  H  H79  1  0.903600  0.025000  0.035300  1.0  0.1017
  H  H80  1  0.966700  0.915800  0.015600  1.0  0.1055
  H  H81  1  0.356200  0.680400  0.942900  1.0  0.097
  H  H82  1  0.414300  0.637400  0.062500  1.0  0.0961
  H  H83  1  0.356200  0.678400  0.063000  1.0  0.1164
  H  H84  1  0.411000  0.642400  0.904400  1.0  0.1174
  H  H85  1  0.465000  0.599500  0.904900  1.0  0.1122
  H  H86  1  0.464700  0.596400  0.025000  1.0  0.1005
  H  H87  1  0.484400  0.533300  0.915800  1.0  0.1078
  H  H88  1  0.143800  0.680400  0.557100  1.0  0.0979
  H  H89  1  0.085700  0.637400  0.437500  1.0  0.095
  H  H90  1  0.143800  0.678400  0.437000  1.0  0.1162
  H  H91  1  0.089000  0.642400  0.595600  1.0  0.1163
  H  H92  1  0.035000  0.599500  0.595100  1.0  0.1115
  H  H93  1  0.035300  0.596400  0.475000  1.0  0.1004
  H  H94  1  0.015600  0.533300  0.584200  1.0  0.1076
  H  H95  1  0.356200  0.819600  0.557100  1.0  0.0971
  H  H96  1  0.414300  0.862600  0.437500  1.0  0.0961
  H  H97  1  0.356200  0.821600  0.437000  1.0  0.116
  H  H98  1  0.411000  0.857600  0.595600  1.0  0.1158
  H  H99  1  0.465000  0.900500  0.595100  1.0  0.1106
  H  H100  1  0.464700  0.903600  0.475000  1.0  0.1004
  H  H101  1  0.484400  0.966700  0.584200  1.0  0.1073
  H  H102  1  0.143800  0.819600  0.942900  1.0  0.0974
  H  H103  1  0.085700  0.862600  0.062500  1.0  0.0955
  H  H104  1  0.143800  0.821600  0.063000  1.0  0.1163
  H  H105  1  0.089000  0.857600  0.904400  1.0  0.1168
  H  H106  1  0.035000  0.900500  0.904900  1.0  0.1118
  H  H107  1  0.035300  0.903600  0.025000  1.0  0.1011
  H  H108  1  0.015600  0.966700  0.915800  1.0  0.1072
  H  H109  1  0.643800  0.057100  0.180400  1.0  0.098
  H  H110  1  0.585700  0.937500  0.137400  1.0  0.0963
  H  H111  1  0.643800  0.937000  0.178400  1.0  0.1172
  H  H112  1  0.589000  0.095600  0.142400  1.0  0.1165
  H  H113  1  0.535000  0.095100  0.099500  1.0  0.1115
  H  H114  1  0.535300  0.975000  0.096400  1.0  0.1031
  H  H115  1  0.515600  0.084200  0.033300  1.0  0.1066
  H  H116  1  0.856200  0.442900  0.180400  1.0  0.0973
  H  H117  1  0.914300  0.562500  0.137400  1.0  0.0961
  H  H118  1  0.856200  0.563000  0.178400  1.0  0.1175
  H  H119  1  0.911000  0.404400  0.142400  1.0  0.1157
  H  H120  1  0.965000  0.404900  0.099500  1.0  0.1111
  H  H121  1  0.964700  0.525000  0.096400  1.0  0.1017
  H  H122  1  0.984400  0.415800  0.033300  1.0  0.106
  H  H123  1  0.643800  0.442900  0.319600  1.0  0.0979
  H  H124  1  0.585700  0.562500  0.362600  1.0  0.0961
  H  H125  1  0.643800  0.563000  0.321600  1.0  0.1173
  H  H126  1  0.589000  0.404400  0.357600  1.0  0.1158
  H  H127  1  0.535000  0.404900  0.400500  1.0  0.1115
  H  H128  1  0.535300  0.525000  0.403600  1.0  0.1024
  H  H129  1  0.515600  0.415800  0.466700  1.0  0.1066
  H  H130  1  0.856200  0.057100  0.319600  1.0  0.0976
  H  H131  1  0.914300  0.937500  0.362600  1.0  0.0962
  H  H132  1  0.856200  0.937000  0.321600  1.0  0.117
  H  H133  1  0.911000  0.095600  0.357600  1.0  0.1169
  H  H134  1  0.965000  0.095100  0.400500  1.0  0.1119
  H  H135  1  0.964700  0.975000  0.403600  1.0  0.1025
  H  H136  1  0.984400  0.084200  0.466700  1.0  0.1069
  H  H137  1  0.057100  0.319600  0.856200  1.0  0.0965
  H  H138  1  0.937500  0.362600  0.914300  1.0  0.0944
  H  H139  1  0.937000  0.321600  0.856200  1.0  0.1159
  H  H140  1  0.095600  0.357600  0.911000  1.0  0.1166
  H  H141  1  0.095100  0.400500  0.965000  1.0  0.1108
  H  H142  1  0.975000  0.403600  0.964700  1.0  0.1005
  H  H143  1  0.084200  0.466700  0.984400  1.0  0.1075
  H  H144  1  0.442900  0.319600  0.643800  1.0  0.0958
  H  H145  1  0.562500  0.362600  0.585700  1.0  0.0949
  H  H146  1  0.563000  0.321600  0.643800  1.0  0.1166
  H  H147  1  0.404400  0.357600  0.589000  1.0  0.1168
  H  H148  1  0.404900  0.400500  0.535000  1.0  0.1113
  H  H149  1  0.525000  0.403600  0.535300  1.0  0.1005
  H  H150  1  0.415800  0.466700  0.515600  1.0  0.1068
  H  H151  1  0.442900  0.180400  0.856200  1.0  0.0961
  H  H152  1  0.562500  0.137400  0.914300  1.0  0.0947
  H  H153  1  0.563000  0.178400  0.856200  1.0  0.1164
  H  H154  1  0.404400  0.142400  0.911000  1.0  0.1172
  H  H155  1  0.404900  0.099500  0.965000  1.0  0.111
  H  H156  1  0.525000  0.096400  0.964700  1.0  0.0996
  H  H157  1  0.415800  0.033300  0.984400  1.0  0.1078
  H  H158  1  0.057100  0.180400  0.643800  1.0  0.0967
  H  H159  1  0.937500  0.137400  0.585700  1.0  0.0945
  H  H160  1  0.937000  0.178400  0.643800  1.0  0.1163
  H  H161  1  0.095600  0.142400  0.589000  1.0  0.117
  H  H162  1  0.095100  0.099500  0.535000  1.0  0.111
  H  H163  1  0.975000  0.096400  0.535300  1.0  0.1
  H  H164  1  0.084200  0.033300  0.515600  1.0  0.1069
  H  H165  1  0.319600  0.643800  0.442900  1.0  0.0973
  H  H166  1  0.362600  0.585700  0.562500  1.0  0.0956
  H  H167  1  0.321600  0.643800  0.563000  1.0  0.1164
  H  H168  1  0.357600  0.589000  0.404400  1.0  0.1167
  H  H169  1  0.400500  0.535000  0.404900  1.0  0.1112
  H  H170  1  0.403600  0.535300  0.525000  1.0  0.1032
  H  H171  1  0.466700  0.515600  0.415800  1.0  0.1075
  H  H172  1  0.319600  0.856200  0.057100  1.0  0.0974
  H  H173  1  0.362600  0.914300  0.937500  1.0  0.0951
  H  H174  1  0.321600  0.856200  0.937000  1.0  0.1162
  H  H175  1  0.357600  0.911000  0.095600  1.0  0.117
  H  H176  1  0.400500  0.965000  0.095100  1.0  0.1109
  H  H177  1  0.403600  0.964700  0.975000  1.0  0.1024
  H  H178  1  0.466700  0.984400  0.084200  1.0  0.1081
  H  H179  1  0.180400  0.643800  0.057100  1.0  0.0976
  H  H180  1  0.137400  0.585700  0.937500  1.0  0.0962
  H  H181  1  0.178400  0.643800  0.937000  1.0  0.1165
  H  H182  1  0.142400  0.589000  0.095600  1.0  0.1157
  H  H183  1  0.099500  0.535000  0.095100  1.0  0.1098
  H  H184  1  0.096400  0.535300  0.975000  1.0  0.1025
  H  H185  1  0.033300  0.515600  0.084200  1.0  0.107
  H  H186  1  0.180400  0.856200  0.442900  1.0  0.0972
  H  H187  1  0.137400  0.914300  0.562500  1.0  0.0956
  H  H188  1  0.178400  0.856200  0.563000  1.0  0.1166
  H  H189  1  0.142400  0.911000  0.404400  1.0  0.1179
  H  H190  1  0.099500  0.965000  0.404900  1.0  0.1122
  H  H191  1  0.096400  0.964700  0.525000  1.0  0.1026
  H  H192  1  0.033300  0.984400  0.415800  1.0  0.1079
  H  H193  1  0.356200  0.942900  0.819600  1.0  0.0975
  H  H194  1  0.414300  0.062500  0.862600  1.0  0.0964
  H  H195  1  0.356200  0.063000  0.821600  1.0  0.1174
  H  H196  1  0.411000  0.904400  0.857600  1.0  0.1155
  H  H197  1  0.465000  0.904900  0.900500  1.0  0.1116
  H  H198  1  0.464700  0.025000  0.903600  1.0  0.1019
  H  H199  1  0.484400  0.915800  0.966700  1.0  0.106
  H  H200  1  0.143800  0.557100  0.819600  1.0  0.098
  H  H201  1  0.085700  0.437500  0.862600  1.0  0.0957
  H  H202  1  0.143800  0.437000  0.821600  1.0  0.1171
  H  H203  1  0.089000  0.595600  0.857600  1.0  0.1167
  H  H204  1  0.035000  0.595100  0.900500  1.0  0.1122
  H  H205  1  0.035300  0.475000  0.903600  1.0  0.1028
  H  H206  1  0.015600  0.584200  0.966700  1.0  0.1071
  H  H207  1  0.356200  0.557100  0.680400  1.0  0.0975
  H  H208  1  0.414300  0.437500  0.637400  1.0  0.0967
  H  H209  1  0.356200  0.437000  0.678400  1.0  0.1173
  H  H210  1  0.411000  0.595600  0.642400  1.0  0.1167
  H  H211  1  0.465000  0.595100  0.599500  1.0  0.1112
  H  H212  1  0.464700  0.475000  0.596400  1.0  0.1025
  H  H213  1  0.484400  0.584200  0.533300  1.0  0.1062
  H  H214  1  0.143800  0.942900  0.680400  1.0  0.0977
  H  H215  1  0.085700  0.062500  0.637400  1.0  0.0958
  H  H216  1  0.143800  0.063000  0.678400  1.0  0.1174
  H  H217  1  0.089000  0.904400  0.642400  1.0  0.116
  H  H218  1  0.035000  0.904900  0.599500  1.0  0.111
  H  H219  1  0.035300  0.025000  0.596400  1.0  0.1023
  H  H220  1  0.015600  0.915800  0.533300  1.0  0.1065
  H  H221  1  0.942900  0.680400  0.143800  1.0  0.0957
  H  H222  1  0.062500  0.637400  0.085700  1.0  0.095
  H  H223  1  0.063000  0.678400  0.143800  1.0  0.1165
  H  H224  1  0.904400  0.642400  0.089000  1.0  0.1168
  H  H225  1  0.904900  0.599500  0.035000  1.0  0.111
  H  H226  1  0.025000  0.596400  0.035300  1.0  0.1002
  H  H227  1  0.915800  0.533300  0.015600  1.0  0.1068
  H  H228  1  0.557100  0.680400  0.356200  1.0  0.0971
  H  H229  1  0.437500  0.637400  0.414300  1.0  0.0941
  H  H230  1  0.437000  0.678400  0.356200  1.0  0.116
  H  H231  1  0.595600  0.642400  0.411000  1.0  0.1173
  H  H232  1  0.595100  0.599500  0.465000  1.0  0.1108
  H  H233  1  0.475000  0.596400  0.464700  1.0  0.0995
  H  H234  1  0.584200  0.533300  0.484400  1.0  0.1074
  H  H235  1  0.557100  0.819600  0.143800  1.0  0.0965
  H  H236  1  0.437500  0.862600  0.085700  1.0  0.0944
  H  H237  1  0.437000  0.821600  0.143800  1.0  0.1166
  H  H238  1  0.595600  0.857600  0.089000  1.0  0.1167
  H  H239  1  0.595100  0.900500  0.035000  1.0  0.1109
  H  H240  1  0.475000  0.903600  0.035300  1.0  0.1006
  H  H241  1  0.584200  0.966700  0.015600  1.0  0.107
  H  H242  1  0.942900  0.819600  0.356200  1.0  0.0957
  H  H243  1  0.062500  0.862600  0.414300  1.0  0.095
  H  H244  1  0.063000  0.821600  0.356200  1.0  0.116
  H  H245  1  0.904400  0.857600  0.411000  1.0  0.1169
  H  H246  1  0.904900  0.900500  0.465000  1.0  0.1114
  H  H247  1  0.025000  0.903600  0.464700  1.0  0.1006
  H  H248  1  0.915800  0.966700  0.484400  1.0  0.1075
  H  H249  1  0.680400  0.356200  0.557100  1.0  0.0974
  H  H250  1  0.637400  0.414300  0.437500  1.0  0.0958
  H  H251  1  0.678400  0.356200  0.437000  1.0  0.1163
  H  H252  1  0.642400  0.411000  0.595600  1.0  0.1157
  H  H253  1  0.599500  0.465000  0.595100  1.0  0.1101
  H  H254  1  0.596400  0.464700  0.475000  1.0  0.1025
  H  H255  1  0.533300  0.484400  0.584200  1.0  0.1074
  H  H256  1  0.680400  0.143800  0.942900  1.0  0.0974
  H  H257  1  0.637400  0.085700  0.062500  1.0  0.0959
  H  H258  1  0.678400  0.143800  0.063000  1.0  0.1166
  H  H259  1  0.642400  0.089000  0.904400  1.0  0.1175
  H  H260  1  0.599500  0.035000  0.904900  1.0  0.1118
  H  H261  1  0.596400  0.035300  0.025000  1.0  0.1025
  H  H262  1  0.533300  0.015600  0.915800  1.0  0.1075
  H  H263  1  0.819600  0.356200  0.942900  1.0  0.0973
  H  H264  1  0.862600  0.414300  0.062500  1.0  0.0954
  H  H265  1  0.821600  0.356200  0.063000  1.0  0.1168
  H  H266  1  0.857600  0.411000  0.904400  1.0  0.1167
  H  H267  1  0.900500  0.465000  0.904900  1.0  0.111
  H  H268  1  0.903600  0.464700  0.025000  1.0  0.1032
  H  H269  1  0.966700  0.484400  0.915800  1.0  0.1078
  H  H270  1  0.819600  0.143800  0.557100  1.0  0.0973
  H  H271  1  0.862600  0.085700  0.437500  1.0  0.0955
  H  H272  1  0.821600  0.143800  0.437000  1.0  0.1162
  H  H273  1  0.857600  0.089000  0.595600  1.0  0.1168
  H  H274  1  0.900500  0.035000  0.595100  1.0  0.1112
  H  H275  1  0.903600  0.035300  0.475000  1.0  0.1022
  H  H276  1  0.966700  0.015600  0.584200  1.0  0.1077
  H  H277  1  0.057100  0.643800  0.319600  1.0  0.098
  H  H278  1  0.937500  0.585700  0.362600  1.0  0.0965
  H  H279  1  0.937000  0.643800  0.321600  1.0  0.1167
  H  H280  1  0.095600  0.589000  0.357600  1.0  0.1173
  H  H281  1  0.095100  0.535000  0.400500  1.0  0.112
  H  H282  1  0.975000  0.535300  0.403600  1.0  0.1027
  H  H283  1  0.084200  0.515600  0.466700  1.0  0.108
  H  H284  1  0.442900  0.856200  0.319600  1.0  0.0967
  H  H285  1  0.562500  0.914300  0.362600  1.0  0.0967
  H  H286  1  0.563000  0.856200  0.321600  1.0  0.1168
  H  H287  1  0.404400  0.911000  0.357600  1.0  0.1173
  H  H288  1  0.404900  0.965000  0.400500  1.0  0.1121
  H  H289  1  0.525000  0.964700  0.403600  1.0  0.1026
  H  H290  1  0.415800  0.984400  0.466700  1.0  0.1077
  H  H291  1  0.442900  0.643800  0.180400  1.0  0.0964
  H  H292  1  0.562500  0.585700  0.137400  1.0  0.0969
  H  H293  1  0.563000  0.643800  0.178400  1.0  0.1169
  H  H294  1  0.404400  0.589000  0.142400  1.0  0.1169
  H  H295  1  0.404900  0.535000  0.099500  1.0  0.1119
  H  H296  1  0.525000  0.535300  0.096400  1.0  0.1031
  H  H297  1  0.415800  0.515600  0.033300  1.0  0.1077
  H  H298  1  0.057100  0.856200  0.180400  1.0  0.0973
  H  H299  1  0.937500  0.914300  0.137400  1.0  0.0962
  H  H300  1  0.937000  0.856200  0.178400  1.0  0.117
  H  H301  1  0.095600  0.911000  0.142400  1.0  0.117
  H  H302  1  0.095100  0.965000  0.099500  1.0  0.1119
  H  H303  1  0.975000  0.964700  0.096400  1.0  0.1029
  H  H304  1  0.084200  0.984400  0.033300  1.0  0.1079
  H  H305  1  0.319600  0.057100  0.643800  1.0  0.097
  H  H306  1  0.362600  0.937500  0.585700  1.0  0.0934
  H  H307  1  0.321600  0.937000  0.643800  1.0  0.1171
  H  H308  1  0.357600  0.095600  0.589000  1.0  0.1164
  H  H309  1  0.400500  0.095100  0.535000  1.0  0.1108
  H  H310  1  0.403600  0.975000  0.535300  1.0  0.1016
  H  H311  1  0.466700  0.084200  0.515600  1.0  0.1055
  H  H312  1  0.319600  0.442900  0.856200  1.0  0.0964
  H  H313  1  0.362600  0.562500  0.914300  1.0  0.0935
  H  H314  1  0.321600  0.563000  0.856200  1.0  0.1171
  H  H315  1  0.357600  0.404400  0.911000  1.0  0.1154
  H  H316  1  0.400500  0.404900  0.965000  1.0  0.1103
  H  H317  1  0.403600  0.525000  0.964700  1.0  0.1014
  H  H318  1  0.466700  0.415800  0.984400  1.0  0.106
  H  H319  1  0.180400  0.442900  0.643800  1.0  0.0969
  H  H320  1  0.137400  0.562500  0.585700  1.0  0.0943
  H  H321  1  0.178400  0.563000  0.643800  1.0  0.1174
  H  H322  1  0.142400  0.404400  0.589000  1.0  0.1156
  H  H323  1  0.099500  0.404900  0.535000  1.0  0.11
  H  H324  1  0.096400  0.525000  0.535300  1.0  0.1013
  H  H325  1  0.033300  0.415800  0.515600  1.0  0.1053
  H  H326  1  0.180400  0.057100  0.856200  1.0  0.0968
  H  H327  1  0.137400  0.937500  0.914300  1.0  0.0938
  H  H328  1  0.178400  0.937000  0.856200  1.0  0.1167
  H  H329  1  0.142400  0.095600  0.911000  1.0  0.1165
  H  H330  1  0.099500  0.095100  0.965000  1.0  0.1102
  H  H331  1  0.096400  0.975000  0.964700  1.0  0.1014
  H  H332  1  0.033300  0.084200  0.984400  1.0  0.106
  H  H333  1  0.643800  0.319600  0.057100  1.0  0.0979
  H  H334  1  0.585700  0.362600  0.937500  1.0  0.0956
  H  H335  1  0.643800  0.321600  0.937000  1.0  0.116
  H  H336  1  0.589000  0.357600  0.095600  1.0  0.116
  H  H337  1  0.535000  0.400500  0.095100  1.0  0.1117
  H  H338  1  0.535300  0.403600  0.975000  1.0  0.1009
  H  H339  1  0.515600  0.466700  0.084200  1.0  0.1081
  H  H340  1  0.856200  0.319600  0.442900  1.0  0.0969
  H  H341  1  0.914300  0.362600  0.562500  1.0  0.0961
  H  H342  1  0.856200  0.321600  0.563000  1.0  0.1165
  H  H343  1  0.911000  0.357600  0.404400  1.0  0.1165
  H  H344  1  0.965000  0.400500  0.404900  1.0  0.1121
  H  H345  1  0.964700  0.403600  0.525000  1.0  0.1007
  H  H346  1  0.984400  0.466700  0.415800  1.0  0.1072
  H  H347  1  0.643800  0.180400  0.442900  1.0  0.0976
  H  H348  1  0.585700  0.137400  0.562500  1.0  0.0957
  H  H349  1  0.643800  0.178400  0.563000  1.0  0.1162
  H  H350  1  0.589000  0.142400  0.404400  1.0  0.1175
  H  H351  1  0.535000  0.099500  0.404900  1.0  0.1118
  H  H352  1  0.535300  0.096400  0.525000  1.0  0.1006
  H  H353  1  0.515600  0.033300  0.415800  1.0  0.1075
  H  H354  1  0.856200  0.180400  0.057100  1.0  0.0971
  H  H355  1  0.914300  0.137400  0.937500  1.0  0.0953
  H  H356  1  0.856200  0.178400  0.937000  1.0  0.1162
  H  H357  1  0.911000  0.142400  0.095600  1.0  0.116
  H  H358  1  0.965000  0.099500  0.095100  1.0  0.1104
  H  H359  1  0.964700  0.096400  0.975000  1.0  0.1002
  H  H360  1  0.984400  0.033300  0.084200  1.0  0.107
  C  C361  1  0.001970  0.313680  0.710570  1.0  0.6806
  C  C362  1  0.000940  0.351460  0.682940  1.0  -0.1362
  C  C363  1  0.967150  0.367630  0.671600  1.0  -0.0278
  C  C364  1  0.965770  0.402900  0.645600  1.0  -0.0053
  C  C365  1  0.002070  0.418660  0.632030  1.0  0.0116
  C  C366  1  0.038190  0.402370  0.645190  1.0  -0.1092
  C  C367  1  0.038620  0.367860  0.670330  1.0  -0.0451
  C  C368  1  0.928980  0.421230  0.633070  1.0  -0.0968
  C  C369  1  0.929280  0.453500  0.607560  1.0  -0.1479
  C  C370  1  0.966000  0.469780  0.593150  1.0  0.0813
  C  C371  1  0.000730  0.453400  0.605360  1.0  -0.1208
  C  C372  1  0.965520  0.503060  0.563580  1.0  -0.012
  C  C373  1  0.936060  0.503970  0.533500  1.0  -0.1406
  C  C374  1  0.498030  0.186320  0.710570  1.0  0.681
  C  C375  1  0.499060  0.148540  0.682940  1.0  -0.1379
  C  C376  1  0.532850  0.132370  0.671600  1.0  -0.0272
  C  C377  1  0.534230  0.097100  0.645600  1.0  -0.0059
  C  C378  1  0.497930  0.081340  0.632030  1.0  0.0115
  C  C379  1  0.461810  0.097630  0.645190  1.0  -0.1087
  C  C380  1  0.461380  0.132140  0.670330  1.0  -0.0479
  C  C381  1  0.571020  0.078770  0.633070  1.0  -0.0949
  C  C382  1  0.570720  0.046500  0.607560  1.0  -0.1465
  C  C383  1  0.534000  0.030220  0.593150  1.0  0.0845
  C  C384  1  0.499270  0.046600  0.605360  1.0  -0.1218
  C  C385  1  0.534480  0.996940  0.563580  1.0  -0.0118
  C  C386  1  0.563940  0.996030  0.533500  1.0  -0.1385
  C  C387  1  0.498030  0.313680  0.789430  1.0  0.6808
  C  C388  1  0.499060  0.351460  0.817060  1.0  -0.1374
  C  C389  1  0.532850  0.367630  0.828400  1.0  -0.0271
  C  C390  1  0.534230  0.402900  0.854400  1.0  -0.0086
  C  C391  1  0.497930  0.418660  0.867970  1.0  0.0108
  C  C392  1  0.461810  0.402370  0.854810  1.0  -0.1096
  C  C393  1  0.461380  0.367860  0.829670  1.0  -0.0488
  C  C394  1  0.571020  0.421230  0.866930  1.0  -0.0967
  C  C395  1  0.570720  0.453500  0.892440  1.0  -0.1455
  C  C396  1  0.534000  0.469780  0.906850  1.0  0.0829
  C  C397  1  0.499270  0.453400  0.894640  1.0  -0.1208
  C  C398  1  0.534480  0.503060  0.936420  1.0  -0.0124
  C  C399  1  0.563940  0.503970  0.966500  1.0  -0.1386
  C  C400  1  0.001970  0.186320  0.789430  1.0  0.6807
  C  C401  1  0.000940  0.148540  0.817060  1.0  -0.1369
  C  C402  1  0.967150  0.132370  0.828400  1.0  -0.0274
  C  C403  1  0.965770  0.097100  0.854400  1.0  -0.0074
  C  C404  1  0.002070  0.081340  0.867970  1.0  0.0111
  C  C405  1  0.038190  0.097630  0.854810  1.0  -0.1083
  C  C406  1  0.038620  0.132140  0.829670  1.0  -0.0456
  C  C407  1  0.928980  0.078770  0.866930  1.0  -0.0966
  C  C408  1  0.929280  0.046500  0.892440  1.0  -0.1461
  C  C409  1  0.966000  0.030220  0.906850  1.0  0.0813
  C  C410  1  0.000730  0.046600  0.894640  1.0  -0.12
  C  C411  1  0.965520  0.996940  0.936420  1.0  -0.0127
  C  C412  1  0.936060  0.996030  0.966500  1.0  -0.1417
  C  C413  1  0.710570  0.001970  0.313680  1.0  0.6795
  C  C414  1  0.682940  0.000940  0.351460  1.0  -0.1369
  C  C415  1  0.671600  0.967150  0.367630  1.0  -0.0261
  C  C416  1  0.645600  0.965770  0.402900  1.0  -0.006
  C  C417  1  0.632030  0.002070  0.418660  1.0  0.0112
  C  C418  1  0.645190  0.038190  0.402370  1.0  -0.1111
  C  C419  1  0.670330  0.038620  0.367860  1.0  -0.0451
  C  C420  1  0.633070  0.928980  0.421230  1.0  -0.0962
  C  C421  1  0.607560  0.929280  0.453500  1.0  -0.1476
  C  C422  1  0.593150  0.966000  0.469780  1.0  0.0837
  C  C423  1  0.605360  0.000730  0.453400  1.0  -0.1213
  C  C424  1  0.563580  0.965520  0.503060  1.0  -0.0099
  C  C425  1  0.533500  0.936060  0.503970  1.0  -0.1361
  C  C426  1  0.710570  0.498030  0.186320  1.0  0.6801
  C  C427  1  0.682940  0.499060  0.148540  1.0  -0.1362
  C  C428  1  0.671600  0.532850  0.132370  1.0  -0.0284
  C  C429  1  0.645600  0.534230  0.097100  1.0  -0.0059
  C  C430  1  0.632030  0.497930  0.081340  1.0  0.0112
  C  C431  1  0.645190  0.461810  0.097630  1.0  -0.109
  C  C432  1  0.670330  0.461380  0.132140  1.0  -0.0445
  C  C433  1  0.633070  0.571020  0.078770  1.0  -0.0977
  C  C434  1  0.607560  0.570720  0.046500  1.0  -0.1507
  C  C435  1  0.593150  0.534000  0.030220  1.0  0.0846
  C  C436  1  0.605360  0.499270  0.046600  1.0  -0.1215
  C  C437  1  0.563580  0.534480  0.996940  1.0  -0.0113
  C  C438  1  0.533500  0.563940  0.996030  1.0  -0.1355
  C  C439  1  0.789430  0.498030  0.313680  1.0  0.6795
  C  C440  1  0.817060  0.499060  0.351460  1.0  -0.1354
  C  C441  1  0.828400  0.532850  0.367630  1.0  -0.0284
  C  C442  1  0.854400  0.534230  0.402900  1.0  -0.0045
  C  C443  1  0.867970  0.497930  0.418660  1.0  0.0113
  C  C444  1  0.854810  0.461810  0.402370  1.0  -0.1092
  C  C445  1  0.829670  0.461380  0.367860  1.0  -0.0455
  C  C446  1  0.866930  0.571020  0.421230  1.0  -0.098
  C  C447  1  0.892440  0.570720  0.453500  1.0  -0.1488
  C  C448  1  0.906850  0.534000  0.469780  1.0  0.0805
  C  C449  1  0.894640  0.499270  0.453400  1.0  -0.1198
  C  C450  1  0.936420  0.534480  0.503060  1.0  -0.0098
  C  C451  1  0.966500  0.563940  0.503970  1.0  -0.1356
  C  C452  1  0.789430  0.001970  0.186320  1.0  0.6798
  C  C453  1  0.817060  0.000940  0.148540  1.0  -0.1353
  C  C454  1  0.828400  0.967150  0.132370  1.0  -0.0265
  C  C455  1  0.854400  0.965770  0.097100  1.0  -0.0059
  C  C456  1  0.867970  0.002070  0.081340  1.0  0.0109
  C  C457  1  0.854810  0.038190  0.097630  1.0  -0.1108
  C  C458  1  0.829670  0.038620  0.132140  1.0  -0.045
  C  C459  1  0.866930  0.928980  0.078770  1.0  -0.0963
  C  C460  1  0.892440  0.929280  0.046500  1.0  -0.1469
  C  C461  1  0.906850  0.966000  0.030220  1.0  0.0808
  C  C462  1  0.894640  0.000730  0.046600  1.0  -0.1215
  C  C463  1  0.936420  0.965520  0.996940  1.0  -0.0118
  C  C464  1  0.966500  0.936060  0.996030  1.0  -0.137
  C  C465  1  0.313680  0.710570  0.001970  1.0  0.6779
  C  C466  1  0.351460  0.682940  0.000940  1.0  -0.1368
  C  C467  1  0.367630  0.671600  0.967150  1.0  -0.0276
  C  C468  1  0.402900  0.645600  0.965770  1.0  -0.006
  C  C469  1  0.418660  0.632030  0.002070  1.0  0.0115
  C  C470  1  0.402370  0.645190  0.038190  1.0  -0.1113
  C  C471  1  0.367860  0.670330  0.038620  1.0  -0.0484
  C  C472  1  0.421230  0.633070  0.928980  1.0  -0.1046
  C  C473  1  0.453500  0.607560  0.929280  1.0  -0.1538
  C  C474  1  0.469780  0.593150  0.966000  1.0  0.0853
  C  C475  1  0.453400  0.605360  0.000730  1.0  -0.1212
  C  C476  1  0.503060  0.563580  0.965520  1.0  -0.0122
  C  C477  1  0.503970  0.533500  0.936060  1.0  -0.1364
  C  C478  1  0.186320  0.710570  0.498030  1.0  0.6775
  C  C479  1  0.148540  0.682940  0.499060  1.0  -0.135
  C  C480  1  0.132370  0.671600  0.532850  1.0  -0.0279
  C  C481  1  0.097100  0.645600  0.534230  1.0  -0.005
  C  C482  1  0.081340  0.632030  0.497930  1.0  0.0112
  C  C483  1  0.097630  0.645190  0.461810  1.0  -0.1106
  C  C484  1  0.132140  0.670330  0.461380  1.0  -0.0493
  C  C485  1  0.078770  0.633070  0.571020  1.0  -0.1001
  C  C486  1  0.046500  0.607560  0.570720  1.0  -0.1504
  C  C487  1  0.030220  0.593150  0.534000  1.0  0.0816
  C  C488  1  0.046600  0.605360  0.499270  1.0  -0.1236
  C  C489  1  0.996940  0.563580  0.534480  1.0  -0.0124
  C  C490  1  0.996030  0.533500  0.563940  1.0  -0.1387
  C  C491  1  0.313680  0.789430  0.498030  1.0  0.6776
  C  C492  1  0.351460  0.817060  0.499060  1.0  -0.136
  C  C493  1  0.367630  0.828400  0.532850  1.0  -0.0273
  C  C494  1  0.402900  0.854400  0.534230  1.0  -0.0058
  C  C495  1  0.418660  0.867970  0.497930  1.0  0.011
  C  C496  1  0.402370  0.854810  0.461810  1.0  -0.1111
  C  C497  1  0.367860  0.829670  0.461380  1.0  -0.0467
  C  C498  1  0.421230  0.866930  0.571020  1.0  -0.1022
  C  C499  1  0.453500  0.892440  0.570720  1.0  -0.1511
  C  C500  1  0.469780  0.906850  0.534000  1.0  0.0845
  C  C501  1  0.453400  0.894640  0.499270  1.0  -0.12
  C  C502  1  0.503060  0.936420  0.534480  1.0  -0.0114
  C  C503  1  0.503970  0.966500  0.563940  1.0  -0.1364
  C  C504  1  0.186320  0.789430  0.001970  1.0  0.6776
  C  C505  1  0.148540  0.817060  0.000940  1.0  -0.1355
  C  C506  1  0.132370  0.828400  0.967150  1.0  -0.0291
  C  C507  1  0.097100  0.854400  0.965770  1.0  -0.0062
  C  C508  1  0.081340  0.867970  0.002070  1.0  0.0119
  C  C509  1  0.097630  0.854810  0.038190  1.0  -0.1106
  C  C510  1  0.132140  0.829670  0.038620  1.0  -0.0484
  C  C511  1  0.078770  0.866930  0.928980  1.0  -0.1023
  C  C512  1  0.046500  0.892440  0.929280  1.0  -0.152
  C  C513  1  0.030220  0.906850  0.966000  1.0  0.0827
  C  C514  1  0.046600  0.894640  0.000730  1.0  -0.1205
  C  C515  1  0.996940  0.936420  0.965520  1.0  -0.0142
  C  C516  1  0.996030  0.966500  0.936060  1.0  -0.1361
  C  C517  1  0.686320  0.998030  0.210570  1.0  0.6782
  C  C518  1  0.648540  0.999060  0.182940  1.0  -0.1358
  C  C519  1  0.632370  0.032850  0.171600  1.0  -0.0293
  C  C520  1  0.597100  0.034230  0.145600  1.0  -0.0055
  C  C521  1  0.581340  0.997930  0.132030  1.0  0.0125
  C  C522  1  0.597630  0.961810  0.145190  1.0  -0.1092
  C  C523  1  0.632140  0.961380  0.170330  1.0  -0.0458
  C  C524  1  0.578770  0.071020  0.133070  1.0  -0.0984
  C  C525  1  0.546500  0.070720  0.107560  1.0  -0.1538
  C  C526  1  0.530220  0.034000  0.093150  1.0  0.0803
  C  C527  1  0.546600  0.999270  0.105360  1.0  -0.1205
  C  C528  1  0.496940  0.034480  0.063580  1.0  -0.0128
  C  C529  1  0.496030  0.063940  0.033500  1.0  -0.1363
  C  C530  1  0.813680  0.501970  0.210570  1.0  0.6783
  C  C531  1  0.851460  0.500940  0.182940  1.0  -0.1377
  C  C532  1  0.867630  0.467150  0.171600  1.0  -0.0266
  C  C533  1  0.902900  0.465770  0.145600  1.0  -0.006
  C  C534  1  0.918660  0.502070  0.132030  1.0  0.0125
  C  C535  1  0.902370  0.538190  0.145190  1.0  -0.1105
  C  C536  1  0.867860  0.538620  0.170330  1.0  -0.0446
  C  C537  1  0.921230  0.428980  0.133070  1.0  -0.1002
  C  C538  1  0.953500  0.429280  0.107560  1.0  -0.1543
  C  C539  1  0.969780  0.466000  0.093150  1.0  0.0836
  C  C540  1  0.953400  0.500730  0.105360  1.0  -0.121
  C  C541  1  0.003060  0.465520  0.063580  1.0  -0.0117
  C  C542  1  0.003970  0.436060  0.033500  1.0  -0.138
  C  C543  1  0.686320  0.501970  0.289430  1.0  0.678
  C  C544  1  0.648540  0.500940  0.317060  1.0  -0.1364
  C  C545  1  0.632370  0.467150  0.328400  1.0  -0.0277
  C  C546  1  0.597100  0.465770  0.354400  1.0  -0.0083
  C  C547  1  0.581340  0.502070  0.367970  1.0  0.0116
  C  C548  1  0.597630  0.538190  0.354810  1.0  -0.1107
  C  C549  1  0.632140  0.538620  0.329670  1.0  -0.0463
  C  C550  1  0.578770  0.428980  0.366930  1.0  -0.0958
  C  C551  1  0.546500  0.429280  0.392440  1.0  -0.1524
  C  C552  1  0.530220  0.466000  0.406850  1.0  0.0809
  C  C553  1  0.546600  0.500730  0.394640  1.0  -0.1206
  C  C554  1  0.496940  0.465520  0.436420  1.0  -0.0125
  C  C555  1  0.496030  0.436060  0.466500  1.0  -0.1394
  C  C556  1  0.813680  0.998030  0.289430  1.0  0.678
  C  C557  1  0.851460  0.999060  0.317060  1.0  -0.1372
  C  C558  1  0.867630  0.032850  0.328400  1.0  -0.0287
  C  C559  1  0.902900  0.034230  0.354400  1.0  -0.0078
  C  C560  1  0.918660  0.997930  0.367970  1.0  0.0119
  C  C561  1  0.902370  0.961810  0.354810  1.0  -0.1092
  C  C562  1  0.867860  0.961380  0.329670  1.0  -0.0457
  C  C563  1  0.921230  0.071020  0.366930  1.0  -0.1004
  C  C564  1  0.953500  0.070720  0.392440  1.0  -0.1549
  C  C565  1  0.969780  0.034000  0.406850  1.0  0.0821
  C  C566  1  0.953400  0.999270  0.394640  1.0  -0.1195
  C  C567  1  0.003060  0.034480  0.436420  1.0  -0.0125
  C  C568  1  0.003970  0.063940  0.466500  1.0  -0.1377
  C  C569  1  0.998030  0.289430  0.813680  1.0  0.68
  C  C570  1  0.999060  0.317060  0.851460  1.0  -0.1372
  C  C571  1  0.032850  0.328400  0.867630  1.0  -0.0257
  C  C572  1  0.034230  0.354400  0.902900  1.0  -0.007
  C  C573  1  0.997930  0.367970  0.918660  1.0  0.0109
  C  C574  1  0.961810  0.354810  0.902370  1.0  -0.1096
  C  C575  1  0.961380  0.329670  0.867860  1.0  -0.048
  C  C576  1  0.071020  0.366930  0.921230  1.0  -0.0995
  C  C577  1  0.070720  0.392440  0.953500  1.0  -0.1458
  C  C578  1  0.034000  0.406850  0.969780  1.0  0.0841
  C  C579  1  0.999270  0.394640  0.953400  1.0  -0.1213
  C  C580  1  0.034480  0.436420  0.003060  1.0  -0.0102
  C  C581  1  0.063940  0.466500  0.003970  1.0  -0.1379
  C  C582  1  0.501970  0.289430  0.686320  1.0  0.6804
  C  C583  1  0.500940  0.317060  0.648540  1.0  -0.1359
  C  C584  1  0.467150  0.328400  0.632370  1.0  -0.0261
  C  C585  1  0.465770  0.354400  0.597100  1.0  -0.0065
  C  C586  1  0.502070  0.367970  0.581340  1.0  0.0113
  C  C587  1  0.538190  0.354810  0.597630  1.0  -0.1102
  C  C588  1  0.538620  0.329670  0.632140  1.0  -0.0442
  C  C589  1  0.428980  0.366930  0.578770  1.0  -0.0989
  C  C590  1  0.429280  0.392440  0.546500  1.0  -0.1455
  C  C591  1  0.466000  0.406850  0.530220  1.0  0.0825
  C  C592  1  0.500730  0.394640  0.546600  1.0  -0.1209
  C  C593  1  0.465520  0.436420  0.496940  1.0  -0.0127
  C  C594  1  0.436060  0.466500  0.496030  1.0  -0.1401
  C  C595  1  0.501970  0.210570  0.813680  1.0  0.68
  C  C596  1  0.500940  0.182940  0.851460  1.0  -0.1364
  C  C597  1  0.467150  0.171600  0.867630  1.0  -0.0262
  C  C598  1  0.465770  0.145600  0.902900  1.0  -0.0052
  C  C599  1  0.502070  0.132030  0.918660  1.0  0.0116
  C  C600  1  0.538190  0.145190  0.902370  1.0  -0.1091
  C  C601  1  0.538620  0.170330  0.867860  1.0  -0.0446
  C  C602  1  0.428980  0.133070  0.921230  1.0  -0.0992
  C  C603  1  0.429280  0.107560  0.953500  1.0  -0.146
  C  C604  1  0.466000  0.093150  0.969780  1.0  0.082
  C  C605  1  0.500730  0.105360  0.953400  1.0  -0.1224
  C  C606  1  0.465520  0.063580  0.003060  1.0  -0.0103
  C  C607  1  0.436060  0.033500  0.003970  1.0  -0.1408
  C  C608  1  0.998030  0.210570  0.686320  1.0  0.6808
  C  C609  1  0.999060  0.182940  0.648540  1.0  -0.1369
  C  C610  1  0.032850  0.171600  0.632370  1.0  -0.0259
  C  C611  1  0.034230  0.145600  0.597100  1.0  -0.0064
  C  C612  1  0.997930  0.132030  0.581340  1.0  0.0105
  C  C613  1  0.961810  0.145190  0.597630  1.0  -0.1105
  C  C614  1  0.961380  0.170330  0.632140  1.0  -0.047
  C  C615  1  0.071020  0.133070  0.578770  1.0  -0.0983
  C  C616  1  0.070720  0.107560  0.546500  1.0  -0.145
  C  C617  1  0.034000  0.093150  0.530220  1.0  0.0853
  C  C618  1  0.999270  0.105360  0.546600  1.0  -0.1235
  C  C619  1  0.034480  0.063580  0.496940  1.0  -0.011
  C  C620  1  0.063940  0.033500  0.496030  1.0  -0.1388
  C  C621  1  0.289430  0.686320  0.501970  1.0  0.68
  C  C622  1  0.317060  0.648540  0.500940  1.0  -0.135
  C  C623  1  0.328400  0.632370  0.467150  1.0  -0.0288
  C  C624  1  0.354400  0.597100  0.465770  1.0  -0.0053
  C  C625  1  0.367970  0.581340  0.502070  1.0  0.0106
  C  C626  1  0.354810  0.597630  0.538190  1.0  -0.1098
  C  C627  1  0.329670  0.632140  0.538620  1.0  -0.0493
  C  C628  1  0.366930  0.578770  0.428980  1.0  -0.0972
  C  C629  1  0.392440  0.546500  0.429280  1.0  -0.1467
  C  C630  1  0.406850  0.530220  0.466000  1.0  0.0821
  C  C631  1  0.394640  0.546600  0.500730  1.0  -0.1206
  C  C632  1  0.436420  0.496940  0.465520  1.0  -0.0124
  C  C633  1  0.466500  0.496030  0.436060  1.0  -0.1348
  C  C634  1  0.289430  0.813680  0.998030  1.0  0.6798
  C  C635  1  0.317060  0.851460  0.999060  1.0  -0.1343
  C  C636  1  0.328400  0.867630  0.032850  1.0  -0.0296
  C  C637  1  0.354400  0.902900  0.034230  1.0  -0.0043
  C  C638  1  0.367970  0.918660  0.997930  1.0  0.0107
  C  C639  1  0.354810  0.902370  0.961810  1.0  -0.1091
  C  C640  1  0.329670  0.867860  0.961380  1.0  -0.0477
  C  C641  1  0.366930  0.921230  0.071020  1.0  -0.0946
  C  C642  1  0.392440  0.953500  0.070720  1.0  -0.1447
  C  C643  1  0.406850  0.969780  0.034000  1.0  0.0812
  C  C644  1  0.394640  0.953400  0.999270  1.0  -0.122
  C  C645  1  0.436420  0.003060  0.034480  1.0  -0.0109
  C  C646  1  0.466500  0.003970  0.063940  1.0  -0.1375
  C  C647  1  0.210570  0.686320  0.998030  1.0  0.6801
  C  C648  1  0.182940  0.648540  0.999060  1.0  -0.1359
  C  C649  1  0.171600  0.632370  0.032850  1.0  -0.0281
  C  C650  1  0.145600  0.597100  0.034230  1.0  -0.006
  C  C651  1  0.132030  0.581340  0.997930  1.0  0.0102
  C  C652  1  0.145190  0.597630  0.961810  1.0  -0.1086
  C  C653  1  0.170330  0.632140  0.961380  1.0  -0.0489
  C  C654  1  0.133070  0.578770  0.071020  1.0  -0.0948
  C  C655  1  0.107560  0.546500  0.070720  1.0  -0.1456
  C  C656  1  0.093150  0.530220  0.034000  1.0  0.0846
  C  C657  1  0.105360  0.546600  0.999270  1.0  -0.1226
  C  C658  1  0.063580  0.496940  0.034480  1.0  -0.0116
  C  C659  1  0.033500  0.496030  0.063940  1.0  -0.1357
  C  C660  1  0.210570  0.813680  0.501970  1.0  0.6798
  C  C661  1  0.182940  0.851460  0.500940  1.0  -0.1356
  C  C662  1  0.171600  0.867630  0.467150  1.0  -0.0294
  C  C663  1  0.145600  0.902900  0.465770  1.0  -0.0058
  C  C664  1  0.132030  0.918660  0.502070  1.0  0.0111
  C  C665  1  0.145190  0.902370  0.538190  1.0  -0.1095
  C  C666  1  0.170330  0.867860  0.538620  1.0  -0.0474
  C  C667  1  0.133070  0.921230  0.428980  1.0  -0.0975
  C  C668  1  0.107560  0.953500  0.429280  1.0  -0.1478
  C  C669  1  0.093150  0.969780  0.466000  1.0  0.0858
  C  C670  1  0.105360  0.953400  0.500730  1.0  -0.1214
  C  C671  1  0.063580  0.003060  0.465520  1.0  -0.0121
  C  C672  1  0.033500  0.003970  0.436060  1.0  -0.1339
  C  C673  1  0.313680  0.001970  0.789430  1.0  0.6781
  C  C674  1  0.351460  0.000940  0.817060  1.0  -0.1375
  C  C675  1  0.367630  0.967150  0.828400  1.0  -0.0266
  C  C676  1  0.402900  0.965770  0.854400  1.0  -0.0085
  C  C677  1  0.418660  0.002070  0.867970  1.0  0.0114
  C  C678  1  0.402370  0.038190  0.854810  1.0  -0.1113
  C  C679  1  0.367860  0.038620  0.829670  1.0  -0.0455
  C  C680  1  0.421230  0.928980  0.866930  1.0  -0.097
  C  C681  1  0.453500  0.929280  0.892440  1.0  -0.1513
  C  C682  1  0.469780  0.966000  0.906850  1.0  0.0825
  C  C683  1  0.453400  0.000730  0.894640  1.0  -0.1202
  C  C684  1  0.503060  0.965520  0.936420  1.0  -0.0127
  C  C685  1  0.503970  0.936060  0.966500  1.0  -0.1379
  C  C686  1  0.186320  0.498030  0.789430  1.0  0.678
  C  C687  1  0.148540  0.499060  0.817060  1.0  -0.1359
  C  C688  1  0.132370  0.532850  0.828400  1.0  -0.0291
  C  C689  1  0.097100  0.534230  0.854400  1.0  -0.0075
  C  C690  1  0.081340  0.497930  0.867970  1.0  0.012
  C  C691  1  0.097630  0.461810  0.854810  1.0  -0.1085
  C  C692  1  0.132140  0.461380  0.829670  1.0  -0.0459
  C  C693  1  0.078770  0.571020  0.866930  1.0  -0.0994
  C  C694  1  0.046500  0.570720  0.892440  1.0  -0.1549
  C  C695  1  0.030220  0.534000  0.906850  1.0  0.081
  C  C696  1  0.046600  0.499270  0.894640  1.0  -0.12
  C  C697  1  0.996940  0.534480  0.936420  1.0  -0.0124
  C  C698  1  0.996030  0.563940  0.966500  1.0  -0.1372
  C  C699  1  0.313680  0.498030  0.710570  1.0  0.6783
  C  C700  1  0.351460  0.499060  0.682940  1.0  -0.1369
  C  C701  1  0.367630  0.532850  0.671600  1.0  -0.0295
  C  C702  1  0.402900  0.534230  0.645600  1.0  -0.0056
  C  C703  1  0.418660  0.497930  0.632030  1.0  0.0125
  C  C704  1  0.402370  0.461810  0.645190  1.0  -0.1094
  C  C705  1  0.367860  0.461380  0.670330  1.0  -0.0456
  C  C706  1  0.421230  0.571020  0.633070  1.0  -0.0993
  C  C707  1  0.453500  0.570720  0.607560  1.0  -0.1528
  C  C708  1  0.469780  0.534000  0.593150  1.0  0.0827
  C  C709  1  0.453400  0.499270  0.605360  1.0  -0.1197
  C  C710  1  0.503060  0.534480  0.563580  1.0  -0.0127
  C  C711  1  0.503970  0.563940  0.533500  1.0  -0.1371
  C  C712  1  0.186320  0.001970  0.710570  1.0  0.6782
  C  C713  1  0.148540  0.000940  0.682940  1.0  -0.1367
  C  C714  1  0.132370  0.967150  0.671600  1.0  -0.0272
  C  C715  1  0.097100  0.965770  0.645600  1.0  -0.0057
  C  C716  1  0.081340  0.002070  0.632030  1.0  0.0126
  C  C717  1  0.097630  0.038190  0.645190  1.0  -0.11
  C  C718  1  0.132140  0.038620  0.670330  1.0  -0.0451
  C  C719  1  0.078770  0.928980  0.633070  1.0  -0.099
  C  C720  1  0.046500  0.929280  0.607560  1.0  -0.1556
  C  C721  1  0.030220  0.966000  0.593150  1.0  0.0809
  C  C722  1  0.046600  0.000730  0.605360  1.0  -0.1219
  C  C723  1  0.996940  0.965520  0.563580  1.0  -0.012
  C  C724  1  0.996030  0.936060  0.533500  1.0  -0.1393
  C  C725  1  0.001970  0.710570  0.186320  1.0  0.6806
  C  C726  1  0.000940  0.682940  0.148540  1.0  -0.1363
  C  C727  1  0.967150  0.671600  0.132370  1.0  -0.0266
  C  C728  1  0.965770  0.645600  0.097100  1.0  -0.0055
  C  C729  1  0.002070  0.632030  0.081340  1.0  0.0111
  C  C730  1  0.038190  0.645190  0.097630  1.0  -0.1097
  C  C731  1  0.038620  0.670330  0.132140  1.0  -0.0439
  C  C732  1  0.928980  0.633070  0.078770  1.0  -0.0997
  C  C733  1  0.929280  0.607560  0.046500  1.0  -0.1455
  C  C734  1  0.966000  0.593150  0.030220  1.0  0.0831
  C  C735  1  0.000730  0.605360  0.046600  1.0  -0.1228
  C  C736  1  0.965520  0.563580  0.996940  1.0  -0.0113
  C  C737  1  0.936060  0.533500  0.996030  1.0  -0.1403
  C  C738  1  0.498030  0.710570  0.313680  1.0  0.6802
  C  C739  1  0.499060  0.682940  0.351460  1.0  -0.1371
  C  C740  1  0.532850  0.671600  0.367630  1.0  -0.0254
  C  C741  1  0.534230  0.645600  0.402900  1.0  -0.0061
  C  C742  1  0.497930  0.632030  0.418660  1.0  0.0109
  C  C743  1  0.461810  0.645190  0.402370  1.0  -0.1101
  C  C744  1  0.461380  0.670330  0.367860  1.0  -0.0476
  C  C745  1  0.571020  0.633070  0.421230  1.0  -0.0991
  C  C746  1  0.570720  0.607560  0.453500  1.0  -0.1454
  C  C747  1  0.534000  0.593150  0.469780  1.0  0.0836
  C  C748  1  0.499270  0.605360  0.453400  1.0  -0.1229
  C  C749  1  0.534480  0.563580  0.503060  1.0  -0.0099
  C  C750  1  0.563940  0.533500  0.503970  1.0  -0.1379
  C  C751  1  0.498030  0.789430  0.186320  1.0  0.6807
  C  C752  1  0.499060  0.817060  0.148540  1.0  -0.1365
  C  C753  1  0.532850  0.828400  0.132370  1.0  -0.0259
  C  C754  1  0.534230  0.854400  0.097100  1.0  -0.0076
  C  C755  1  0.497930  0.867970  0.081340  1.0  0.0108
  C  C756  1  0.461810  0.854810  0.097630  1.0  -0.11
  C  C757  1  0.461380  0.829670  0.132140  1.0  -0.0474
  C  C758  1  0.571020  0.866930  0.078770  1.0  -0.0989
  C  C759  1  0.570720  0.892440  0.046500  1.0  -0.1458
  C  C760  1  0.534000  0.906850  0.030220  1.0  0.0848
  C  C761  1  0.499270  0.894640  0.046600  1.0  -0.1218
  C  C762  1  0.534480  0.936420  0.996940  1.0  -0.0125
  C  C763  1  0.563940  0.966500  0.996030  1.0  -0.1387
  C  C764  1  0.001970  0.789430  0.313680  1.0  0.6798
  C  C765  1  0.000940  0.817060  0.351460  1.0  -0.1363
  C  C766  1  0.967150  0.828400  0.367630  1.0  -0.0261
  C  C767  1  0.965770  0.854400  0.402900  1.0  -0.006
  C  C768  1  0.002070  0.867970  0.418660  1.0  0.0115
  C  C769  1  0.038190  0.854810  0.402370  1.0  -0.1096
  C  C770  1  0.038620  0.829670  0.367860  1.0  -0.0451
  C  C771  1  0.928980  0.866930  0.421230  1.0  -0.0981
  C  C772  1  0.929280  0.892440  0.453500  1.0  -0.146
  C  C773  1  0.966000  0.906850  0.469780  1.0  0.0826
  C  C774  1  0.000730  0.894640  0.453400  1.0  -0.1205
  C  C775  1  0.965520  0.936420  0.503060  1.0  -0.0107
  C  C776  1  0.936060  0.966500  0.503970  1.0  -0.1406
  C  C777  1  0.710570  0.313680  0.498030  1.0  0.6798
  C  C778  1  0.682940  0.351460  0.499060  1.0  -0.1351
  C  C779  1  0.671600  0.367630  0.532850  1.0  -0.0279
  C  C780  1  0.645600  0.402900  0.534230  1.0  -0.0058
  C  C781  1  0.632030  0.418660  0.497930  1.0  0.0104
  C  C782  1  0.645190  0.402370  0.461810  1.0  -0.109
  C  C783  1  0.670330  0.367860  0.461380  1.0  -0.0485
  C  C784  1  0.633070  0.421230  0.571020  1.0  -0.0957
  C  C785  1  0.607560  0.453500  0.570720  1.0  -0.1441
  C  C786  1  0.593150  0.469780  0.534000  1.0  0.0842
  C  C787  1  0.605360  0.453400  0.499270  1.0  -0.122
  C  C788  1  0.563580  0.503060  0.534480  1.0  -0.0117
  C  C789  1  0.533500  0.503970  0.563940  1.0  -0.1351
  C  C790  1  0.710570  0.186320  0.001970  1.0  0.6801
  C  C791  1  0.682940  0.148540  0.000940  1.0  -0.1367
  C  C792  1  0.671600  0.132370  0.967150  1.0  -0.0289
  C  C793  1  0.645600  0.097100  0.965770  1.0  -0.0059
  C  C794  1  0.632030  0.081340  0.002070  1.0  0.011
  C  C795  1  0.645190  0.097630  0.038190  1.0  -0.1092
  C  C796  1  0.670330  0.132140  0.038620  1.0  -0.0475
  C  C797  1  0.633070  0.078770  0.928980  1.0  -0.098
  C  C798  1  0.607560  0.046500  0.929280  1.0  -0.1476
  C  C799  1  0.593150  0.030220  0.966000  1.0  0.0857
  C  C800  1  0.605360  0.046600  0.000730  1.0  -0.1213
  C  C801  1  0.563580  0.996940  0.965520  1.0  -0.0127
  C  C802  1  0.533500  0.996030  0.936060  1.0  -0.1343
  C  C803  1  0.789430  0.313680  0.001970  1.0  0.6798
  C  C804  1  0.817060  0.351460  0.000940  1.0  -0.1347
  C  C805  1  0.828400  0.367630  0.967150  1.0  -0.0292
  C  C806  1  0.854400  0.402900  0.965770  1.0  -0.0055
  C  C807  1  0.867970  0.418660  0.002070  1.0  0.0108
  C  C808  1  0.854810  0.402370  0.038190  1.0  -0.1102
  C  C809  1  0.829670  0.367860  0.038620  1.0  -0.0491
  C  C810  1  0.866930  0.421230  0.928980  1.0  -0.0962
  C  C811  1  0.892440  0.453500  0.929280  1.0  -0.1478
  C  C812  1  0.906850  0.469780  0.966000  1.0  0.0824
  C  C813  1  0.894640  0.453400  0.000730  1.0  -0.1208
  C  C814  1  0.936420  0.503060  0.965520  1.0  -0.012
  C  C815  1  0.966500  0.503970  0.936060  1.0  -0.1342
  C  C816  1  0.789430  0.186320  0.498030  1.0  0.6799
  C  C817  1  0.817060  0.148540  0.499060  1.0  -0.1343
  C  C818  1  0.828400  0.132370  0.532850  1.0  -0.0299
  C  C819  1  0.854400  0.097100  0.534230  1.0  -0.0044
  C  C820  1  0.867970  0.081340  0.497930  1.0  0.0104
  C  C821  1  0.854810  0.097630  0.461810  1.0  -0.1087
  C  C822  1  0.829670  0.132140  0.461380  1.0  -0.0483
  C  C823  1  0.866930  0.078770  0.571020  1.0  -0.0946
  C  C824  1  0.892440  0.046500  0.570720  1.0  -0.1455
  C  C825  1  0.906850  0.030220  0.534000  1.0  0.0815
  C  C826  1  0.894640  0.046600  0.499270  1.0  -0.1225
  C  C827  1  0.936420  0.996940  0.534480  1.0  -0.0109
  C  C828  1  0.966500  0.996030  0.563940  1.0  -0.1383
  C  C829  1  0.998030  0.686320  0.289430  1.0  0.681
  C  C830  1  0.999060  0.648540  0.317060  1.0  -0.1376
  C  C831  1  0.032850  0.632370  0.328400  1.0  -0.0269
  C  C832  1  0.034230  0.597100  0.354400  1.0  -0.0087
  C  C833  1  0.997930  0.581340  0.367970  1.0  0.0106
  C  C834  1  0.961810  0.597630  0.354810  1.0  -0.1089
  C  C835  1  0.961380  0.632140  0.329670  1.0  -0.0485
  C  C836  1  0.071020  0.578770  0.366930  1.0  -0.0963
  C  C837  1  0.070720  0.546500  0.392440  1.0  -0.1463
  C  C838  1  0.034000  0.530220  0.406850  1.0  0.0828
  C  C839  1  0.999270  0.546600  0.394640  1.0  -0.1208
  C  C840  1  0.034480  0.496940  0.436420  1.0  -0.013
  C  C841  1  0.063940  0.496030  0.466500  1.0  -0.1387
  C  C842  1  0.501970  0.813680  0.289430  1.0  0.6804
  C  C843  1  0.500940  0.851460  0.317060  1.0  -0.1366
  C  C844  1  0.467150  0.867630  0.328400  1.0  -0.0271
  C  C845  1  0.465770  0.902900  0.354400  1.0  -0.0075
  C  C846  1  0.502070  0.918660  0.367970  1.0  0.0114
  C  C847  1  0.538190  0.902370  0.354810  1.0  -0.1091
  C  C848  1  0.538620  0.867860  0.329670  1.0  -0.0457
  C  C849  1  0.428980  0.921230  0.366930  1.0  -0.096
  C  C850  1  0.429280  0.953500  0.392440  1.0  -0.1467
  C  C851  1  0.466000  0.969780  0.406850  1.0  0.082
  C  C852  1  0.500730  0.953400  0.394640  1.0  -0.1199
  C  C853  1  0.465520  0.003060  0.436420  1.0  -0.0124
  C  C854  1  0.436060  0.003970  0.466500  1.0  -0.141
  C  C855  1  0.501970  0.686320  0.210570  1.0  0.6809
  C  C856  1  0.500940  0.648540  0.182940  1.0  -0.1371
  C  C857  1  0.467150  0.632370  0.171600  1.0  -0.0283
  C  C858  1  0.465770  0.597100  0.145600  1.0  -0.0054
  C  C859  1  0.502070  0.581340  0.132030  1.0  0.0117
  C  C860  1  0.538190  0.597630  0.145190  1.0  -0.1085
  C  C861  1  0.538620  0.632140  0.170330  1.0  -0.0449
  C  C862  1  0.428980  0.578770  0.133070  1.0  -0.0969
  C  C863  1  0.429280  0.546500  0.107560  1.0  -0.1471
  C  C864  1  0.466000  0.530220  0.093150  1.0  0.0821
  C  C865  1  0.500730  0.546600  0.105360  1.0  -0.1208
  C  C866  1  0.465520  0.496940  0.063580  1.0  -0.0115
  C  C867  1  0.436060  0.496030  0.033500  1.0  -0.1417
  C  C868  1  0.998030  0.813680  0.210570  1.0  0.681
  C  C869  1  0.999060  0.851460  0.182940  1.0  -0.1367
  C  C870  1  0.032850  0.867630  0.171600  1.0  -0.0272
  C  C871  1  0.034230  0.902900  0.145600  1.0  -0.0057
  C  C872  1  0.997930  0.918660  0.132030  1.0  0.0115
  C  C873  1  0.961810  0.902370  0.145190  1.0  -0.109
  C  C874  1  0.961380  0.867860  0.170330  1.0  -0.0482
  C  C875  1  0.071020  0.921230  0.133070  1.0  -0.0958
  C  C876  1  0.070720  0.953500  0.107560  1.0  -0.1454
  C  C877  1  0.034000  0.969780  0.093150  1.0  0.0836
  C  C878  1  0.999270  0.953400  0.105360  1.0  -0.1221
  C  C879  1  0.034480  0.003060  0.063580  1.0  -0.0123
  C  C880  1  0.063940  0.003970  0.033500  1.0  -0.1378
  C  C881  1  0.289430  0.998030  0.686320  1.0  0.6798
  C  C882  1  0.317060  0.999060  0.648540  1.0  -0.1347
  C  C883  1  0.328400  0.032850  0.632370  1.0  -0.0289
  C  C884  1  0.354400  0.034230  0.597100  1.0  -0.0048
  C  C885  1  0.367970  0.997930  0.581340  1.0  0.0108
  C  C886  1  0.354810  0.961810  0.597630  1.0  -0.1098
  C  C887  1  0.329670  0.961380  0.632140  1.0  -0.0454
  C  C888  1  0.366930  0.071020  0.578770  1.0  -0.0975
  C  C889  1  0.392440  0.070720  0.546500  1.0  -0.1501
  C  C890  1  0.406850  0.034000  0.530220  1.0  0.0811
  C  C891  1  0.394640  0.999270  0.546600  1.0  -0.1213
  C  C892  1  0.436420  0.034480  0.496940  1.0  -0.0113
  C  C893  1  0.466500  0.063940  0.496030  1.0  -0.1358
  C  C894  1  0.289430  0.501970  0.813680  1.0  0.6796
  C  C895  1  0.317060  0.500940  0.851460  1.0  -0.1356
  C  C896  1  0.328400  0.467150  0.867630  1.0  -0.0264
  C  C897  1  0.354400  0.465770  0.902900  1.0  -0.0057
  C  C898  1  0.367970  0.502070  0.918660  1.0  0.0114
  C  C899  1  0.354810  0.538190  0.902370  1.0  -0.1111
  C  C900  1  0.329670  0.538620  0.867860  1.0  -0.0459
  C  C901  1  0.366930  0.428980  0.921230  1.0  -0.0955
  C  C902  1  0.392440  0.429280  0.953500  1.0  -0.1477
  C  C903  1  0.406850  0.466000  0.969780  1.0  0.0814
  C  C904  1  0.394640  0.500730  0.953400  1.0  -0.1207
  C  C905  1  0.436420  0.465520  0.003060  1.0  -0.0097
  C  C906  1  0.466500  0.436060  0.003970  1.0  -0.1376
  C  C907  1  0.210570  0.501970  0.686320  1.0  0.6801
  C  C908  1  0.182940  0.500940  0.648540  1.0  -0.1371
  C  C909  1  0.171600  0.467150  0.632370  1.0  -0.026
  C  C910  1  0.145600  0.465770  0.597100  1.0  -0.0065
  C  C911  1  0.132030  0.502070  0.581340  1.0  0.0114
  C  C912  1  0.145190  0.538190  0.597630  1.0  -0.1112
  C  C913  1  0.170330  0.538620  0.632140  1.0  -0.044
  C  C914  1  0.133070  0.428980  0.578770  1.0  -0.0962
  C  C915  1  0.107560  0.429280  0.546500  1.0  -0.1472
  C  C916  1  0.093150  0.466000  0.530220  1.0  0.0844
  C  C917  1  0.105360  0.500730  0.546600  1.0  -0.1218
  C  C918  1  0.063580  0.465520  0.496940  1.0  -0.0119
  C  C919  1  0.033500  0.436060  0.496030  1.0  -0.1359
  C  C920  1  0.210570  0.998030  0.813680  1.0  0.6795
  C  C921  1  0.182940  0.999060  0.851460  1.0  -0.1363
  C  C922  1  0.171600  0.032850  0.867630  1.0  -0.0279
  C  C923  1  0.145600  0.034230  0.902900  1.0  -0.0055
  C  C924  1  0.132030  0.997930  0.918660  1.0  0.011
  C  C925  1  0.145190  0.961810  0.902370  1.0  -0.1084
  C  C926  1  0.170330  0.961380  0.867860  1.0  -0.0449
  C  C927  1  0.133070  0.071020  0.921230  1.0  -0.0987
  C  C928  1  0.107560  0.070720  0.953500  1.0  -0.1493
  C  C929  1  0.093150  0.034000  0.969780  1.0  0.0828
  C  C930  1  0.105360  0.999270  0.953400  1.0  -0.1202
  C  C931  1  0.063580  0.034480  0.003060  1.0  -0.0103
  C  C932  1  0.033500  0.063940  0.003970  1.0  -0.135
  C  C933  1  0.686320  0.289430  0.998030  1.0  0.6773
  C  C934  1  0.648540  0.317060  0.999060  1.0  -0.1347
  C  C935  1  0.632370  0.328400  0.032850  1.0  -0.0279
  C  C936  1  0.597100  0.354400  0.034230  1.0  -0.0054
  C  C937  1  0.581340  0.367970  0.997930  1.0  0.0109
  C  C938  1  0.597630  0.354810  0.961810  1.0  -0.1102
  C  C939  1  0.632140  0.329670  0.961380  1.0  -0.0489
  C  C940  1  0.578770  0.366930  0.071020  1.0  -0.101
  C  C941  1  0.546500  0.392440  0.070720  1.0  -0.1534
  C  C942  1  0.530220  0.406850  0.034000  1.0  0.0818
  C  C943  1  0.546600  0.394640  0.999270  1.0  -0.1206
  C  C944  1  0.496940  0.436420  0.034480  1.0  -0.0119
  C  C945  1  0.496030  0.466500  0.063940  1.0  -0.1383
  C  C946  1  0.813680  0.289430  0.501970  1.0  0.6777
  C  C947  1  0.851460  0.317060  0.500940  1.0  -0.1366
  C  C948  1  0.867630  0.328400  0.467150  1.0  -0.0276
  C  C949  1  0.902900  0.354400  0.465770  1.0  -0.0065
  C  C950  1  0.918660  0.367970  0.502070  1.0  0.0119
  C  C951  1  0.902370  0.354810  0.538190  1.0  -0.1111
  C  C952  1  0.867860  0.329670  0.538620  1.0  -0.0486
  C  C953  1  0.921230  0.366930  0.428980  1.0  -0.1033
  C  C954  1  0.953500  0.392440  0.429280  1.0  -0.153
  C  C955  1  0.969780  0.406850  0.466000  1.0  0.0858
  C  C956  1  0.953400  0.394640  0.500730  1.0  -0.1199
  C  C957  1  0.003060  0.436420  0.465520  1.0  -0.0136
  C  C958  1  0.003970  0.466500  0.436060  1.0  -0.136
  C  C959  1  0.686320  0.210570  0.501970  1.0  0.6778
  C  C960  1  0.648540  0.182940  0.500940  1.0  -0.136
  C  C961  1  0.632370  0.171600  0.467150  1.0  -0.0286
  C  C962  1  0.597100  0.145600  0.465770  1.0  -0.0057
  C  C963  1  0.581340  0.132030  0.502070  1.0  0.0116
  C  C964  1  0.597630  0.145190  0.538190  1.0  -0.1108
  C  C965  1  0.632140  0.170330  0.538620  1.0  -0.048
  C  C966  1  0.578770  0.133070  0.428980  1.0  -0.1041
  C  C967  1  0.546500  0.107560  0.429280  1.0  -0.1522
  C  C968  1  0.530220  0.093150  0.466000  1.0  0.0826
  C  C969  1  0.546600  0.105360  0.500730  1.0  -0.1221
  C  C970  1  0.496940  0.063580  0.465520  1.0  -0.0125
  C  C971  1  0.496030  0.033500  0.436060  1.0  -0.1359
  C  C972  1  0.813680  0.210570  0.998030  1.0  0.6778
  C  C973  1  0.851460  0.182940  0.999060  1.0  -0.1359
  C  C974  1  0.867630  0.171600  0.032850  1.0  -0.028
  C  C975  1  0.902900  0.145600  0.034230  1.0  -0.0054
  C  C976  1  0.918660  0.132030  0.997930  1.0  0.0112
  C  C977  1  0.902370  0.145190  0.961810  1.0  -0.1113
  C  C978  1  0.867860  0.170330  0.961380  1.0  -0.0473
  C  C979  1  0.921230  0.133070  0.071020  1.0  -0.1013
  C  C980  1  0.953500  0.107560  0.070720  1.0  -0.1477
  C  C981  1  0.969780  0.093150  0.034000  1.0  0.0839
  C  C982  1  0.953400  0.105360  0.999270  1.0  -0.1231
  C  C983  1  0.003060  0.063580  0.034480  1.0  -0.0114
  C  C984  1  0.003970  0.033500  0.063940  1.0  -0.1376
  O  O985  1  0.966660  0.300430  0.718210  1.0  -0.5757
  O  O986  1  0.035750  0.300100  0.718020  1.0  -0.5545
  O  O987  1  0.533340  0.199570  0.718210  1.0  -0.5742
  O  O988  1  0.464250  0.199900  0.718020  1.0  -0.5554
  O  O989  1  0.533340  0.300430  0.781790  1.0  -0.5738
  O  O990  1  0.464250  0.300100  0.781980  1.0  -0.5558
  O  O991  1  0.966660  0.199570  0.781790  1.0  -0.5758
  O  O992  1  0.035750  0.199900  0.781980  1.0  -0.5547
  O  O993  1  0.718210  0.966660  0.300430  1.0  -0.5699
  O  O994  1  0.718020  0.035750  0.300100  1.0  -0.5526
  O  O995  1  0.718210  0.533340  0.199570  1.0  -0.5702
  O  O996  1  0.718020  0.464250  0.199900  1.0  -0.5535
  O  O997  1  0.781790  0.533340  0.300430  1.0  -0.57
  O  O998  1  0.781980  0.464250  0.300100  1.0  -0.5539
  O  O999  1  0.781790  0.966660  0.199570  1.0  -0.57
  O  O1000  1  0.781980  0.035750  0.199900  1.0  -0.5526
  O  O1001  1  0.300430  0.718210  0.966660  1.0  -0.574
  O  O1002  1  0.300100  0.718020  0.035750  1.0  -0.552
  O  O1003  1  0.199570  0.718210  0.533340  1.0  -0.5743
  O  O1004  1  0.199900  0.718020  0.464250  1.0  -0.5536
  O  O1005  1  0.300430  0.781790  0.533340  1.0  -0.5729
  O  O1006  1  0.300100  0.781980  0.464250  1.0  -0.5534
  O  O1007  1  0.199570  0.781790  0.966660  1.0  -0.5749
  O  O1008  1  0.199900  0.781980  0.035750  1.0  -0.5531
  O  O1009  1  0.699570  0.033340  0.218210  1.0  -0.5723
  O  O1010  1  0.699900  0.964250  0.218020  1.0  -0.5548
  O  O1011  1  0.800430  0.466660  0.218210  1.0  -0.5713
  O  O1012  1  0.800100  0.535750  0.218020  1.0  -0.5531
  O  O1013  1  0.699570  0.466660  0.281790  1.0  -0.5725
  O  O1014  1  0.699900  0.535750  0.281980  1.0  -0.5542
  O  O1015  1  0.800430  0.033340  0.281790  1.0  -0.5714
  O  O1016  1  0.800100  0.964250  0.281980  1.0  -0.555
  O  O1017  1  0.033340  0.281790  0.800430  1.0  -0.5745
  O  O1018  1  0.964250  0.281980  0.800100  1.0  -0.5559
  O  O1019  1  0.466660  0.281790  0.699570  1.0  -0.5762
  O  O1020  1  0.535750  0.281980  0.699900  1.0  -0.5549
  O  O1021  1  0.466660  0.218210  0.800430  1.0  -0.5762
  O  O1022  1  0.535750  0.218020  0.800100  1.0  -0.555
  O  O1023  1  0.033340  0.218210  0.699570  1.0  -0.5746
  O  O1024  1  0.964250  0.218020  0.699900  1.0  -0.5558
  O  O1025  1  0.281790  0.699570  0.466660  1.0  -0.5715
  O  O1026  1  0.281980  0.699900  0.535750  1.0  -0.5517
  O  O1027  1  0.281790  0.800430  0.033340  1.0  -0.5708
  O  O1028  1  0.281980  0.800100  0.964250  1.0  -0.5524
  O  O1029  1  0.218210  0.699570  0.033340  1.0  -0.5711
  O  O1030  1  0.218020  0.699900  0.964250  1.0  -0.5521
  O  O1031  1  0.218210  0.800430  0.466660  1.0  -0.5717
  O  O1032  1  0.218020  0.800100  0.535750  1.0  -0.5511
  O  O1033  1  0.300430  0.966660  0.781790  1.0  -0.5716
  O  O1034  1  0.300100  0.035750  0.781980  1.0  -0.5532
  O  O1035  1  0.199570  0.533340  0.781790  1.0  -0.5725
  O  O1036  1  0.199900  0.464250  0.781980  1.0  -0.5551
  O  O1037  1  0.300430  0.533340  0.718210  1.0  -0.5716
  O  O1038  1  0.300100  0.464250  0.718020  1.0  -0.5545
  O  O1039  1  0.199570  0.966660  0.718210  1.0  -0.5723
  O  O1040  1  0.199900  0.035750  0.718020  1.0  -0.5538
  O  O1041  1  0.966660  0.718210  0.199570  1.0  -0.5763
  O  O1042  1  0.035750  0.718020  0.199900  1.0  -0.5549
  O  O1043  1  0.533340  0.718210  0.300430  1.0  -0.5745
  O  O1044  1  0.464250  0.718020  0.300100  1.0  -0.5558
  O  O1045  1  0.533340  0.781790  0.199570  1.0  -0.5746
  O  O1046  1  0.464250  0.781980  0.199900  1.0  -0.5559
  O  O1047  1  0.966660  0.781790  0.300430  1.0  -0.5762
  O  O1048  1  0.035750  0.781980  0.300100  1.0  -0.555
  O  O1049  1  0.718210  0.300430  0.533340  1.0  -0.5713
  O  O1050  1  0.718020  0.300100  0.464250  1.0  -0.5521
  O  O1051  1  0.718210  0.199570  0.966660  1.0  -0.5718
  O  O1052  1  0.718020  0.199900  0.035750  1.0  -0.551
  O  O1053  1  0.781790  0.300430  0.966660  1.0  -0.5719
  O  O1054  1  0.781980  0.300100  0.035750  1.0  -0.5518
  O  O1055  1  0.781790  0.199570  0.533340  1.0  -0.5711
  O  O1056  1  0.781980  0.199900  0.464250  1.0  -0.5525
  O  O1057  1  0.033340  0.699570  0.281790  1.0  -0.5739
  O  O1058  1  0.964250  0.699900  0.281980  1.0  -0.5558
  O  O1059  1  0.466660  0.800430  0.281790  1.0  -0.5756
  O  O1060  1  0.535750  0.800100  0.281980  1.0  -0.5546
  O  O1061  1  0.466660  0.699570  0.218210  1.0  -0.5758
  O  O1062  1  0.535750  0.699900  0.218020  1.0  -0.5546
  O  O1063  1  0.033340  0.800430  0.218210  1.0  -0.574
  O  O1064  1  0.964250  0.800100  0.218020  1.0  -0.5553
  O  O1065  1  0.281790  0.033340  0.699570  1.0  -0.5699
  O  O1066  1  0.281980  0.964250  0.699900  1.0  -0.5539
  O  O1067  1  0.281790  0.466660  0.800430  1.0  -0.5697
  O  O1068  1  0.281980  0.535750  0.800100  1.0  -0.553
  O  O1069  1  0.218210  0.466660  0.699570  1.0  -0.5698
  O  O1070  1  0.218020  0.535750  0.699900  1.0  -0.5521
  O  O1071  1  0.218210  0.033340  0.800430  1.0  -0.5699
  O  O1072  1  0.218020  0.964250  0.800100  1.0  -0.5535
  O  O1073  1  0.699570  0.281790  0.033340  1.0  -0.5739
  O  O1074  1  0.699900  0.281980  0.964250  1.0  -0.5541
  O  O1075  1  0.800430  0.281790  0.466660  1.0  -0.574
  O  O1076  1  0.800100  0.281980  0.535750  1.0  -0.5522
  O  O1077  1  0.699570  0.218210  0.466660  1.0  -0.5743
  O  O1078  1  0.699900  0.218020  0.535750  1.0  -0.5531
  O  O1079  1  0.800430  0.218210  0.033340  1.0  -0.5729
  O  O1080  1  0.800100  0.218020  0.964250  1.0  -0.5532
