# generated using pymatgen
data_MnH14(C13O2)2
_symmetry_space_group_name_H-M   'P 1'
_cell_length_a   33.51180000
_cell_length_b   33.51180000
_cell_length_c   33.51180000
_cell_angle_alpha   90.00000000
_cell_angle_beta   90.00000000
_cell_angle_gamma   90.00000000
_symmetry_Int_Tables_number   1
_chemical_formula_structural   MnH14(C13O2)2
_chemical_formula_sum   'Mn24 H336 C624 O96'
_cell_volume   37635.11664526
_cell_formula_units_Z   24
loop_
 _symmetry_equiv_pos_site_id
 _symmetry_equiv_pos_as_xyz
  1  'x, y, z'
loop_
 _atom_site_type_symbol
 _atom_site_label
 _atom_site_symmetry_multiplicity
 _atom_site_fract_x
 _atom_site_fract_y
 _atom_site_fract_z
 _atom_site_occupancy
 _atom_site_charge
  Mn  Mn1  1  0.951060  0.250000  0.750000  1.0  1.0813
  Mn  Mn2  1  0.750000  0.548940  0.250000  1.0  1.0811
  Mn  Mn3  1  0.451060  0.250000  0.750000  1.0  1.0813
  Mn  Mn4  1  0.250000  0.750000  0.451060  1.0  1.0821
  Mn  Mn5  1  0.048940  0.250000  0.750000  1.0  1.0818
  Mn  Mn6  1  0.250000  0.750000  0.951060  1.0  1.0821
  Mn  Mn7  1  0.750000  0.951060  0.250000  1.0  1.0839
  Mn  Mn8  1  0.750000  0.048940  0.250000  1.0  1.0811
  Mn  Mn9  1  0.750000  0.451060  0.250000  1.0  1.0839
  Mn  Mn10  1  0.250000  0.750000  0.048940  1.0  1.083
  Mn  Mn11  1  0.250000  0.750000  0.548940  1.0  1.083
  Mn  Mn12  1  0.548940  0.250000  0.750000  1.0  1.0818
  Mn  Mn13  1  0.250000  0.548940  0.750000  1.0  1.0811
  Mn  Mn14  1  0.250000  0.048940  0.750000  1.0  1.0811
  Mn  Mn15  1  0.250000  0.951060  0.750000  1.0  1.0839
  Mn  Mn16  1  0.951060  0.750000  0.250000  1.0  1.0813
  Mn  Mn17  1  0.250000  0.451060  0.750000  1.0  1.0839
  Mn  Mn18  1  0.451060  0.750000  0.250000  1.0  1.0813
  Mn  Mn19  1  0.750000  0.250000  0.951060  1.0  1.0821
  Mn  Mn20  1  0.548940  0.750000  0.250000  1.0  1.0818
  Mn  Mn21  1  0.048940  0.750000  0.250000  1.0  1.0818
  Mn  Mn22  1  0.750000  0.250000  0.048940  1.0  1.083
  Mn  Mn23  1  0.750000  0.250000  0.548940  1.0  1.083
  Mn  Mn24  1  0.750000  0.250000  0.451060  1.0  1.0821
  H  H25  1  0.409000  0.866200  0.900400  1.0  0.114
  H  H26  1  0.323800  0.646500  0.945800  1.0  0.1137
  H  H27  1  0.409100  0.536400  0.097300  1.0  0.1289
  H  H28  1  0.825500  0.935400  0.356900  1.0  0.1095
  H  H29  1  0.023100  0.039500  0.594300  1.0  0.1093
  H  H30  1  0.353500  0.676200  0.445800  1.0  0.1137
  H  H31  1  0.527400  0.582800  0.485200  1.0  0.1142
  H  H32  1  0.960500  0.523100  0.405700  1.0  0.1088
  H  H33  1  0.027400  0.514800  0.417200  1.0  0.1162
  H  H34  1  0.539500  0.523100  0.094300  1.0  0.1088
  H  H35  1  0.014800  0.527400  0.917200  1.0  0.1151
  H  H36  1  0.591000  0.099600  0.366200  1.0  0.1152
  H  H37  1  0.463600  0.590900  0.597300  1.0  0.1283
  H  H38  1  0.514800  0.082800  0.472600  1.0  0.1161
  H  H39  1  0.089200  0.638200  0.057400  1.0  0.1135
  H  H40  1  0.036400  0.909100  0.597300  1.0  0.129
  H  H41  1  0.039500  0.905700  0.476900  1.0  0.1069
  H  H42  1  0.594300  0.476900  0.460500  1.0  0.1081
  H  H43  1  0.057400  0.410800  0.861800  1.0  0.1146
  H  H44  1  0.935400  0.143100  0.674500  1.0  0.1115
  H  H45  1  0.445800  0.353500  0.676200  1.0  0.1148
  H  H46  1  0.646500  0.945800  0.323800  1.0  0.1153
  H  H47  1  0.409100  0.963600  0.402700  1.0  0.1284
  H  H48  1  0.361800  0.910800  0.557400  1.0  0.114
  H  H49  1  0.097300  0.409100  0.536400  1.0  0.1271
  H  H50  1  0.866200  0.900400  0.409000  1.0  0.1131
  H  H51  1  0.138200  0.589200  0.557400  1.0  0.1132
  H  H52  1  0.402700  0.409100  0.963600  1.0  0.1278
  H  H53  1  0.643100  0.435400  0.174500  1.0  0.1116
  H  H54  1  0.138200  0.910800  0.942600  1.0  0.1135
  H  H55  1  0.589200  0.557400  0.138200  1.0  0.1132
  H  H56  1  0.143100  0.674500  0.935400  1.0  0.1096
  H  H57  1  0.676200  0.054200  0.146500  1.0  0.1151
  H  H58  1  0.039500  0.594300  0.023100  1.0  0.1085
  H  H59  1  0.099600  0.133800  0.909000  1.0  0.1145
  H  H60  1  0.861800  0.442600  0.089200  1.0  0.1122
  H  H61  1  0.027400  0.985200  0.082800  1.0  0.1157
  H  H62  1  0.942600  0.361800  0.589200  1.0  0.1122
  H  H63  1  0.972600  0.582800  0.014800  1.0  0.1139
  H  H64  1  0.409000  0.633800  0.599600  1.0  0.1136
  H  H65  1  0.597300  0.463600  0.590900  1.0  0.1273
  H  H66  1  0.674500  0.935400  0.143100  1.0  0.1108
  H  H67  1  0.900400  0.409000  0.866200  1.0  0.1151
  H  H68  1  0.472600  0.514800  0.082800  1.0  0.1152
  H  H69  1  0.905700  0.476900  0.039500  1.0  0.1075
  H  H70  1  0.463600  0.909100  0.902700  1.0  0.1292
  H  H71  1  0.064600  0.174500  0.856900  1.0  0.1102
  H  H72  1  0.853500  0.554200  0.323800  1.0  0.1155
  H  H73  1  0.094300  0.960500  0.976900  1.0  0.1079
  H  H74  1  0.825500  0.564600  0.143100  1.0  0.1088
  H  H75  1  0.976900  0.094300  0.960500  1.0  0.1077
  H  H76  1  0.057400  0.089200  0.638200  1.0  0.1138
  H  H77  1  0.356900  0.674500  0.564600  1.0  0.1108
  H  H78  1  0.594300  0.023100  0.039500  1.0  0.108
  H  H79  1  0.557400  0.361800  0.910800  1.0  0.1123
  H  H80  1  0.564600  0.356900  0.674500  1.0  0.1111
  H  H81  1  0.910800  0.942600  0.138200  1.0  0.1149
  H  H82  1  0.460500  0.594300  0.476900  1.0  0.1068
  H  H83  1  0.599600  0.409000  0.633800  1.0  0.1147
  H  H84  1  0.909000  0.400400  0.366200  1.0  0.114
  H  H85  1  0.435400  0.325500  0.856900  1.0  0.1107
  H  H86  1  0.960500  0.976900  0.094300  1.0  0.1094
  H  H87  1  0.853500  0.945800  0.176200  1.0  0.1154
  H  H88  1  0.590900  0.902700  0.036400  1.0  0.1269
  H  H89  1  0.023100  0.460500  0.905700  1.0  0.1089
  H  H90  1  0.909100  0.597300  0.036400  1.0  0.1275
  H  H91  1  0.945800  0.176200  0.853500  1.0  0.1138
  H  H92  1  0.133800  0.909000  0.099600  1.0  0.1132
  H  H93  1  0.174500  0.856900  0.064600  1.0  0.1101
  H  H94  1  0.097300  0.090900  0.963600  1.0  0.1272
  H  H95  1  0.866200  0.599600  0.091000  1.0  0.1139
  H  H96  1  0.646500  0.554200  0.176200  1.0  0.1154
  H  H97  1  0.476900  0.460500  0.594300  1.0  0.1087
  H  H98  1  0.638200  0.057400  0.089200  1.0  0.1115
  H  H99  1  0.557400  0.138200  0.589200  1.0  0.113
  H  H100  1  0.597300  0.036400  0.909100  1.0  0.1276
  H  H101  1  0.133800  0.591000  0.400400  1.0  0.1147
  H  H102  1  0.094300  0.539500  0.523100  1.0  0.109
  H  H103  1  0.146500  0.823800  0.445800  1.0  0.1139
  H  H104  1  0.633800  0.599600  0.409000  1.0  0.1139
  H  H105  1  0.325500  0.643100  0.064600  1.0  0.1108
  H  H106  1  0.036400  0.590900  0.902700  1.0  0.129
  H  H107  1  0.972600  0.917200  0.485200  1.0  0.1136
  H  H108  1  0.143100  0.825500  0.564600  1.0  0.109
  H  H109  1  0.485200  0.972600  0.917200  1.0  0.1146
  H  H110  1  0.176200  0.853500  0.945800  1.0  0.1141
  H  H111  1  0.676200  0.445800  0.353500  1.0  0.1148
  H  H112  1  0.176200  0.646500  0.554200  1.0  0.1143
  H  H113  1  0.564600  0.143100  0.825500  1.0  0.1106
  H  H114  1  0.902700  0.463600  0.909100  1.0  0.1279
  H  H115  1  0.323800  0.853500  0.554200  1.0  0.1146
  H  H116  1  0.442600  0.089200  0.861800  1.0  0.114
  H  H117  1  0.514800  0.417200  0.027400  1.0  0.1149
  H  H118  1  0.900400  0.091000  0.633800  1.0  0.1145
  H  H119  1  0.917200  0.014800  0.527400  1.0  0.116
  H  H120  1  0.591000  0.400400  0.133800  1.0  0.1141
  H  H121  1  0.014800  0.972600  0.582800  1.0  0.1153
  H  H122  1  0.963600  0.097300  0.090900  1.0  0.1277
  H  H123  1  0.445800  0.146500  0.823800  1.0  0.1146
  H  H124  1  0.146500  0.676200  0.054200  1.0  0.1141
  H  H125  1  0.633800  0.900400  0.091000  1.0  0.1131
  H  H126  1  0.902700  0.036400  0.590900  1.0  0.1282
  H  H127  1  0.054200  0.353500  0.823800  1.0  0.1142
  H  H128  1  0.361800  0.589200  0.942600  1.0  0.1128
  H  H129  1  0.861800  0.057400  0.410800  1.0  0.112
  H  H130  1  0.554200  0.176200  0.646500  1.0  0.114
  H  H131  1  0.985200  0.417200  0.472600  1.0  0.1154
  H  H132  1  0.554200  0.323800  0.853500  1.0  0.1135
  H  H133  1  0.366200  0.909000  0.400400  1.0  0.1138
  H  H134  1  0.527400  0.917200  0.014800  1.0  0.1139
  H  H135  1  0.856900  0.435400  0.325500  1.0  0.1119
  H  H136  1  0.985200  0.082800  0.027400  1.0  0.1152
  H  H137  1  0.963600  0.402700  0.409100  1.0  0.128
  H  H138  1  0.910800  0.557400  0.361800  1.0  0.1144
  H  H139  1  0.091000  0.866200  0.599600  1.0  0.114
  H  H140  1  0.090900  0.963600  0.097300  1.0  0.1279
  H  H141  1  0.476900  0.039500  0.905700  1.0  0.1086
  H  H142  1  0.442600  0.410800  0.638200  1.0  0.1139
  H  H143  1  0.417200  0.027400  0.514800  1.0  0.1136
  H  H144  1  0.090900  0.536400  0.402700  1.0  0.1292
  H  H145  1  0.400400  0.133800  0.591000  1.0  0.1138
  H  H146  1  0.523100  0.405700  0.960500  1.0  0.1078
  H  H147  1  0.823800  0.445800  0.146500  1.0  0.1152
  H  H148  1  0.945800  0.323800  0.646500  1.0  0.1141
  H  H149  1  0.909100  0.902700  0.463600  1.0  0.1273
  H  H150  1  0.582800  0.485200  0.527400  1.0  0.1168
  H  H151  1  0.917200  0.485200  0.972600  1.0  0.1159
  H  H152  1  0.589200  0.942600  0.361800  1.0  0.1134
  H  H153  1  0.405700  0.960500  0.523100  1.0  0.1092
  H  H154  1  0.082800  0.027400  0.985200  1.0  0.1146
  H  H155  1  0.582800  0.014800  0.972600  1.0  0.1172
  H  H156  1  0.823800  0.054200  0.353500  1.0  0.115
  H  H157  1  0.366200  0.591000  0.099600  1.0  0.1143
  H  H158  1  0.674500  0.564600  0.356900  1.0  0.1099
  H  H159  1  0.460500  0.905700  0.023100  1.0  0.1085
  H  H160  1  0.942600  0.138200  0.910800  1.0  0.1119
  H  H161  1  0.417200  0.472600  0.985200  1.0  0.114
  H  H162  1  0.472600  0.985200  0.417200  1.0  0.1156
  H  H163  1  0.082800  0.472600  0.514800  1.0  0.1146
  H  H164  1  0.405700  0.539500  0.976900  1.0  0.1083
  H  H165  1  0.064600  0.325500  0.643100  1.0  0.1101
  H  H166  1  0.099600  0.366200  0.591000  1.0  0.1142
  H  H167  1  0.400400  0.366200  0.909000  1.0  0.1143
  H  H168  1  0.356900  0.825500  0.935400  1.0  0.1103
  H  H169  1  0.089200  0.861800  0.442600  1.0  0.1134
  H  H170  1  0.402700  0.090900  0.536400  1.0  0.1271
  H  H171  1  0.523100  0.094300  0.539500  1.0  0.1074
  H  H172  1  0.410800  0.861800  0.057400  1.0  0.1142
  H  H173  1  0.485200  0.527400  0.582800  1.0  0.1143
  H  H174  1  0.856900  0.064600  0.174500  1.0  0.1102
  H  H175  1  0.325500  0.856900  0.435400  1.0  0.1099
  H  H176  1  0.091000  0.633800  0.900400  1.0  0.1143
  H  H177  1  0.935400  0.356900  0.825500  1.0  0.1114
  H  H178  1  0.174500  0.643100  0.435400  1.0  0.1099
  H  H179  1  0.976900  0.405700  0.539500  1.0  0.1069
  H  H180  1  0.643100  0.064600  0.325500  1.0  0.1104
  H  H181  1  0.909000  0.099600  0.133800  1.0  0.115
  H  H182  1  0.536400  0.097300  0.409100  1.0  0.1283
  H  H183  1  0.410800  0.638200  0.442600  1.0  0.1129
  H  H184  1  0.353500  0.823800  0.054200  1.0  0.1142
  H  H185  1  0.638200  0.442600  0.410800  1.0  0.1117
  H  H186  1  0.590900  0.597300  0.463600  1.0  0.1273
  H  H187  1  0.054200  0.146500  0.676200  1.0  0.1144
  H  H188  1  0.905700  0.023100  0.460500  1.0  0.1077
  H  H189  1  0.539500  0.976900  0.405700  1.0  0.1092
  H  H190  1  0.536400  0.402700  0.090900  1.0  0.1275
  H  H191  1  0.599600  0.091000  0.866200  1.0  0.115
  H  H192  1  0.435400  0.174500  0.643100  1.0  0.1096
  H  H193  1  0.176200  0.945800  0.646500  1.0  0.1152
  H  H194  1  0.909100  0.463600  0.597300  1.0  0.1283
  H  H195  1  0.353500  0.445800  0.823800  1.0  0.1151
  H  H196  1  0.138200  0.942600  0.589200  1.0  0.111
  H  H197  1  0.325500  0.064600  0.856900  1.0  0.1099
  H  H198  1  0.064600  0.643100  0.174500  1.0  0.1103
  H  H199  1  0.409000  0.599600  0.866200  1.0  0.1153
  H  H200  1  0.905700  0.039500  0.023100  1.0  0.1095
  H  H201  1  0.823800  0.353500  0.445800  1.0  0.1139
  H  H202  1  0.536400  0.090900  0.097300  1.0  0.1291
  H  H203  1  0.090900  0.097300  0.536400  1.0  0.128
  H  H204  1  0.902700  0.590900  0.463600  1.0  0.128
  H  H205  1  0.402700  0.536400  0.409100  1.0  0.1279
  H  H206  1  0.409000  0.900400  0.633800  1.0  0.1138
  H  H207  1  0.054200  0.823800  0.146500  1.0  0.1139
  H  H208  1  0.356900  0.564600  0.825500  1.0  0.111
  H  H209  1  0.564600  0.674500  0.143100  1.0  0.1099
  H  H210  1  0.366200  0.400400  0.591000  1.0  0.1133
  H  H211  1  0.036400  0.902700  0.909100  1.0  0.1278
  H  H212  1  0.638200  0.410800  0.057400  1.0  0.1131
  H  H213  1  0.823800  0.146500  0.054200  1.0  0.1144
  H  H214  1  0.460500  0.023100  0.594300  1.0  0.1087
  H  H215  1  0.023100  0.594300  0.460500  1.0  0.1078
  H  H216  1  0.476900  0.905700  0.460500  1.0  0.1069
  H  H217  1  0.485200  0.582800  0.972600  1.0  0.1161
  H  H218  1  0.039500  0.023100  0.905700  1.0  0.1091
  H  H219  1  0.036400  0.597300  0.590900  1.0  0.1281
  H  H220  1  0.402700  0.963600  0.090900  1.0  0.128
  H  H221  1  0.960500  0.094300  0.523100  1.0  0.1087
  H  H222  1  0.356900  0.935400  0.674500  1.0  0.1106
  H  H223  1  0.591000  0.133800  0.099600  1.0  0.1138
  H  H224  1  0.057400  0.638200  0.410800  1.0  0.1125
  H  H225  1  0.539500  0.405700  0.523100  1.0  0.1083
  H  H226  1  0.054200  0.676200  0.353500  1.0  0.1141
  H  H227  1  0.589200  0.361800  0.557400  1.0  0.1138
  H  H228  1  0.014800  0.582800  0.527400  1.0  0.1154
  H  H229  1  0.091000  0.599600  0.633800  1.0  0.1147
  H  H230  1  0.094300  0.523100  0.960500  1.0  0.1076
  H  H231  1  0.972600  0.014800  0.917200  1.0  0.1158
  H  H232  1  0.405700  0.523100  0.539500  1.0  0.1074
  H  H233  1  0.557400  0.589200  0.361800  1.0  0.1139
  H  H234  1  0.442600  0.861800  0.410800  1.0  0.1119
  H  H235  1  0.476900  0.594300  0.039500  1.0  0.1069
  H  H236  1  0.133800  0.400400  0.909000  1.0  0.1134
  H  H237  1  0.910800  0.361800  0.942600  1.0  0.1139
  H  H238  1  0.589200  0.138200  0.942600  1.0  0.113
  H  H239  1  0.366200  0.099600  0.909000  1.0  0.1141
  H  H240  1  0.825500  0.143100  0.935400  1.0  0.1104
  H  H241  1  0.472600  0.082800  0.985200  1.0  0.1141
  H  H242  1  0.945800  0.646500  0.176200  1.0  0.1144
  H  H243  1  0.590900  0.036400  0.597300  1.0  0.1277
  H  H244  1  0.917200  0.972600  0.014800  1.0  0.1135
  H  H245  1  0.591000  0.366200  0.400400  1.0  0.1143
  H  H246  1  0.176200  0.554200  0.853500  1.0  0.115
  H  H247  1  0.599600  0.866200  0.409000  1.0  0.1143
  H  H248  1  0.435400  0.856900  0.174500  1.0  0.1101
  H  H249  1  0.985200  0.027400  0.417200  1.0  0.1149
  H  H250  1  0.866200  0.409000  0.599600  1.0  0.1143
  H  H251  1  0.935400  0.825500  0.143100  1.0  0.1093
  H  H252  1  0.972600  0.485200  0.582800  1.0  0.1156
  H  H253  1  0.361800  0.557400  0.589200  1.0  0.1115
  H  H254  1  0.445800  0.823800  0.353500  1.0  0.1137
  H  H255  1  0.089200  0.442600  0.638200  1.0  0.1143
  H  H256  1  0.594300  0.460500  0.023100  1.0  0.1089
  H  H257  1  0.910800  0.138200  0.557400  1.0  0.1137
  H  H258  1  0.905700  0.460500  0.476900  1.0  0.1072
  H  H259  1  0.523100  0.539500  0.405700  1.0  0.109
  H  H260  1  0.643100  0.174500  0.064600  1.0  0.1096
  H  H261  1  0.463600  0.597300  0.909100  1.0  0.1281
  H  H262  1  0.527400  0.014800  0.582800  1.0  0.1153
  H  H263  1  0.143100  0.935400  0.825500  1.0  0.1108
  H  H264  1  0.825500  0.356900  0.564600  1.0  0.1108
  H  H265  1  0.676200  0.353500  0.054200  1.0  0.1142
  H  H266  1  0.094300  0.976900  0.539500  1.0  0.1088
  H  H267  1  0.582800  0.972600  0.485200  1.0  0.1146
  H  H268  1  0.325500  0.435400  0.643100  1.0  0.1099
  H  H269  1  0.554200  0.646500  0.323800  1.0  0.1148
  H  H270  1  0.405700  0.976900  0.960500  1.0  0.1083
  H  H271  1  0.554200  0.853500  0.176200  1.0  0.1145
  H  H272  1  0.976900  0.960500  0.405700  1.0  0.1084
  H  H273  1  0.909100  0.036400  0.902700  1.0  0.1282
  H  H274  1  0.091000  0.900400  0.866200  1.0  0.1141
  H  H275  1  0.590900  0.463600  0.902700  1.0  0.1297
  H  H276  1  0.064600  0.856900  0.325500  1.0  0.1113
  H  H277  1  0.536400  0.409100  0.402700  1.0  0.1289
  H  H278  1  0.539500  0.094300  0.976900  1.0  0.1068
  H  H279  1  0.597300  0.909100  0.463600  1.0  0.1272
  H  H280  1  0.633800  0.409000  0.900400  1.0  0.115
  H  H281  1  0.057400  0.861800  0.089200  1.0  0.1123
  H  H282  1  0.014800  0.917200  0.972600  1.0  0.1153
  H  H283  1  0.514800  0.027400  0.082800  1.0  0.1144
  H  H284  1  0.527400  0.485200  0.917200  1.0  0.1162
  H  H285  1  0.942600  0.910800  0.361800  1.0  0.1144
  H  H286  1  0.976900  0.539500  0.094300  1.0  0.1088
  H  H287  1  0.143100  0.564600  0.674500  1.0  0.1103
  H  H288  1  0.900400  0.866200  0.091000  1.0  0.1141
  H  H289  1  0.410800  0.442600  0.861800  1.0  0.1137
  H  H290  1  0.039500  0.476900  0.594300  1.0  0.1094
  H  H291  1  0.353500  0.054200  0.676200  1.0  0.1154
  H  H292  1  0.023100  0.905700  0.039500  1.0  0.1076
  H  H293  1  0.463600  0.902700  0.590900  1.0  0.1276
  H  H294  1  0.082800  0.985200  0.472600  1.0  0.1173
  H  H295  1  0.138200  0.557400  0.910800  1.0  0.1115
  H  H296  1  0.594300  0.039500  0.476900  1.0  0.1083
  H  H297  1  0.442600  0.638200  0.089200  1.0  0.1122
  H  H298  1  0.323800  0.554200  0.646500  1.0  0.115
  H  H299  1  0.417200  0.985200  0.027400  1.0  0.1162
  H  H300  1  0.861800  0.089200  0.057400  1.0  0.1135
  H  H301  1  0.090900  0.402700  0.963600  1.0  0.1272
  H  H302  1  0.902700  0.909100  0.036400  1.0  0.1272
  H  H303  1  0.935400  0.674500  0.356900  1.0  0.1106
  H  H304  1  0.861800  0.410800  0.442600  1.0  0.1133
  H  H305  1  0.417200  0.514800  0.472600  1.0  0.1161
  H  H306  1  0.942600  0.589200  0.138200  1.0  0.1149
  H  H307  1  0.633800  0.091000  0.599600  1.0  0.113
  H  H308  1  0.027400  0.082800  0.514800  1.0  0.1138
  H  H309  1  0.146500  0.445800  0.676200  1.0  0.1155
  H  H310  1  0.557400  0.910800  0.138200  1.0  0.1147
  H  H311  1  0.909000  0.133800  0.400400  1.0  0.1142
  H  H312  1  0.174500  0.435400  0.856900  1.0  0.1099
  H  H313  1  0.909000  0.366200  0.099600  1.0  0.1137
  H  H314  1  0.853500  0.176200  0.554200  1.0  0.1143
  H  H315  1  0.643100  0.325500  0.435400  1.0  0.1104
  H  H316  1  0.676200  0.146500  0.445800  1.0  0.114
  H  H317  1  0.674500  0.356900  0.935400  1.0  0.11
  H  H318  1  0.089200  0.057400  0.861800  1.0  0.1142
  H  H319  1  0.133800  0.099600  0.591000  1.0  0.1136
  H  H320  1  0.400400  0.909000  0.133800  1.0  0.1145
  H  H321  1  0.027400  0.417200  0.985200  1.0  0.1138
  H  H322  1  0.856900  0.325500  0.064600  1.0  0.1106
  H  H323  1  0.514800  0.472600  0.417200  1.0  0.115
  H  H324  1  0.097300  0.536400  0.090900  1.0  0.1273
  H  H325  1  0.174500  0.064600  0.643100  1.0  0.1101
  H  H326  1  0.099600  0.591000  0.133800  1.0  0.1145
  H  H327  1  0.445800  0.676200  0.146500  1.0  0.1138
  H  H328  1  0.097300  0.963600  0.409100  1.0  0.1279
  H  H329  1  0.409100  0.097300  0.963600  1.0  0.1272
  H  H330  1  0.963600  0.409100  0.097300  1.0  0.1285
  H  H331  1  0.361800  0.942600  0.910800  1.0  0.1118
  H  H332  1  0.638200  0.089200  0.442600  1.0  0.113
  H  H333  1  0.472600  0.417200  0.514800  1.0  0.1137
  H  H334  1  0.599600  0.633800  0.091000  1.0  0.1143
  H  H335  1  0.963600  0.090900  0.402700  1.0  0.1293
  H  H336  1  0.409100  0.402700  0.536400  1.0  0.1263
  H  H337  1  0.485200  0.917200  0.527400  1.0  0.115
  H  H338  1  0.646500  0.323800  0.554200  1.0  0.1139
  H  H339  1  0.564600  0.825500  0.356900  1.0  0.1091
  H  H340  1  0.323800  0.945800  0.853500  1.0  0.1146
  H  H341  1  0.523100  0.960500  0.094300  1.0  0.1091
  H  H342  1  0.900400  0.633800  0.409000  1.0  0.1143
  H  H343  1  0.582800  0.527400  0.014800  1.0  0.1146
  H  H344  1  0.985200  0.472600  0.082800  1.0  0.1149
  H  H345  1  0.410800  0.057400  0.638200  1.0  0.1141
  H  H346  1  0.099600  0.909000  0.366200  1.0  0.1151
  H  H347  1  0.400400  0.591000  0.366200  1.0  0.1151
  H  H348  1  0.082800  0.514800  0.027400  1.0  0.1165
  H  H349  1  0.597300  0.590900  0.036400  1.0  0.1271
  H  H350  1  0.853500  0.323800  0.945800  1.0  0.1136
  H  H351  1  0.435400  0.643100  0.325500  1.0  0.1105
  H  H352  1  0.146500  0.054200  0.823800  1.0  0.1154
  H  H353  1  0.960500  0.405700  0.976900  1.0  0.1072
  H  H354  1  0.460500  0.476900  0.905700  1.0  0.109
  H  H355  1  0.945800  0.853500  0.323800  1.0  0.1145
  H  H356  1  0.646500  0.176200  0.945800  1.0  0.114
  H  H357  1  0.856900  0.174500  0.435400  1.0  0.1099
  H  H358  1  0.866200  0.091000  0.900400  1.0  0.1137
  H  H359  1  0.674500  0.143100  0.564600  1.0  0.1104
  H  H360  1  0.917200  0.527400  0.485200  1.0  0.1142
  C  C361  1  0.910970  0.963970  0.467830  1.0  0.0162
  C  C362  1  0.032170  0.589030  0.963970  1.0  0.0157
  C  C363  1  0.397340  0.950170  0.498380  1.0  -0.1513
  C  C364  1  0.925310  0.419400  0.873840  1.0  -0.0993
  C  C365  1  0.497880  0.129000  0.583280  1.0  -0.0402
  C  C366  1  0.993730  0.350270  0.820990  1.0  -0.1589
  C  C367  1  0.039940  0.166400  0.867460  1.0  -0.0991
  C  C368  1  0.134050  0.667670  0.030550  1.0  -0.0437
  C  C369  1  0.560060  0.533730  0.500770  1.0  0.0417
  C  C370  1  0.134050  0.832330  0.469450  1.0  -0.0439
  C  C371  1  0.367460  0.666400  0.539940  1.0  -0.0973
  C  C372  1  0.858910  0.960860  0.401340  1.0  0.0689
  C  C373  1  0.314970  0.706340  0.508870  1.0  0.7273
  C  C374  1  0.600470  0.573540  0.452120  1.0  -0.1436
  C  C375  1  0.649730  0.006270  0.320990  1.0  -0.1591
  C  C376  1  0.916720  0.497880  0.371000  1.0  -0.0401
  C  C377  1  0.583280  0.497880  0.129000  1.0  -0.0396
  C  C378  1  0.814970  0.491130  0.293660  1.0  0.726
  C  C379  1  0.960860  0.401340  0.858910  1.0  0.0674
  C  C380  1  0.508870  0.314970  0.706340  1.0  0.7279
  C  C381  1  0.580600  0.425310  0.126160  1.0  -0.0956
  C  C382  1  0.373840  0.919400  0.425310  1.0  -0.0967
  C  C383  1  0.500770  0.560060  0.533730  1.0  0.0415
  C  C384  1  0.574690  0.419400  0.626160  1.0  -0.0914
  C  C385  1  0.497880  0.371000  0.916720  1.0  -0.0397
  C  C386  1  0.439940  0.499230  0.033730  1.0  0.0416
  C  C387  1  0.416720  0.629000  0.502120  1.0  -0.0393
  C  C388  1  0.503960  0.528910  0.562000  1.0  -0.1268
  C  C389  1  0.399440  0.644150  0.467510  1.0  -0.1055
  C  C390  1  0.667670  0.469450  0.365950  1.0  -0.0384
  C  C391  1  0.416720  0.871000  0.997880  1.0  -0.0393
  C  C392  1  0.098660  0.641090  0.960860  1.0  0.0722
  C  C393  1  0.502120  0.416720  0.629000  1.0  -0.0378
  C  C394  1  0.419400  0.873840  0.925310  1.0  -0.1018
  C  C395  1  0.089030  0.532170  0.463970  1.0  0.0183
  C  C396  1  0.463970  0.410970  0.967830  1.0  0.0156
  C  C397  1  0.460860  0.358910  0.901340  1.0  0.069
  C  C398  1  0.938000  0.996040  0.528910  1.0  -0.1325
  C  C399  1  0.850270  0.493730  0.320990  1.0  -0.1593
  C  C400  1  0.897340  0.998380  0.450170  1.0  -0.1535
  C  C401  1  0.871000  0.502120  0.083280  1.0  -0.0386
  C  C402  1  0.867460  0.039940  0.166400  1.0  -0.0989
  C  C403  1  0.503960  0.971090  0.938000  1.0  -0.1261
  C  C404  1  0.425310  0.373840  0.919400  1.0  -0.0991
  C  C405  1  0.100470  0.547880  0.426460  1.0  -0.1423
  C  C406  1  0.926460  0.452120  0.899530  1.0  -0.1458
  C  C407  1  0.899530  0.926460  0.452120  1.0  -0.146
  C  C408  1  0.493730  0.179010  0.649730  1.0  -0.1589
  C  C409  1  0.580600  0.074690  0.373840  1.0  -0.098
  C  C410  1  0.532170  0.463970  0.089030  1.0  0.0156
  C  C411  1  0.049830  0.602660  0.998380  1.0  -0.1582
  C  C412  1  0.897340  0.501620  0.049830  1.0  -0.1537
  C  C413  1  0.530550  0.167670  0.634050  1.0  -0.0396
  C  C414  1  0.047880  0.899530  0.573540  1.0  -0.1482
  C  C415  1  0.333600  0.632540  0.039940  1.0  -0.0992
  C  C416  1  0.600560  0.532490  0.144150  1.0  -0.1035
  C  C417  1  0.967510  0.355850  0.600560  1.0  -0.1079
  C  C418  1  0.419400  0.626160  0.574690  1.0  -0.101
  C  C419  1  0.993730  0.149730  0.679010  1.0  -0.1586
  C  C420  1  0.089030  0.967830  0.036030  1.0  0.0172
  C  C421  1  0.355850  0.600560  0.967510  1.0  -0.1071
  C  C422  1  0.950170  0.001620  0.102660  1.0  -0.1583
  C  C423  1  0.502120  0.083280  0.871000  1.0  -0.0394
  C  C424  1  0.036030  0.410970  0.532170  1.0  0.0156
  C  C425  1  0.466270  0.439940  0.000770  1.0  0.0415
  C  C426  1  0.539940  0.367460  0.666400  1.0  -0.0983
  C  C427  1  0.006270  0.320990  0.649730  1.0  -0.1595
  C  C428  1  0.030550  0.365950  0.832330  1.0  -0.0383
  C  C429  1  0.401340  0.858910  0.960860  1.0  0.0686
  C  C430  1  0.547880  0.426460  0.100470  1.0  -0.1499
  C  C431  1  0.626160  0.925310  0.080600  1.0  -0.0928
  C  C432  1  0.074690  0.373840  0.580600  1.0  -0.0973
  C  C433  1  0.003960  0.062000  0.028910  1.0  -0.1287
  C  C434  1  0.871000  0.997880  0.416720  1.0  -0.0386
  C  C435  1  0.685030  0.008870  0.293660  1.0  0.7259
  C  C436  1  0.533730  0.999230  0.939940  1.0  0.0416
  C  C437  1  0.899530  0.573540  0.047880  1.0  -0.1442
  C  C438  1  0.626160  0.574690  0.419400  1.0  -0.0975
  C  C439  1  0.008870  0.293660  0.685030  1.0  0.7267
  C  C440  1  0.967510  0.144150  0.899440  1.0  -0.103
  C  C441  1  0.032490  0.399440  0.855850  1.0  -0.1073
  C  C442  1  0.865950  0.530550  0.332330  1.0  -0.0387
  C  C443  1  0.644150  0.032490  0.100560  1.0  -0.1
  C  C444  1  0.500770  0.939940  0.966270  1.0  0.0403
  C  C445  1  0.539940  0.132540  0.833600  1.0  -0.0957
  C  C446  1  0.100560  0.644150  0.032490  1.0  -0.1085
  C  C447  1  0.996040  0.971090  0.562000  1.0  -0.1268
  C  C448  1  0.950170  0.498380  0.397340  1.0  -0.1608
  C  C449  1  0.036030  0.089030  0.967830  1.0  0.0165
  C  C450  1  0.547880  0.073540  0.399530  1.0  -0.1439
  C  C451  1  0.998380  0.450170  0.897340  1.0  -0.1552
  C  C452  1  0.910970  0.536030  0.032170  1.0  0.0155
  C  C453  1  0.991130  0.314970  0.793660  1.0  0.727
  C  C454  1  0.501620  0.049830  0.897340  1.0  -0.161
  C  C455  1  0.679010  0.993730  0.149730  1.0  -0.1601
  C  C456  1  0.166400  0.867460  0.039940  1.0  -0.0981
  C  C457  1  0.293660  0.685030  0.008870  1.0  0.7273
  C  C458  1  0.028910  0.496040  0.438000  1.0  -0.1257
  C  C459  1  0.493730  0.320990  0.850270  1.0  -0.1601
  C  C460  1  0.997880  0.416720  0.871000  1.0  -0.041
  C  C461  1  0.083280  0.871000  0.502120  1.0  -0.0408
  C  C462  1  0.832330  0.469450  0.134050  1.0  -0.0394
  C  C463  1  0.358910  0.901340  0.460860  1.0  0.0699
  C  C464  1  0.452120  0.899530  0.926460  1.0  -0.1474
  C  C465  1  0.365950  0.667670  0.469450  1.0  -0.0441
  C  C466  1  0.100560  0.855850  0.467510  1.0  -0.106
  C  C467  1  0.350270  0.820990  0.993730  1.0  -0.1609
  C  C468  1  0.832330  0.030550  0.365950  1.0  -0.0401
  C  C469  1  0.562000  0.503960  0.528910  1.0  -0.1289
  C  C470  1  0.706340  0.508870  0.314970  1.0  0.7276
  C  C471  1  0.629000  0.997880  0.083280  1.0  -0.0387
  C  C472  1  0.185030  0.706340  0.991130  1.0  0.7259
  C  C473  1  0.499230  0.033730  0.439940  1.0  0.0435
  C  C474  1  0.074690  0.126160  0.919400  1.0  -0.0946
  C  C475  1  0.939940  0.966270  0.500770  1.0  0.0425
  C  C476  1  0.498380  0.397340  0.950170  1.0  -0.1601
  C  C477  1  0.499230  0.466270  0.060060  1.0  0.0437
  C  C478  1  0.833600  0.960060  0.367460  1.0  -0.0966
  C  C479  1  0.002120  0.371000  0.583280  1.0  -0.0401
  C  C480  1  0.320990  0.649730  0.006270  1.0  -0.1596
  C  C481  1  0.467830  0.910970  0.963970  1.0  0.0174
  C  C482  1  0.033730  0.439940  0.499230  1.0  0.0412
  C  C483  1  0.367460  0.833600  0.960060  1.0  -0.0956
  C  C484  1  0.410970  0.967830  0.463970  1.0  0.0166
  C  C485  1  0.528910  0.938000  0.996040  1.0  -0.1253
  C  C486  1  0.926460  0.047880  0.600470  1.0  -0.145
  C  C487  1  0.963970  0.032170  0.589030  1.0  0.0172
  C  C488  1  0.126160  0.919400  0.074690  1.0  -0.0945
  C  C489  1  0.969450  0.332330  0.634050  1.0  -0.0402
  C  C490  1  0.539140  0.098660  0.858910  1.0  0.0683
  C  C491  1  0.314970  0.793660  0.991130  1.0  0.7252
  C  C492  1  0.028910  0.003960  0.062000  1.0  -0.124
  C  C493  1  0.083280  0.629000  0.997880  1.0  -0.0411
  C  C494  1  0.206340  0.814970  0.008870  1.0  0.7271
  C  C495  1  0.426460  0.399530  0.952120  1.0  -0.1453
  C  C496  1  0.467830  0.589030  0.536030  1.0  0.0177
  C  C497  1  0.560060  0.966270  0.999230  1.0  0.0405
  C  C498  1  0.469450  0.365950  0.667670  1.0  -0.039
  C  C499  1  0.032490  0.100560  0.644150  1.0  -0.107
  C  C500  1  0.602660  0.501620  0.450170  1.0  -0.1582
  C  C501  1  0.060060  0.499230  0.466270  1.0  0.0396
  C  C502  1  0.865950  0.969450  0.167670  1.0  -0.0383
  C  C503  1  0.073540  0.100470  0.952120  1.0  -0.1404
  C  C504  1  0.925310  0.080600  0.626160  1.0  -0.0949
  C  C505  1  0.960860  0.098660  0.641090  1.0  0.0685
  C  C506  1  0.600470  0.926460  0.047880  1.0  -0.1432
  C  C507  1  0.438000  0.471090  0.003960  1.0  -0.1293
  C  C508  1  0.073540  0.399530  0.547880  1.0  -0.143
  C  C509  1  0.355850  0.899440  0.532490  1.0  -0.1041
  C  C510  1  0.001620  0.102660  0.950170  1.0  -0.1608
  C  C511  1  0.532490  0.355850  0.899440  1.0  -0.1026
  C  C512  1  0.293660  0.814970  0.491130  1.0  0.7266
  C  C513  1  0.899440  0.967510  0.144150  1.0  -0.1
  C  C514  1  0.179010  0.850270  0.006270  1.0  -0.1597
  C  C515  1  0.858910  0.539140  0.098660  1.0  0.0711
  C  C516  1  0.102660  0.950170  0.001620  1.0  -0.1578
  C  C517  1  0.039140  0.358910  0.598660  1.0  0.0694
  C  C518  1  0.793660  0.508870  0.185030  1.0  0.7275
  C  C519  1  0.039940  0.333600  0.632540  1.0  -0.0995
  C  C520  1  0.466270  0.060060  0.499230  1.0  0.0424
  C  C521  1  0.467510  0.100560  0.855850  1.0  -0.104
  C  C522  1  0.996040  0.528910  0.938000  1.0  -0.1265
  C  C523  1  0.632540  0.039940  0.333600  1.0  -0.1014
  C  C524  1  0.132540  0.833600  0.539940  1.0  -0.0955
  C  C525  1  0.498380  0.102660  0.549830  1.0  -0.1605
  C  C526  1  0.491130  0.206340  0.685030  1.0  0.7278
  C  C527  1  0.971090  0.562000  0.996040  1.0  -0.1248
  C  C528  1  0.047880  0.600470  0.926460  1.0  -0.1464
  C  C529  1  0.460860  0.141090  0.598660  1.0  0.0699
  C  C530  1  0.574690  0.080600  0.873840  1.0  -0.0981
  C  C531  1  0.649730  0.493730  0.179010  1.0  -0.1595
  C  C532  1  0.969450  0.167670  0.865950  1.0  -0.04
  C  C533  1  0.919400  0.074690  0.126160  1.0  -0.0931
  C  C534  1  0.573540  0.047880  0.899530  1.0  -0.1429
  C  C535  1  0.167670  0.634050  0.530550  1.0  -0.044
  C  C536  1  0.679010  0.506270  0.350270  1.0  -0.1602
  C  C537  1  0.963970  0.467830  0.910970  1.0  0.0166
  C  C538  1  0.491130  0.293660  0.814970  1.0  0.727
  C  C539  1  0.006270  0.179010  0.850270  1.0  -0.1591
  C  C540  1  0.450170  0.897340  0.998380  1.0  -0.1553
  C  C541  1  0.899440  0.532490  0.355850  1.0  -0.1022
  C  C542  1  0.062000  0.471090  0.496040  1.0  -0.126
  C  C543  1  0.820990  0.993730  0.350270  1.0  -0.1605
  C  C544  1  0.960060  0.367460  0.833600  1.0  -0.0992
  C  C545  1  0.901340  0.460860  0.358910  1.0  0.0708
  C  C546  1  0.469450  0.134050  0.832330  1.0  -0.0398
  C  C547  1  0.350270  0.679010  0.506270  1.0  -0.1593
  C  C548  1  0.365950  0.832330  0.030550  1.0  -0.0455
  C  C549  1  0.666400  0.960060  0.132540  1.0  -0.0996
  C  C550  1  0.629000  0.502120  0.416720  1.0  -0.0385
  C  C551  1  0.166400  0.632540  0.460060  1.0  -0.0976
  C  C552  1  0.033730  0.060060  0.000770  1.0  0.0424
  C  C553  1  0.467510  0.399440  0.644150  1.0  -0.1034
  C  C554  1  0.793660  0.991130  0.314970  1.0  0.7271
  C  C555  1  0.991130  0.185030  0.706340  1.0  0.7271
  C  C556  1  0.144150  0.600560  0.532490  1.0  -0.1094
  C  C557  1  0.589030  0.963970  0.032170  1.0  0.0168
  C  C558  1  0.141090  0.901340  0.039140  1.0  0.0656
  C  C559  1  0.062000  0.028910  0.003960  1.0  -0.1274
  C  C560  1  0.060060  0.000770  0.033730  1.0  0.0402
  C  C561  1  0.999230  0.939940  0.533730  1.0  0.0413
  C  C562  1  0.644150  0.467510  0.399440  1.0  -0.0996
  C  C563  1  0.833600  0.539940  0.132540  1.0  -0.1002
  C  C564  1  0.438000  0.028910  0.496040  1.0  -0.129
  C  C565  1  0.450170  0.602660  0.501620  1.0  -0.1601
  C  C566  1  0.589030  0.536030  0.467830  1.0  0.0155
  C  C567  1  0.919400  0.425310  0.373840  1.0  -0.097
  C  C568  1  0.706340  0.991130  0.185030  1.0  0.7278
  C  C569  1  0.532170  0.036030  0.410970  1.0  0.0154
  C  C570  1  0.573540  0.452120  0.600470  1.0  -0.1425
  C  C571  1  0.463970  0.089030  0.532170  1.0  0.016
  C  C572  1  0.938000  0.503960  0.971090  1.0  -0.1298
  C  C573  1  0.371000  0.583280  0.002120  1.0  -0.038
  C  C574  1  0.496040  0.438000  0.028910  1.0  -0.1293
  C  C575  1  0.100470  0.952120  0.073540  1.0  -0.1414
  C  C576  1  0.952120  0.073540  0.100470  1.0  -0.1467
  C  C577  1  0.820990  0.506270  0.149730  1.0  -0.1602
  C  C578  1  0.399530  0.547880  0.073540  1.0  -0.1431
  C  C579  1  0.167670  0.865950  0.969450  1.0  -0.0436
  C  C580  1  0.641090  0.539140  0.401340  1.0  0.07
  C  C581  1  0.685030  0.491130  0.206340  1.0  0.7261
  C  C582  1  0.855850  0.467510  0.100560  1.0  -0.0999
  C  C583  1  0.098660  0.858910  0.539140  1.0  0.0722
  C  C584  1  0.080600  0.873840  0.574690  1.0  -0.0953
  C  C585  1  0.916720  0.002120  0.129000  1.0  -0.0385
  C  C586  1  0.206340  0.685030  0.491130  1.0  0.7286
  C  C587  1  0.901340  0.039140  0.141090  1.0  0.0727
  C  C588  1  0.332330  0.634050  0.969450  1.0  -0.0448
  C  C589  1  0.399530  0.952120  0.426460  1.0  -0.14
  C  C590  1  0.039140  0.141090  0.901340  1.0  0.069
  C  C591  1  0.600560  0.967510  0.355850  1.0  -0.1053
  C  C592  1  0.867460  0.460060  0.333600  1.0  -0.0971
  C  C593  1  0.602660  0.998380  0.049830  1.0  -0.1596
  C  C594  1  0.528910  0.562000  0.503960  1.0  -0.1258
  C  C595  1  0.471090  0.496040  0.062000  1.0  -0.1264
  C  C596  1  0.873840  0.925310  0.419400  1.0  -0.0951
  C  C597  1  0.332330  0.865950  0.530550  1.0  -0.0457
  C  C598  1  0.501620  0.450170  0.602660  1.0  -0.1596
  C  C599  1  0.814970  0.008870  0.206340  1.0  0.7275
  C  C600  1  0.126160  0.580600  0.425310  1.0  -0.0961
  C  C601  1  0.536030  0.032170  0.910970  1.0  0.0159
  C  C602  1  0.149730  0.820990  0.506270  1.0  -0.16
  C  C603  1  0.634050  0.530550  0.167670  1.0  -0.0376
  C  C604  1  0.508870  0.185030  0.793660  1.0  0.7279
  C  C605  1  0.460060  0.333600  0.867460  1.0  -0.0963
  C  C606  1  0.966270  0.999230  0.560060  1.0  0.0435
  C  C607  1  0.939940  0.533730  0.999230  1.0  0.043
  C  C608  1  0.000770  0.033730  0.060060  1.0  0.0442
  C  C609  1  0.971090  0.938000  0.503960  1.0  -0.126
  C  C610  1  0.080600  0.626160  0.925310  1.0  -0.1049
  C  C611  1  0.132540  0.666400  0.960060  1.0  -0.0954
  C  C612  1  0.144150  0.899440  0.967510  1.0  -0.1058
  C  C613  1  0.410970  0.532170  0.036030  1.0  0.0161
  C  C614  1  0.000770  0.466270  0.439940  1.0  0.0424
  C  C615  1  0.149730  0.679010  0.993730  1.0  -0.1595
  C  C616  1  0.967830  0.463970  0.410970  1.0  0.0166
  C  C617  1  0.855850  0.032490  0.399440  1.0  -0.1005
  C  C618  1  0.460060  0.166400  0.632540  1.0  -0.097
  C  C619  1  0.532490  0.144150  0.600560  1.0  -0.1028
  C  C620  1  0.536030  0.467830  0.589030  1.0  0.0169
  C  C621  1  0.032170  0.910970  0.536030  1.0  0.0152
  C  C622  1  0.666400  0.539940  0.367460  1.0  -0.1012
  C  C623  1  0.049830  0.897340  0.501620  1.0  -0.1571
  C  C624  1  0.598660  0.039140  0.358910  1.0  0.0679
  C  C625  1  0.496040  0.062000  0.471090  1.0  -0.1265
  C  C626  1  0.185030  0.793660  0.508870  1.0  0.7269
  C  C627  1  0.598660  0.460860  0.141090  1.0  0.0716
  C  C628  1  0.530550  0.332330  0.865950  1.0  -0.039
  C  C629  1  0.008870  0.206340  0.814970  1.0  0.7282
  C  C630  1  0.141090  0.598660  0.460860  1.0  0.0674
  C  C631  1  0.129000  0.916720  0.002120  1.0  -0.0386
  C  C632  1  0.426460  0.100470  0.547880  1.0  -0.1448
  C  C633  1  0.952120  0.426460  0.399530  1.0  -0.1494
  C  C634  1  0.632540  0.460060  0.166400  1.0  -0.0983
  C  C635  1  0.549830  0.001620  0.397340  1.0  -0.1606
  C  C636  1  0.506270  0.350270  0.679010  1.0  -0.1591
  C  C637  1  0.439940  0.000770  0.466270  1.0  0.0421
  C  C638  1  0.967830  0.036030  0.089030  1.0  0.0165
  C  C639  1  0.873840  0.574690  0.080600  1.0  -0.0975
  C  C640  1  0.001620  0.397340  0.549830  1.0  -0.1616
  C  C641  1  0.998380  0.049830  0.602660  1.0  -0.1547
  C  C642  1  0.320990  0.850270  0.493730  1.0  -0.1603
  C  C643  1  0.102660  0.549830  0.498380  1.0  -0.157
  C  C644  1  0.667670  0.030550  0.134050  1.0  -0.039
  C  C645  1  0.003960  0.438000  0.471090  1.0  -0.128
  C  C646  1  0.549830  0.498380  0.102660  1.0  -0.1606
  C  C647  1  0.452120  0.600470  0.573540  1.0  -0.1455
  C  C648  1  0.997880  0.083280  0.629000  1.0  -0.0389
  C  C649  1  0.583280  0.002120  0.371000  1.0  -0.0408
  C  C650  1  0.399440  0.855850  0.032490  1.0  -0.1058
  C  C651  1  0.358910  0.598660  0.039140  1.0  0.0686
  C  C652  1  0.179010  0.649730  0.493730  1.0  -0.1596
  C  C653  1  0.850270  0.006270  0.179010  1.0  -0.1594
  C  C654  1  0.471090  0.003960  0.438000  1.0  -0.1252
  C  C655  1  0.129000  0.583280  0.497880  1.0  -0.0388
  C  C656  1  0.966270  0.500770  0.939940  1.0  0.0435
  C  C657  1  0.401340  0.641090  0.539140  1.0  0.0723
  C  C658  1  0.999230  0.560060  0.966270  1.0  0.0414
  C  C659  1  0.506270  0.149730  0.820990  1.0  -0.1581
  C  C660  1  0.371000  0.916720  0.497880  1.0  -0.0391
  C  C661  1  0.641090  0.960860  0.098660  1.0  0.069
  C  C662  1  0.373840  0.580600  0.074690  1.0  -0.0892
  C  C663  1  0.539140  0.401340  0.641090  1.0  0.0696
  C  C664  1  0.634050  0.969450  0.332330  1.0  -0.0381
  C  C665  1  0.562000  0.996040  0.971090  1.0  -0.1281
  C  C666  1  0.425310  0.126160  0.580600  1.0  -0.0987
  C  C667  1  0.002120  0.129000  0.916720  1.0  -0.039
  C  C668  1  0.533730  0.500770  0.560060  1.0  0.0442
  C  C669  1  0.397340  0.549830  0.001620  1.0  -0.157
  C  C670  1  0.960060  0.132540  0.666400  1.0  -0.0996
  C  C671  1  0.030550  0.134050  0.667670  1.0  -0.0389
  C  C672  1  0.333600  0.867460  0.460060  1.0  -0.098
  C  C673  1  0.132540  0.960060  0.833600  1.0  -0.0962
  C  C674  1  0.320990  0.006270  0.850270  1.0  -0.1608
  C  C675  1  0.008870  0.814970  0.293660  1.0  0.7264
  C  C676  1  0.793660  0.185030  0.991130  1.0  0.7268
  C  C677  1  0.397340  0.001620  0.950170  1.0  -0.1568
  C  C678  1  0.496040  0.471090  0.438000  1.0  -0.1257
  C  C679  1  0.950170  0.102660  0.498380  1.0  -0.1548
  C  C680  1  0.467510  0.644150  0.100560  1.0  -0.1032
  C  C681  1  0.049830  0.501620  0.602660  1.0  -0.1562
  C  C682  1  0.873840  0.080600  0.925310  1.0  -0.096
  C  C683  1  0.539140  0.858910  0.401340  1.0  0.0698
  C  C684  1  0.999230  0.966270  0.939940  1.0  0.0429
  C  C685  1  0.039940  0.632540  0.166400  1.0  -0.0956
  C  C686  1  0.925310  0.626160  0.419400  1.0  -0.1004
  C  C687  1  0.536030  0.910970  0.467830  1.0  0.0156
  C  C688  1  0.600470  0.047880  0.573540  1.0  -0.139
  C  C689  1  0.641090  0.401340  0.960860  1.0  0.0689
  C  C690  1  0.926460  0.899530  0.047880  1.0  -0.1454
  C  C691  1  0.460860  0.598660  0.358910  1.0  0.0676
  C  C692  1  0.166400  0.460060  0.867460  1.0  -0.0985
  C  C693  1  0.871000  0.083280  0.997880  1.0  -0.0392
  C  C694  1  0.996040  0.562000  0.528910  1.0  -0.128
  C  C695  1  0.897340  0.450170  0.501620  1.0  -0.1563
  C  C696  1  0.897340  0.049830  0.998380  1.0  -0.1551
  C  C697  1  0.858910  0.098660  0.960860  1.0  0.0699
  C  C698  1  0.901340  0.141090  0.460860  1.0  0.0727
  C  C699  1  0.373840  0.074690  0.919400  1.0  -0.0928
  C  C700  1  0.899440  0.144150  0.532490  1.0  -0.1055
  C  C701  1  0.574690  0.626160  0.080600  1.0  -0.0967
  C  C702  1  0.960860  0.858910  0.098660  1.0  0.0688
  C  C703  1  0.399530  0.073540  0.952120  1.0  -0.1444
  C  C704  1  0.355850  0.532490  0.600560  1.0  -0.0999
  C  C705  1  0.855850  0.100560  0.032490  1.0  -0.1037
  C  C706  1  0.049830  0.998380  0.897340  1.0  -0.1612
  C  C707  1  0.047880  0.926460  0.899530  1.0  -0.1476
  C  C708  1  0.916720  0.129000  0.497880  1.0  -0.0405
  C  C709  1  0.969450  0.634050  0.167670  1.0  -0.0398
  C  C710  1  0.583280  0.129000  0.002120  1.0  -0.0399
  C  C711  1  0.820990  0.149730  0.993730  1.0  -0.1593
  C  C712  1  0.508870  0.793660  0.314970  1.0  0.7279
  C  C713  1  0.144150  0.967510  0.600560  1.0  -0.1011
  C  C714  1  0.501620  0.602660  0.049830  1.0  -0.1605
  C  C715  1  0.450170  0.998380  0.602660  1.0  -0.1568
  C  C716  1  0.206340  0.008870  0.685030  1.0  0.7279
  C  C717  1  0.916720  0.371000  0.002120  1.0  -0.0399
  C  C718  1  0.102660  0.498380  0.950170  1.0  -0.1544
  C  C719  1  0.367460  0.539940  0.833600  1.0  -0.1009
  C  C720  1  0.939940  0.999230  0.966270  1.0  0.0418
  C  C721  1  0.967830  0.089030  0.463970  1.0  0.0178
  C  C722  1  0.333600  0.039940  0.867460  1.0  -0.1009
  C  C723  1  0.589030  0.467830  0.963970  1.0  0.018
  C  C724  1  0.600470  0.452120  0.926460  1.0  -0.1387
  C  C725  1  0.371000  0.002120  0.916720  1.0  -0.0383
  C  C726  1  0.134050  0.469450  0.667670  1.0  -0.038
  C  C727  1  0.533730  0.560060  0.999230  1.0  0.0422
  C  C728  1  0.000770  0.439940  0.033730  1.0  0.0418
  C  C729  1  0.871000  0.416720  0.502120  1.0  -0.0388
  C  C730  1  0.706340  0.314970  0.991130  1.0  0.7269
  C  C731  1  0.493730  0.649730  0.320990  1.0  -0.1581
  C  C732  1  0.039140  0.901340  0.358910  1.0  0.0669
  C  C733  1  0.560060  0.500770  0.966270  1.0  0.0405
  C  C734  1  0.425310  0.580600  0.373840  1.0  -0.0951
  C  C735  1  0.028910  0.438000  0.003960  1.0  -0.126
  C  C736  1  0.562000  0.971090  0.503960  1.0  -0.1262
  C  C737  1  0.666400  0.367460  0.960060  1.0  -0.0985
  C  C738  1  0.469450  0.667670  0.134050  1.0  -0.041
  C  C739  1  0.580600  0.126160  0.074690  1.0  -0.0978
  C  C740  1  0.649730  0.320990  0.493730  1.0  -0.1602
  C  C741  1  0.580600  0.373840  0.425310  1.0  -0.1
  C  C742  1  0.008870  0.685030  0.206340  1.0  0.7279
  C  C743  1  0.502120  0.629000  0.083280  1.0  -0.0405
  C  C744  1  0.134050  0.030550  0.832330  1.0  -0.0381
  C  C745  1  0.185030  0.508870  0.706340  1.0  0.7262
  C  C746  1  0.399440  0.032490  0.644150  1.0  -0.1005
  C  C747  1  0.100470  0.073540  0.547880  1.0  -0.1435
  C  C748  1  0.644150  0.100560  0.467510  1.0  -0.1036
  C  C749  1  0.167670  0.530550  0.865950  1.0  -0.0387
  C  C750  1  0.410970  0.036030  0.967830  1.0  0.0159
  C  C751  1  0.539940  0.833600  0.367460  1.0  -0.098
  C  C752  1  0.502120  0.871000  0.416720  1.0  -0.0385
  C  C753  1  0.100470  0.426460  0.952120  1.0  -0.1411
  C  C754  1  0.466270  0.499230  0.439940  1.0  0.0431
  C  C755  1  0.498380  0.950170  0.102660  1.0  -0.1592
  C  C756  1  0.149730  0.506270  0.679010  1.0  -0.1596
  C  C757  1  0.855850  0.399440  0.467510  1.0  -0.1049
  C  C758  1  0.634050  0.332330  0.530550  1.0  -0.0439
  C  C759  1  0.997880  0.871000  0.083280  1.0  -0.04
  C  C760  1  0.467510  0.855850  0.399440  1.0  -0.1029
  C  C761  1  0.598660  0.141090  0.039140  1.0  0.0718
  C  C762  1  0.314970  0.508870  0.793660  1.0  0.7262
  C  C763  1  0.706340  0.185030  0.508870  1.0  0.727
  C  C764  1  0.589030  0.032170  0.536030  1.0  0.0178
  C  C765  1  0.185030  0.991130  0.793660  1.0  0.7275
  C  C766  1  0.960060  0.833600  0.132540  1.0  -0.0972
  C  C767  1  0.463970  0.532170  0.410970  1.0  0.015
  C  C768  1  0.530550  0.865950  0.167670  1.0  -0.0384
  C  C769  1  0.355850  0.967510  0.899440  1.0  -0.0992
  C  C770  1  0.991130  0.706340  0.314970  1.0  0.7275
  C  C771  1  0.963970  0.589030  0.467830  1.0  0.0165
  C  C772  1  0.471090  0.438000  0.496040  1.0  -0.1255
  C  C773  1  0.416720  0.502120  0.871000  1.0  -0.0401
  C  C774  1  0.491130  0.685030  0.293660  1.0  0.7269
  C  C775  1  0.549830  0.397340  0.498380  1.0  -0.1539
  C  C776  1  0.960860  0.641090  0.401340  1.0  0.0703
  C  C777  1  0.401340  0.960860  0.641090  1.0  0.0719
  C  C778  1  0.410970  0.463970  0.532170  1.0  0.0147
  C  C779  1  0.466270  0.000770  0.060060  1.0  0.0445
  C  C780  1  0.873840  0.419400  0.574690  1.0  -0.0924
  C  C781  1  0.000770  0.060060  0.466270  1.0  0.0417
  C  C782  1  0.919400  0.126160  0.425310  1.0  -0.1047
  C  C783  1  0.499230  0.060060  0.033730  1.0  0.0401
  C  C784  1  0.003960  0.028910  0.438000  1.0  -0.1275
  C  C785  1  0.001620  0.549830  0.102660  1.0  -0.1598
  C  C786  1  0.080600  0.574690  0.626160  1.0  -0.0948
  C  C787  1  0.426460  0.547880  0.399530  1.0  -0.1456
  C  C788  1  0.320990  0.493730  0.649730  1.0  -0.16
  C  C789  1  0.089030  0.463970  0.967830  1.0  0.0164
  C  C790  1  0.074690  0.919400  0.373840  1.0  -0.0935
  C  C791  1  0.060060  0.466270  0.000770  1.0  0.0419
  C  C792  1  0.365950  0.030550  0.667670  1.0  -0.0386
  C  C793  1  0.573540  0.600470  0.047880  1.0  -0.1416
  C  C794  1  0.419400  0.574690  0.873840  1.0  -0.1031
  C  C795  1  0.963970  0.910970  0.032170  1.0  0.0145
  C  C796  1  0.532170  0.089030  0.036030  1.0  0.0163
  C  C797  1  0.573540  0.899530  0.452120  1.0  -0.1427
  C  C798  1  0.493730  0.850270  0.179010  1.0  -0.1589
  C  C799  1  0.547880  0.399530  0.426460  1.0  -0.1433
  C  C800  1  0.002120  0.916720  0.371000  1.0  -0.0394
  C  C801  1  0.450170  0.501620  0.897340  1.0  -0.1607
  C  C802  1  0.685030  0.293660  0.491130  1.0  0.7254
  C  C803  1  0.501620  0.897340  0.450170  1.0  -0.1567
  C  C804  1  0.532490  0.600560  0.355850  1.0  -0.1043
  C  C805  1  0.006270  0.850270  0.320990  1.0  -0.1591
  C  C806  1  0.439940  0.033730  0.000770  1.0  0.0425
  C  C807  1  0.036030  0.532170  0.089030  1.0  0.0185
  C  C808  1  0.560060  0.999230  0.533730  1.0  0.0395
  C  C809  1  0.033730  0.000770  0.439940  1.0  0.0425
  C  C810  1  0.460060  0.632540  0.333600  1.0  -0.0992
  C  C811  1  0.998380  0.602660  0.450170  1.0  -0.1573
  C  C812  1  0.950170  0.397340  0.001620  1.0  -0.16
  C  C813  1  0.497880  0.916720  0.129000  1.0  -0.0398
  C  C814  1  0.179010  0.006270  0.649730  1.0  -0.1601
  C  C815  1  0.350270  0.506270  0.820990  1.0  -0.1595
  C  C816  1  0.419400  0.925310  0.626160  1.0  -0.0943
  C  C817  1  0.850270  0.320990  0.006270  1.0  -0.161
  C  C818  1  0.993730  0.679010  0.350270  1.0  -0.159
  C  C819  1  0.358910  0.039140  0.901340  1.0  0.0713
  C  C820  1  0.549830  0.102660  0.001620  1.0  -0.1598
  C  C821  1  0.100560  0.032490  0.855850  1.0  -0.1031
  C  C822  1  0.602660  0.450170  0.998380  1.0  -0.1513
  C  C823  1  0.002120  0.583280  0.129000  1.0  -0.0389
  C  C824  1  0.426460  0.952120  0.100470  1.0  -0.1453
  C  C825  1  0.166400  0.039940  0.632540  1.0  -0.102
  C  C826  1  0.062000  0.003960  0.471090  1.0  -0.1271
  C  C827  1  0.685030  0.206340  0.008870  1.0  0.726
  C  C828  1  0.293660  0.491130  0.685030  1.0  0.7273
  C  C829  1  0.991130  0.793660  0.185030  1.0  0.729
  C  C830  1  0.073540  0.547880  0.100470  1.0  -0.1392
  C  C831  1  0.679010  0.350270  0.993730  1.0  -0.1599
  C  C832  1  0.500770  0.966270  0.560060  1.0  0.0452
  C  C833  1  0.530550  0.634050  0.332330  1.0  -0.0391
  C  C834  1  0.899530  0.452120  0.573540  1.0  -0.1405
  C  C835  1  0.634050  0.167670  0.969450  1.0  -0.0445
  C  C836  1  0.439940  0.466270  0.499230  1.0  0.0423
  C  C837  1  0.832330  0.134050  0.030550  1.0  -0.046
  C  C838  1  0.452120  0.926460  0.600470  1.0  -0.1464
  C  C839  1  0.925310  0.873840  0.080600  1.0  -0.0957
  C  C840  1  0.971090  0.503960  0.562000  1.0  -0.1253
  C  C841  1  0.820990  0.350270  0.506270  1.0  -0.1606
  C  C842  1  0.919400  0.373840  0.074690  1.0  -0.0995
  C  C843  1  0.997880  0.629000  0.416720  1.0  -0.0398
  C  C844  1  0.939940  0.500770  0.533730  1.0  0.0427
  C  C845  1  0.500770  0.533730  0.939940  1.0  0.0431
  C  C846  1  0.206340  0.491130  0.814970  1.0  0.7291
  C  C847  1  0.460060  0.867460  0.166400  1.0  -0.0963
  C  C848  1  0.129000  0.002120  0.583280  1.0  -0.0399
  C  C849  1  0.598660  0.358910  0.460860  1.0  0.0682
  C  C850  1  0.833600  0.367460  0.539940  1.0  -0.0968
  C  C851  1  0.032490  0.855850  0.100560  1.0  -0.1021
  C  C852  1  0.998380  0.897340  0.049830  1.0  -0.1547
  C  C853  1  0.583280  0.371000  0.497880  1.0  -0.04
  C  C854  1  0.028910  0.062000  0.496040  1.0  -0.1256
  C  C855  1  0.499230  0.439940  0.466270  1.0  0.04
  C  C856  1  0.083280  0.997880  0.871000  1.0  -0.0397
  C  C857  1  0.626160  0.419400  0.925310  1.0  -0.094
  C  C858  1  0.899440  0.355850  0.967510  1.0  -0.1076
  C  C859  1  0.910970  0.032170  0.963970  1.0  0.0161
  C  C860  1  0.452120  0.573540  0.899530  1.0  -0.1474
  C  C861  1  0.966270  0.939940  0.999230  1.0  0.041
  C  C862  1  0.999230  0.533730  0.560060  1.0  0.0429
  C  C863  1  0.425310  0.919400  0.126160  1.0  -0.0949
  C  C864  1  0.032170  0.963970  0.910970  1.0  0.0145
  C  C865  1  0.102660  0.001620  0.549830  1.0  -0.1586
  C  C866  1  0.629000  0.416720  0.997880  1.0  -0.039
  C  C867  1  0.971090  0.996040  0.938000  1.0  -0.1254
  C  C868  1  0.080600  0.925310  0.873840  1.0  -0.0933
  C  C869  1  0.602660  0.049830  0.501620  1.0  -0.1583
  C  C870  1  0.003960  0.471090  0.062000  1.0  -0.1254
  C  C871  1  0.098660  0.960860  0.858910  1.0  0.0686
  C  C872  1  0.910970  0.467830  0.536030  1.0  0.0166
  C  C873  1  0.865950  0.332330  0.969450  1.0  -0.0435
  C  C874  1  0.149730  0.993730  0.820990  1.0  -0.159
  C  C875  1  0.850270  0.179010  0.493730  1.0  -0.1593
  C  C876  1  0.098660  0.539140  0.641090  1.0  0.0723
  C  C877  1  0.083280  0.502120  0.629000  1.0  -0.0404
  C  C878  1  0.367460  0.960060  0.666400  1.0  -0.0994
  C  C879  1  0.469450  0.832330  0.365950  1.0  -0.0396
  C  C880  1  0.333600  0.460060  0.632540  1.0  -0.1008
  C  C881  1  0.858910  0.401340  0.539140  1.0  0.0713
  C  C882  1  0.629000  0.083280  0.502120  1.0  -0.0385
  C  C883  1  0.039940  0.867460  0.333600  1.0  -0.0991
  C  C884  1  0.491130  0.814970  0.206340  1.0  0.7271
  C  C885  1  0.399440  0.467510  0.855850  1.0  -0.1018
  C  C886  1  0.314970  0.991130  0.706340  1.0  0.7257
  C  C887  1  0.508870  0.706340  0.185030  1.0  0.7271
  C  C888  1  0.399530  0.426460  0.547880  1.0  -0.1423
  C  C889  1  0.350270  0.993730  0.679010  1.0  -0.1593
  C  C890  1  0.060060  0.033730  0.499230  1.0  0.0412
  C  C891  1  0.996040  0.938000  0.971090  1.0  -0.1275
  C  C892  1  0.047880  0.573540  0.600470  1.0  -0.148
  C  C893  1  0.632540  0.166400  0.039940  1.0  -0.0964
  C  C894  1  0.966270  0.560060  0.500770  1.0  0.0421
  C  C895  1  0.952120  0.100470  0.426460  1.0  -0.1478
  C  C896  1  0.926460  0.600470  0.452120  1.0  -0.1455
  C  C897  1  0.506270  0.820990  0.350270  1.0  -0.1603
  C  C898  1  0.496040  0.028910  0.062000  1.0  -0.1279
  C  C899  1  0.632540  0.333600  0.460060  1.0  -0.0983
  C  C900  1  0.679010  0.149730  0.506270  1.0  -0.1594
  C  C901  1  0.503960  0.562000  0.971090  1.0  -0.1274
  C  C902  1  0.332330  0.969450  0.865950  1.0  -0.0391
  C  C903  1  0.901340  0.358910  0.039140  1.0  0.0726
  C  C904  1  0.036030  0.967830  0.410970  1.0  0.0162
  C  C905  1  0.089030  0.036030  0.532170  1.0  0.0166
  C  C906  1  0.600560  0.144150  0.967510  1.0  -0.1062
  C  C907  1  0.865950  0.167670  0.530550  1.0  -0.0456
  C  C908  1  0.373840  0.425310  0.580600  1.0  -0.0953
  C  C909  1  0.132540  0.539940  0.666400  1.0  -0.1016
  C  C910  1  0.460860  0.901340  0.141090  1.0  0.0689
  C  C911  1  0.503960  0.938000  0.528910  1.0  -0.1297
  C  C912  1  0.467830  0.963970  0.589030  1.0  0.0185
  C  C913  1  0.167670  0.969450  0.634050  1.0  -0.039
  C  C914  1  0.814970  0.293660  0.008870  1.0  0.7254
  C  C915  1  0.667670  0.365950  0.030550  1.0  -0.0438
  C  C916  1  0.967830  0.410970  0.036030  1.0  0.0171
  C  C917  1  0.062000  0.496040  0.028910  1.0  -0.129
  C  C918  1  0.644150  0.399440  0.032490  1.0  -0.1063
  C  C919  1  0.533730  0.939940  0.500770  1.0  0.0424
  C  C920  1  0.033730  0.499230  0.060060  1.0  0.0437
  C  C921  1  0.574690  0.873840  0.419400  1.0  -0.0985
  C  C922  1  0.600560  0.355850  0.532490  1.0  -0.1086
  C  C923  1  0.032170  0.536030  0.589030  1.0  0.0152
  C  C924  1  0.141090  0.039140  0.598660  1.0  0.07
  C  C925  1  0.814970  0.206340  0.491130  1.0  0.7256
  C  C926  1  0.141090  0.460860  0.901340  1.0  0.0676
  C  C927  1  0.938000  0.971090  0.996040  1.0  -0.1282
  C  C928  1  0.539940  0.666400  0.132540  1.0  -0.0972
  C  C929  1  0.030550  0.832330  0.134050  1.0  -0.0396
  C  C930  1  0.001620  0.950170  0.397340  1.0  -0.157
  C  C931  1  0.993730  0.820990  0.149730  1.0  -0.1594
  C  C932  1  0.030550  0.667670  0.365950  1.0  -0.0389
  C  C933  1  0.467830  0.536030  0.910970  1.0  0.0162
  C  C934  1  0.532490  0.899440  0.144150  1.0  -0.1011
  C  C935  1  0.506270  0.679010  0.149730  1.0  -0.1588
  C  C936  1  0.960060  0.666400  0.367460  1.0  -0.0993
  C  C937  1  0.074690  0.580600  0.126160  1.0  -0.0913
  C  C938  1  0.641090  0.098660  0.539140  1.0  0.0693
  C  C939  1  0.832330  0.365950  0.469450  1.0  -0.0438
  C  C940  1  0.952120  0.399530  0.073540  1.0  -0.147
  C  C941  1  0.073540  0.952120  0.399530  1.0  -0.1428
  C  C942  1  0.179010  0.493730  0.850270  1.0  -0.16
  C  C943  1  0.371000  0.497880  0.583280  1.0  -0.0389
  C  C944  1  0.471090  0.062000  0.003960  1.0  -0.125
  C  C945  1  0.867460  0.333600  0.039940  1.0  -0.0954
  C  C946  1  0.539140  0.641090  0.098660  1.0  0.0685
  C  C947  1  0.528910  0.996040  0.562000  1.0  -0.1256
  C  C948  1  0.969450  0.865950  0.332330  1.0  -0.0389
  C  C949  1  0.358910  0.460860  0.598660  1.0  0.07
  C  C950  1  0.536030  0.589030  0.032170  1.0  0.0172
  C  C951  1  0.532170  0.410970  0.463970  1.0  0.0151
  C  C952  1  0.126160  0.074690  0.580600  1.0  -0.0918
  C  C953  1  0.332330  0.530550  0.634050  1.0  -0.0403
  C  C954  1  0.416720  0.997880  0.629000  1.0  -0.0387
  C  C955  1  0.562000  0.528910  0.996040  1.0  -0.1265
  C  C956  1  0.793660  0.314970  0.508870  1.0  0.7266
  C  C957  1  0.899530  0.047880  0.926460  1.0  -0.1424
  C  C958  1  0.649730  0.179010  0.006270  1.0  -0.1595
  C  C959  1  0.463970  0.967830  0.089030  1.0  0.016
  C  C960  1  0.547880  0.100470  0.073540  1.0  -0.1465
  C  C961  1  0.867460  0.166400  0.460060  1.0  -0.098
  C  C962  1  0.039140  0.598660  0.141090  1.0  0.0697
  C  C963  1  0.626160  0.080600  0.574690  1.0  -0.0933
  C  C964  1  0.967510  0.600560  0.144150  1.0  -0.0981
  C  C965  1  0.938000  0.528910  0.503960  1.0  -0.1301
  C  C966  1  0.528910  0.503960  0.938000  1.0  -0.1247
  C  C967  1  0.365950  0.469450  0.832330  1.0  -0.0382
  C  C968  1  0.006270  0.649730  0.179010  1.0  -0.1585
  C  C969  1  0.401340  0.539140  0.858910  1.0  0.0703
  C  C970  1  0.293660  0.008870  0.814970  1.0  0.7273
  C  C971  1  0.144150  0.532490  0.899440  1.0  -0.0998
  C  C972  1  0.397340  0.498380  0.549830  1.0  -0.1576
  C  C973  1  0.032490  0.644150  0.399440  1.0  -0.1012
  C  C974  1  0.129000  0.497880  0.916720  1.0  -0.0384
  C  C975  1  0.126160  0.425310  0.919400  1.0  -0.0909
  C  C976  1  0.498380  0.549830  0.397340  1.0  -0.1568
  C  C977  1  0.100560  0.467510  0.644150  1.0  -0.1033
  C  C978  1  0.438000  0.003960  0.028910  1.0  -0.1324
  C  C979  1  0.967510  0.899440  0.355850  1.0  -0.1066
  C  C980  1  0.666400  0.132540  0.539940  1.0  -0.0974
  C  C981  1  0.497880  0.583280  0.371000  1.0  -0.0401
  C  C982  1  0.438000  0.496040  0.471090  1.0  -0.1303
  C  C983  1  0.833600  0.132540  0.960060  1.0  -0.0973
  C  C984  1  0.667670  0.134050  0.469450  1.0  -0.0448
  O  O985  1  0.284640  0.698180  0.042440  1.0  -0.575
  O  O986  1  0.801820  0.457560  0.284640  1.0  -0.5755
  O  O987  1  0.299910  0.782870  0.023690  1.0  -0.6555
  O  O988  1  0.523690  0.282870  0.799910  1.0  -0.6579
  O  O989  1  0.542440  0.198180  0.784640  1.0  -0.5774
  O  O990  1  0.457560  0.215360  0.698180  1.0  -0.5781
  O  O991  1  0.301820  0.715360  0.542440  1.0  -0.5746
  O  O992  1  0.023690  0.200090  0.717130  1.0  -0.6575
  O  O993  1  0.700090  0.976310  0.282870  1.0  -0.6559
  O  O994  1  0.215360  0.698180  0.457560  1.0  -0.5759
  O  O995  1  0.023690  0.299910  0.782870  1.0  -0.6572
  O  O996  1  0.698180  0.042440  0.284640  1.0  -0.5743
  O  O997  1  0.200090  0.782870  0.476310  1.0  -0.6535
  O  O998  1  0.784640  0.957560  0.301820  1.0  -0.5754
  O  O999  1  0.542440  0.301820  0.715360  1.0  -0.5772
  O  O1000  1  0.717130  0.023690  0.200090  1.0  -0.6596
  O  O1001  1  0.715360  0.957560  0.198180  1.0  -0.5755
  O  O1002  1  0.282870  0.799910  0.523690  1.0  -0.6539
  O  O1003  1  0.198180  0.715360  0.957560  1.0  -0.5764
  O  O1004  1  0.976310  0.282870  0.700090  1.0  -0.6573
  O  O1005  1  0.476310  0.299910  0.717130  1.0  -0.6573
  O  O1006  1  0.299910  0.717130  0.476310  1.0  -0.6545
  O  O1007  1  0.700090  0.523690  0.217130  1.0  -0.6598
  O  O1008  1  0.715360  0.542440  0.301820  1.0  -0.5745
  O  O1009  1  0.476310  0.200090  0.782870  1.0  -0.657
  O  O1010  1  0.282870  0.700090  0.976310  1.0  -0.6533
  O  O1011  1  0.799910  0.976310  0.217130  1.0  -0.6585
  O  O1012  1  0.217130  0.799910  0.976310  1.0  -0.6525
  O  O1013  1  0.217130  0.700090  0.523690  1.0  -0.6538
  O  O1014  1  0.198180  0.784640  0.542440  1.0  -0.5739
  O  O1015  1  0.801820  0.042440  0.215360  1.0  -0.5732
  O  O1016  1  0.301820  0.784640  0.957560  1.0  -0.5772
  O  O1017  1  0.717130  0.476310  0.299910  1.0  -0.6567
  O  O1018  1  0.042440  0.215360  0.801820  1.0  -0.5774
  O  O1019  1  0.782870  0.476310  0.200090  1.0  -0.6565
  O  O1020  1  0.784640  0.542440  0.198180  1.0  -0.5739
  O  O1021  1  0.698180  0.457560  0.215360  1.0  -0.5753
  O  O1022  1  0.523690  0.217130  0.700090  1.0  -0.6577
  O  O1023  1  0.457560  0.284640  0.801820  1.0  -0.578
  O  O1024  1  0.284640  0.801820  0.457560  1.0  -0.5778
  O  O1025  1  0.957560  0.198180  0.715360  1.0  -0.5783
  O  O1026  1  0.782870  0.023690  0.299910  1.0  -0.6599
  O  O1027  1  0.976310  0.217130  0.799910  1.0  -0.658
  O  O1028  1  0.042440  0.284640  0.698180  1.0  -0.5781
  O  O1029  1  0.957560  0.301820  0.784640  1.0  -0.5781
  O  O1030  1  0.200090  0.717130  0.023690  1.0  -0.6544
  O  O1031  1  0.799910  0.523690  0.282870  1.0  -0.6605
  O  O1032  1  0.215360  0.801820  0.042440  1.0  -0.574
  O  O1033  1  0.717130  0.299910  0.023690  1.0  -0.6539
  O  O1034  1  0.215360  0.042440  0.698180  1.0  -0.5745
  O  O1035  1  0.715360  0.198180  0.542440  1.0  -0.5749
  O  O1036  1  0.200090  0.023690  0.782870  1.0  -0.6593
  O  O1037  1  0.957560  0.715360  0.301820  1.0  -0.5779
  O  O1038  1  0.457560  0.698180  0.284640  1.0  -0.5782
  O  O1039  1  0.700090  0.282870  0.523690  1.0  -0.6546
  O  O1040  1  0.023690  0.717130  0.299910  1.0  -0.6578
  O  O1041  1  0.698180  0.215360  0.042440  1.0  -0.5741
  O  O1042  1  0.198180  0.957560  0.784640  1.0  -0.5747
  O  O1043  1  0.523690  0.700090  0.282870  1.0  -0.657
  O  O1044  1  0.976310  0.799910  0.282870  1.0  -0.6573
  O  O1045  1  0.200090  0.476310  0.717130  1.0  -0.6565
  O  O1046  1  0.042440  0.698180  0.215360  1.0  -0.5774
  O  O1047  1  0.784640  0.301820  0.542440  1.0  -0.5758
  O  O1048  1  0.801820  0.215360  0.457560  1.0  -0.5768
  O  O1049  1  0.299910  0.023690  0.717130  1.0  -0.6611
  O  O1050  1  0.023690  0.782870  0.200090  1.0  -0.6577
  O  O1051  1  0.476310  0.782870  0.299910  1.0  -0.6584
  O  O1052  1  0.782870  0.299910  0.476310  1.0  -0.6527
  O  O1053  1  0.282870  0.976310  0.799910  1.0  -0.657
  O  O1054  1  0.284640  0.042440  0.801820  1.0  -0.5744
  O  O1055  1  0.284640  0.457560  0.698180  1.0  -0.576
  O  O1056  1  0.299910  0.476310  0.782870  1.0  -0.6579
  O  O1057  1  0.042440  0.801820  0.284640  1.0  -0.5781
  O  O1058  1  0.542440  0.715360  0.198180  1.0  -0.5778
  O  O1059  1  0.976310  0.700090  0.217130  1.0  -0.6571
  O  O1060  1  0.476310  0.717130  0.200090  1.0  -0.6573
  O  O1061  1  0.542440  0.784640  0.301820  1.0  -0.5771
  O  O1062  1  0.215360  0.457560  0.801820  1.0  -0.5747
  O  O1063  1  0.198180  0.542440  0.715360  1.0  -0.5743
  O  O1064  1  0.717130  0.200090  0.476310  1.0  -0.6528
  O  O1065  1  0.301820  0.542440  0.784640  1.0  -0.5736
  O  O1066  1  0.799910  0.217130  0.523690  1.0  -0.6554
  O  O1067  1  0.784640  0.198180  0.957560  1.0  -0.5776
  O  O1068  1  0.217130  0.976310  0.700090  1.0  -0.6561
  O  O1069  1  0.957560  0.784640  0.198180  1.0  -0.5776
  O  O1070  1  0.301820  0.957560  0.715360  1.0  -0.5753
  O  O1071  1  0.217130  0.523690  0.799910  1.0  -0.6599
  O  O1072  1  0.457560  0.801820  0.215360  1.0  -0.5779
  O  O1073  1  0.523690  0.799910  0.217130  1.0  -0.6578
  O  O1074  1  0.282870  0.523690  0.700090  1.0  -0.6596
  O  O1075  1  0.782870  0.200090  0.023690  1.0  -0.654
  O  O1076  1  0.715360  0.301820  0.957560  1.0  -0.576
  O  O1077  1  0.801820  0.284640  0.042440  1.0  -0.5749
  O  O1078  1  0.700090  0.217130  0.976310  1.0  -0.6534
  O  O1079  1  0.799910  0.282870  0.976310  1.0  -0.6546
  O  O1080  1  0.698180  0.284640  0.457560  1.0  -0.5777
