# generated using pymatgen
data_Cu7H40C80(NO6)4
_symmetry_space_group_name_H-M   'P 1'
_cell_length_a   33.78310000
_cell_length_b   33.78310000
_cell_length_c   43.45600000
_cell_angle_alpha   90.00000000
_cell_angle_beta   90.00000000
_cell_angle_gamma   120.00000000
_symmetry_Int_Tables_number   1
_chemical_formula_structural   Cu7H40C80(NO6)4
_chemical_formula_sum   'Cu42 H240 C480 N24 O144'
_cell_volume   42951.60306103
_cell_formula_units_Z   6
loop_
 _symmetry_equiv_pos_site_id
 _symmetry_equiv_pos_as_xyz
  1  'x, y, z'
loop_
 _atom_site_type_symbol
 _atom_site_label
 _atom_site_symmetry_multiplicity
 _atom_site_fract_x
 _atom_site_fract_y
 _atom_site_fract_z
 _atom_site_occupancy
 _atom_site_charge
  Cu  Cu1  1  0.478760  0.521240  0.510880  1.0  0.8829
  Cu  Cu2  1  0.478760  0.957520  0.510880  1.0  0.8813
  Cu  Cu3  1  0.042480  0.521240  0.510880  1.0  0.8827
  Cu  Cu4  1  0.521240  0.478760  0.010880  1.0  0.8822
  Cu  Cu5  1  0.521240  0.042480  0.010880  1.0  0.8787
  Cu  Cu6  1  0.957520  0.478760  0.010880  1.0  0.8837
  Cu  Cu7  1  0.521240  0.478760  0.489120  1.0  0.8817
  Cu  Cu8  1  0.957520  0.478760  0.489120  1.0  0.8825
  Cu  Cu9  1  0.521240  0.042480  0.489120  1.0  0.8786
  Cu  Cu10  1  0.478760  0.521240  0.989120  1.0  0.8824
  Cu  Cu11  1  0.042480  0.521240  0.989120  1.0  0.883
  Cu  Cu12  1  0.478760  0.957520  0.989120  1.0  0.8805
  Cu  Cu13  1  0.382110  0.191050  0.599880  1.0  0.9262
  Cu  Cu14  1  0.443100  0.221550  0.555860  1.0  0.8666
  Cu  Cu15  1  0.808950  0.191050  0.599880  1.0  0.926
  Cu  Cu16  1  0.778450  0.221550  0.555860  1.0  0.8672
  Cu  Cu17  1  0.808950  0.617890  0.599880  1.0  0.9271
  Cu  Cu18  1  0.778450  0.556900  0.555860  1.0  0.8668
  Cu  Cu19  1  0.617890  0.808950  0.099880  1.0  0.9273
  Cu  Cu20  1  0.556900  0.778450  0.055860  1.0  0.8667
  Cu  Cu21  1  0.191050  0.808940  0.099880  1.0  0.9272
  Cu  Cu22  1  0.221550  0.778450  0.055860  1.0  0.8656
  Cu  Cu23  1  0.191060  0.382110  0.099880  1.0  0.9271
  Cu  Cu24  1  0.221550  0.443100  0.055860  1.0  0.8679
  Cu  Cu25  1  0.191050  0.382110  0.400120  1.0  0.928
  Cu  Cu26  1  0.221550  0.443100  0.444140  1.0  0.8687
  Cu  Cu27  1  0.191060  0.808950  0.400120  1.0  0.9285
  Cu  Cu28  1  0.221550  0.778450  0.444140  1.0  0.8664
  Cu  Cu29  1  0.617890  0.808940  0.400120  1.0  0.9267
  Cu  Cu30  1  0.556900  0.778450  0.444140  1.0  0.8661
  Cu  Cu31  1  0.808950  0.617890  0.900120  1.0  0.9263
  Cu  Cu32  1  0.778450  0.556900  0.944140  1.0  0.8663
  Cu  Cu33  1  0.808950  0.191050  0.900120  1.0  0.9251
  Cu  Cu34  1  0.778450  0.221550  0.944140  1.0  0.8662
  Cu  Cu35  1  0.382110  0.191050  0.900120  1.0  0.9263
  Cu  Cu36  1  0.443100  0.221550  0.944140  1.0  0.8674
  Cu  Cu37  1  0.191930  0.383850  0.750000  1.0  0.5148
  Cu  Cu38  1  0.616150  0.808070  0.750000  1.0  0.5146
  Cu  Cu39  1  0.191930  0.808070  0.750000  1.0  0.5466
  Cu  Cu40  1  0.808080  0.616150  0.250000  1.0  0.5453
  Cu  Cu41  1  0.383850  0.191930  0.250000  1.0  0.5497
  Cu  Cu42  1  0.808080  0.191920  0.250000  1.0  0.5131
  H  H43  1  0.364500  0.303200  0.614500  1.0  0.1168
  H  H44  1  0.454300  0.355200  0.544300  1.0  0.1177
  H  H45  1  0.402800  0.429100  0.581900  1.0  0.1143
  H  H46  1  0.227800  0.383000  0.635000  1.0  0.1159
  H  H47  1  0.337500  0.382700  0.721200  1.0  0.1298
  H  H48  1  0.343800  0.444900  0.670700  1.0  0.1162
  H  H49  1  0.389900  0.437500  0.633900  1.0  0.1182
  H  H50  1  0.296300  0.303900  0.624100  1.0  0.118
  H  H51  1  0.250200  0.311200  0.660900  1.0  0.1209
  H  H52  1  0.696800  0.061300  0.614500  1.0  0.116
  H  H53  1  0.644800  0.099100  0.544300  1.0  0.1175
  H  H54  1  0.570900  0.973700  0.581900  1.0  0.1145
  H  H55  1  0.617000  0.844800  0.635000  1.0  0.1163
  H  H56  1  0.617300  0.954800  0.721200  1.0  0.1305
  H  H57  1  0.555100  0.898900  0.670700  1.0  0.1173
  H  H58  1  0.562500  0.952400  0.633900  1.0  0.1181
  H  H59  1  0.696100  0.992400  0.624100  1.0  0.1182
  H  H60  1  0.688800  0.939000  0.660900  1.0  0.1201
  H  H61  1  0.938700  0.635500  0.614500  1.0  0.1161
  H  H62  1  0.900900  0.545700  0.544300  1.0  0.1169
  H  H63  1  0.026300  0.597200  0.581900  1.0  0.1149
  H  H64  1  0.155200  0.772200  0.635000  1.0  0.1169
  H  H65  1  0.045200  0.662500  0.721200  1.0  0.1293
  H  H66  1  0.101100  0.656200  0.670700  1.0  0.1155
  H  H67  1  0.047600  0.610100  0.633900  1.0  0.1186
  H  H68  1  0.007600  0.703700  0.624100  1.0  0.1181
  H  H69  1  0.061000  0.749800  0.660900  1.0  0.122
  H  H70  1  0.635500  0.696800  0.114500  1.0  0.1166
  H  H71  1  0.545700  0.644800  0.044300  1.0  0.1179
  H  H72  1  0.597200  0.570900  0.081900  1.0  0.1145
  H  H73  1  0.772200  0.617000  0.135000  1.0  0.1163
  H  H74  1  0.662500  0.617300  0.221200  1.0  0.1303
  H  H75  1  0.656200  0.555100  0.170700  1.0  0.117
  H  H76  1  0.610100  0.562500  0.133900  1.0  0.1182
  H  H77  1  0.703700  0.696100  0.124100  1.0  0.1182
  H  H78  1  0.749800  0.688800  0.160900  1.0  0.1197
  H  H79  1  0.303200  0.938700  0.114500  1.0  0.1165
  H  H80  1  0.355200  0.900900  0.044300  1.0  0.1175
  H  H81  1  0.429100  0.026300  0.081900  1.0  0.1145
  H  H82  1  0.383000  0.155200  0.135000  1.0  0.1163
  H  H83  1  0.382700  0.045200  0.221200  1.0  0.1297
  H  H84  1  0.444900  0.101100  0.170700  1.0  0.1158
  H  H85  1  0.437500  0.047600  0.133900  1.0  0.1184
  H  H86  1  0.303900  0.007600  0.124100  1.0  0.1177
  H  H87  1  0.311200  0.061000  0.160900  1.0  0.1204
  H  H88  1  0.061300  0.364500  0.114500  1.0  0.1162
  H  H89  1  0.099100  0.454300  0.044300  1.0  0.1175
  H  H90  1  0.973700  0.402800  0.081900  1.0  0.1161
  H  H91  1  0.844800  0.227800  0.135000  1.0  0.1167
  H  H92  1  0.954800  0.337500  0.221200  1.0  0.1295
  H  H93  1  0.898900  0.343800  0.170700  1.0  0.1173
  H  H94  1  0.952400  0.389900  0.133900  1.0  0.1184
  H  H95  1  0.992400  0.296300  0.124100  1.0  0.1177
  H  H96  1  0.939000  0.250200  0.160900  1.0  0.1209
  H  H97  1  0.303200  0.364500  0.385500  1.0  0.1165
  H  H98  1  0.355200  0.454300  0.455700  1.0  0.1175
  H  H99  1  0.429100  0.402800  0.418100  1.0  0.1153
  H  H100  1  0.383000  0.227800  0.365000  1.0  0.1167
  H  H101  1  0.382700  0.337500  0.278800  1.0  0.1302
  H  H102  1  0.444900  0.343800  0.329300  1.0  0.1161
  H  H103  1  0.437500  0.389900  0.366100  1.0  0.1183
  H  H104  1  0.303900  0.296300  0.375900  1.0  0.1191
  H  H105  1  0.311200  0.250200  0.339100  1.0  0.1203
  H  H106  1  0.061300  0.696800  0.385500  1.0  0.1167
  H  H107  1  0.099100  0.644800  0.455700  1.0  0.1175
  H  H108  1  0.973700  0.570900  0.418100  1.0  0.1144
  H  H109  1  0.844800  0.617000  0.365000  1.0  0.1165
  H  H110  1  0.954800  0.617300  0.278800  1.0  0.1302
  H  H111  1  0.898900  0.555100  0.329300  1.0  0.1158
  H  H112  1  0.952400  0.562500  0.366100  1.0  0.1184
  H  H113  1  0.992400  0.696100  0.375900  1.0  0.1175
  H  H114  1  0.939000  0.688800  0.339100  1.0  0.1205
  H  H115  1  0.635500  0.938700  0.385500  1.0  0.1165
  H  H116  1  0.545700  0.900900  0.455700  1.0  0.1175
  H  H117  1  0.597200  0.026300  0.418100  1.0  0.1145
  H  H118  1  0.772200  0.155200  0.365000  1.0  0.1165
  H  H119  1  0.662500  0.045200  0.278800  1.0  0.1298
  H  H120  1  0.656200  0.101100  0.329300  1.0  0.1177
  H  H121  1  0.610100  0.047600  0.366100  1.0  0.1182
  H  H122  1  0.703700  0.007600  0.375900  1.0  0.1182
  H  H123  1  0.749800  0.061000  0.339100  1.0  0.1196
  H  H124  1  0.696800  0.635500  0.885500  1.0  0.1163
  H  H125  1  0.644800  0.545700  0.955700  1.0  0.1173
  H  H126  1  0.570900  0.597200  0.918100  1.0  0.1157
  H  H127  1  0.617000  0.772200  0.865000  1.0  0.1169
  H  H128  1  0.617300  0.662500  0.778800  1.0  0.1299
  H  H129  1  0.555100  0.656200  0.829300  1.0  0.1172
  H  H130  1  0.562500  0.610100  0.866100  1.0  0.1182
  H  H131  1  0.696100  0.703700  0.875900  1.0  0.1188
  H  H132  1  0.688800  0.749800  0.839100  1.0  0.1219
  H  H133  1  0.938700  0.303200  0.885500  1.0  0.117
  H  H134  1  0.900900  0.355200  0.955700  1.0  0.1179
  H  H135  1  0.026300  0.429100  0.918100  1.0  0.1144
  H  H136  1  0.155200  0.383000  0.865000  1.0  0.1164
  H  H137  1  0.045200  0.382700  0.778800  1.0  0.1303
  H  H138  1  0.101100  0.444900  0.829300  1.0  0.117
  H  H139  1  0.047600  0.437500  0.866100  1.0  0.1182
  H  H140  1  0.007600  0.303900  0.875900  1.0  0.1178
  H  H141  1  0.061000  0.311200  0.839100  1.0  0.1207
  H  H142  1  0.364500  0.061300  0.885500  1.0  0.1164
  H  H143  1  0.454300  0.099100  0.955700  1.0  0.1174
  H  H144  1  0.402800  0.973700  0.918100  1.0  0.1151
  H  H145  1  0.227800  0.844800  0.865000  1.0  0.1161
  H  H146  1  0.337500  0.954800  0.778800  1.0  0.1304
  H  H147  1  0.343800  0.898900  0.829300  1.0  0.1157
  H  H148  1  0.389900  0.952400  0.866100  1.0  0.1181
  H  H149  1  0.296300  0.992400  0.875900  1.0  0.1185
  H  H150  1  0.250200  0.939000  0.839100  1.0  0.1206
  H  H151  1  0.635500  0.696800  0.385500  1.0  0.1166
  H  H152  1  0.545700  0.644800  0.455700  1.0  0.1178
  H  H153  1  0.597200  0.570900  0.418100  1.0  0.1149
  H  H154  1  0.772200  0.617000  0.365000  1.0  0.1187
  H  H155  1  0.662500  0.617300  0.278800  1.0  0.1304
  H  H156  1  0.656200  0.555100  0.329300  1.0  0.1172
  H  H157  1  0.610100  0.562500  0.366100  1.0  0.1181
  H  H158  1  0.703700  0.696100  0.375900  1.0  0.1182
  H  H159  1  0.749800  0.688800  0.339100  1.0  0.121
  H  H160  1  0.303200  0.938700  0.385500  1.0  0.1165
  H  H161  1  0.355200  0.900900  0.455700  1.0  0.1176
  H  H162  1  0.429100  0.026300  0.418100  1.0  0.1145
  H  H163  1  0.383000  0.155200  0.365000  1.0  0.1183
  H  H164  1  0.382700  0.045200  0.278800  1.0  0.1301
  H  H165  1  0.444900  0.101100  0.329300  1.0  0.116
  H  H166  1  0.437500  0.047600  0.366100  1.0  0.1184
  H  H167  1  0.303900  0.007600  0.375900  1.0  0.1183
  H  H168  1  0.311200  0.061000  0.339100  1.0  0.1203
  H  H169  1  0.061300  0.364500  0.385500  1.0  0.1166
  H  H170  1  0.099100  0.454300  0.455700  1.0  0.1174
  H  H171  1  0.973700  0.402800  0.418100  1.0  0.1159
  H  H172  1  0.844800  0.227800  0.365000  1.0  0.1188
  H  H173  1  0.954800  0.337500  0.278800  1.0  0.1299
  H  H174  1  0.898900  0.343800  0.329300  1.0  0.1177
  H  H175  1  0.952400  0.389900  0.366100  1.0  0.1183
  H  H176  1  0.992400  0.296300  0.375900  1.0  0.1181
  H  H177  1  0.939000  0.250200  0.339100  1.0  0.1208
  H  H178  1  0.364500  0.303200  0.885500  1.0  0.117
  H  H179  1  0.454300  0.355200  0.955700  1.0  0.1178
  H  H180  1  0.402800  0.429100  0.918100  1.0  0.1142
  H  H181  1  0.227800  0.383000  0.865000  1.0  0.1182
  H  H182  1  0.337500  0.382700  0.778800  1.0  0.1302
  H  H183  1  0.343800  0.444900  0.829300  1.0  0.117
  H  H184  1  0.389900  0.437500  0.866100  1.0  0.1182
  H  H185  1  0.296300  0.303900  0.875900  1.0  0.1187
  H  H186  1  0.250200  0.311200  0.839100  1.0  0.1207
  H  H187  1  0.696800  0.061300  0.885500  1.0  0.1163
  H  H188  1  0.644800  0.099100  0.955700  1.0  0.1176
  H  H189  1  0.570900  0.973700  0.918100  1.0  0.1147
  H  H190  1  0.617000  0.844800  0.865000  1.0  0.1183
  H  H191  1  0.617300  0.954800  0.778800  1.0  0.1306
  H  H192  1  0.555100  0.898900  0.829300  1.0  0.117
  H  H193  1  0.562500  0.952400  0.866100  1.0  0.1179
  H  H194  1  0.696100  0.992400  0.875900  1.0  0.1181
  H  H195  1  0.688800  0.939000  0.839100  1.0  0.1203
  H  H196  1  0.938700  0.635500  0.885500  1.0  0.1161
  H  H197  1  0.900900  0.545700  0.955700  1.0  0.1171
  H  H198  1  0.026300  0.597200  0.918100  1.0  0.1151
  H  H199  1  0.155200  0.772200  0.865000  1.0  0.1189
  H  H200  1  0.045200  0.662500  0.778800  1.0  0.1296
  H  H201  1  0.101100  0.656200  0.829300  1.0  0.1154
  H  H202  1  0.047600  0.610100  0.866100  1.0  0.1184
  H  H203  1  0.007600  0.703700  0.875900  1.0  0.1182
  H  H204  1  0.061000  0.749800  0.839100  1.0  0.1221
  H  H205  1  0.696800  0.635500  0.614500  1.0  0.1161
  H  H206  1  0.644800  0.545700  0.544300  1.0  0.1171
  H  H207  1  0.570900  0.597200  0.581900  1.0  0.1158
  H  H208  1  0.617000  0.772200  0.635000  1.0  0.1188
  H  H209  1  0.617300  0.662500  0.721200  1.0  0.1295
  H  H210  1  0.555100  0.656200  0.670700  1.0  0.1172
  H  H211  1  0.562500  0.610100  0.633900  1.0  0.1184
  H  H212  1  0.696100  0.703700  0.624100  1.0  0.1189
  H  H213  1  0.688800  0.749800  0.660900  1.0  0.1219
  H  H214  1  0.938700  0.303200  0.614500  1.0  0.1168
  H  H215  1  0.900900  0.355200  0.544300  1.0  0.1179
  H  H216  1  0.026300  0.429100  0.581900  1.0  0.1144
  H  H217  1  0.155200  0.383000  0.635000  1.0  0.1185
  H  H218  1  0.045200  0.382700  0.721200  1.0  0.1302
  H  H219  1  0.101100  0.444900  0.670700  1.0  0.1163
  H  H220  1  0.047600  0.437500  0.633900  1.0  0.1183
  H  H221  1  0.007600  0.303900  0.624100  1.0  0.1171
  H  H222  1  0.061000  0.311200  0.660900  1.0  0.1209
  H  H223  1  0.364500  0.061300  0.614500  1.0  0.1164
  H  H224  1  0.454300  0.099100  0.544300  1.0  0.1174
  H  H225  1  0.402800  0.973700  0.581900  1.0  0.1149
  H  H226  1  0.227800  0.844800  0.635000  1.0  0.1184
  H  H227  1  0.337500  0.954800  0.721200  1.0  0.1299
  H  H228  1  0.343800  0.898900  0.670700  1.0  0.1156
  H  H229  1  0.389900  0.952400  0.633900  1.0  0.1183
  H  H230  1  0.296300  0.992400  0.624100  1.0  0.1182
  H  H231  1  0.250200  0.939000  0.660900  1.0  0.1208
  H  H232  1  0.303200  0.364500  0.114500  1.0  0.1165
  H  H233  1  0.355200  0.454300  0.044300  1.0  0.1176
  H  H234  1  0.429100  0.402800  0.081900  1.0  0.1152
  H  H235  1  0.383000  0.227800  0.135000  1.0  0.119
  H  H236  1  0.382700  0.337500  0.221200  1.0  0.1302
  H  H237  1  0.444900  0.343800  0.170700  1.0  0.1159
  H  H238  1  0.437500  0.389900  0.133900  1.0  0.1184
  H  H239  1  0.303900  0.296300  0.124100  1.0  0.1187
  H  H240  1  0.311200  0.250200  0.160900  1.0  0.1217
  H  H241  1  0.061300  0.696800  0.114500  1.0  0.1165
  H  H242  1  0.099100  0.644800  0.044300  1.0  0.1175
  H  H243  1  0.973700  0.570900  0.081900  1.0  0.1142
  H  H244  1  0.844800  0.617000  0.135000  1.0  0.1181
  H  H245  1  0.954800  0.617300  0.221200  1.0  0.1298
  H  H246  1  0.898900  0.555100  0.170700  1.0  0.1155
  H  H247  1  0.952400  0.562500  0.133900  1.0  0.1185
  H  H248  1  0.992400  0.696100  0.124100  1.0  0.1173
  H  H249  1  0.939000  0.688800  0.160900  1.0  0.1203
  H  H250  1  0.635500  0.938700  0.114500  1.0  0.1161
  H  H251  1  0.545700  0.900900  0.044300  1.0  0.1172
  H  H252  1  0.597200  0.026300  0.081900  1.0  0.1145
  H  H253  1  0.772200  0.155200  0.135000  1.0  0.1185
  H  H254  1  0.662500  0.045200  0.221200  1.0  0.1296
  H  H255  1  0.656200  0.101100  0.170700  1.0  0.1175
  H  H256  1  0.610100  0.047600  0.133900  1.0  0.1182
  H  H257  1  0.703700  0.007600  0.124100  1.0  0.1178
  H  H258  1  0.749800  0.061000  0.160900  1.0  0.1193
  H  H259  1  0.327100  0.163550  0.522000  1.0  0.0786
  H  H260  1  0.502300  0.251150  0.633300  1.0  0.1201
  H  H261  1  0.836450  0.163550  0.522000  1.0  0.0783
  H  H262  1  0.748850  0.251150  0.633300  1.0  0.1207
  H  H263  1  0.836450  0.672900  0.522000  1.0  0.0781
  H  H264  1  0.748850  0.497700  0.633300  1.0  0.1203
  H  H265  1  0.672900  0.836450  0.022000  1.0  0.0776
  H  H266  1  0.497700  0.748850  0.133300  1.0  0.1206
  H  H267  1  0.163550  0.836450  0.022000  1.0  0.0778
  H  H268  1  0.251150  0.748850  0.133300  1.0  0.12
  H  H269  1  0.163550  0.327100  0.022000  1.0  0.0775
  H  H270  1  0.251150  0.502300  0.133300  1.0  0.1213
  H  H271  1  0.163550  0.327100  0.478000  1.0  0.0788
  H  H272  1  0.251150  0.502300  0.366700  1.0  0.1195
  H  H273  1  0.163550  0.836450  0.478000  1.0  0.0792
  H  H274  1  0.251150  0.748850  0.366700  1.0  0.1187
  H  H275  1  0.672900  0.836450  0.478000  1.0  0.0783
  H  H276  1  0.497700  0.748850  0.366700  1.0  0.1186
  H  H277  1  0.836450  0.672900  0.978000  1.0  0.0797
  H  H278  1  0.748850  0.497700  0.866700  1.0  0.1184
  H  H279  1  0.836450  0.163550  0.978000  1.0  0.079
  H  H280  1  0.748850  0.251150  0.866700  1.0  0.1191
  H  H281  1  0.327100  0.163550  0.978000  1.0  0.0804
  H  H282  1  0.502300  0.251150  0.866700  1.0  0.119
  C  C283  1  0.262000  0.382600  0.695100  1.0  -0.0552
  C  C284  1  0.224600  0.384000  0.685000  1.0  0.2149
  C  C285  1  0.379110  0.366900  0.601660  1.0  0.0274
  C  C286  1  0.381700  0.327100  0.600670  1.0  -0.1277
  C  C287  1  0.409800  0.322800  0.579220  1.0  -0.0741
  C  C288  1  0.435330  0.358200  0.558770  1.0  -0.0288
  C  C289  1  0.432710  0.397900  0.559760  1.0  -0.171
  C  C290  1  0.404600  0.402300  0.581210  1.0  -0.0726
  C  C291  1  0.211400  0.383300  0.652440  1.0  -0.1566
  C  C292  1  0.315600  0.382800  0.734370  1.0  -0.1603
  C  C293  1  0.274300  0.383000  0.725900  1.0  0.2013
  C  C294  1  0.458900  0.435500  0.536900  1.0  0.6703
  C  C295  1  0.410900  0.282500  0.578200  1.0  0.6947
  C  C296  1  0.292600  0.378800  0.669320  1.0  0.0738
  C  C297  1  0.334200  0.416400  0.661290  1.0  -0.1223
  C  C298  1  0.361800  0.412000  0.639400  1.0  -0.1352
  C  C299  1  0.347600  0.370000  0.625470  1.0  0.0467
  C  C300  1  0.305900  0.332300  0.633510  1.0  -0.1422
  C  C301  1  0.278390  0.336700  0.655430  1.0  -0.1346
  C  C302  1  0.617400  0.879400  0.695100  1.0  -0.0558
  C  C303  1  0.616000  0.840600  0.685000  1.0  0.2145
  C  C304  1  0.633100  0.012210  0.601660  1.0  0.0276
  C  C305  1  0.672900  0.054600  0.600670  1.0  -0.129
  C  C306  1  0.677200  0.087000  0.579220  1.0  -0.0724
  C  C307  1  0.641800  0.077130  0.558770  1.0  -0.0289
  C  C308  1  0.602100  0.034810  0.559760  1.0  -0.1717
  C  C309  1  0.597700  0.002300  0.581210  1.0  -0.0714
  C  C310  1  0.616700  0.828100  0.652440  1.0  -0.1569
  C  C311  1  0.617200  0.932800  0.734370  1.0  -0.1646
  C  C312  1  0.617000  0.891300  0.725900  1.0  0.2004
  C  C313  1  0.564500  0.023400  0.536900  1.0  0.6704
  C  C314  1  0.717500  0.128400  0.578200  1.0  0.6945
  C  C315  1  0.621200  0.913800  0.669320  1.0  0.0736
  C  C316  1  0.583600  0.917800  0.661290  1.0  -0.1256
  C  C317  1  0.588000  0.949800  0.639400  1.0  -0.1311
  C  C318  1  0.630000  0.977600  0.625470  1.0  0.0466
  C  C319  1  0.667700  0.973600  0.633510  1.0  -0.141
  C  C320  1  0.663300  0.941690  0.655430  1.0  -0.1313
  C  C321  1  0.120600  0.738000  0.695100  1.0  -0.055
  C  C322  1  0.159400  0.775400  0.685000  1.0  0.2154
  C  C323  1  0.987790  0.620890  0.601660  1.0  0.0272
  C  C324  1  0.945400  0.618300  0.600670  1.0  -0.1295
  C  C325  1  0.913000  0.590200  0.579220  1.0  -0.0741
  C  C326  1  0.922870  0.564670  0.558770  1.0  -0.0281
  C  C327  1  0.965190  0.567290  0.559760  1.0  -0.1703
  C  C328  1  0.997700  0.595400  0.581210  1.0  -0.0722
  C  C329  1  0.171900  0.788600  0.652440  1.0  -0.1582
  C  C330  1  0.067200  0.684400  0.734370  1.0  -0.1654
  C  C331  1  0.108700  0.725700  0.725900  1.0  0.2013
  C  C332  1  0.976600  0.541100  0.536900  1.0  0.6695
  C  C333  1  0.871600  0.589100  0.578200  1.0  0.6954
  C  C334  1  0.086200  0.707400  0.669320  1.0  0.0744
  C  C335  1  0.082200  0.665800  0.661290  1.0  -0.1263
  C  C336  1  0.050200  0.638200  0.639400  1.0  -0.1345
  C  C337  1  0.022400  0.652400  0.625470  1.0  0.046
  C  C338  1  0.026400  0.694100  0.633510  1.0  -0.1449
  C  C339  1  0.058310  0.721610  0.655430  1.0  -0.1386
  C  C340  1  0.738000  0.617400  0.195100  1.0  -0.0546
  C  C341  1  0.775400  0.616000  0.185000  1.0  0.2144
  C  C342  1  0.620890  0.633100  0.101660  1.0  0.0276
  C  C343  1  0.618300  0.672900  0.100670  1.0  -0.1289
  C  C344  1  0.590200  0.677200  0.079220  1.0  -0.0741
  C  C345  1  0.564670  0.641800  0.058770  1.0  -0.0281
  C  C346  1  0.567290  0.602100  0.059760  1.0  -0.1705
  C  C347  1  0.595400  0.597700  0.081210  1.0  -0.07
  C  C348  1  0.788600  0.616700  0.152440  1.0  -0.1569
  C  C349  1  0.684400  0.617200  0.234370  1.0  -0.1619
  C  C350  1  0.725700  0.617000  0.225900  1.0  0.201
  C  C351  1  0.541100  0.564500  0.036900  1.0  0.6706
  C  C352  1  0.589100  0.717500  0.078200  1.0  0.6943
  C  C353  1  0.707400  0.621200  0.169320  1.0  0.0734
  C  C354  1  0.665800  0.583600  0.161290  1.0  -0.1241
  C  C355  1  0.638200  0.588000  0.139400  1.0  -0.1348
  C  C356  1  0.652400  0.630000  0.125470  1.0  0.046
  C  C357  1  0.694100  0.667700  0.133510  1.0  -0.1424
  C  C358  1  0.721610  0.663300  0.155430  1.0  -0.1331
  C  C359  1  0.382600  0.120600  0.195100  1.0  -0.0551
  C  C360  1  0.384000  0.159400  0.185000  1.0  0.2138
  C  C361  1  0.366900  0.987790  0.101660  1.0  0.0279
  C  C362  1  0.327100  0.945400  0.100670  1.0  -0.1294
  C  C363  1  0.322800  0.913000  0.079220  1.0  -0.0726
  C  C364  1  0.358200  0.922870  0.058770  1.0  -0.0281
  C  C365  1  0.397900  0.965190  0.059760  1.0  -0.171
  C  C366  1  0.402300  0.997700  0.081210  1.0  -0.0714
  C  C367  1  0.383300  0.171900  0.152440  1.0  -0.1576
  C  C368  1  0.382800  0.067200  0.234370  1.0  -0.1645
  C  C369  1  0.383000  0.108700  0.225900  1.0  0.201
  C  C370  1  0.435500  0.976600  0.036900  1.0  0.6698
  C  C371  1  0.282500  0.871600  0.078200  1.0  0.6944
  C  C372  1  0.378800  0.086200  0.169320  1.0  0.0742
  C  C373  1  0.416400  0.082200  0.161290  1.0  -0.1243
  C  C374  1  0.412000  0.050200  0.139400  1.0  -0.1306
  C  C375  1  0.370000  0.022400  0.125470  1.0  0.0463
  C  C376  1  0.332300  0.026400  0.133510  1.0  -0.1427
  C  C377  1  0.336700  0.058310  0.155430  1.0  -0.1339
  C  C378  1  0.879400  0.262000  0.195100  1.0  -0.0552
  C  C379  1  0.840600  0.224600  0.185000  1.0  0.2158
  C  C380  1  0.012210  0.379110  0.101660  1.0  0.0273
  C  C381  1  0.054600  0.381700  0.100670  1.0  -0.1283
  C  C382  1  0.087000  0.409800  0.079220  1.0  -0.074
  C  C383  1  0.077130  0.435330  0.058770  1.0  -0.0278
  C  C384  1  0.034810  0.432710  0.059760  1.0  -0.1709
  C  C385  1  0.002300  0.404600  0.081210  1.0  -0.0756
  C  C386  1  0.828100  0.211400  0.152440  1.0  -0.1579
  C  C387  1  0.932800  0.315600  0.234370  1.0  -0.1643
  C  C388  1  0.891300  0.274300  0.225900  1.0  0.2005
  C  C389  1  0.023400  0.458900  0.036900  1.0  0.6706
  C  C390  1  0.128400  0.410900  0.078200  1.0  0.6955
  C  C391  1  0.913800  0.292600  0.169320  1.0  0.074
  C  C392  1  0.917800  0.334200  0.161290  1.0  -0.129
  C  C393  1  0.949800  0.361800  0.139400  1.0  -0.1354
  C  C394  1  0.977600  0.347600  0.125470  1.0  0.0465
  C  C395  1  0.973600  0.305900  0.133510  1.0  -0.1432
  C  C396  1  0.941690  0.278390  0.155430  1.0  -0.1376
  C  C397  1  0.382600  0.262000  0.304900  1.0  -0.0547
  C  C398  1  0.384000  0.224600  0.315000  1.0  0.2163
  C  C399  1  0.366900  0.379110  0.398340  1.0  0.0275
  C  C400  1  0.327100  0.381700  0.399330  1.0  -0.1282
  C  C401  1  0.322800  0.409800  0.420780  1.0  -0.074
  C  C402  1  0.358200  0.435330  0.441230  1.0  -0.0272
  C  C403  1  0.397900  0.432710  0.440240  1.0  -0.1701
  C  C404  1  0.402300  0.404600  0.418790  1.0  -0.0723
  C  C405  1  0.383300  0.211400  0.347560  1.0  -0.158
  C  C406  1  0.382800  0.315600  0.265630  1.0  -0.1653
  C  C407  1  0.383000  0.274300  0.274100  1.0  0.1999
  C  C408  1  0.435500  0.458900  0.463100  1.0  0.6697
  C  C409  1  0.282500  0.410900  0.421800  1.0  0.6953
  C  C410  1  0.378800  0.292600  0.330680  1.0  0.0743
  C  C411  1  0.416400  0.334200  0.338710  1.0  -0.1276
  C  C412  1  0.412000  0.361800  0.360600  1.0  -0.1341
  C  C413  1  0.370000  0.347600  0.374530  1.0  0.0463
  C  C414  1  0.332300  0.305900  0.366490  1.0  -0.144
  C  C415  1  0.336700  0.278390  0.344570  1.0  -0.138
  C  C416  1  0.879400  0.617400  0.304900  1.0  -0.0548
  C  C417  1  0.840600  0.616000  0.315000  1.0  0.2149
  C  C418  1  0.012210  0.633100  0.398340  1.0  0.0272
  C  C419  1  0.054600  0.672900  0.399330  1.0  -0.1285
  C  C420  1  0.087000  0.677200  0.420780  1.0  -0.0742
  C  C421  1  0.077130  0.641800  0.441230  1.0  -0.0277
  C  C422  1  0.034810  0.602100  0.440240  1.0  -0.1705
  C  C423  1  0.002300  0.597700  0.418790  1.0  -0.0715
  C  C424  1  0.828100  0.616700  0.347560  1.0  -0.154
  C  C425  1  0.932800  0.617200  0.265630  1.0  -0.1594
  C  C426  1  0.891300  0.617000  0.274100  1.0  0.2007
  C  C427  1  0.023400  0.564500  0.463100  1.0  0.6704
  C  C428  1  0.128400  0.717500  0.421800  1.0  0.6946
  C  C429  1  0.913800  0.621200  0.330680  1.0  0.0738
  C  C430  1  0.917800  0.583600  0.338710  1.0  -0.1234
  C  C431  1  0.949800  0.588000  0.360600  1.0  -0.1364
  C  C432  1  0.977600  0.630000  0.374530  1.0  0.0467
  C  C433  1  0.973600  0.667700  0.366490  1.0  -0.143
  C  C434  1  0.941690  0.663300  0.344570  1.0  -0.1344
  C  C435  1  0.738000  0.120600  0.304900  1.0  -0.0551
  C  C436  1  0.775400  0.159400  0.315000  1.0  0.2148
  C  C437  1  0.620890  0.987790  0.398340  1.0  0.0279
  C  C438  1  0.618300  0.945400  0.399330  1.0  -0.127
  C  C439  1  0.590200  0.913000  0.420780  1.0  -0.0727
  C  C440  1  0.564670  0.922870  0.441230  1.0  -0.0279
  C  C441  1  0.567290  0.965190  0.440240  1.0  -0.1714
  C  C442  1  0.595400  0.997700  0.418790  1.0  -0.0722
  C  C443  1  0.788600  0.171900  0.347560  1.0  -0.1555
  C  C444  1  0.684400  0.067200  0.265630  1.0  -0.1645
  C  C445  1  0.725700  0.108700  0.274100  1.0  0.2003
  C  C446  1  0.541100  0.976600  0.463100  1.0  0.6706
  C  C447  1  0.589100  0.871600  0.421800  1.0  0.6945
  C  C448  1  0.707400  0.086200  0.330680  1.0  0.074
  C  C449  1  0.665800  0.082200  0.338710  1.0  -0.1254
  C  C450  1  0.638200  0.050200  0.360600  1.0  -0.1325
  C  C451  1  0.652400  0.022400  0.374530  1.0  0.0464
  C  C452  1  0.694100  0.026400  0.366490  1.0  -0.141
  C  C453  1  0.721610  0.058310  0.344570  1.0  -0.1317
  C  C454  1  0.617400  0.738000  0.804900  1.0  -0.0549
  C  C455  1  0.616000  0.775400  0.815000  1.0  0.2161
  C  C456  1  0.633100  0.620890  0.898340  1.0  0.0271
  C  C457  1  0.672900  0.618300  0.899330  1.0  -0.1278
  C  C458  1  0.677200  0.590200  0.920780  1.0  -0.0743
  C  C459  1  0.641800  0.564670  0.941230  1.0  -0.0275
  C  C460  1  0.602100  0.567290  0.940240  1.0  -0.1706
  C  C461  1  0.597700  0.595400  0.918790  1.0  -0.075
  C  C462  1  0.616700  0.788600  0.847560  1.0  -0.155
  C  C463  1  0.617200  0.684400  0.765630  1.0  -0.1637
  C  C464  1  0.617000  0.725700  0.774100  1.0  0.2005
  C  C465  1  0.564500  0.541100  0.963100  1.0  0.6706
  C  C466  1  0.717500  0.589100  0.921800  1.0  0.6957
  C  C467  1  0.621200  0.707400  0.830680  1.0  0.0745
  C  C468  1  0.583600  0.665800  0.838710  1.0  -0.1278
  C  C469  1  0.588000  0.638200  0.860600  1.0  -0.1347
  C  C470  1  0.630000  0.652400  0.874530  1.0  0.0461
  C  C471  1  0.667700  0.694100  0.866490  1.0  -0.1433
  C  C472  1  0.663300  0.721610  0.844570  1.0  -0.1371
  C  C473  1  0.120600  0.382600  0.804900  1.0  -0.0547
  C  C474  1  0.159400  0.384000  0.815000  1.0  0.2156
  C  C475  1  0.987790  0.366900  0.898340  1.0  0.0277
  C  C476  1  0.945400  0.327100  0.899330  1.0  -0.1262
  C  C477  1  0.913000  0.322800  0.920780  1.0  -0.0743
  C  C478  1  0.922870  0.358200  0.941230  1.0  -0.0277
  C  C479  1  0.965190  0.397900  0.940240  1.0  -0.1702
  C  C480  1  0.997700  0.402300  0.918790  1.0  -0.0714
  C  C481  1  0.171900  0.383300  0.847560  1.0  -0.1557
  C  C482  1  0.067200  0.382800  0.765630  1.0  -0.1619
  C  C483  1  0.108700  0.383000  0.774100  1.0  0.2001
  C  C484  1  0.976600  0.435500  0.963100  1.0  0.6704
  C  C485  1  0.871600  0.282500  0.921800  1.0  0.6945
  C  C486  1  0.086200  0.378800  0.830680  1.0  0.0735
  C  C487  1  0.082200  0.416400  0.838710  1.0  -0.123
  C  C488  1  0.050200  0.412000  0.860600  1.0  -0.1359
  C  C489  1  0.022400  0.370000  0.874530  1.0  0.0459
  C  C490  1  0.026400  0.332300  0.866490  1.0  -0.1417
  C  C491  1  0.058310  0.336700  0.844570  1.0  -0.1353
  C  C492  1  0.262000  0.879400  0.804900  1.0  -0.0553
  C  C493  1  0.224600  0.840600  0.815000  1.0  0.215
  C  C494  1  0.379110  0.012210  0.898340  1.0  0.0276
  C  C495  1  0.381700  0.054600  0.899330  1.0  -0.1284
  C  C496  1  0.409800  0.087000  0.920780  1.0  -0.0725
  C  C497  1  0.435330  0.077130  0.941230  1.0  -0.0277
  C  C498  1  0.432710  0.034810  0.940240  1.0  -0.1708
  C  C499  1  0.404600  0.002300  0.918790  1.0  -0.0698
  C  C500  1  0.211400  0.828100  0.847560  1.0  -0.1547
  C  C501  1  0.315600  0.932800  0.765630  1.0  -0.1638
  C  C502  1  0.274300  0.891300  0.774100  1.0  0.1996
  C  C503  1  0.458900  0.023400  0.963100  1.0  0.6697
  C  C504  1  0.410900  0.128400  0.921800  1.0  0.6944
  C  C505  1  0.292600  0.913800  0.830680  1.0  0.074
  C  C506  1  0.334200  0.917800  0.838710  1.0  -0.1253
  C  C507  1  0.361800  0.949800  0.860600  1.0  -0.1303
  C  C508  1  0.347600  0.977600  0.874530  1.0  0.0464
  C  C509  1  0.305900  0.973600  0.866490  1.0  -0.1433
  C  C510  1  0.278390  0.941690  0.844570  1.0  -0.1327
  C  C511  1  0.738000  0.617400  0.304900  1.0  -0.0544
  C  C512  1  0.775400  0.616000  0.315000  1.0  0.2156
  C  C513  1  0.620890  0.633100  0.398340  1.0  0.0276
  C  C514  1  0.618300  0.672900  0.399330  1.0  -0.128
  C  C515  1  0.590200  0.677200  0.420780  1.0  -0.0741
  C  C516  1  0.564670  0.641800  0.441230  1.0  -0.0276
  C  C517  1  0.567290  0.602100  0.440240  1.0  -0.1699
  C  C518  1  0.595400  0.597700  0.418790  1.0  -0.0701
  C  C519  1  0.788600  0.616700  0.347560  1.0  -0.1558
  C  C520  1  0.684400  0.617200  0.265630  1.0  -0.1625
  C  C521  1  0.725700  0.617000  0.274100  1.0  0.2005
  C  C522  1  0.541100  0.564500  0.463100  1.0  0.6705
  C  C523  1  0.589100  0.717500  0.421800  1.0  0.6943
  C  C524  1  0.707400  0.621200  0.330680  1.0  0.0733
  C  C525  1  0.665800  0.583600  0.338710  1.0  -0.1238
  C  C526  1  0.638200  0.588000  0.360600  1.0  -0.1349
  C  C527  1  0.652400  0.630000  0.374530  1.0  0.046
  C  C528  1  0.694100  0.667700  0.366490  1.0  -0.1424
  C  C529  1  0.721610  0.663300  0.344570  1.0  -0.1329
  C  C530  1  0.382600  0.120600  0.304900  1.0  -0.0549
  C  C531  1  0.384000  0.159400  0.315000  1.0  0.2151
  C  C532  1  0.366900  0.987790  0.398340  1.0  0.0279
  C  C533  1  0.327100  0.945400  0.399330  1.0  -0.1281
  C  C534  1  0.322800  0.913000  0.420780  1.0  -0.0727
  C  C535  1  0.358200  0.922870  0.441230  1.0  -0.0271
  C  C536  1  0.397900  0.965190  0.440240  1.0  -0.1709
  C  C537  1  0.402300  0.997700  0.418790  1.0  -0.0714
  C  C538  1  0.383300  0.171900  0.347560  1.0  -0.1548
  C  C539  1  0.382800  0.067200  0.265630  1.0  -0.1642
  C  C540  1  0.383000  0.108700  0.274100  1.0  0.2005
  C  C541  1  0.435500  0.976600  0.463100  1.0  0.6699
  C  C542  1  0.282500  0.871600  0.421800  1.0  0.6944
  C  C543  1  0.378800  0.086200  0.330680  1.0  0.0745
  C  C544  1  0.416400  0.082200  0.338710  1.0  -0.125
  C  C545  1  0.412000  0.050200  0.360600  1.0  -0.1303
  C  C546  1  0.370000  0.022400  0.374530  1.0  0.0463
  C  C547  1  0.332300  0.026400  0.366490  1.0  -0.1424
  C  C548  1  0.336700  0.058310  0.344570  1.0  -0.1329
  C  C549  1  0.879400  0.262000  0.304900  1.0  -0.0549
  C  C550  1  0.840600  0.224600  0.315000  1.0  0.2167
  C  C551  1  0.012210  0.379110  0.398340  1.0  0.0273
  C  C552  1  0.054600  0.381700  0.399330  1.0  -0.1272
  C  C553  1  0.087000  0.409800  0.420780  1.0  -0.0741
  C  C554  1  0.077130  0.435330  0.441230  1.0  -0.0271
  C  C555  1  0.034810  0.432710  0.440240  1.0  -0.1707
  C  C556  1  0.002300  0.404600  0.418790  1.0  -0.0755
  C  C557  1  0.828100  0.211400  0.347560  1.0  -0.1564
  C  C558  1  0.932800  0.315600  0.265630  1.0  -0.1643
  C  C559  1  0.891300  0.274300  0.274100  1.0  0.2001
  C  C560  1  0.023400  0.458900  0.463100  1.0  0.6707
  C  C561  1  0.128400  0.410900  0.421800  1.0  0.6955
  C  C562  1  0.913800  0.292600  0.330680  1.0  0.0741
  C  C563  1  0.917800  0.334200  0.338710  1.0  -0.1288
  C  C564  1  0.949800  0.361800  0.360600  1.0  -0.1354
  C  C565  1  0.977600  0.347600  0.374530  1.0  0.0464
  C  C566  1  0.973600  0.305900  0.366490  1.0  -0.1429
  C  C567  1  0.941690  0.278390  0.344570  1.0  -0.1371
  C  C568  1  0.262000  0.382600  0.804900  1.0  -0.055
  C  C569  1  0.224600  0.384000  0.815000  1.0  0.2159
  C  C570  1  0.379110  0.366900  0.898340  1.0  0.0273
  C  C571  1  0.381700  0.327100  0.899330  1.0  -0.1268
  C  C572  1  0.409800  0.322800  0.920780  1.0  -0.0742
  C  C573  1  0.435330  0.358200  0.941230  1.0  -0.0278
  C  C574  1  0.432710  0.397900  0.940240  1.0  -0.171
  C  C575  1  0.404600  0.402300  0.918790  1.0  -0.0727
  C  C576  1  0.211400  0.383300  0.847560  1.0  -0.1543
  C  C577  1  0.315600  0.382800  0.765630  1.0  -0.16
  C  C578  1  0.274300  0.383000  0.774100  1.0  0.201
  C  C579  1  0.458900  0.435500  0.963100  1.0  0.6703
  C  C580  1  0.410900  0.282500  0.921800  1.0  0.6946
  C  C581  1  0.292600  0.378800  0.830680  1.0  0.074
  C  C582  1  0.334200  0.416400  0.838710  1.0  -0.1224
  C  C583  1  0.361800  0.412000  0.860600  1.0  -0.1352
  C  C584  1  0.347600  0.370000  0.874530  1.0  0.0466
  C  C585  1  0.305900  0.332300  0.866490  1.0  -0.1419
  C  C586  1  0.278390  0.336700  0.844570  1.0  -0.1339
  C  C587  1  0.617400  0.879400  0.804900  1.0  -0.0557
  C  C588  1  0.616000  0.840600  0.815000  1.0  0.2153
  C  C589  1  0.633100  0.012210  0.898340  1.0  0.0276
  C  C590  1  0.672900  0.054600  0.899330  1.0  -0.1276
  C  C591  1  0.677200  0.087000  0.920780  1.0  -0.0725
  C  C592  1  0.641800  0.077130  0.941230  1.0  -0.0288
  C  C593  1  0.602100  0.034810  0.940240  1.0  -0.1712
  C  C594  1  0.597700  0.002300  0.918790  1.0  -0.0717
  C  C595  1  0.616700  0.828100  0.847560  1.0  -0.1561
  C  C596  1  0.617200  0.932800  0.765630  1.0  -0.1652
  C  C597  1  0.617000  0.891300  0.774100  1.0  0.1999
  C  C598  1  0.564500  0.023400  0.963100  1.0  0.6705
  C  C599  1  0.717500  0.128400  0.921800  1.0  0.6945
  C  C600  1  0.621200  0.913800  0.830680  1.0  0.0736
  C  C601  1  0.583600  0.917800  0.838710  1.0  -0.1255
  C  C602  1  0.588000  0.949800  0.860600  1.0  -0.1317
  C  C603  1  0.630000  0.977600  0.874530  1.0  0.0466
  C  C604  1  0.667700  0.973600  0.866490  1.0  -0.141
  C  C605  1  0.663300  0.941690  0.844570  1.0  -0.1312
  C  C606  1  0.120600  0.738000  0.804900  1.0  -0.0547
  C  C607  1  0.159400  0.775400  0.815000  1.0  0.2165
  C  C608  1  0.987790  0.620890  0.898340  1.0  0.0272
  C  C609  1  0.945400  0.618300  0.899330  1.0  -0.1285
  C  C610  1  0.913000  0.590200  0.920780  1.0  -0.0743
  C  C611  1  0.922870  0.564670  0.941230  1.0  -0.0275
  C  C612  1  0.965190  0.567290  0.940240  1.0  -0.17
  C  C613  1  0.997700  0.595400  0.918790  1.0  -0.0721
  C  C614  1  0.171900  0.788600  0.847560  1.0  -0.1572
  C  C615  1  0.067200  0.684400  0.765630  1.0  -0.1656
  C  C616  1  0.108700  0.725700  0.774100  1.0  0.2008
  C  C617  1  0.976600  0.541100  0.963100  1.0  0.6695
  C  C618  1  0.871600  0.589100  0.921800  1.0  0.6954
  C  C619  1  0.086200  0.707400  0.830680  1.0  0.0746
  C  C620  1  0.082200  0.665800  0.838710  1.0  -0.1269
  C  C621  1  0.050200  0.638200  0.860600  1.0  -0.1347
  C  C622  1  0.022400  0.652400  0.874530  1.0  0.046
  C  C623  1  0.026400  0.694100  0.866490  1.0  -0.1451
  C  C624  1  0.058310  0.721610  0.844570  1.0  -0.1379
  C  C625  1  0.617400  0.738000  0.695100  1.0  -0.0551
  C  C626  1  0.616000  0.775400  0.685000  1.0  0.2159
  C  C627  1  0.633100  0.620890  0.601660  1.0  0.0271
  C  C628  1  0.672900  0.618300  0.600670  1.0  -0.1288
  C  C629  1  0.677200  0.590200  0.579220  1.0  -0.0741
  C  C630  1  0.641800  0.564670  0.558770  1.0  -0.0285
  C  C631  1  0.602100  0.567290  0.559760  1.0  -0.171
  C  C632  1  0.597700  0.595400  0.581210  1.0  -0.0752
  C  C633  1  0.616700  0.788600  0.652440  1.0  -0.1579
  C  C634  1  0.617200  0.684400  0.734370  1.0  -0.1649
  C  C635  1  0.617000  0.725700  0.725900  1.0  0.2015
  C  C636  1  0.564500  0.541100  0.536900  1.0  0.6706
  C  C637  1  0.717500  0.589100  0.578200  1.0  0.6956
  C  C638  1  0.621200  0.707400  0.669320  1.0  0.0742
  C  C639  1  0.583600  0.665800  0.661290  1.0  -0.128
  C  C640  1  0.588000  0.638200  0.639400  1.0  -0.1346
  C  C641  1  0.630000  0.652400  0.625470  1.0  0.0462
  C  C642  1  0.667700  0.694100  0.633510  1.0  -0.1431
  C  C643  1  0.663300  0.721610  0.655430  1.0  -0.1375
  C  C644  1  0.120600  0.382600  0.695100  1.0  -0.0549
  C  C645  1  0.159400  0.384000  0.685000  1.0  0.2153
  C  C646  1  0.987790  0.366900  0.601660  1.0  0.0277
  C  C647  1  0.945400  0.327100  0.600670  1.0  -0.1269
  C  C648  1  0.913000  0.322800  0.579220  1.0  -0.0742
  C  C649  1  0.922870  0.358200  0.558770  1.0  -0.0283
  C  C650  1  0.965190  0.397900  0.559760  1.0  -0.1704
  C  C651  1  0.997700  0.402300  0.581210  1.0  -0.0714
  C  C652  1  0.171900  0.383300  0.652440  1.0  -0.1573
  C  C653  1  0.067200  0.382800  0.734370  1.0  -0.1624
  C  C654  1  0.108700  0.383000  0.725900  1.0  0.2012
  C  C655  1  0.976600  0.435500  0.536900  1.0  0.6704
  C  C656  1  0.871600  0.282500  0.578200  1.0  0.6945
  C  C657  1  0.086200  0.378800  0.669320  1.0  0.0735
  C  C658  1  0.082200  0.416400  0.661290  1.0  -0.1231
  C  C659  1  0.050200  0.412000  0.639400  1.0  -0.1359
  C  C660  1  0.022400  0.370000  0.625470  1.0  0.046
  C  C661  1  0.026400  0.332300  0.633510  1.0  -0.1419
  C  C662  1  0.058310  0.336700  0.655430  1.0  -0.1362
  C  C663  1  0.262000  0.879400  0.695100  1.0  -0.0555
  C  C664  1  0.224600  0.840600  0.685000  1.0  0.2147
  C  C665  1  0.379110  0.012210  0.601660  1.0  0.0275
  C  C666  1  0.381700  0.054600  0.600670  1.0  -0.1298
  C  C667  1  0.409800  0.087000  0.579220  1.0  -0.0725
  C  C668  1  0.435330  0.077130  0.558770  1.0  -0.0285
  C  C669  1  0.432710  0.034810  0.559760  1.0  -0.1708
  C  C670  1  0.404600  0.002300  0.581210  1.0  -0.0696
  C  C671  1  0.211400  0.828100  0.652440  1.0  -0.1577
  C  C672  1  0.315600  0.932800  0.734370  1.0  -0.1648
  C  C673  1  0.274300  0.891300  0.725900  1.0  0.2007
  C  C674  1  0.458900  0.023400  0.536900  1.0  0.6697
  C  C675  1  0.410900  0.128400  0.578200  1.0  0.6944
  C  C676  1  0.292600  0.913800  0.669320  1.0  0.0739
  C  C677  1  0.334200  0.917800  0.661290  1.0  -0.1244
  C  C678  1  0.361800  0.949800  0.639400  1.0  -0.1306
  C  C679  1  0.347600  0.977600  0.625470  1.0  0.0466
  C  C680  1  0.305900  0.973600  0.633510  1.0  -0.1432
  C  C681  1  0.278390  0.941690  0.655430  1.0  -0.1333
  C  C682  1  0.382600  0.262000  0.195100  1.0  -0.0549
  C  C683  1  0.384000  0.224600  0.185000  1.0  0.216
  C  C684  1  0.366900  0.379110  0.101660  1.0  0.0275
  C  C685  1  0.327100  0.381700  0.100670  1.0  -0.1292
  C  C686  1  0.322800  0.409800  0.079220  1.0  -0.0739
  C  C687  1  0.358200  0.435330  0.058770  1.0  -0.0275
  C  C688  1  0.397900  0.432710  0.059760  1.0  -0.1703
  C  C689  1  0.402300  0.404600  0.081210  1.0  -0.0724
  C  C690  1  0.383300  0.211400  0.152440  1.0  -0.1588
  C  C691  1  0.382800  0.315600  0.234370  1.0  -0.1659
  C  C692  1  0.383000  0.274300  0.225900  1.0  0.2008
  C  C693  1  0.435500  0.458900  0.036900  1.0  0.6697
  C  C694  1  0.282500  0.410900  0.078200  1.0  0.6953
  C  C695  1  0.378800  0.292600  0.169320  1.0  0.0743
  C  C696  1  0.416400  0.334200  0.161290  1.0  -0.1271
  C  C697  1  0.412000  0.361800  0.139400  1.0  -0.1341
  C  C698  1  0.370000  0.347600  0.125470  1.0  0.0463
  C  C699  1  0.332300  0.305900  0.133510  1.0  -0.144
  C  C700  1  0.336700  0.278390  0.155430  1.0  -0.1387
  C  C701  1  0.879400  0.617400  0.195100  1.0  -0.055
  C  C702  1  0.840600  0.616000  0.185000  1.0  0.2147
  C  C703  1  0.012210  0.633100  0.101660  1.0  0.0273
  C  C704  1  0.054600  0.672900  0.100670  1.0  -0.1297
  C  C705  1  0.087000  0.677200  0.079220  1.0  -0.0741
  C  C706  1  0.077130  0.641800  0.058770  1.0  -0.0286
  C  C707  1  0.034810  0.602100  0.059760  1.0  -0.1709
  C  C708  1  0.002300  0.597700  0.081210  1.0  -0.0714
  C  C709  1  0.828100  0.616700  0.152440  1.0  -0.1567
  C  C710  1  0.932800  0.617200  0.234370  1.0  -0.1609
  C  C711  1  0.891300  0.617000  0.225900  1.0  0.2017
  C  C712  1  0.023400  0.564500  0.036900  1.0  0.6705
  C  C713  1  0.128400  0.717500  0.078200  1.0  0.6945
  C  C714  1  0.913800  0.621200  0.169320  1.0  0.0736
  C  C715  1  0.917800  0.583600  0.161290  1.0  -0.1235
  C  C716  1  0.949800  0.588000  0.139400  1.0  -0.1361
  C  C717  1  0.977600  0.630000  0.125470  1.0  0.0467
  C  C718  1  0.973600  0.667700  0.133510  1.0  -0.1429
  C  C719  1  0.941690  0.663300  0.155430  1.0  -0.1346
  C  C720  1  0.738000  0.120600  0.195100  1.0  -0.0555
  C  C721  1  0.775400  0.159400  0.185000  1.0  0.2145
  C  C722  1  0.620890  0.987790  0.101660  1.0  0.0279
  C  C723  1  0.618300  0.945400  0.100670  1.0  -0.1283
  C  C724  1  0.590200  0.913000  0.079220  1.0  -0.0725
  C  C725  1  0.564670  0.922870  0.058770  1.0  -0.0285
  C  C726  1  0.567290  0.965190  0.059760  1.0  -0.1717
  C  C727  1  0.595400  0.997700  0.081210  1.0  -0.0723
  C  C728  1  0.788600  0.171900  0.152440  1.0  -0.1571
  C  C729  1  0.684400  0.067200  0.234370  1.0  -0.1656
  C  C730  1  0.725700  0.108700  0.225900  1.0  0.2013
  C  C731  1  0.541100  0.976600  0.036900  1.0  0.6705
  C  C732  1  0.589100  0.871600  0.078200  1.0  0.6945
  C  C733  1  0.707400  0.086200  0.169320  1.0  0.0738
  C  C734  1  0.665800  0.082200  0.161290  1.0  -0.1261
  C  C735  1  0.638200  0.050200  0.139400  1.0  -0.1321
  C  C736  1  0.652400  0.022400  0.125470  1.0  0.0464
  C  C737  1  0.694100  0.026400  0.133510  1.0  -0.1417
  C  C738  1  0.721610  0.058310  0.155430  1.0  -0.1319
  C  C739  1  0.350900  0.175450  0.536600  1.0  0.6269
  C  C740  1  0.478900  0.239450  0.618400  1.0  0.5834
  C  C741  1  0.824550  0.175450  0.536600  1.0  0.6283
  C  C742  1  0.760550  0.239450  0.618400  1.0  0.5835
  C  C743  1  0.824550  0.649100  0.536600  1.0  0.6263
  C  C744  1  0.760550  0.521100  0.618400  1.0  0.5792
  C  C745  1  0.649100  0.824550  0.036600  1.0  0.628
  C  C746  1  0.521100  0.760550  0.118400  1.0  0.584
  C  C747  1  0.175450  0.824550  0.036600  1.0  0.6273
  C  C748  1  0.239450  0.760550  0.118400  1.0  0.5843
  C  C749  1  0.175450  0.350900  0.036600  1.0  0.6269
  C  C750  1  0.239450  0.478900  0.118400  1.0  0.5777
  C  C751  1  0.175450  0.350900  0.463400  1.0  0.6289
  C  C752  1  0.239450  0.478900  0.381600  1.0  0.5774
  C  C753  1  0.175450  0.824550  0.463400  1.0  0.6297
  C  C754  1  0.239450  0.760550  0.381600  1.0  0.583
  C  C755  1  0.649100  0.824550  0.463400  1.0  0.6297
  C  C756  1  0.521100  0.760550  0.381600  1.0  0.5831
  C  C757  1  0.824550  0.649100  0.963400  1.0  0.6273
  C  C758  1  0.760550  0.521100  0.881600  1.0  0.5783
  C  C759  1  0.824550  0.175450  0.963400  1.0  0.6305
  C  C760  1  0.760550  0.239450  0.881600  1.0  0.5831
  C  C761  1  0.350900  0.175450  0.963400  1.0  0.6295
  C  C762  1  0.478900  0.239450  0.881600  1.0  0.5822
  N  N763  1  0.192300  0.384600  0.704000  1.0  -0.3683
  N  N764  1  0.615400  0.807700  0.704000  1.0  -0.3683
  N  N765  1  0.192300  0.807700  0.704000  1.0  -0.3685
  N  N766  1  0.807700  0.615400  0.204000  1.0  -0.3683
  N  N767  1  0.384600  0.192300  0.204000  1.0  -0.3688
  N  N768  1  0.807700  0.192300  0.204000  1.0  -0.3686
  N  N769  1  0.384600  0.192300  0.296000  1.0  -0.3688
  N  N770  1  0.807700  0.615400  0.296000  1.0  -0.3688
  N  N771  1  0.807700  0.192300  0.296000  1.0  -0.3691
  N  N772  1  0.615400  0.807700  0.796000  1.0  -0.369
  N  N773  1  0.192300  0.384600  0.796000  1.0  -0.3688
  N  N774  1  0.192300  0.807700  0.796000  1.0  -0.3687
  N  N775  1  0.250800  0.385300  0.750000  1.0  -0.4426
  N  N776  1  0.614700  0.865500  0.750000  1.0  -0.4395
  N  N777  1  0.134500  0.749200  0.750000  1.0  -0.4414
  N  N778  1  0.749200  0.614700  0.250000  1.0  -0.4445
  N  N779  1  0.385300  0.134500  0.250000  1.0  -0.4377
  N  N780  1  0.865500  0.250800  0.250000  1.0  -0.4406
  N  N781  1  0.385300  0.250800  0.250000  1.0  -0.4418
  N  N782  1  0.865500  0.614700  0.250000  1.0  -0.4426
  N  N783  1  0.749200  0.134500  0.250000  1.0  -0.4368
  N  N784  1  0.614700  0.749200  0.750000  1.0  -0.4398
  N  N785  1  0.134500  0.385300  0.750000  1.0  -0.4446
  N  N786  1  0.250800  0.865500  0.750000  1.0  -0.4389
  O  O787  1  0.450370  0.467840  0.538400  1.0  -0.5792
  O  O788  1  0.486500  0.430800  0.520480  1.0  -0.5629
  O  O789  1  0.436500  0.277300  0.559610  1.0  -0.5904
  O  O790  1  0.387000  0.249800  0.597580  1.0  -0.6015
  O  O791  1  0.532160  0.982530  0.538400  1.0  -0.5779
  O  O792  1  0.569200  0.055700  0.520480  1.0  -0.5587
  O  O793  1  0.722700  0.159200  0.559610  1.0  -0.5901
  O  O794  1  0.750200  0.137200  0.597580  1.0  -0.6017
  O  O795  1  0.017470  0.549630  0.538400  1.0  -0.5788
  O  O796  1  0.944300  0.513500  0.520480  1.0  -0.5636
  O  O797  1  0.840800  0.563500  0.559610  1.0  -0.5908
  O  O798  1  0.862800  0.613000  0.597580  1.0  -0.6018
  O  O799  1  0.549630  0.532160  0.038400  1.0  -0.5797
  O  O800  1  0.513500  0.569200  0.020480  1.0  -0.5631
  O  O801  1  0.563500  0.722700  0.059610  1.0  -0.59
  O  O802  1  0.613000  0.750200  0.097580  1.0  -0.601
  O  O803  1  0.467840  0.017470  0.038400  1.0  -0.5766
  O  O804  1  0.430800  0.944300  0.020480  1.0  -0.5604
  O  O805  1  0.277300  0.840800  0.059610  1.0  -0.5913
  O  O806  1  0.249800  0.862800  0.097580  1.0  -0.6005
  O  O807  1  0.982530  0.450370  0.038400  1.0  -0.5788
  O  O808  1  0.055700  0.486500  0.020480  1.0  -0.5624
  O  O809  1  0.159200  0.436500  0.059610  1.0  -0.5901
  O  O810  1  0.137200  0.387000  0.097580  1.0  -0.6025
  O  O811  1  0.467840  0.450370  0.461600  1.0  -0.5793
  O  O812  1  0.430800  0.486500  0.479520  1.0  -0.5632
  O  O813  1  0.277300  0.436500  0.440390  1.0  -0.5892
  O  O814  1  0.249800  0.387000  0.402420  1.0  -0.6034
  O  O815  1  0.982530  0.532160  0.461600  1.0  -0.58
  O  O816  1  0.055700  0.569200  0.479520  1.0  -0.5627
  O  O817  1  0.159200  0.722700  0.440390  1.0  -0.5896
  O  O818  1  0.137200  0.750200  0.402420  1.0  -0.6024
  O  O819  1  0.549630  0.017470  0.461600  1.0  -0.5765
  O  O820  1  0.513500  0.944300  0.479520  1.0  -0.5602
  O  O821  1  0.563500  0.840800  0.440390  1.0  -0.5886
  O  O822  1  0.613000  0.862800  0.402420  1.0  -0.6019
  O  O823  1  0.532160  0.549630  0.961600  1.0  -0.579
  O  O824  1  0.569200  0.513500  0.979520  1.0  -0.5634
  O  O825  1  0.722700  0.563500  0.940390  1.0  -0.5889
  O  O826  1  0.750200  0.613000  0.902420  1.0  -0.6026
  O  O827  1  0.017470  0.467840  0.961600  1.0  -0.5796
  O  O828  1  0.944300  0.430800  0.979520  1.0  -0.5633
  O  O829  1  0.840800  0.277300  0.940390  1.0  -0.5884
  O  O830  1  0.862800  0.249800  0.902420  1.0  -0.6026
  O  O831  1  0.450370  0.982530  0.961600  1.0  -0.5783
  O  O832  1  0.486500  0.055700  0.979520  1.0  -0.5596
  O  O833  1  0.436500  0.159200  0.940390  1.0  -0.5898
  O  O834  1  0.387000  0.137200  0.902420  1.0  -0.6016
  O  O835  1  0.549630  0.532160  0.461600  1.0  -0.5797
  O  O836  1  0.513500  0.569200  0.479520  1.0  -0.5634
  O  O837  1  0.563500  0.722700  0.440390  1.0  -0.5886
  O  O838  1  0.613000  0.750200  0.402420  1.0  -0.6019
  O  O839  1  0.467840  0.017470  0.461600  1.0  -0.5771
  O  O840  1  0.430800  0.944300  0.479520  1.0  -0.5606
  O  O841  1  0.277300  0.840800  0.440390  1.0  -0.5898
  O  O842  1  0.249800  0.862800  0.402420  1.0  -0.6013
  O  O843  1  0.982530  0.450370  0.461600  1.0  -0.5791
  O  O844  1  0.055700  0.486500  0.479520  1.0  -0.5631
  O  O845  1  0.159200  0.436500  0.440390  1.0  -0.5889
  O  O846  1  0.137200  0.387000  0.402420  1.0  -0.6034
  O  O847  1  0.450370  0.467840  0.961600  1.0  -0.5794
  O  O848  1  0.486500  0.430800  0.979520  1.0  -0.5627
  O  O849  1  0.436500  0.277300  0.940390  1.0  -0.5892
  O  O850  1  0.387000  0.249800  0.902420  1.0  -0.6027
  O  O851  1  0.532160  0.982530  0.961600  1.0  -0.578
  O  O852  1  0.569200  0.055700  0.979520  1.0  -0.5595
  O  O853  1  0.722700  0.159200  0.940390  1.0  -0.5889
  O  O854  1  0.750200  0.137200  0.902420  1.0  -0.602
  O  O855  1  0.017470  0.549630  0.961600  1.0  -0.5787
  O  O856  1  0.944300  0.513500  0.979520  1.0  -0.5633
  O  O857  1  0.840800  0.563500  0.940390  1.0  -0.5894
  O  O858  1  0.862800  0.613000  0.902420  1.0  -0.6026
  O  O859  1  0.532160  0.549630  0.538400  1.0  -0.5786
  O  O860  1  0.569200  0.513500  0.520480  1.0  -0.5634
  O  O861  1  0.722700  0.563500  0.559610  1.0  -0.59
  O  O862  1  0.750200  0.613000  0.597580  1.0  -0.6017
  O  O863  1  0.017470  0.467840  0.538400  1.0  -0.5795
  O  O864  1  0.944300  0.430800  0.520480  1.0  -0.5637
  O  O865  1  0.840800  0.277300  0.559610  1.0  -0.5894
  O  O866  1  0.862800  0.249800  0.597580  1.0  -0.6015
  O  O867  1  0.450370  0.982530  0.538400  1.0  -0.5779
  O  O868  1  0.486500  0.055700  0.520480  1.0  -0.5595
  O  O869  1  0.436500  0.159200  0.559610  1.0  -0.5908
  O  O870  1  0.387000  0.137200  0.597580  1.0  -0.6008
  O  O871  1  0.467840  0.450370  0.038400  1.0  -0.5791
  O  O872  1  0.430800  0.486500  0.020480  1.0  -0.563
  O  O873  1  0.277300  0.436500  0.059610  1.0  -0.5905
  O  O874  1  0.249800  0.387000  0.097580  1.0  -0.6023
  O  O875  1  0.982530  0.532160  0.038400  1.0  -0.5793
  O  O876  1  0.055700  0.569200  0.020480  1.0  -0.5622
  O  O877  1  0.159200  0.722700  0.059610  1.0  -0.5909
  O  O878  1  0.137200  0.750200  0.097580  1.0  -0.6013
  O  O879  1  0.549630  0.017470  0.038400  1.0  -0.576
  O  O880  1  0.513500  0.944300  0.020480  1.0  -0.5602
  O  O881  1  0.563500  0.840800  0.059610  1.0  -0.5909
  O  O882  1  0.613000  0.862800  0.097580  1.0  -0.6016
  O  O883  1  0.437400  0.218700  0.626400  1.0  -0.5752
  O  O884  1  0.390500  0.195250  0.527300  1.0  -0.5073
  O  O885  1  0.341000  0.170500  0.564000  1.0  -0.4986
  O  O886  1  0.487900  0.243950  0.591100  1.0  -0.5237
  O  O887  1  0.781300  0.218700  0.626400  1.0  -0.5735
  O  O888  1  0.804750  0.195250  0.527300  1.0  -0.5049
  O  O889  1  0.829500  0.170500  0.564000  1.0  -0.4953
  O  O890  1  0.756050  0.243950  0.591100  1.0  -0.5246
  O  O891  1  0.781300  0.562600  0.626400  1.0  -0.5754
  O  O892  1  0.804750  0.609500  0.527300  1.0  -0.5082
  O  O893  1  0.829500  0.659000  0.564000  1.0  -0.4985
  O  O894  1  0.756050  0.512100  0.591100  1.0  -0.525
  O  O895  1  0.562600  0.781300  0.126400  1.0  -0.5689
  O  O896  1  0.609500  0.804750  0.027300  1.0  -0.5059
  O  O897  1  0.659000  0.829500  0.064000  1.0  -0.4991
  O  O898  1  0.512100  0.756050  0.091100  1.0  -0.5245
  O  O899  1  0.218700  0.781300  0.126400  1.0  -0.5699
  O  O900  1  0.195250  0.804750  0.027300  1.0  -0.5082
  O  O901  1  0.170500  0.829500  0.064000  1.0  -0.496
  O  O902  1  0.243950  0.756050  0.091100  1.0  -0.524
  O  O903  1  0.218700  0.437400  0.126400  1.0  -0.572
  O  O904  1  0.195250  0.390500  0.027300  1.0  -0.508
  O  O905  1  0.170500  0.341000  0.064000  1.0  -0.4988
  O  O906  1  0.243950  0.487900  0.091100  1.0  -0.5249
  O  O907  1  0.218700  0.437400  0.373600  1.0  -0.5731
  O  O908  1  0.195250  0.390500  0.472700  1.0  -0.5074
  O  O909  1  0.170500  0.341000  0.436000  1.0  -0.4999
  O  O910  1  0.243950  0.487900  0.408900  1.0  -0.5245
  O  O911  1  0.218700  0.781300  0.373600  1.0  -0.5705
  O  O912  1  0.195250  0.804750  0.472700  1.0  -0.506
  O  O913  1  0.170500  0.829500  0.436000  1.0  -0.4971
  O  O914  1  0.243950  0.756050  0.408900  1.0  -0.5241
  O  O915  1  0.562600  0.781300  0.373600  1.0  -0.571
  O  O916  1  0.609500  0.804750  0.472700  1.0  -0.5064
  O  O917  1  0.659000  0.829500  0.436000  1.0  -0.5005
  O  O918  1  0.512100  0.756050  0.408900  1.0  -0.5247
  O  O919  1  0.781300  0.562600  0.873600  1.0  -0.5773
  O  O920  1  0.804750  0.609500  0.972700  1.0  -0.5079
  O  O921  1  0.829500  0.659000  0.936000  1.0  -0.5003
  O  O922  1  0.756050  0.512100  0.908900  1.0  -0.5257
  O  O923  1  0.781300  0.218700  0.873600  1.0  -0.5751
  O  O924  1  0.804750  0.195250  0.972700  1.0  -0.5058
  O  O925  1  0.829500  0.170500  0.936000  1.0  -0.4971
  O  O926  1  0.756050  0.243950  0.908900  1.0  -0.5257
  O  O927  1  0.437400  0.218700  0.873600  1.0  -0.5762
  O  O928  1  0.390500  0.195250  0.972700  1.0  -0.5058
  O  O929  1  0.341000  0.170500  0.936000  1.0  -0.5003
  O  O930  1  0.487900  0.243950  0.908900  1.0  -0.5246
