# generated using pymatgen
data_Er3Mo18H96C121SN24(O28F)3
_symmetry_space_group_name_H-M   'P 1'
_cell_length_a   23.90610000
_cell_length_b   24.03930000
_cell_length_c   24.54960000
_cell_angle_alpha   86.05300000
_cell_angle_beta   61.60200000
_cell_angle_gamma   61.49800000
_symmetry_Int_Tables_number   1
_chemical_formula_structural   Er3Mo18H96C121SN24(O28F)3
_chemical_formula_sum   'Er6 Mo36 H192 C242 S2 N48 O168 F6'
_cell_volume   10675.86434232
_cell_formula_units_Z   2
loop_
 _symmetry_equiv_pos_site_id
 _symmetry_equiv_pos_as_xyz
  1  'x, y, z'
loop_
 _atom_site_type_symbol
 _atom_site_label
 _atom_site_symmetry_multiplicity
 _atom_site_fract_x
 _atom_site_fract_y
 _atom_site_fract_z
 _atom_site_occupancy
 _atom_site_charge
  Er  Er1  1  0.366140  0.204000  0.846440  1.0  1.2399
  Er  Er2  1  0.633860  0.796000  0.153560  1.0  1.2371
  Er  Er3  1  0.860540  0.355290  0.704070  1.0  1.2551
  Er  Er4  1  0.139460  0.644710  0.295930  1.0  1.2642
  Er  Er5  1  0.760670  0.224300  0.257440  1.0  1.233
  Er  Er6  1  0.239330  0.775700  0.742560  1.0  1.2327
  Mo  Mo7  1  0.736130  0.156120  0.874220  1.0  2.0335
  Mo  Mo8  1  0.672960  0.188650  0.026720  1.0  2.124
  Mo  Mo9  1  0.742300  0.017200  0.888600  1.0  2.1275
  Mo  Mo10  1  0.827450  0.054930  0.937390  1.0  2.0014
  Mo  Mo11  1  0.587940  0.151570  0.975970  1.0  2.2281
  Mo  Mo12  1  0.678660  0.050340  0.039780  1.0  2.0082
  Mo  Mo13  1  0.321340  0.949660  0.960220  1.0  2.0079
  Mo  Mo14  1  0.172550  0.945070  0.062610  1.0  2.0031
  Mo  Mo15  1  0.327040  0.811350  0.973280  1.0  2.1241
  Mo  Mo16  1  0.412060  0.848430  0.024030  1.0  2.2267
  Mo  Mo17  1  0.263870  0.843880  0.125780  1.0  2.0318
  Mo  Mo18  1  0.257700  0.982800  0.111400  1.0  2.1269
  Mo  Mo19  1  0.057400  0.957600  0.556400  1.0  2.1018
  Mo  Mo20  1  0.031300  0.080600  0.486700  1.0  2.0776
  Mo  Mo21  1  0.968700  0.919400  0.513300  1.0  2.078
  Mo  Mo22  1  0.892900  0.063400  0.594200  1.0  2.0806
  Mo  Mo23  1  0.942600  0.042400  0.443600  1.0  2.0995
  Mo  Mo24  1  0.107100  0.936600  0.405800  1.0  2.0751
  Mo  Mo25  1  0.419300  0.108500  0.535600  1.0  2.1939
  Mo  Mo26  1  0.452600  0.995700  0.437600  1.0  1.9836
  Mo  Mo27  1  0.415670  0.979920  0.583350  1.0  2.0509
  Mo  Mo28  1  0.580700  0.891500  0.464400  1.0  2.1931
  Mo  Mo29  1  0.584330  0.020080  0.416650  1.0  2.0506
  Mo  Mo30  1  0.547400  0.004300  0.562400  1.0  1.9844
  Mo  Mo31  1  0.751600  0.579000  0.343400  1.0  2.0721
  Mo  Mo32  1  0.927200  0.516000  0.293500  1.0  2.1165
  Mo  Mo33  1  0.733100  0.516800  0.471900  1.0  1.9393
  Mo  Mo34  1  0.907900  0.456000  0.420400  1.0  2.0819
  Mo  Mo35  1  0.802900  0.611400  0.433500  1.0  2.1169
  Mo  Mo36  1  0.856500  0.422300  0.331500  1.0  2.0454
  Mo  Mo37  1  0.266900  0.483200  0.528100  1.0  1.9391
  Mo  Mo38  1  0.197100  0.388600  0.566500  1.0  2.118
  Mo  Mo39  1  0.092100  0.544000  0.579600  1.0  2.0819
  Mo  Mo40  1  0.072800  0.484000  0.706500  1.0  2.1188
  Mo  Mo41  1  0.143500  0.577700  0.668500  1.0  2.0461
  Mo  Mo42  1  0.248400  0.421000  0.656600  1.0  2.0725
  H  H43  1  0.939900  0.234300  0.449900  1.0  0.1436
  H  H44  1  0.339600  0.429300  0.365900  1.0  0.1304
  H  H45  1  0.097600  0.857700  0.937200  1.0  0.122
  H  H46  1  0.923800  0.244700  0.237900  1.0  0.0909
  H  H47  1  0.765800  0.102700  0.368700  1.0  0.1246
  H  H48  1  0.292600  0.656400  0.020200  1.0  0.1243
  H  H49  1  0.225200  0.714000  0.342100  1.0  0.0848
  H  H50  1  0.352600  0.587400  0.187500  1.0  0.1035
  H  H51  1  0.547300  0.116900  0.667400  1.0  0.0637
  H  H52  1  0.957000  0.664900  0.440500  1.0  0.1259
  H  H53  1  0.128300  0.452800  0.184100  1.0  0.0739
  H  H54  1  0.027600  0.906100  0.867800  1.0  0.118
  H  H55  1  0.173800  0.257100  0.646200  1.0  0.114
  H  H56  1  0.269000  0.107500  0.911100  1.0  0.0926
  H  H57  1  0.710000  0.228600  0.692500  1.0  0.1335
  H  H58  1  0.826200  0.742900  0.353800  1.0  0.1139
  H  H59  1  0.890400  0.504300  0.679500  1.0  0.1223
  H  H60  1  0.442000  0.442800  0.349700  1.0  0.1267
  H  H61  1  0.580300  0.000600  0.901800  1.0  0.1566
  H  H62  1  0.442800  0.435200  0.178900  1.0  0.1249
  H  H63  1  0.063100  0.682300  0.185100  1.0  0.1207
  H  H64  1  0.844300  0.008300  0.391600  1.0  0.1016
  H  H65  1  0.330800  0.484900  0.182500  1.0  0.116
  H  H66  1  0.184700  0.089700  0.993500  1.0  0.1243
  H  H67  1  0.437900  0.862700  0.732500  1.0  0.1188
  H  H68  1  0.119000  0.845300  0.022700  1.0  0.0967
  H  H69  1  0.601400  0.581100  0.244000  1.0  0.0848
  H  H70  1  0.277700  0.149100  0.783600  1.0  0.1205
  H  H71  1  0.082300  0.803500  0.118200  1.0  0.1024
  H  H72  1  0.660400  0.570700  0.634100  1.0  0.1301
  H  H73  1  0.331100  0.095800  0.977500  1.0  0.0927
  H  H74  1  0.353800  0.311100  0.056700  1.0  0.1404
  H  H75  1  0.225000  0.487800  0.370800  1.0  0.1278
  H  H76  1  0.558000  0.557200  0.650300  1.0  0.1268
  H  H77  1  0.963000  0.806400  0.413000  1.0  0.1313
  H  H78  1  0.902400  0.142300  0.062800  1.0  0.1214
  H  H79  1  0.871700  0.547200  0.815900  1.0  0.0737
  H  H80  1  0.086300  0.253600  0.629600  1.0  0.1165
  H  H81  1  0.415100  0.870500  0.217900  1.0  0.1063
  H  H82  1  0.917700  0.196500  0.881800  1.0  0.1022
  H  H83  1  0.707400  0.343600  0.979800  1.0  0.1251
  H  H84  1  0.259100  0.061100  0.783800  1.0  0.1169
  H  H85  1  0.324800  0.423300  0.061500  1.0  0.1075
  H  H86  1  0.017700  0.256100  0.155100  1.0  0.1329
  H  H87  1  0.023900  0.330300  0.830900  1.0  0.1208
  H  H88  1  0.584900  0.129500  0.782100  1.0  0.106
  H  H89  1  0.422700  0.638200  0.139400  1.0  0.138
  H  H90  1  0.849400  0.595700  0.919300  1.0  0.1256
  H  H91  1  0.178600  0.490400  0.879400  1.0  0.1309
  H  H92  1  0.774900  0.332400  0.126700  1.0  0.1135
  H  H93  1  0.026900  0.724400  0.494000  1.0  0.1116
  H  H94  1  0.982300  0.743900  0.844900  1.0  0.1331
  H  H95  1  0.731000  0.892500  0.088900  1.0  0.0921
  H  H96  1  0.562100  0.137300  0.267500  1.0  0.1189
  H  H97  1  0.893000  0.905600  0.392600  1.0  0.1147
  H  H98  1  0.911300  0.639800  0.170900  1.0  0.1546
  H  H99  1  0.766800  0.005900  0.149200  1.0  0.0975
  H  H100  1  0.732800  0.381600  0.546600  1.0  0.1308
  H  H101  1  0.092400  0.547800  0.230000  1.0  0.1168
  H  H102  1  0.558500  0.387900  0.344700  1.0  0.1253
  H  H103  1  0.685500  0.327000  0.419000  1.0  0.0764
  H  H104  1  0.069500  0.099900  0.046600  1.0  0.133
  H  H105  1  0.957200  0.712400  0.953200  1.0  0.1133
  H  H106  1  0.145900  0.810800  0.283300  1.0  0.1227
  H  H107  1  0.899900  0.196200  0.416800  1.0  0.1697
  H  H108  1  0.500600  0.326600  0.883700  1.0  0.1181
  H  H109  1  0.130100  0.298600  0.957900  1.0  0.1176
  H  H110  1  0.090300  0.789400  0.213900  1.0  0.1112
  H  H111  1  0.081700  0.967800  0.815600  1.0  0.1095
  H  H112  1  0.932100  0.612400  0.524800  1.0  0.1313
  H  H113  1  0.594500  0.117300  0.567700  1.0  0.12
  H  H114  1  0.290400  0.646000  0.115000  1.0  0.0996
  H  H115  1  0.833600  0.415100  0.129800  1.0  0.1123
  H  H116  1  0.291000  0.524800  0.102000  1.0  0.1231
  H  H117  1  0.184400  0.323400  0.013500  1.0  0.0888
  H  H118  1  0.373500  0.056300  0.050600  1.0  0.1364
  H  H119  1  0.432200  0.672000  0.576800  1.0  0.1219
  H  H120  1  0.192400  0.920200  0.865900  1.0  0.1339
  H  H121  1  0.475200  0.962400  0.166500  1.0  0.1199
  H  H122  1  0.283300  0.629300  0.529100  1.0  0.1612
  H  H123  1  0.067900  0.387600  0.475200  1.0  0.1307
  H  H124  1  0.788400  0.597900  0.077100  1.0  0.0973
  H  H125  1  0.567800  0.328000  0.423200  1.0  0.1222
  H  H126  1  0.166400  0.584900  0.870200  1.0  0.1126
  H  H127  1  0.432900  0.284100  0.922300  1.0  0.1195
  H  H128  1  0.653000  0.292600  0.168900  1.0  0.1185
  H  H129  1  0.646200  0.688900  0.943300  1.0  0.1397
  H  H130  1  0.930500  0.900100  0.953400  1.0  0.1331
  H  H131  1  0.863800  0.320700  0.177600  1.0  0.0943
  H  H132  1  0.709000  0.475200  0.898000  1.0  0.121
  H  H133  1  0.641900  0.509100  0.300900  1.0  0.1308
  H  H134  1  0.376900  0.223900  0.997300  1.0  0.0924
  H  H135  1  0.775000  0.512200  0.629200  1.0  0.1305
  H  H136  1  0.002200  0.945900  0.211700  1.0  0.102
  H  H137  1  0.524800  0.037600  0.833500  1.0  0.1191
  H  H138  1  0.643300  0.145000  0.362200  1.0  0.1068
  H  H139  1  0.936900  0.317700  0.814900  1.0  0.1208
  H  H140  1  0.237800  0.581700  0.388000  1.0  0.1118
  H  H141  1  0.042800  0.287600  0.046800  1.0  0.1132
  H  H142  1  0.464100  0.659900  0.820500  1.0  0.1029
  H  H143  1  0.913700  0.746400  0.370400  1.0  0.1165
  H  H144  1  0.150600  0.404300  0.080700  1.0  0.1258
  H  H145  1  0.060100  0.765700  0.550100  1.0  0.1434
  H  H146  1  0.577300  0.361800  0.860600  1.0  0.138
  H  H147  1  0.535900  0.340100  0.179500  1.0  0.1027
  H  H148  1  0.261100  0.656900  0.947900  1.0  0.1187
  H  H149  1  0.336100  0.830400  0.253700  1.0  0.1215
  H  H150  1  0.329700  0.588000  0.665800  1.0  0.1178
  H  H151  1  0.973100  0.275600  0.506000  1.0  0.1116
  H  H152  1  0.467000  0.931600  0.750800  1.0  0.1244
  H  H153  1  0.533000  0.068400  0.249200  1.0  0.1248
  H  H154  1  0.397500  0.788500  0.743200  1.0  0.0997
  H  H155  1  0.976100  0.669700  0.169100  1.0  0.1201
  H  H156  1  0.043000  0.335100  0.559500  1.0  0.1272
  H  H157  1  0.180700  0.353400  0.856500  1.0  0.1168
  H  H158  1  0.441500  0.612100  0.655300  1.0  0.1249
  H  H159  1  0.881000  0.154700  0.977300  1.0  0.0972
  H  H160  1  0.972400  0.093900  0.132200  1.0  0.1182
  H  H161  1  0.076200  0.755300  0.762100  1.0  0.0908
  H  H162  1  0.738900  0.343100  0.052100  1.0  0.1177
  H  H163  1  0.037000  0.193600  0.587000  1.0  0.132
  H  H164  1  0.626500  0.943700  0.949400  1.0  0.1337
  H  H165  1  0.864700  0.160600  0.358600  1.0  0.1189
  H  H166  1  0.573400  0.667600  0.203000  1.0  0.1228
  H  H167  1  0.774800  0.286000  0.657900  1.0  0.0823
  H  H168  1  0.426600  0.332400  0.797000  1.0  0.1237
  H  H169  1  0.225100  0.667600  0.873300  1.0  0.1137
  H  H170  1  0.596200  0.700500  0.281700  1.0  0.1211
  H  H171  1  0.925400  0.091700  0.731500  1.0  0.0954
  H  H172  1  0.602500  0.211500  0.256800  1.0  0.0992
  H  H173  1  0.670300  0.412000  0.334200  1.0  0.1187
  H  H174  1  0.821400  0.509600  0.120600  1.0  0.1311
  H  H175  1  0.869900  0.701400  0.042100  1.0  0.1177
  H  H176  1  0.314500  0.673000  0.581000  1.0  0.0755
  H  H177  1  0.488800  0.016200  0.737200  1.0  0.1106
  H  H178  1  0.136200  0.679300  0.822400  1.0  0.0948
  H  H179  1  0.234200  0.897300  0.631300  1.0  0.125
  H  H180  1  0.669200  0.515100  0.817500  1.0  0.1161
  H  H181  1  0.260700  0.225200  0.669400  1.0  0.1051
  H  H182  1  0.997800  0.054100  0.788300  1.0  0.1019
  H  H183  1  0.088700  0.360200  0.829100  1.0  0.1543
  H  H184  1  0.211600  0.402100  0.922900  1.0  0.0977
  H  H185  1  0.290000  0.771400  0.307500  1.0  0.1336
  H  H186  1  0.709600  0.354000  0.885000  1.0  0.0993
  H  H187  1  0.663900  0.169600  0.746300  1.0  0.1206
  H  H188  1  0.912300  0.557900  0.595400  1.0  0.1138
  H  H189  1  0.907600  0.452200  0.770000  1.0  0.1172
  H  H190  1  0.534700  0.310900  0.522300  1.0  0.0945
  H  H191  1  0.561200  0.694900  0.390300  1.0  0.1299
  H  H192  1  0.605400  0.127500  0.465900  1.0  0.1031
  H  H193  1  0.135300  0.839400  0.641400  1.0  0.119
  H  H194  1  0.419700  0.999400  0.098200  1.0  0.1569
  H  H195  1  0.819300  0.646600  0.143500  1.0  0.1159
  H  H196  1  0.267200  0.618400  0.453400  1.0  0.1336
  H  H197  1  0.909700  0.210600  0.786100  1.0  0.1109
  H  H198  1  0.716700  0.370700  0.470900  1.0  0.1642
  H  H199  1  0.658200  0.778400  0.305300  1.0  0.1316
  H  H200  1  0.854100  0.189200  0.716700  1.0  0.1221
  H  H201  1  0.722300  0.850900  0.216400  1.0  0.1191
  H  H202  1  0.511200  0.983800  0.262800  1.0  0.11
  H  H203  1  0.074600  0.908300  0.268500  1.0  0.0957
  H  H204  1  0.668900  0.904200  0.022500  1.0  0.093
  H  H205  1  0.623100  0.776100  0.002700  1.0  0.0925
  H  H206  1  0.233200  0.994100  0.850800  1.0  0.0975
  H  H207  1  0.762200  0.418300  0.612000  1.0  0.1116
  H  H208  1  0.740900  0.938900  0.216200  1.0  0.1153
  H  H209  1  0.155700  0.991700  0.608400  1.0  0.1009
  H  H210  1  0.356700  0.855000  0.637800  1.0  0.1063
  H  H211  1  0.465300  0.689100  0.477700  1.0  0.0954
  H  H212  1  0.405500  0.882700  0.432300  1.0  0.1187
  H  H213  1  0.807600  0.079800  0.134100  1.0  0.1326
  H  H214  1  0.087700  0.442100  0.404600  1.0  0.1146
  H  H215  1  0.438800  0.305100  0.609700  1.0  0.1298
  H  H216  1  0.567100  0.715900  0.077700  1.0  0.1197
  H  H217  1  0.394600  0.872500  0.534100  1.0  0.1037
  H  H218  1  0.100100  0.803800  0.583200  1.0  0.17
  H  H219  1  0.739300  0.774800  0.330600  1.0  0.1055
  H  H220  1  0.815600  0.676600  0.986500  1.0  0.0911
  H  H221  1  0.398600  0.418900  0.756000  1.0  0.0853
  H  H222  1  0.341800  0.221600  0.694700  1.0  0.1316
  H  H223  1  0.452700  0.883100  0.332600  1.0  0.064
  H  H224  1  0.675200  0.576700  0.938500  1.0  0.1069
  H  H225  1  0.107000  0.094400  0.607400  1.0  0.1152
  H  H226  1  0.557200  0.564800  0.821100  1.0  0.1249
  H  H227  1  0.347000  0.707400  0.831100  1.0  0.1184
  H  H228  1  0.109600  0.495700  0.320500  1.0  0.1227
  H  H229  1  0.918300  0.032200  0.184400  1.0  0.1093
  H  H230  1  0.647400  0.412600  0.812500  1.0  0.103
  H  H231  1  0.358100  0.490900  0.699100  1.0  0.131
  H  H232  1  0.815300  0.910300  0.006500  1.0  0.1244
  H  H233  1  0.403800  0.299500  0.718300  1.0  0.121
  H  H234  1  0.499400  0.673400  0.116300  1.0  0.118
  C  C235  1  0.139900  0.330500  0.802600  1.0  -0.1141
  C  C236  1  0.663200  0.557700  0.670600  1.0  -0.0917
  C  C237  1  0.623600  0.635000  0.186200  1.0  0.0077
  C  C238  1  0.315500  0.105600  0.775100  1.0  0.062
  C  C239  1  0.567900  0.170900  0.802900  1.0  0.0728
  C  C240  1  0.950800  0.815800  0.909000  1.0  0.0963
  C  C241  1  0.521300  0.738100  0.116200  1.0  0.0316
  C  C242  1  0.424800  0.713100  0.567500  1.0  0.0343
  C  C243  1  0.389500  0.676500  0.794200  1.0  0.0216
  C  C244  1  0.732900  0.048400  0.174400  1.0  -0.1178
  C  C245  1  0.520900  0.608700  0.734000  1.0  0.0334
  C  C246  1  0.804800  0.672400  0.180500  1.0  0.0775
  C  C247  1  0.770900  0.540700  0.136400  1.0  -0.1709
  C  C248  1  0.188100  0.930900  0.663600  1.0  0.0556
  C  C249  1  0.362600  0.832200  0.765000  1.0  0.0261
  C  C250  1  0.684500  0.894400  0.224900  1.0  0.0637
  C  C251  1  0.181000  0.717700  0.548700  1.0  0.009
  C  C252  1  0.750100  0.314700  0.941800  1.0  -0.182
  C  C253  1  0.558900  0.975700  0.250700  1.0  0.0874
  C  C254  1  0.591800  0.255900  0.804900  1.0  0.0002
  C  C255  1  0.781000  0.681000  0.975100  1.0  0.114
  C  C256  1  0.570500  0.025700  0.243800  1.0  -0.1246
  C  C257  1  0.229100  0.459300  0.863600  1.0  -0.1713
  C  C258  1  0.637400  0.167800  0.235000  1.0  0.0291
  C  C259  1  0.198200  0.584200  0.827700  1.0  -0.1276
  C  C260  1  0.985500  0.825800  0.381300  1.0  0.0238
  C  C261  1  0.046600  0.024300  0.756100  1.0  -0.1296
  C  C262  1  0.131800  0.816500  0.938900  1.0  0.0605
  C  C263  1  0.387000  0.876100  0.756100  1.0  -0.1421
  C  C264  1  0.730000  0.299600  0.418600  1.0  0.0746
  C  C265  1  0.290200  0.248500  0.722200  1.0  -0.0031
  C  C266  1  0.870300  0.239400  0.825400  1.0  0.038
  C  C267  1  0.037900  0.312600  0.790000  1.0  -0.0689
  C  C268  1  0.406600  0.050400  0.006900  1.0  -0.1453
  C  C269  1  0.049200  0.184200  0.091000  1.0  0.096
  C  C270  1  0.968700  0.587400  0.483200  1.0  -0.0673
  C  C271  1  0.695400  0.946700  0.222200  1.0  -0.1105
  C  C272  1  0.757100  0.749400  0.292000  1.0  -0.1185
  C  C273  1  0.399300  0.444400  0.217600  1.0  -0.1441
  C  C274  1  0.256900  0.509900  0.119100  1.0  0.0017
  C  C275  1  0.247900  0.370400  0.075400  1.0  0.0945
  C  C276  1  0.429500  0.974300  0.756200  1.0  -0.1229
  C  C277  1  0.619400  0.179500  0.396300  1.0  0.0123
  C  C278  1  0.096300  0.726600  0.519300  1.0  -0.1649
  C  C279  1  0.820800  0.250200  0.996500  1.0  0.0731
  C  C280  1  0.432100  0.829100  0.197100  1.0  0.0779
  C  C281  1  0.141100  0.807800  0.992600  1.0  -0.1358
  C  C282  1  0.860100  0.669500  0.197400  1.0  -0.1134
  C  C283  1  0.200600  0.618300  0.421600  1.0  0.0283
  C  C284  1  0.470700  0.984000  0.081200  1.0  -0.1205
  C  C285  1  0.249900  0.685300  0.058200  1.0  -0.1811
  C  C286  1  0.667200  0.523800  0.779900  1.0  0.0145
  C  C287  1  0.165400  0.694500  0.510900  1.0  0.1633
  C  C288  1  0.945200  0.884000  0.367700  1.0  -0.1186
  C  C289  1  0.941300  0.512100  0.586300  1.0  -0.1088
  C  C290  1  0.554300  0.381100  0.309500  1.0  0.0744
  C  C291  1  0.481200  0.714700  0.138300  1.0  -0.1072
  C  C292  1  0.670000  0.737800  0.986300  1.0  0.0798
  C  C293  1  0.906100  0.170900  0.695800  1.0  0.0031
  C  C294  1  0.129700  0.760600  0.174600  1.0  0.0392
  C  C295  1  0.555300  0.736700  0.314900  1.0  -0.0339
  C  C296  1  0.058700  0.487900  0.413700  1.0  -0.1062
  C  C297  1  0.641900  0.011100  0.227800  1.0  -0.0073
  C  C298  1  0.014500  0.174200  0.618700  1.0  0.0267
  C  C299  1  0.246700  0.677400  0.115400  1.0  0.0412
  C  C300  1  0.069400  0.030300  0.695100  1.0  0.1051
  C  C301  1  0.977500  0.913500  0.318300  1.0  0.0878
  C  C302  1  0.017700  0.873200  0.863600  1.0  0.0204
  C  C303  1  0.791000  0.295500  0.099200  1.0  0.0694
  C  C304  1  0.595600  0.574100  0.731500  1.0  -0.0186
  C  C305  1  0.127700  0.771600  0.115000  1.0  -0.1263
  C  C306  1  0.074300  0.267100  0.671100  1.0  0.0264
  C  C307  1  0.222200  0.143500  0.939600  1.0  0.0878
  C  C308  1  0.089400  0.250500  0.020400  1.0  -0.1434
  C  C309  1  0.489100  0.012900  0.978200  1.0  0.0207
  C  C310  1  0.182900  0.641000  0.799900  1.0  0.0303
  C  C311  1  0.709800  0.751500  0.277800  1.0  -0.0024
  C  C312  1  0.380600  0.820500  0.603700  1.0  0.0142
  C  C313  1  0.530000  0.157600  0.655500  1.0  0.0746
  C  C314  1  0.185700  0.739500  0.057100  1.0  0.0605
  C  C315  1  0.226200  0.430500  0.112600  1.0  0.104
  C  C316  1  0.733300  0.300800  0.699400  1.0  0.0726
  C  C317  1  0.443900  0.843100  0.402800  1.0  -0.1987
  C  C318  1  0.479100  0.391300  0.266000  1.0  0.0337
  C  C319  1  0.556100  0.156900  0.597200  1.0  -0.1971
  C  C320  1  0.730300  0.523200  0.667500  1.0  0.0211
  C  C321  1  0.334400  0.938400  0.782900  1.0  0.113
  C  C322  1  0.267100  0.951600  0.825600  1.0  -0.1199
  C  C323  1  0.459800  0.649200  0.786700  1.0  -0.1215
  C  C324  1  0.753300  0.322600  0.884600  1.0  0.0384
  C  C325  1  0.046600  0.784600  0.801600  1.0  0.0416
  C  C326  1  0.404400  0.425900  0.268500  1.0  -0.0193
  C  C327  1  0.751000  0.593400  0.112500  1.0  0.0545
  C  C328  1  0.593400  0.949600  0.993100  1.0  -0.1422
  C  C329  1  0.991400  0.776500  0.851300  1.0  -0.2018
  C  C330  1  0.145400  0.774100  0.581400  1.0  -0.0916
  C  C331  1  0.752100  0.629600  0.924600  1.0  0.0952
  C  C332  1  0.962100  0.687400  0.210000  1.0  -0.0706
  C  C333  1  0.022500  0.086500  0.681700  1.0  0.0844
  C  C334  1  0.817100  0.359000  0.200100  1.0  0.0302
  C  C335  1  0.304600  0.053300  0.777800  1.0  -0.1126
  C  C336  1  0.383300  0.654600  0.182000  1.0  -0.1415
  C  C337  1  0.444700  0.263300  0.685100  1.0  -0.0333
  C  C338  1  0.665600  0.061600  0.217100  1.0  0.1101
  C  C339  1  0.161400  0.468700  0.165700  1.0  -0.127
  C  C340  1  0.593900  0.170000  0.458700  1.0  -0.172
  C  C341  1  0.868200  0.183500  0.061100  1.0  0.0613
  C  C342  1  0.199600  0.368600  0.062200  1.0  -0.1983
  C  C343  1  0.179200  0.749800  0.003500  1.0  0.073
  C  C344  1  0.610500  0.323500  0.205800  1.0  0.0235
  C  C345  1  0.242100  0.908100  0.836400  1.0  0.0302
  C  C346  1  0.139900  0.523500  0.193700  1.0  0.0653
  C  C347  1  0.441100  0.024300  0.749300  1.0  0.0873
  C  C348  1  0.782000  0.359000  0.538600  1.0  -0.1281
  C  C349  1  0.266700  0.699200  0.300600  1.0  0.079
  C  C350  1  0.634400  0.288900  0.779600  1.0  0.0851
  C  C351  1  0.858900  0.192200  0.007400  1.0  -0.1353
  C  C352  1  0.743100  0.490100  0.880900  1.0  0.0014
  C  C353  1  0.834600  0.305500  0.489100  1.0  0.1642
  C  C354  1  0.711400  0.531200  0.188900  1.0  -0.0352
  C  C355  1  0.376400  0.365000  0.813800  1.0  0.0086
  C  C356  1  0.858900  0.743200  0.032800  1.0  0.0308
  C  C357  1  0.339900  0.625700  0.210500  1.0  0.0061
  C  C358  1  0.614700  0.195500  0.780000  1.0  -0.1807
  C  C359  1  0.449600  0.777200  0.487500  1.0  0.0136
  C  C360  1  0.015100  0.693600  0.218700  1.0  0.0592
  C  C361  1  0.801800  0.415800  0.172300  1.0  -0.1268
  C  C362  1  0.575200  0.286900  0.432500  1.0  0.0356
  C  C363  1  0.961500  0.868900  0.915000  1.0  -0.1428
  C  C364  1  0.242900  0.250600  0.708000  1.0  -0.1175
  C  C365  1  0.872300  0.228400  0.885000  1.0  -0.1252
  C  C366  1  0.495200  0.043400  0.877900  1.0  0.0295
  C  C367  1  0.837100  0.708500  0.249300  1.0  0.0348
  C  C368  1  0.270000  0.700400  0.581400  1.0  0.076
  C  C369  1  0.811900  0.069100  0.336400  1.0  0.0557
  C  C370  1  0.777300  0.303000  0.050700  1.0  -0.1054
  C  C371  1  0.471200  0.785300  0.425000  1.0  0.0946
  C  C372  1  0.860100  0.476500  0.806300  1.0  0.064
  C  C373  1  0.510900  0.987100  0.021800  1.0  0.0213
  C  C374  1  0.447700  0.723500  0.509000  1.0  -0.126
  C  C375  1  0.757900  0.091900  0.163600  1.0  0.0317
  C  C376  1  0.296100  0.586600  0.706500  1.0  0.0462
  C  C377  1  0.074000  0.518800  0.362900  1.0  0.0456
  C  C378  1  0.613000  0.123900  0.243900  1.0  -0.1453
  C  C379  1  0.261300  0.530100  0.788200  1.0  0.0756
  C  C380  1  0.077000  0.703300  0.483400  1.0  0.0659
  C  C381  1  0.103700  0.191600  0.036200  1.0  0.0597
  C  C382  1  0.385300  0.804500  0.220000  1.0  -0.1811
  C  C383  1  0.660100  0.374300  0.789500  1.0  0.0079
  C  C384  1  0.359000  0.416500  0.790700  1.0  -0.0616
  C  C385  1  0.252600  0.673500  0.549800  1.0  -0.2001
  C  C386  1  0.484600  0.410400  0.313900  1.0  -0.1422
  C  C387  1  0.738700  0.469900  0.211800  1.0  0.0751
  C  C388  1  0.336800  0.442300  0.329400  1.0  -0.0926
  C  C389  1  0.799400  0.381700  0.578400  1.0  0.0274
  C  C390  1  0.478700  0.261900  0.883800  1.0  0.0287
  C  C391  1  0.617800  0.923800  0.036800  1.0  0.0066
  C  C392  1  0.819000  0.282300  0.451300  1.0  0.0101
  C  C393  1  0.219000  0.319000  0.024900  1.0  0.1093
  C  C394  1  0.926000  0.481200  0.637100  1.0  0.0451
  C  C395  1  0.249000  0.406600  0.887500  1.0  0.0549
  C  C396  1  0.330000  0.262200  0.013700  1.0  0.0829
  C  C397  1  0.031300  0.412600  0.516800  1.0  -0.0636
  C  C398  1  0.896300  0.808400  0.963800  1.0  0.0599
  C  C399  1  0.305200  0.734300  0.280700  1.0  -0.1607
  C  C400  1  0.195200  0.327600  0.819500  1.0  0.0787
  C  C401  1  0.533400  0.732800  0.379200  1.0  -0.2083
  C  C402  1  0.016900  0.380900  0.565700  1.0  0.0362
  C  C403  1  0.854600  0.225900  0.418600  1.0  -0.0909
  C  C404  1  0.445700  0.618900  0.690500  1.0  0.0752
  C  C405  1  0.332800  0.476200  0.220100  1.0  0.0169
  C  C406  1  0.724600  0.548800  0.906200  1.0  -0.1658
  C  C407  1  0.222700  0.697000  0.949300  1.0  -0.1028
  C  C408  1  0.892900  0.706300  0.259000  1.0  0.0593
  C  C409  1  0.686500  0.470400  0.274400  1.0  -0.16
  C  C410  1  0.504800  0.956600  0.122100  1.0  0.0297
  C  C411  1  0.316700  0.314100  0.049800  1.0  -0.2228
  C  C412  1  0.515400  0.589600  0.686100  1.0  -0.1426
  C  C413  1  0.167100  0.797100  0.615800  1.0  -0.0103
  C  C414  1  0.006500  0.517200  0.474700  1.0  0.0387
  C  C415  1  0.825100  0.867600  0.011600  1.0  -0.1591
  C  C416  1  0.529300  0.016000  0.918800  1.0  -0.1217
  C  C417  1  0.408200  0.744100  0.195100  1.0  -0.0005
  C  C418  1  0.910600  0.749500  0.979600  1.0  -0.1437
  C  C419  1  0.313500  0.529600  0.725600  1.0  -0.159
  C  C420  1  0.406100  0.830000  0.541300  1.0  -0.1719
  C  C421  1  0.747400  0.326500  0.450200  1.0  -0.2007
  C  C422  1  0.600700  0.555600  0.782400  1.0  -0.1426
  C  C423  1  0.953400  0.975700  0.243900  1.0  -0.1305
  C  C424  1  0.141100  0.256800  0.967200  1.0  0.0314
  C  C425  1  0.540200  0.350800  0.213300  1.0  -0.1231
  C  C426  1  0.641000  0.583500  0.209300  1.0  -0.0605
  C  C427  1  0.466600  0.267200  0.620800  1.0  -0.2082
  C  C428  1  0.616700  0.345400  0.818000  1.0  -0.1421
  C  C429  1  0.054800  0.116000  0.632300  1.0  -0.118
  C  C430  1  0.773800  0.569500  0.887400  1.0  0.1056
  C  C431  1  0.528800  0.214700  0.575000  1.0  0.0954
  C  C432  1  0.953400  0.215400  0.198400  1.0  0.045
  C  C433  1  0.861400  0.014000  0.349200  1.0  -0.0915
  C  C434  1  0.930600  0.969700  0.304900  1.0  0.1046
  C  C435  1  0.552300  0.276500  0.491000  1.0  -0.126
  C  C436  1  0.984900  0.306400  0.781300  1.0  0.0593
  C  C437  1  0.777800  0.856500  0.060400  1.0  0.0875
  C  C438  1  0.269700  0.476800  0.332500  1.0  0.0194
  C  C439  1  0.038500  0.131100  0.085000  1.0  -0.1428
  C  C440  1  0.096600  0.971900  0.772800  1.0  0.0421
  C  C441  1  0.470000  0.842400  0.344500  1.0  0.0753
  C  C442  1  0.008600  0.223500  0.148700  1.0  -0.2034
  C  C443  1  0.382200  0.076200  0.963200  1.0  0.0107
  C  C444  1  0.518800  0.285300  0.861700  1.0  -0.1052
  C  C445  1  0.923000  0.296700  0.516600  1.0  0.067
  C  C446  1  0.174900  0.132400  0.988400  1.0  -0.1607
  C  C447  1  0.209000  0.704500  0.900800  1.0  0.0684
  C  C448  1  0.288600  0.468800  0.811100  1.0  -0.0348
  C  C449  1  0.832900  0.202900  0.384200  1.0  -0.0091
  C  C450  1  0.138600  0.986000  0.650800  1.0  -0.0922
  C  C451  1  0.162900  0.291500  0.750700  1.0  0.0326
  C  C452  1  0.874300  0.729400  0.319100  1.0  -0.134
  C  C453  1  0.838600  0.531300  0.834300  1.0  -0.1273
  C  C454  1  0.125700  0.270600  0.680900  1.0  -0.1333
  C  C455  1  0.703900  0.413400  0.293500  1.0  0.0477
  C  C456  1  0.093900  0.829100  0.304200  1.0  0.0021
  C  C457  1  0.993500  0.482800  0.525300  1.0  0.0385
  C  C458  1  0.925700  0.732900  0.328900  1.0  0.027
  C  C459  1  0.948800  0.114100  0.705700  1.0  -0.1394
  C  C460  1  0.218000  0.641000  0.461400  1.0  -0.1287
  C  C461  1  0.983100  0.619100  0.434300  1.0  0.0345
  C  C462  1  0.051200  0.885900  0.294300  1.0  -0.1387
  C  C463  1  0.903700  0.273400  0.480700  1.0  -0.1659
  C  C464  1  0.982300  0.126800  0.136400  1.0  0.0207
  C  C465  1  0.275400  0.451200  0.093800  1.0  -0.1642
  C  C466  1  0.107100  0.293700  0.741000  1.0  0.0586
  C  C467  1  0.903400  0.028100  0.227200  1.0  0.0436
  C  C468  1  0.800400  0.631400  0.937800  1.0  -0.1989
  C  C469  1  0.814300  0.260500  0.942900  1.0  0.0605
  C  C470  1  0.683300  0.685900  0.950200  1.0  -0.2244
  C  C471  1  0.365600  0.711100  0.220400  1.0  0.0848
  C  C472  1  0.358100  0.988900  0.772200  1.0  -0.0083
  C  C473  1  0.550400  0.222800  0.512500  1.0  0.0121
  C  C474  1  0.694800  0.265700  0.719300  1.0  -0.1605
  C  C475  1  0.872200  0.413800  0.970700  1.0  0.4457
  C  C476  1  0.127800  0.586200  0.029300  1.0  0.4465
  S  S477  1  0.944800  0.372500  0.990700  1.0  1.383
  S  S478  1  0.055200  0.627500  0.009300  1.0  1.3842
  N  N479  1  0.963900  0.418500  0.622300  1.0  0.2263
  N  N480  1  0.616100  0.342300  0.252500  1.0  0.243
  N  N481  1  0.717100  0.737900  0.999400  1.0  0.1634
  N  N482  1  0.813200  0.289400  0.829100  1.0  0.125
  N  N483  1  0.425600  0.074400  0.905400  1.0  0.1227
  N  N484  1  0.940100  0.169600  0.193700  1.0  0.2512
  N  N485  1  0.678500  0.642200  0.136900  1.0  0.1941
  N  N486  1  0.708000  0.150800  0.196900  1.0  0.2783
  N  N487  1  0.938900  0.200900  0.655500  1.0  0.1832
  N  N488  1  0.292000  0.849200  0.803100  1.0  0.2771
  N  N489  1  0.059900  0.830400  0.806300  1.0  0.2533
  N  N490  1  0.385200  0.088800  0.759100  1.0  0.1369
  N  N491  1  0.284100  0.649400  0.266500  1.0  0.2499
  N  N492  1  0.128900  0.650700  0.433500  1.0  0.2051
  N  N493  1  0.767600  0.241300  0.388200  1.0  0.2481
  N  N494  1  0.383900  0.657700  0.747500  1.0  0.2503
  N  N495  1  0.792400  0.795100  0.072400  1.0  0.2475
  N  N496  1  0.515300  0.794900  0.301800  1.0  0.1359
  N  N497  1  0.988400  0.718000  0.282000  1.0  0.1547
  N  N498  1  0.766300  0.359400  0.257200  1.0  0.2863
  N  N499  1  0.871100  0.349300  0.566500  1.0  0.2063
  N  N500  1  0.282900  0.262100  0.000600  1.0  0.1611
  N  N501  1  0.484700  0.205100  0.698200  1.0  0.1411
  N  N502  1  0.829100  0.233200  0.108900  1.0  0.1969
  N  N503  1  0.188900  0.546400  0.168800  1.0  0.2283
  N  N504  1  0.321500  0.357800  0.863100  1.0  0.1947
  N  N505  1  0.233700  0.640600  0.742800  1.0  0.2879
  N  N506  1  0.036100  0.581500  0.377700  1.0  0.2257
  N  N507  1  0.614800  0.911200  0.240900  1.0  0.1321
  N  N508  1  0.262100  0.287500  0.779700  1.0  0.1691
  N  N509  1  0.162300  0.931200  0.727100  1.0  0.3052
  N  N510  1  0.232400  0.758700  0.611800  1.0  0.2401
  N  N511  1  0.011600  0.282000  0.718000  1.0  0.1533
  N  N512  1  0.186800  0.710600  0.170900  1.0  0.1239
  N  N513  1  0.811100  0.453600  0.831200  1.0  0.2255
  N  N514  1  0.207600  0.204900  0.927600  1.0  0.253
  N  N515  1  0.737900  0.712500  0.220300  1.0  0.1649
  N  N516  1  0.610400  0.233700  0.386200  1.0  0.227
  N  N517  1  0.269600  0.495300  0.276400  1.0  0.222
  N  N518  1  0.837700  0.068800  0.272900  1.0  0.3035
  N  N519  1  0.715900  0.350600  0.733500  1.0  0.2509
  N  N520  1  0.574400  0.925600  0.094600  1.0  0.1213
  N  N521  1  0.500200  0.202500  0.852400  1.0  0.1672
  N  N522  1  0.499800  0.797500  0.147600  1.0  0.1676
  N  N523  1  0.389600  0.766300  0.613800  1.0  0.228
  N  N524  1  0.730400  0.504700  0.723600  1.0  0.2206
  N  N525  1  0.061100  0.799100  0.344500  1.0  0.1791
  N  N526  1  0.170900  0.766800  0.891100  1.0  0.1973
  O  O527  1  0.808700  0.302300  0.780400  1.0  -0.6303
  O  O528  1  0.168600  0.603200  0.195900  1.0  -0.6344
  O  O529  1  0.899500  0.258000  0.643000  1.0  -0.6148
  O  O530  1  0.100500  0.742000  0.357000  1.0  -0.6165
  O  O531  1  0.949500  0.386800  0.669000  1.0  -0.6045
  O  O532  1  0.116800  0.833100  0.758300  1.0  -0.6182
  O  O533  1  0.602100  0.899300  0.132400  1.0  -0.5986
  O  O534  1  0.782200  0.305600  0.280600  1.0  -0.6199
  O  O535  1  0.463700  0.207800  0.759800  1.0  -0.6153
  O  O536  1  0.696700  0.783300  0.041700  1.0  -0.6371
  O  O537  1  0.680400  0.324300  0.245700  1.0  -0.6334
  O  O538  1  0.883200  0.166900  0.241700  1.0  -0.6165
  O  O539  1  0.743700  0.221300  0.358100  1.0  -0.6196
  O  O540  1  0.959900  0.275600  0.711600  1.0  -0.6311
  O  O541  1  0.642900  0.240800  0.324000  1.0  -0.6264
  O  O542  1  0.162000  0.770700  0.843800  1.0  -0.6469
  O  O543  1  0.838000  0.229300  0.156200  1.0  -0.6457
  O  O544  1  0.543600  0.820400  0.126500  1.0  -0.646
  O  O545  1  0.357100  0.759200  0.676000  1.0  -0.6264
  O  O546  1  0.884500  0.368700  0.601500  1.0  -0.6027
  O  O547  1  0.319600  0.675700  0.754300  1.0  -0.633
  O  O548  1  0.797500  0.470000  0.718700  1.0  -0.621
  O  O549  1  0.602400  0.860500  0.242200  1.0  -0.6119
  O  O550  1  0.752100  0.381900  0.708900  1.0  -0.6015
  O  O551  1  0.661100  0.695900  0.112900  1.0  -0.6398
  O  O552  1  0.050500  0.613200  0.331000  1.0  -0.6043
  O  O553  1  0.202500  0.530000  0.281300  1.0  -0.6196
  O  O554  1  0.397900  0.100700  0.867600  1.0  -0.5992
  O  O555  1  0.456400  0.179600  0.873500  1.0  -0.6443
  O  O556  1  0.209300  0.882500  0.742500  1.0  -0.6146
  O  O557  1  0.397600  0.139500  0.757800  1.0  -0.6112
  O  O558  1  0.303300  0.216700  0.958300  1.0  -0.6377
  O  O559  1  0.115500  0.631300  0.398500  1.0  -0.6028
  O  O560  1  0.536300  0.792200  0.240200  1.0  -0.6163
  O  O561  1  0.790700  0.117500  0.257500  1.0  -0.6153
  O  O562  1  0.745600  0.789300  0.125600  1.0  -0.6464
  O  O563  1  0.256300  0.778700  0.641900  1.0  -0.622
  O  O564  1  0.254400  0.210700  0.874400  1.0  -0.6491
  O  O565  1  0.338900  0.304100  0.887100  1.0  -0.6392
  O  O566  1  0.686000  0.718700  0.204200  1.0  -0.631
  O  O567  1  0.831400  0.396800  0.804100  1.0  -0.6354
  O  O568  1  0.247900  0.618100  0.291100  1.0  -0.6002
  O  O569  1  0.217800  0.694400  0.719400  1.0  -0.6203
  O  O570  1  0.314000  0.281300  0.795800  1.0  -0.6296
  O  O571  1  0.730300  0.194800  0.190000  1.0  -0.6132
  O  O572  1  0.269700  0.805200  0.810000  1.0  -0.6115
  O  O573  1  0.040100  0.724400  0.288400  1.0  -0.6335
  O  O574  1  0.191300  0.697700  0.219600  1.0  -0.6304
  O  O575  1  0.754200  0.080100  0.837700  1.0  -0.681
  O  O576  1  0.697100  0.218500  0.950300  1.0  -0.6645
  O  O577  1  0.917300  0.022000  0.921300  1.0  -0.6238
  O  O578  1  0.588500  0.096600  0.040500  1.0  -0.6511
  O  O579  1  0.772200  0.952100  0.834900  1.0  -0.5793
  O  O580  1  0.777300  0.136000  0.994300  1.0  -0.6921
  O  O581  1  0.833000  0.997700  0.883600  1.0  -0.7162
  O  O582  1  0.498500  0.186500  0.994000  1.0  -0.6207
  O  O583  1  0.661900  0.007800  0.097500  1.0  -0.605
  O  O584  1  0.650500  0.250200  0.075100  1.0  -0.6373
  O  O585  1  0.827300  0.108000  0.872900  1.0  -0.6821
  O  O586  1  0.632300  0.184200  0.907300  1.0  -0.7382
  O  O587  1  0.786200  0.016900  0.006300  1.0  -0.6775
  O  O588  1  0.710300  0.102400  0.954100  1.0  -0.8461
  O  O589  1  0.663000  0.124600  0.078900  1.0  -0.6499
  O  O590  1  0.638600  0.071100  0.917400  1.0  -0.6865
  O  O591  1  0.581600  0.210400  0.030400  1.0  -0.6356
  O  O592  1  0.716100  0.990300  0.966100  1.0  -0.6799
  O  O593  1  0.751800  0.194500  0.816300  1.0  -0.6111
  O  O594  1  0.367700  0.815800  0.092700  1.0  -0.7359
  O  O595  1  0.337000  0.875400  0.921100  1.0  -0.6522
  O  O596  1  0.172700  0.892000  0.127100  1.0  -0.6812
  O  O597  1  0.245800  0.919900  0.162300  1.0  -0.6813
  O  O598  1  0.338100  0.992200  0.902500  1.0  -0.6041
  O  O599  1  0.213800  0.983100  0.993700  1.0  -0.6798
  O  O600  1  0.302900  0.781500  0.049700  1.0  -0.6644
  O  O601  1  0.501500  0.813500  0.006000  1.0  -0.6247
  O  O602  1  0.289700  0.897600  0.045900  1.0  -0.8462
  O  O603  1  0.418400  0.789600  0.969600  1.0  -0.638
  O  O604  1  0.167000  0.002300  0.116400  1.0  -0.7162
  O  O605  1  0.349500  0.749800  0.924900  1.0  -0.638
  O  O606  1  0.411500  0.903400  0.959500  1.0  -0.6527
  O  O607  1  0.227800  0.047900  0.165100  1.0  -0.5771
  O  O608  1  0.222700  0.864000  0.005700  1.0  -0.6931
  O  O609  1  0.283900  0.009700  0.033900  1.0  -0.6807
  O  O610  1  0.361400  0.928900  0.082600  1.0  -0.6818
  O  O611  1  0.248200  0.805500  0.183700  1.0  -0.6127
  O  O612  1  0.082700  0.978000  0.078700  1.0  -0.6248
  O  O613  1  0.134600  0.911900  0.469700  1.0  -0.6443
  O  O614  1  0.923700  0.971900  0.466300  1.0  -0.666
  O  O615  1  0.023100  0.898900  0.555900  1.0  -0.6701
  O  O616  1  0.102700  0.923600  0.596900  1.0  -0.5895
  O  O617  1  0.112200  0.013500  0.415200  1.0  -0.6767
  O  O618  1  0.976900  0.101100  0.444100  1.0  -0.6717
  O  O619  1  0.055000  0.137600  0.477500  1.0  -0.6205
  O  O620  1  0.939800  0.115400  0.565400  1.0  -0.6923
  O  O621  1  0.817200  0.108400  0.662300  1.0  -0.6247
  O  O622  1  0.032000  0.990000  0.385300  1.0  -0.7957
  O  O623  1  0.865400  0.088100  0.530300  1.0  -0.6414
  O  O624  1  0.887800  0.986500  0.584800  1.0  -0.6738
  O  O625  1  0.945000  0.862400  0.522500  1.0  -0.6203
  O  O626  1  0.060200  0.884600  0.434600  1.0  -0.6959
  O  O627  1  0.000000  0.000000  0.500000  1.0  -0.8095
  O  O628  1  0.076300  0.028100  0.533700  1.0  -0.6674
  O  O629  1  0.897300  0.076400  0.403100  1.0  -0.5883
  O  O630  1  0.182800  0.891600  0.337700  1.0  -0.6237
  O  O631  1  0.968000  0.010000  0.614700  1.0  -0.7946
  O  O632  1  0.638000  0.811400  0.434000  1.0  -0.5943
  O  O633  1  0.631200  0.933100  0.400800  1.0  -0.7343
  O  O634  1  0.581900  0.006900  0.604900  1.0  -0.6268
  O  O635  1  0.462300  0.091600  0.581300  1.0  -0.7446
  O  O636  1  0.527900  0.019800  0.387000  1.0  -0.7475
  O  O637  1  0.472100  0.980200  0.613000  1.0  -0.747
  O  O638  1  0.602800  0.920200  0.516000  1.0  -0.6912
  O  O639  1  0.647400  0.037400  0.358200  1.0  -0.6301
  O  O640  1  0.362000  0.188600  0.566000  1.0  -0.5956
  O  O641  1  0.352600  0.962600  0.641800  1.0  -0.6292
  O  O642  1  0.397800  0.977400  0.514000  1.0  -0.7033
  O  O643  1  0.501800  0.104400  0.462300  1.0  -0.6868
  O  O644  1  0.418100  0.993100  0.395100  1.0  -0.6254
  O  O645  1  0.397200  0.079800  0.484000  1.0  -0.6915
  O  O646  1  0.498200  0.895600  0.537700  1.0  -0.6852
  O  O647  1  0.368800  0.066900  0.599200  1.0  -0.7319
  O  O648  1  0.537700  0.908400  0.418700  1.0  -0.7469
  O  O649  1  0.602200  0.022600  0.486000  1.0  -0.7042
  O  O650  1  0.500000  0.000000  0.500000  1.0  -0.8463
  O  O651  1  0.886800  0.593100  0.351800  1.0  -0.7187
  O  O652  1  0.829000  0.517500  0.382500  1.0  -0.8612
  O  O653  1  0.871500  0.544500  0.454100  1.0  -0.696
  O  O654  1  0.783200  0.680400  0.470500  1.0  -0.5941
  O  O655  1  0.695200  0.620900  0.315400  1.0  -0.6208
  O  O656  1  0.875800  0.353500  0.294800  1.0  -0.6285
  O  O657  1  0.788400  0.489400  0.310500  1.0  -0.7237
  O  O658  1  0.845700  0.565600  0.279300  1.0  -0.6863
  O  O659  1  0.814200  0.468200  0.486000  1.0  -0.6851
  O  O660  1  0.772500  0.440400  0.413800  1.0  -0.6969
  O  O661  1  0.744200  0.643200  0.392800  1.0  -0.6636
  O  O662  1  0.661400  0.517200  0.536600  1.0  -0.597
  O  O663  1  0.914800  0.391200  0.372300  1.0  -0.6513
  O  O664  1  0.688300  0.565700  0.423300  1.0  -0.6775
  O  O665  1  0.728900  0.593800  0.496000  1.0  -0.6436
  O  O666  1  0.998200  0.516700  0.228900  1.0  -0.5911
  O  O667  1  0.964800  0.412900  0.448700  1.0  -0.6217
  O  O668  1  0.972300  0.467700  0.341200  1.0  -0.6472
  O  O669  1  0.930800  0.439800  0.269000  1.0  -0.6482
  O  O670  1  0.255800  0.356800  0.607200  1.0  -0.6629
  O  O671  1  0.311700  0.434300  0.576700  1.0  -0.6787
  O  O672  1  0.124200  0.646500  0.705200  1.0  -0.6269
  O  O673  1  0.035200  0.587100  0.551300  1.0  -0.623
  O  O674  1  0.304800  0.379100  0.684600  1.0  -0.6212
  O  O675  1  0.271100  0.406200  0.504000  1.0  -0.6472
  O  O676  1  0.001800  0.483300  0.771100  1.0  -0.5897
  O  O677  1  0.211600  0.510600  0.689500  1.0  -0.7207
  O  O678  1  0.185800  0.531800  0.514000  1.0  -0.6871
  O  O679  1  0.069200  0.560200  0.731000  1.0  -0.6457
  O  O680  1  0.128500  0.455500  0.545900  1.0  -0.6979
  O  O681  1  0.113200  0.406900  0.648200  1.0  -0.7214
  O  O682  1  0.154300  0.434400  0.720700  1.0  -0.6868
  O  O683  1  0.227500  0.559600  0.586200  1.0  -0.6953
  O  O684  1  0.171000  0.482500  0.617500  1.0  -0.8605
  O  O685  1  0.085200  0.608800  0.627700  1.0  -0.6483
  O  O686  1  0.216800  0.319600  0.529500  1.0  -0.5935
  O  O687  1  0.027700  0.532300  0.658800  1.0  -0.645
  O  O688  1  0.338600  0.482800  0.463400  1.0  -0.5955
  O  O689  1  0.937500  0.421400  0.028800  1.0  -0.6495
  O  O690  1  0.931000  0.324400  0.025200  1.0  -0.6391
  O  O691  1  0.013700  0.343100  0.930200  1.0  -0.6477
  O  O692  1  0.986300  0.656900  0.069800  1.0  -0.6457
  O  O693  1  0.062500  0.578600  0.971200  1.0  -0.6493
  O  O694  1  0.069000  0.675600  0.974800  1.0  -0.6394
  F  F695  1  0.806700  0.444100  0.022500  1.0  -0.1847
  F  F696  1  0.882400  0.456400  0.936000  1.0  -0.1771
  F  F697  1  0.873400  0.371500  0.937700  1.0  -0.1822
  F  F698  1  0.193300  0.555900  0.977500  1.0  -0.1843
  F  F699  1  0.126600  0.628500  0.062300  1.0  -0.181
  F  F700  1  0.117600  0.543600  0.064000  1.0  -0.1784
