# generated using pymatgen
data_CuH2(C3O2)2
_symmetry_space_group_name_H-M   'P 1'
_cell_length_a   52.50780000
_cell_length_b   52.50780000
_cell_length_c   52.50780000
_cell_angle_alpha   90.00000000
_cell_angle_beta   90.00000000
_cell_angle_gamma   90.00000000
_symmetry_Int_Tables_number   1
_chemical_formula_structural   CuH2(C3O2)2
_chemical_formula_sum   'Cu384 H768 C2304 O1536'
_cell_volume   144767.63083277
_cell_formula_units_Z   384
loop_
 _symmetry_equiv_pos_site_id
 _symmetry_equiv_pos_as_xyz
  1  'x, y, z'
loop_
 _atom_site_type_symbol
 _atom_site_label
 _atom_site_symmetry_multiplicity
 _atom_site_fract_x
 _atom_site_fract_y
 _atom_site_fract_z
 _atom_site_occupancy
 _atom_site_charge
  Cu  Cu1  1  0.249700  0.142800  0.107590  1.0  0.9102
  Cu  Cu2  1  0.249700  0.642800  0.607590  1.0  0.9102
  Cu  Cu3  1  0.749700  0.142800  0.607590  1.0  0.9102
  Cu  Cu4  1  0.749700  0.642800  0.107590  1.0  0.9102
  Cu  Cu5  1  0.750300  0.857200  0.107590  1.0  0.9102
  Cu  Cu6  1  0.750300  0.357200  0.607590  1.0  0.9102
  Cu  Cu7  1  0.250300  0.857200  0.607590  1.0  0.9102
  Cu  Cu8  1  0.250300  0.357200  0.107590  1.0  0.9102
  Cu  Cu9  1  0.750300  0.142800  0.892410  1.0  0.9114
  Cu  Cu10  1  0.750300  0.642800  0.392410  1.0  0.9114
  Cu  Cu11  1  0.250300  0.142800  0.392410  1.0  0.9114
  Cu  Cu12  1  0.250300  0.642800  0.892410  1.0  0.9114
  Cu  Cu13  1  0.249700  0.857200  0.892410  1.0  0.9103
  Cu  Cu14  1  0.249700  0.357200  0.392410  1.0  0.9103
  Cu  Cu15  1  0.749700  0.857200  0.392410  1.0  0.9103
  Cu  Cu16  1  0.749700  0.357200  0.892410  1.0  0.9103
  Cu  Cu17  1  0.107590  0.249700  0.142800  1.0  0.9115
  Cu  Cu18  1  0.107590  0.749700  0.642800  1.0  0.9115
  Cu  Cu19  1  0.607590  0.249700  0.642800  1.0  0.9115
  Cu  Cu20  1  0.607590  0.749700  0.142800  1.0  0.9115
  Cu  Cu21  1  0.107590  0.750300  0.857200  1.0  0.9118
  Cu  Cu22  1  0.107590  0.250300  0.357200  1.0  0.9118
  Cu  Cu23  1  0.607590  0.750300  0.357200  1.0  0.9118
  Cu  Cu24  1  0.607590  0.250300  0.857200  1.0  0.9118
  Cu  Cu25  1  0.892410  0.750300  0.142800  1.0  0.9108
  Cu  Cu26  1  0.892410  0.250300  0.642800  1.0  0.9108
  Cu  Cu27  1  0.392410  0.750300  0.642800  1.0  0.9108
  Cu  Cu28  1  0.392410  0.250300  0.142800  1.0  0.9108
  Cu  Cu29  1  0.892410  0.249700  0.857200  1.0  0.9101
  Cu  Cu30  1  0.892410  0.749700  0.357200  1.0  0.9101
  Cu  Cu31  1  0.392410  0.249700  0.357200  1.0  0.9101
  Cu  Cu32  1  0.392410  0.749700  0.857200  1.0  0.9101
  Cu  Cu33  1  0.142800  0.107590  0.249700  1.0  0.9113
  Cu  Cu34  1  0.142800  0.607590  0.749700  1.0  0.9113
  Cu  Cu35  1  0.642800  0.107590  0.749700  1.0  0.9113
  Cu  Cu36  1  0.642800  0.607590  0.249700  1.0  0.9113
  Cu  Cu37  1  0.857200  0.107590  0.750300  1.0  0.9123
  Cu  Cu38  1  0.857200  0.607590  0.250300  1.0  0.9123
  Cu  Cu39  1  0.357200  0.107590  0.250300  1.0  0.9123
  Cu  Cu40  1  0.357200  0.607590  0.750300  1.0  0.9123
  Cu  Cu41  1  0.142800  0.892410  0.750300  1.0  0.9131
  Cu  Cu42  1  0.142800  0.392410  0.250300  1.0  0.9131
  Cu  Cu43  1  0.642800  0.892410  0.250300  1.0  0.9131
  Cu  Cu44  1  0.642800  0.392410  0.750300  1.0  0.9131
  Cu  Cu45  1  0.857200  0.892410  0.249700  1.0  0.9131
  Cu  Cu46  1  0.857200  0.392410  0.749700  1.0  0.9131
  Cu  Cu47  1  0.357200  0.892410  0.749700  1.0  0.9131
  Cu  Cu48  1  0.357200  0.392410  0.249700  1.0  0.9131
  Cu  Cu49  1  0.642800  0.749700  0.392410  1.0  0.9106
  Cu  Cu50  1  0.642800  0.249700  0.892410  1.0  0.9106
  Cu  Cu51  1  0.142800  0.749700  0.892410  1.0  0.9106
  Cu  Cu52  1  0.142800  0.249700  0.392410  1.0  0.9106
  Cu  Cu53  1  0.357200  0.250300  0.392410  1.0  0.911
  Cu  Cu54  1  0.357200  0.750300  0.892410  1.0  0.911
  Cu  Cu55  1  0.857200  0.250300  0.892410  1.0  0.911
  Cu  Cu56  1  0.857200  0.750300  0.392410  1.0  0.911
  Cu  Cu57  1  0.642800  0.250300  0.607590  1.0  0.9094
  Cu  Cu58  1  0.642800  0.750300  0.107590  1.0  0.9094
  Cu  Cu59  1  0.142800  0.250300  0.107590  1.0  0.9094
  Cu  Cu60  1  0.142800  0.750300  0.607590  1.0  0.9094
  Cu  Cu61  1  0.357200  0.749700  0.607590  1.0  0.911
  Cu  Cu62  1  0.357200  0.249700  0.107590  1.0  0.911
  Cu  Cu63  1  0.857200  0.749700  0.107590  1.0  0.911
  Cu  Cu64  1  0.857200  0.249700  0.607590  1.0  0.911
  Cu  Cu65  1  0.749700  0.607590  0.357200  1.0  0.9105
  Cu  Cu66  1  0.749700  0.107590  0.857200  1.0  0.9105
  Cu  Cu67  1  0.249700  0.607590  0.857200  1.0  0.9105
  Cu  Cu68  1  0.249700  0.107590  0.357200  1.0  0.9105
  Cu  Cu69  1  0.250300  0.607590  0.642800  1.0  0.9108
  Cu  Cu70  1  0.250300  0.107590  0.142800  1.0  0.9108
  Cu  Cu71  1  0.750300  0.607590  0.142800  1.0  0.9108
  Cu  Cu72  1  0.750300  0.107590  0.642800  1.0  0.9108
  Cu  Cu73  1  0.250300  0.392410  0.357200  1.0  0.9108
  Cu  Cu74  1  0.250300  0.892410  0.857200  1.0  0.9108
  Cu  Cu75  1  0.750300  0.392410  0.857200  1.0  0.9108
  Cu  Cu76  1  0.750300  0.892410  0.357200  1.0  0.9108
  Cu  Cu77  1  0.749700  0.392410  0.642800  1.0  0.9118
  Cu  Cu78  1  0.749700  0.892410  0.142800  1.0  0.9118
  Cu  Cu79  1  0.249700  0.392410  0.142800  1.0  0.9118
  Cu  Cu80  1  0.249700  0.892410  0.642800  1.0  0.9118
  Cu  Cu81  1  0.607590  0.642800  0.250300  1.0  0.9133
  Cu  Cu82  1  0.607590  0.142800  0.750300  1.0  0.9133
  Cu  Cu83  1  0.107590  0.642800  0.750300  1.0  0.9133
  Cu  Cu84  1  0.107590  0.142800  0.250300  1.0  0.9133
  Cu  Cu85  1  0.607590  0.357200  0.749700  1.0  0.9125
  Cu  Cu86  1  0.607590  0.857200  0.249700  1.0  0.9125
  Cu  Cu87  1  0.107590  0.357200  0.249700  1.0  0.9125
  Cu  Cu88  1  0.107590  0.857200  0.749700  1.0  0.9125
  Cu  Cu89  1  0.392410  0.642800  0.749700  1.0  0.9133
  Cu  Cu90  1  0.392410  0.142800  0.249700  1.0  0.9133
  Cu  Cu91  1  0.892410  0.642800  0.249700  1.0  0.9133
  Cu  Cu92  1  0.892410  0.142800  0.749700  1.0  0.9133
  Cu  Cu93  1  0.392410  0.357200  0.250300  1.0  0.9113
  Cu  Cu94  1  0.392410  0.857200  0.750300  1.0  0.9113
  Cu  Cu95  1  0.892410  0.357200  0.750300  1.0  0.9113
  Cu  Cu96  1  0.892410  0.857200  0.250300  1.0  0.9113
  Cu  Cu97  1  0.750300  0.857200  0.892410  1.0  0.9105
  Cu  Cu98  1  0.750300  0.357200  0.392410  1.0  0.9105
  Cu  Cu99  1  0.250300  0.857200  0.392410  1.0  0.9105
  Cu  Cu100  1  0.250300  0.357200  0.892410  1.0  0.9105
  Cu  Cu101  1  0.249700  0.142800  0.892410  1.0  0.9114
  Cu  Cu102  1  0.249700  0.642800  0.392410  1.0  0.9114
  Cu  Cu103  1  0.749700  0.142800  0.392410  1.0  0.9114
  Cu  Cu104  1  0.749700  0.642800  0.892410  1.0  0.9114
  Cu  Cu105  1  0.249700  0.857200  0.107590  1.0  0.9101
  Cu  Cu106  1  0.249700  0.357200  0.607590  1.0  0.9101
  Cu  Cu107  1  0.749700  0.857200  0.607590  1.0  0.9101
  Cu  Cu108  1  0.749700  0.357200  0.107590  1.0  0.9101
  Cu  Cu109  1  0.750300  0.142800  0.107590  1.0  0.9101
  Cu  Cu110  1  0.750300  0.642800  0.607590  1.0  0.9101
  Cu  Cu111  1  0.250300  0.142800  0.607590  1.0  0.9101
  Cu  Cu112  1  0.250300  0.642800  0.107590  1.0  0.9101
  Cu  Cu113  1  0.892410  0.750300  0.857200  1.0  0.9101
  Cu  Cu114  1  0.892410  0.250300  0.357200  1.0  0.9101
  Cu  Cu115  1  0.392410  0.750300  0.357200  1.0  0.9101
  Cu  Cu116  1  0.392410  0.250300  0.857200  1.0  0.9101
  Cu  Cu117  1  0.892410  0.249700  0.142800  1.0  0.9108
  Cu  Cu118  1  0.892410  0.749700  0.642800  1.0  0.9108
  Cu  Cu119  1  0.392410  0.249700  0.642800  1.0  0.9108
  Cu  Cu120  1  0.392410  0.749700  0.142800  1.0  0.9108
  Cu  Cu121  1  0.107590  0.249700  0.857200  1.0  0.9117
  Cu  Cu122  1  0.107590  0.749700  0.357200  1.0  0.9117
  Cu  Cu123  1  0.607590  0.249700  0.357200  1.0  0.9117
  Cu  Cu124  1  0.607590  0.749700  0.857200  1.0  0.9117
  Cu  Cu125  1  0.107590  0.750300  0.142800  1.0  0.9115
  Cu  Cu126  1  0.107590  0.250300  0.642800  1.0  0.9115
  Cu  Cu127  1  0.607590  0.750300  0.642800  1.0  0.9115
  Cu  Cu128  1  0.607590  0.250300  0.142800  1.0  0.9115
  Cu  Cu129  1  0.857200  0.892410  0.750300  1.0  0.9131
  Cu  Cu130  1  0.857200  0.392410  0.250300  1.0  0.9131
  Cu  Cu131  1  0.357200  0.892410  0.250300  1.0  0.9131
  Cu  Cu132  1  0.357200  0.392410  0.750300  1.0  0.9131
  Cu  Cu133  1  0.142800  0.892410  0.249700  1.0  0.9131
  Cu  Cu134  1  0.142800  0.392410  0.749700  1.0  0.9131
  Cu  Cu135  1  0.642800  0.892410  0.749700  1.0  0.9131
  Cu  Cu136  1  0.642800  0.392410  0.249700  1.0  0.9131
  Cu  Cu137  1  0.857200  0.107590  0.249700  1.0  0.9124
  Cu  Cu138  1  0.857200  0.607590  0.749700  1.0  0.9124
  Cu  Cu139  1  0.357200  0.107590  0.749700  1.0  0.9124
  Cu  Cu140  1  0.357200  0.607590  0.249700  1.0  0.9124
  Cu  Cu141  1  0.142800  0.107590  0.750300  1.0  0.9113
  Cu  Cu142  1  0.142800  0.607590  0.250300  1.0  0.9113
  Cu  Cu143  1  0.642800  0.107590  0.250300  1.0  0.9113
  Cu  Cu144  1  0.642800  0.607590  0.750300  1.0  0.9113
  Cu  Cu145  1  0.357200  0.250300  0.607590  1.0  0.9111
  Cu  Cu146  1  0.357200  0.750300  0.107590  1.0  0.9111
  Cu  Cu147  1  0.857200  0.250300  0.107590  1.0  0.9111
  Cu  Cu148  1  0.857200  0.750300  0.607590  1.0  0.9111
  Cu  Cu149  1  0.642800  0.749700  0.607590  1.0  0.9094
  Cu  Cu150  1  0.642800  0.249700  0.107590  1.0  0.9094
  Cu  Cu151  1  0.142800  0.749700  0.107590  1.0  0.9094
  Cu  Cu152  1  0.142800  0.249700  0.607590  1.0  0.9094
  Cu  Cu153  1  0.357200  0.749700  0.392410  1.0  0.911
  Cu  Cu154  1  0.357200  0.249700  0.892410  1.0  0.911
  Cu  Cu155  1  0.857200  0.749700  0.892410  1.0  0.911
  Cu  Cu156  1  0.857200  0.249700  0.392410  1.0  0.911
  Cu  Cu157  1  0.642800  0.250300  0.392410  1.0  0.9106
  Cu  Cu158  1  0.642800  0.750300  0.892410  1.0  0.9106
  Cu  Cu159  1  0.142800  0.250300  0.892410  1.0  0.9106
  Cu  Cu160  1  0.142800  0.750300  0.392410  1.0  0.9106
  Cu  Cu161  1  0.250300  0.392410  0.642800  1.0  0.9118
  Cu  Cu162  1  0.250300  0.892410  0.142800  1.0  0.9118
  Cu  Cu163  1  0.750300  0.392410  0.142800  1.0  0.9118
  Cu  Cu164  1  0.750300  0.892410  0.642800  1.0  0.9118
  Cu  Cu165  1  0.749700  0.392410  0.357200  1.0  0.9109
  Cu  Cu166  1  0.749700  0.892410  0.857200  1.0  0.9109
  Cu  Cu167  1  0.249700  0.392410  0.857200  1.0  0.9109
  Cu  Cu168  1  0.249700  0.892410  0.357200  1.0  0.9109
  Cu  Cu169  1  0.749700  0.607590  0.642800  1.0  0.9107
  Cu  Cu170  1  0.749700  0.107590  0.142800  1.0  0.9107
  Cu  Cu171  1  0.249700  0.607590  0.142800  1.0  0.9107
  Cu  Cu172  1  0.249700  0.107590  0.642800  1.0  0.9107
  Cu  Cu173  1  0.250300  0.607590  0.357200  1.0  0.9106
  Cu  Cu174  1  0.250300  0.107590  0.857200  1.0  0.9106
  Cu  Cu175  1  0.750300  0.607590  0.857200  1.0  0.9106
  Cu  Cu176  1  0.750300  0.107590  0.357200  1.0  0.9106
  Cu  Cu177  1  0.392410  0.357200  0.749700  1.0  0.9112
  Cu  Cu178  1  0.392410  0.857200  0.249700  1.0  0.9112
  Cu  Cu179  1  0.892410  0.357200  0.249700  1.0  0.9112
  Cu  Cu180  1  0.892410  0.857200  0.749700  1.0  0.9112
  Cu  Cu181  1  0.392410  0.642800  0.250300  1.0  0.9133
  Cu  Cu182  1  0.392410  0.142800  0.750300  1.0  0.9133
  Cu  Cu183  1  0.892410  0.642800  0.750300  1.0  0.9133
  Cu  Cu184  1  0.892410  0.142800  0.250300  1.0  0.9133
  Cu  Cu185  1  0.607590  0.357200  0.250300  1.0  0.9124
  Cu  Cu186  1  0.607590  0.857200  0.750300  1.0  0.9124
  Cu  Cu187  1  0.107590  0.357200  0.750300  1.0  0.9124
  Cu  Cu188  1  0.107590  0.857200  0.250300  1.0  0.9124
  Cu  Cu189  1  0.607590  0.642800  0.749700  1.0  0.9133
  Cu  Cu190  1  0.607590  0.142800  0.249700  1.0  0.9133
  Cu  Cu191  1  0.107590  0.642800  0.249700  1.0  0.9133
  Cu  Cu192  1  0.107590  0.142800  0.749700  1.0  0.9133
  Cu  Cu193  1  0.390540  0.000000  0.105350  1.0  0.9016
  Cu  Cu194  1  0.354660  0.000000  0.140090  1.0  0.9039
  Cu  Cu195  1  0.390540  0.500000  0.605350  1.0  0.9016
  Cu  Cu196  1  0.354660  0.500000  0.640090  1.0  0.9039
  Cu  Cu197  1  0.890540  0.000000  0.605350  1.0  0.9016
  Cu  Cu198  1  0.854660  0.000000  0.640090  1.0  0.9039
  Cu  Cu199  1  0.890540  0.500000  0.105350  1.0  0.9016
  Cu  Cu200  1  0.854660  0.500000  0.140090  1.0  0.9039
  Cu  Cu201  1  0.609460  0.000000  0.105350  1.0  0.9025
  Cu  Cu202  1  0.645340  0.000000  0.140090  1.0  0.9048
  Cu  Cu203  1  0.609460  0.500000  0.605350  1.0  0.9025
  Cu  Cu204  1  0.645340  0.500000  0.640090  1.0  0.9048
  Cu  Cu205  1  0.109460  0.000000  0.605350  1.0  0.9025
  Cu  Cu206  1  0.145340  0.000000  0.640090  1.0  0.9048
  Cu  Cu207  1  0.109460  0.500000  0.105350  1.0  0.9025
  Cu  Cu208  1  0.145340  0.500000  0.140090  1.0  0.9048
  Cu  Cu209  1  0.609460  0.000000  0.894650  1.0  0.9016
  Cu  Cu210  1  0.645340  0.000000  0.859910  1.0  0.9036
  Cu  Cu211  1  0.609460  0.500000  0.394650  1.0  0.9016
  Cu  Cu212  1  0.645340  0.500000  0.359910  1.0  0.9036
  Cu  Cu213  1  0.109460  0.000000  0.394650  1.0  0.9016
  Cu  Cu214  1  0.145340  0.000000  0.359910  1.0  0.9036
  Cu  Cu215  1  0.109460  0.500000  0.894650  1.0  0.9016
  Cu  Cu216  1  0.145340  0.500000  0.859910  1.0  0.9036
  Cu  Cu217  1  0.390540  0.000000  0.894650  1.0  0.9016
  Cu  Cu218  1  0.354660  0.000000  0.859910  1.0  0.9037
  Cu  Cu219  1  0.390540  0.500000  0.394650  1.0  0.9016
  Cu  Cu220  1  0.354660  0.500000  0.359910  1.0  0.9037
  Cu  Cu221  1  0.890540  0.000000  0.394650  1.0  0.9016
  Cu  Cu222  1  0.854660  0.000000  0.359910  1.0  0.9037
  Cu  Cu223  1  0.890540  0.500000  0.894650  1.0  0.9016
  Cu  Cu224  1  0.854660  0.500000  0.859910  1.0  0.9037
  Cu  Cu225  1  0.105350  0.390540  0.000000  1.0  0.9026
  Cu  Cu226  1  0.140090  0.354660  0.000000  1.0  0.9034
  Cu  Cu227  1  0.105350  0.890540  0.500000  1.0  0.9026
  Cu  Cu228  1  0.140090  0.854660  0.500000  1.0  0.9034
  Cu  Cu229  1  0.605350  0.390540  0.500000  1.0  0.9026
  Cu  Cu230  1  0.640090  0.354660  0.500000  1.0  0.9034
  Cu  Cu231  1  0.605350  0.890540  0.000000  1.0  0.9026
  Cu  Cu232  1  0.640090  0.854660  0.000000  1.0  0.9034
  Cu  Cu233  1  0.105350  0.609460  0.000000  1.0  0.9032
  Cu  Cu234  1  0.140090  0.645340  0.000000  1.0  0.9036
  Cu  Cu235  1  0.105350  0.109460  0.500000  1.0  0.9032
  Cu  Cu236  1  0.140090  0.145340  0.500000  1.0  0.9036
  Cu  Cu237  1  0.605350  0.609460  0.500000  1.0  0.9032
  Cu  Cu238  1  0.640090  0.645340  0.500000  1.0  0.9036
  Cu  Cu239  1  0.605350  0.109460  0.000000  1.0  0.9032
  Cu  Cu240  1  0.640090  0.145340  0.000000  1.0  0.9036
  Cu  Cu241  1  0.894650  0.609460  0.000000  1.0  0.9023
  Cu  Cu242  1  0.859910  0.645340  0.000000  1.0  0.9038
  Cu  Cu243  1  0.894650  0.109460  0.500000  1.0  0.9023
  Cu  Cu244  1  0.859910  0.145340  0.500000  1.0  0.9038
  Cu  Cu245  1  0.394650  0.609460  0.500000  1.0  0.9023
  Cu  Cu246  1  0.359910  0.645340  0.500000  1.0  0.9038
  Cu  Cu247  1  0.394650  0.109460  0.000000  1.0  0.9023
  Cu  Cu248  1  0.359910  0.145340  0.000000  1.0  0.9038
  Cu  Cu249  1  0.894650  0.390540  0.000000  1.0  0.9032
  Cu  Cu250  1  0.859910  0.354660  0.000000  1.0  0.9036
  Cu  Cu251  1  0.894650  0.890540  0.500000  1.0  0.9032
  Cu  Cu252  1  0.859910  0.854660  0.500000  1.0  0.9036
  Cu  Cu253  1  0.394650  0.390540  0.500000  1.0  0.9032
  Cu  Cu254  1  0.359910  0.354660  0.500000  1.0  0.9036
  Cu  Cu255  1  0.394650  0.890540  0.000000  1.0  0.9032
  Cu  Cu256  1  0.359910  0.854660  0.000000  1.0  0.9036
  Cu  Cu257  1  0.000000  0.105350  0.390540  1.0  0.8999
  Cu  Cu258  1  0.000000  0.140090  0.354660  1.0  0.901
  Cu  Cu259  1  0.000000  0.605350  0.890540  1.0  0.8999
  Cu  Cu260  1  0.000000  0.640090  0.854660  1.0  0.901
  Cu  Cu261  1  0.500000  0.105350  0.890540  1.0  0.8999
  Cu  Cu262  1  0.500000  0.140090  0.854660  1.0  0.901
  Cu  Cu263  1  0.500000  0.605350  0.390540  1.0  0.8999
  Cu  Cu264  1  0.500000  0.640090  0.354660  1.0  0.901
  Cu  Cu265  1  0.000000  0.105350  0.609460  1.0  0.9006
  Cu  Cu266  1  0.000000  0.140090  0.645340  1.0  0.9017
  Cu  Cu267  1  0.000000  0.605350  0.109460  1.0  0.9006
  Cu  Cu268  1  0.000000  0.640090  0.145340  1.0  0.9017
  Cu  Cu269  1  0.500000  0.105350  0.109460  1.0  0.9006
  Cu  Cu270  1  0.500000  0.140090  0.145340  1.0  0.9017
  Cu  Cu271  1  0.500000  0.605350  0.609460  1.0  0.9006
  Cu  Cu272  1  0.500000  0.640090  0.645340  1.0  0.9017
  Cu  Cu273  1  0.000000  0.894650  0.609460  1.0  0.9001
  Cu  Cu274  1  0.000000  0.859910  0.645340  1.0  0.9006
  Cu  Cu275  1  0.000000  0.394650  0.109460  1.0  0.9001
  Cu  Cu276  1  0.000000  0.359910  0.145340  1.0  0.9006
  Cu  Cu277  1  0.500000  0.894650  0.109460  1.0  0.9001
  Cu  Cu278  1  0.500000  0.859910  0.145340  1.0  0.9006
  Cu  Cu279  1  0.500000  0.394650  0.609460  1.0  0.9001
  Cu  Cu280  1  0.500000  0.359910  0.645340  1.0  0.9006
  Cu  Cu281  1  0.000000  0.894650  0.390540  1.0  0.9001
  Cu  Cu282  1  0.000000  0.859910  0.354660  1.0  0.9014
  Cu  Cu283  1  0.000000  0.394650  0.890540  1.0  0.9001
  Cu  Cu284  1  0.000000  0.359910  0.854660  1.0  0.9014
  Cu  Cu285  1  0.500000  0.894650  0.890540  1.0  0.9001
  Cu  Cu286  1  0.500000  0.859910  0.854660  1.0  0.9014
  Cu  Cu287  1  0.500000  0.394650  0.390540  1.0  0.9001
  Cu  Cu288  1  0.500000  0.359910  0.354660  1.0  0.9014
  Cu  Cu289  1  0.500000  0.890540  0.394650  1.0  0.8998
  Cu  Cu290  1  0.500000  0.854660  0.359910  1.0  0.9009
  Cu  Cu291  1  0.500000  0.390540  0.894650  1.0  0.8998
  Cu  Cu292  1  0.500000  0.354660  0.859910  1.0  0.9009
  Cu  Cu293  1  0.000000  0.890540  0.894650  1.0  0.8998
  Cu  Cu294  1  0.000000  0.854660  0.859910  1.0  0.9009
  Cu  Cu295  1  0.000000  0.390540  0.394650  1.0  0.8998
  Cu  Cu296  1  0.000000  0.354660  0.359910  1.0  0.9009
  Cu  Cu297  1  0.500000  0.109460  0.394650  1.0  0.8996
  Cu  Cu298  1  0.500000  0.145340  0.359910  1.0  0.9011
  Cu  Cu299  1  0.500000  0.609460  0.894650  1.0  0.8996
  Cu  Cu300  1  0.500000  0.645340  0.859910  1.0  0.9011
  Cu  Cu301  1  0.000000  0.109460  0.894650  1.0  0.8996
  Cu  Cu302  1  0.000000  0.145340  0.859910  1.0  0.9011
  Cu  Cu303  1  0.000000  0.609460  0.394650  1.0  0.8996
  Cu  Cu304  1  0.000000  0.645340  0.359910  1.0  0.9011
  Cu  Cu305  1  0.500000  0.109460  0.605350  1.0  0.9004
  Cu  Cu306  1  0.500000  0.145340  0.640090  1.0  0.9016
  Cu  Cu307  1  0.500000  0.609460  0.105350  1.0  0.9004
  Cu  Cu308  1  0.500000  0.645340  0.140090  1.0  0.9016
  Cu  Cu309  1  0.000000  0.109460  0.105350  1.0  0.9004
  Cu  Cu310  1  0.000000  0.145340  0.140090  1.0  0.9016
  Cu  Cu311  1  0.000000  0.609460  0.605350  1.0  0.9004
  Cu  Cu312  1  0.000000  0.645340  0.640090  1.0  0.9016
  Cu  Cu313  1  0.500000  0.890540  0.605350  1.0  0.8997
  Cu  Cu314  1  0.500000  0.854660  0.640090  1.0  0.901
  Cu  Cu315  1  0.500000  0.390540  0.105350  1.0  0.8997
  Cu  Cu316  1  0.500000  0.354660  0.140090  1.0  0.901
  Cu  Cu317  1  0.000000  0.890540  0.105350  1.0  0.8997
  Cu  Cu318  1  0.000000  0.854660  0.140090  1.0  0.901
  Cu  Cu319  1  0.000000  0.390540  0.605350  1.0  0.8997
  Cu  Cu320  1  0.000000  0.354660  0.640090  1.0  0.901
  Cu  Cu321  1  0.890540  0.605350  0.500000  1.0  0.9022
  Cu  Cu322  1  0.854660  0.640090  0.500000  1.0  0.9045
  Cu  Cu323  1  0.890540  0.105350  0.000000  1.0  0.9022
  Cu  Cu324  1  0.854660  0.140090  0.000000  1.0  0.9045
  Cu  Cu325  1  0.390540  0.605350  0.000000  1.0  0.9022
  Cu  Cu326  1  0.354660  0.640090  0.000000  1.0  0.9045
  Cu  Cu327  1  0.390540  0.105350  0.500000  1.0  0.9022
  Cu  Cu328  1  0.354660  0.140090  0.500000  1.0  0.9045
  Cu  Cu329  1  0.109460  0.605350  0.500000  1.0  0.9033
  Cu  Cu330  1  0.145340  0.640090  0.500000  1.0  0.9052
  Cu  Cu331  1  0.109460  0.105350  0.000000  1.0  0.9033
  Cu  Cu332  1  0.145340  0.140090  0.000000  1.0  0.9052
  Cu  Cu333  1  0.609460  0.605350  0.000000  1.0  0.9033
  Cu  Cu334  1  0.645340  0.640090  0.000000  1.0  0.9052
  Cu  Cu335  1  0.609460  0.105350  0.500000  1.0  0.9033
  Cu  Cu336  1  0.645340  0.140090  0.500000  1.0  0.9052
  Cu  Cu337  1  0.109460  0.394650  0.500000  1.0  0.9029
  Cu  Cu338  1  0.145340  0.359910  0.500000  1.0  0.9042
  Cu  Cu339  1  0.109460  0.894650  0.000000  1.0  0.9029
  Cu  Cu340  1  0.145340  0.859910  0.000000  1.0  0.9042
  Cu  Cu341  1  0.609460  0.394650  0.000000  1.0  0.9029
  Cu  Cu342  1  0.645340  0.359910  0.000000  1.0  0.9042
  Cu  Cu343  1  0.609460  0.894650  0.500000  1.0  0.9029
  Cu  Cu344  1  0.645340  0.859910  0.500000  1.0  0.9042
  Cu  Cu345  1  0.890540  0.394650  0.500000  1.0  0.9035
  Cu  Cu346  1  0.854660  0.359910  0.500000  1.0  0.9042
  Cu  Cu347  1  0.890540  0.894650  0.000000  1.0  0.9035
  Cu  Cu348  1  0.854660  0.859910  0.000000  1.0  0.9042
  Cu  Cu349  1  0.390540  0.394650  0.000000  1.0  0.9035
  Cu  Cu350  1  0.354660  0.359910  0.000000  1.0  0.9042
  Cu  Cu351  1  0.390540  0.894650  0.500000  1.0  0.9035
  Cu  Cu352  1  0.354660  0.859910  0.500000  1.0  0.9042
  Cu  Cu353  1  0.605350  0.500000  0.109460  1.0  0.9024
  Cu  Cu354  1  0.640090  0.500000  0.145340  1.0  0.9033
  Cu  Cu355  1  0.605350  0.000000  0.609460  1.0  0.9024
  Cu  Cu356  1  0.640090  0.000000  0.645340  1.0  0.9033
  Cu  Cu357  1  0.105350  0.500000  0.609460  1.0  0.9024
  Cu  Cu358  1  0.140090  0.500000  0.645340  1.0  0.9033
  Cu  Cu359  1  0.105350  0.000000  0.109460  1.0  0.9024
  Cu  Cu360  1  0.140090  0.000000  0.145340  1.0  0.9033
  Cu  Cu361  1  0.605350  0.500000  0.890540  1.0  0.9017
  Cu  Cu362  1  0.640090  0.500000  0.854660  1.0  0.9025
  Cu  Cu363  1  0.605350  0.000000  0.390540  1.0  0.9017
  Cu  Cu364  1  0.640090  0.000000  0.354660  1.0  0.9025
  Cu  Cu365  1  0.105350  0.500000  0.390540  1.0  0.9017
  Cu  Cu366  1  0.140090  0.500000  0.354660  1.0  0.9025
  Cu  Cu367  1  0.105350  0.000000  0.890540  1.0  0.9017
  Cu  Cu368  1  0.140090  0.000000  0.854660  1.0  0.9025
  Cu  Cu369  1  0.394650  0.500000  0.890540  1.0  0.9015
  Cu  Cu370  1  0.359910  0.500000  0.854660  1.0  0.903
  Cu  Cu371  1  0.394650  0.000000  0.390540  1.0  0.9015
  Cu  Cu372  1  0.359910  0.000000  0.354660  1.0  0.903
  Cu  Cu373  1  0.894650  0.500000  0.390540  1.0  0.9015
  Cu  Cu374  1  0.859910  0.500000  0.354660  1.0  0.903
  Cu  Cu375  1  0.894650  0.000000  0.890540  1.0  0.9015
  Cu  Cu376  1  0.859910  0.000000  0.854660  1.0  0.903
  Cu  Cu377  1  0.394650  0.500000  0.109460  1.0  0.9016
  Cu  Cu378  1  0.359910  0.500000  0.145340  1.0  0.9029
  Cu  Cu379  1  0.394650  0.000000  0.609460  1.0  0.9016
  Cu  Cu380  1  0.359910  0.000000  0.645340  1.0  0.9029
  Cu  Cu381  1  0.894650  0.500000  0.609460  1.0  0.9016
  Cu  Cu382  1  0.859910  0.500000  0.645340  1.0  0.9029
  Cu  Cu383  1  0.894650  0.000000  0.109460  1.0  0.9016
  Cu  Cu384  1  0.859910  0.000000  0.145340  1.0  0.9029
  H  H385  1  0.309500  0.061000  0.112400  1.0  0.1203
  H  H386  1  0.310900  0.117400  0.059600  1.0  0.1149
  H  H387  1  0.364300  0.061700  0.058000  1.0  0.1149
  H  H388  1  0.308400  0.136300  0.190300  1.0  0.1103
  H  H389  1  0.309500  0.561000  0.612400  1.0  0.1203
  H  H390  1  0.310900  0.617400  0.559600  1.0  0.1149
  H  H391  1  0.364300  0.561700  0.558000  1.0  0.1149
  H  H392  1  0.308400  0.636300  0.690300  1.0  0.1103
  H  H393  1  0.809500  0.061000  0.612400  1.0  0.1203
  H  H394  1  0.810900  0.117400  0.559600  1.0  0.1149
  H  H395  1  0.864300  0.061700  0.558000  1.0  0.1149
  H  H396  1  0.808400  0.136300  0.690300  1.0  0.1103
  H  H397  1  0.809500  0.561000  0.112400  1.0  0.1203
  H  H398  1  0.810900  0.617400  0.059600  1.0  0.1149
  H  H399  1  0.864300  0.561700  0.058000  1.0  0.1149
  H  H400  1  0.808400  0.636300  0.190300  1.0  0.1103
  H  H401  1  0.690500  0.939000  0.112400  1.0  0.1201
  H  H402  1  0.689100  0.882600  0.059600  1.0  0.1149
  H  H403  1  0.635700  0.938300  0.058000  1.0  0.115
  H  H404  1  0.691600  0.863700  0.190300  1.0  0.1102
  H  H405  1  0.690500  0.439000  0.612400  1.0  0.1201
  H  H406  1  0.689100  0.382600  0.559600  1.0  0.1149
  H  H407  1  0.635700  0.438300  0.558000  1.0  0.115
  H  H408  1  0.691600  0.363700  0.690300  1.0  0.1102
  H  H409  1  0.190500  0.939000  0.612400  1.0  0.1201
  H  H410  1  0.189100  0.882600  0.559600  1.0  0.1149
  H  H411  1  0.135700  0.938300  0.558000  1.0  0.115
  H  H412  1  0.191600  0.863700  0.690300  1.0  0.1102
  H  H413  1  0.190500  0.439000  0.112400  1.0  0.1201
  H  H414  1  0.189100  0.382600  0.059600  1.0  0.1149
  H  H415  1  0.135700  0.438300  0.058000  1.0  0.115
  H  H416  1  0.191600  0.363700  0.190300  1.0  0.1102
  H  H417  1  0.690500  0.061000  0.887600  1.0  0.1201
  H  H418  1  0.689100  0.117400  0.940400  1.0  0.1151
  H  H419  1  0.635700  0.061700  0.942000  1.0  0.1151
  H  H420  1  0.691600  0.136300  0.809700  1.0  0.1105
  H  H421  1  0.690500  0.561000  0.387600  1.0  0.1201
  H  H422  1  0.689100  0.617400  0.440400  1.0  0.1151
  H  H423  1  0.635700  0.561700  0.442000  1.0  0.1151
  H  H424  1  0.691600  0.636300  0.309700  1.0  0.1105
  H  H425  1  0.190500  0.061000  0.387600  1.0  0.1201
  H  H426  1  0.189100  0.117400  0.440400  1.0  0.1151
  H  H427  1  0.135700  0.061700  0.442000  1.0  0.1151
  H  H428  1  0.191600  0.136300  0.309700  1.0  0.1105
  H  H429  1  0.190500  0.561000  0.887600  1.0  0.1201
  H  H430  1  0.189100  0.617400  0.940400  1.0  0.1151
  H  H431  1  0.135700  0.561700  0.942000  1.0  0.1151
  H  H432  1  0.191600  0.636300  0.809700  1.0  0.1105
  H  H433  1  0.309500  0.939000  0.887600  1.0  0.1197
  H  H434  1  0.310900  0.882600  0.940400  1.0  0.1148
  H  H435  1  0.364300  0.938300  0.942000  1.0  0.115
  H  H436  1  0.308400  0.863700  0.809700  1.0  0.1103
  H  H437  1  0.309500  0.439000  0.387600  1.0  0.1197
  H  H438  1  0.310900  0.382600  0.440400  1.0  0.1148
  H  H439  1  0.364300  0.438300  0.442000  1.0  0.115
  H  H440  1  0.308400  0.363700  0.309700  1.0  0.1103
  H  H441  1  0.809500  0.939000  0.387600  1.0  0.1197
  H  H442  1  0.810900  0.882600  0.440400  1.0  0.1148
  H  H443  1  0.864300  0.938300  0.442000  1.0  0.115
  H  H444  1  0.808400  0.863700  0.309700  1.0  0.1103
  H  H445  1  0.809500  0.439000  0.887600  1.0  0.1197
  H  H446  1  0.810900  0.382600  0.940400  1.0  0.1148
  H  H447  1  0.864300  0.438300  0.942000  1.0  0.115
  H  H448  1  0.808400  0.363700  0.809700  1.0  0.1103
  H  H449  1  0.112400  0.309500  0.061000  1.0  0.1194
  H  H450  1  0.059600  0.310900  0.117400  1.0  0.1157
  H  H451  1  0.058000  0.364300  0.061700  1.0  0.1147
  H  H452  1  0.190300  0.308400  0.136300  1.0  0.1109
  H  H453  1  0.112400  0.809500  0.561000  1.0  0.1194
  H  H454  1  0.059600  0.810900  0.617400  1.0  0.1157
  H  H455  1  0.058000  0.864300  0.561700  1.0  0.1147
  H  H456  1  0.190300  0.808400  0.636300  1.0  0.1109
  H  H457  1  0.612400  0.309500  0.561000  1.0  0.1194
  H  H458  1  0.559600  0.310900  0.617400  1.0  0.1157
  H  H459  1  0.558000  0.364300  0.561700  1.0  0.1147
  H  H460  1  0.690300  0.308400  0.636300  1.0  0.1109
  H  H461  1  0.612400  0.809500  0.061000  1.0  0.1194
  H  H462  1  0.559600  0.810900  0.117400  1.0  0.1157
  H  H463  1  0.558000  0.864300  0.061700  1.0  0.1147
  H  H464  1  0.690300  0.808400  0.136300  1.0  0.1109
  H  H465  1  0.112400  0.690500  0.939000  1.0  0.1194
  H  H466  1  0.059600  0.689100  0.882600  1.0  0.1154
  H  H467  1  0.058000  0.635700  0.938300  1.0  0.1151
  H  H468  1  0.190300  0.691600  0.863700  1.0  0.1107
  H  H469  1  0.112400  0.190500  0.439000  1.0  0.1194
  H  H470  1  0.059600  0.189100  0.382600  1.0  0.1154
  H  H471  1  0.058000  0.135700  0.438300  1.0  0.1151
  H  H472  1  0.190300  0.191600  0.363700  1.0  0.1107
  H  H473  1  0.612400  0.690500  0.439000  1.0  0.1194
  H  H474  1  0.559600  0.689100  0.382600  1.0  0.1154
  H  H475  1  0.558000  0.635700  0.438300  1.0  0.1151
  H  H476  1  0.690300  0.691600  0.363700  1.0  0.1107
  H  H477  1  0.612400  0.190500  0.939000  1.0  0.1194
  H  H478  1  0.559600  0.189100  0.882600  1.0  0.1154
  H  H479  1  0.558000  0.135700  0.938300  1.0  0.1151
  H  H480  1  0.690300  0.191600  0.863700  1.0  0.1107
  H  H481  1  0.887600  0.690500  0.061000  1.0  0.1194
  H  H482  1  0.940400  0.689100  0.117400  1.0  0.1156
  H  H483  1  0.942000  0.635700  0.061700  1.0  0.1152
  H  H484  1  0.809700  0.691600  0.136300  1.0  0.1107
  H  H485  1  0.887600  0.190500  0.561000  1.0  0.1194
  H  H486  1  0.940400  0.189100  0.617400  1.0  0.1156
  H  H487  1  0.942000  0.135700  0.561700  1.0  0.1152
  H  H488  1  0.809700  0.191600  0.636300  1.0  0.1107
  H  H489  1  0.387600  0.690500  0.561000  1.0  0.1194
  H  H490  1  0.440400  0.689100  0.617400  1.0  0.1156
  H  H491  1  0.442000  0.635700  0.561700  1.0  0.1152
  H  H492  1  0.309700  0.691600  0.636300  1.0  0.1107
  H  H493  1  0.387600  0.190500  0.061000  1.0  0.1194
  H  H494  1  0.440400  0.189100  0.117400  1.0  0.1156
  H  H495  1  0.442000  0.135700  0.061700  1.0  0.1152
  H  H496  1  0.309700  0.191600  0.136300  1.0  0.1107
  H  H497  1  0.887600  0.309500  0.939000  1.0  0.1195
  H  H498  1  0.940400  0.310900  0.882600  1.0  0.1154
  H  H499  1  0.942000  0.364300  0.938300  1.0  0.1151
  H  H500  1  0.809700  0.308400  0.863700  1.0  0.1109
  H  H501  1  0.887600  0.809500  0.439000  1.0  0.1195
  H  H502  1  0.940400  0.810900  0.382600  1.0  0.1154
  H  H503  1  0.942000  0.864300  0.438300  1.0  0.1151
  H  H504  1  0.809700  0.808400  0.363700  1.0  0.1109
  H  H505  1  0.387600  0.309500  0.439000  1.0  0.1195
  H  H506  1  0.440400  0.310900  0.382600  1.0  0.1154
  H  H507  1  0.442000  0.364300  0.438300  1.0  0.1151
  H  H508  1  0.309700  0.308400  0.363700  1.0  0.1109
  H  H509  1  0.387600  0.809500  0.939000  1.0  0.1195
  H  H510  1  0.440400  0.810900  0.882600  1.0  0.1154
  H  H511  1  0.442000  0.864300  0.938300  1.0  0.1151
  H  H512  1  0.309700  0.808400  0.863700  1.0  0.1109
  H  H513  1  0.061000  0.112400  0.309500  1.0  0.1192
  H  H514  1  0.117400  0.059600  0.310900  1.0  0.115
  H  H515  1  0.061700  0.058000  0.364300  1.0  0.1159
  H  H516  1  0.136300  0.190300  0.308400  1.0  0.1102
  H  H517  1  0.061000  0.612400  0.809500  1.0  0.1192
  H  H518  1  0.117400  0.559600  0.810900  1.0  0.115
  H  H519  1  0.061700  0.558000  0.864300  1.0  0.1159
  H  H520  1  0.136300  0.690300  0.808400  1.0  0.1102
  H  H521  1  0.561000  0.112400  0.809500  1.0  0.1192
  H  H522  1  0.617400  0.059600  0.810900  1.0  0.115
  H  H523  1  0.561700  0.058000  0.864300  1.0  0.1159
  H  H524  1  0.636300  0.190300  0.808400  1.0  0.1102
  H  H525  1  0.561000  0.612400  0.309500  1.0  0.1192
  H  H526  1  0.617400  0.559600  0.310900  1.0  0.115
  H  H527  1  0.561700  0.558000  0.364300  1.0  0.1159
  H  H528  1  0.636300  0.690300  0.308400  1.0  0.1102
  H  H529  1  0.939000  0.112400  0.690500  1.0  0.1192
  H  H530  1  0.882600  0.059600  0.689100  1.0  0.115
  H  H531  1  0.938300  0.058000  0.635700  1.0  0.1161
  H  H532  1  0.863700  0.190300  0.691600  1.0  0.1101
  H  H533  1  0.939000  0.612400  0.190500  1.0  0.1192
  H  H534  1  0.882600  0.559600  0.189100  1.0  0.115
  H  H535  1  0.938300  0.558000  0.135700  1.0  0.1161
  H  H536  1  0.863700  0.690300  0.191600  1.0  0.1101
  H  H537  1  0.439000  0.112400  0.190500  1.0  0.1192
  H  H538  1  0.382600  0.059600  0.189100  1.0  0.115
  H  H539  1  0.438300  0.058000  0.135700  1.0  0.1161
  H  H540  1  0.363700  0.190300  0.191600  1.0  0.1101
  H  H541  1  0.439000  0.612400  0.690500  1.0  0.1192
  H  H542  1  0.382600  0.559600  0.689100  1.0  0.115
  H  H543  1  0.438300  0.558000  0.635700  1.0  0.1161
  H  H544  1  0.363700  0.690300  0.691600  1.0  0.1101
  H  H545  1  0.061000  0.887600  0.690500  1.0  0.119
  H  H546  1  0.117400  0.940400  0.689100  1.0  0.1153
  H  H547  1  0.061700  0.942000  0.635700  1.0  0.1154
  H  H548  1  0.136300  0.809700  0.691600  1.0  0.1102
  H  H549  1  0.061000  0.387600  0.190500  1.0  0.119
  H  H550  1  0.117400  0.440400  0.189100  1.0  0.1153
  H  H551  1  0.061700  0.442000  0.135700  1.0  0.1154
  H  H552  1  0.136300  0.309700  0.191600  1.0  0.1102
  H  H553  1  0.561000  0.887600  0.190500  1.0  0.119
  H  H554  1  0.617400  0.940400  0.189100  1.0  0.1153
  H  H555  1  0.561700  0.942000  0.135700  1.0  0.1154
  H  H556  1  0.636300  0.809700  0.191600  1.0  0.1102
  H  H557  1  0.561000  0.387600  0.690500  1.0  0.119
  H  H558  1  0.617400  0.440400  0.689100  1.0  0.1153
  H  H559  1  0.561700  0.442000  0.635700  1.0  0.1154
  H  H560  1  0.636300  0.309700  0.691600  1.0  0.1102
  H  H561  1  0.939000  0.887600  0.309500  1.0  0.119
  H  H562  1  0.882600  0.940400  0.310900  1.0  0.1151
  H  H563  1  0.938300  0.942000  0.364300  1.0  0.1158
  H  H564  1  0.863700  0.809700  0.308400  1.0  0.1101
  H  H565  1  0.939000  0.387600  0.809500  1.0  0.119
  H  H566  1  0.882600  0.440400  0.810900  1.0  0.1151
  H  H567  1  0.938300  0.442000  0.864300  1.0  0.1158
  H  H568  1  0.863700  0.309700  0.808400  1.0  0.1101
  H  H569  1  0.439000  0.887600  0.809500  1.0  0.119
  H  H570  1  0.382600  0.940400  0.810900  1.0  0.1151
  H  H571  1  0.438300  0.942000  0.864300  1.0  0.1158
  H  H572  1  0.363700  0.809700  0.808400  1.0  0.1101
  H  H573  1  0.439000  0.387600  0.309500  1.0  0.119
  H  H574  1  0.382600  0.440400  0.310900  1.0  0.1151
  H  H575  1  0.438300  0.442000  0.364300  1.0  0.1158
  H  H576  1  0.363700  0.309700  0.308400  1.0  0.1101
  H  H577  1  0.561000  0.809500  0.387600  1.0  0.12
  H  H578  1  0.617400  0.810900  0.440400  1.0  0.1152
  H  H579  1  0.561700  0.864300  0.442000  1.0  0.1149
  H  H580  1  0.636300  0.808400  0.309700  1.0  0.1103
  H  H581  1  0.561000  0.309500  0.887600  1.0  0.12
  H  H582  1  0.617400  0.310900  0.940400  1.0  0.1152
  H  H583  1  0.561700  0.364300  0.942000  1.0  0.1149
  H  H584  1  0.636300  0.308400  0.809700  1.0  0.1103
  H  H585  1  0.061000  0.809500  0.887600  1.0  0.12
  H  H586  1  0.117400  0.810900  0.940400  1.0  0.1152
  H  H587  1  0.061700  0.864300  0.942000  1.0  0.1149
  H  H588  1  0.136300  0.808400  0.809700  1.0  0.1103
  H  H589  1  0.061000  0.309500  0.387600  1.0  0.12
  H  H590  1  0.117400  0.310900  0.440400  1.0  0.1152
  H  H591  1  0.061700  0.364300  0.442000  1.0  0.1149
  H  H592  1  0.136300  0.308400  0.309700  1.0  0.1103
  H  H593  1  0.439000  0.190500  0.387600  1.0  0.1199
  H  H594  1  0.382600  0.189100  0.440400  1.0  0.1152
  H  H595  1  0.438300  0.135700  0.442000  1.0  0.115
  H  H596  1  0.363700  0.191600  0.309700  1.0  0.1104
  H  H597  1  0.439000  0.690500  0.887600  1.0  0.1199
  H  H598  1  0.382600  0.689100  0.940400  1.0  0.1152
  H  H599  1  0.438300  0.635700  0.942000  1.0  0.115
  H  H600  1  0.363700  0.691600  0.809700  1.0  0.1104
  H  H601  1  0.939000  0.190500  0.887600  1.0  0.1199
  H  H602  1  0.882600  0.189100  0.940400  1.0  0.1152
  H  H603  1  0.938300  0.135700  0.942000  1.0  0.115
  H  H604  1  0.863700  0.191600  0.809700  1.0  0.1104
  H  H605  1  0.939000  0.690500  0.387600  1.0  0.1199
  H  H606  1  0.882600  0.689100  0.440400  1.0  0.1152
  H  H607  1  0.938300  0.635700  0.442000  1.0  0.115
  H  H608  1  0.863700  0.691600  0.309700  1.0  0.1104
  H  H609  1  0.561000  0.190500  0.612400  1.0  0.1201
  H  H610  1  0.617400  0.189100  0.559600  1.0  0.1152
  H  H611  1  0.561700  0.135700  0.558000  1.0  0.1151
  H  H612  1  0.636300  0.191600  0.690300  1.0  0.1102
  H  H613  1  0.561000  0.690500  0.112400  1.0  0.1201
  H  H614  1  0.617400  0.689100  0.059600  1.0  0.1152
  H  H615  1  0.561700  0.635700  0.058000  1.0  0.1151
  H  H616  1  0.636300  0.691600  0.190300  1.0  0.1102
  H  H617  1  0.061000  0.190500  0.112400  1.0  0.1201
  H  H618  1  0.117400  0.189100  0.059600  1.0  0.1152
  H  H619  1  0.061700  0.135700  0.058000  1.0  0.1151
  H  H620  1  0.136300  0.191600  0.190300  1.0  0.1102
  H  H621  1  0.061000  0.690500  0.612400  1.0  0.1201
  H  H622  1  0.117400  0.689100  0.559600  1.0  0.1152
  H  H623  1  0.061700  0.635700  0.558000  1.0  0.1151
  H  H624  1  0.136300  0.691600  0.690300  1.0  0.1102
  H  H625  1  0.439000  0.809500  0.612400  1.0  0.1201
  H  H626  1  0.382600  0.810900  0.559600  1.0  0.115
  H  H627  1  0.438300  0.864300  0.558000  1.0  0.1151
  H  H628  1  0.363700  0.808400  0.690300  1.0  0.1102
  H  H629  1  0.439000  0.309500  0.112400  1.0  0.1201
  H  H630  1  0.382600  0.310900  0.059600  1.0  0.115
  H  H631  1  0.438300  0.364300  0.058000  1.0  0.1151
  H  H632  1  0.363700  0.308400  0.190300  1.0  0.1102
  H  H633  1  0.939000  0.809500  0.112400  1.0  0.1201
  H  H634  1  0.882600  0.810900  0.059600  1.0  0.115
  H  H635  1  0.938300  0.864300  0.058000  1.0  0.1151
  H  H636  1  0.863700  0.808400  0.190300  1.0  0.1102
  H  H637  1  0.939000  0.309500  0.612400  1.0  0.1201
  H  H638  1  0.882600  0.310900  0.559600  1.0  0.115
  H  H639  1  0.938300  0.364300  0.558000  1.0  0.1151
  H  H640  1  0.863700  0.308400  0.690300  1.0  0.1102
  H  H641  1  0.809500  0.612400  0.439000  1.0  0.1193
  H  H642  1  0.810900  0.559600  0.382600  1.0  0.1152
  H  H643  1  0.864300  0.558000  0.438300  1.0  0.1149
  H  H644  1  0.808400  0.690300  0.363700  1.0  0.1108
  H  H645  1  0.809500  0.112400  0.939000  1.0  0.1193
  H  H646  1  0.810900  0.059600  0.882600  1.0  0.1152
  H  H647  1  0.864300  0.058000  0.938300  1.0  0.1149
  H  H648  1  0.808400  0.190300  0.863700  1.0  0.1108
  H  H649  1  0.309500  0.612400  0.939000  1.0  0.1193
  H  H650  1  0.310900  0.559600  0.882600  1.0  0.1152
  H  H651  1  0.364300  0.558000  0.938300  1.0  0.1149
  H  H652  1  0.308400  0.690300  0.863700  1.0  0.1108
  H  H653  1  0.309500  0.112400  0.439000  1.0  0.1193
  H  H654  1  0.310900  0.059600  0.382600  1.0  0.1152
  H  H655  1  0.364300  0.058000  0.438300  1.0  0.1149
  H  H656  1  0.308400  0.190300  0.363700  1.0  0.1108
  H  H657  1  0.190500  0.612400  0.561000  1.0  0.1192
  H  H658  1  0.189100  0.559600  0.617400  1.0  0.1153
  H  H659  1  0.135700  0.558000  0.561700  1.0  0.1151
  H  H660  1  0.191600  0.690300  0.636300  1.0  0.111
  H  H661  1  0.190500  0.112400  0.061000  1.0  0.1192
  H  H662  1  0.189100  0.059600  0.117400  1.0  0.1153
  H  H663  1  0.135700  0.058000  0.061700  1.0  0.1151
  H  H664  1  0.191600  0.190300  0.136300  1.0  0.111
  H  H665  1  0.690500  0.612400  0.061000  1.0  0.1192
  H  H666  1  0.689100  0.559600  0.117400  1.0  0.1153
  H  H667  1  0.635700  0.558000  0.061700  1.0  0.1151
  H  H668  1  0.691600  0.690300  0.136300  1.0  0.111
  H  H669  1  0.690500  0.112400  0.561000  1.0  0.1192
  H  H670  1  0.689100  0.059600  0.617400  1.0  0.1153
  H  H671  1  0.635700  0.058000  0.561700  1.0  0.1151
  H  H672  1  0.691600  0.190300  0.636300  1.0  0.111
  H  H673  1  0.190500  0.387600  0.439000  1.0  0.119
  H  H674  1  0.189100  0.440400  0.382600  1.0  0.1153
  H  H675  1  0.135700  0.442000  0.438300  1.0  0.1149
  H  H676  1  0.191600  0.309700  0.363700  1.0  0.1106
  H  H677  1  0.190500  0.887600  0.939000  1.0  0.119
  H  H678  1  0.189100  0.940400  0.882600  1.0  0.1153
  H  H679  1  0.135700  0.942000  0.938300  1.0  0.1149
  H  H680  1  0.191600  0.809700  0.863700  1.0  0.1106
  H  H681  1  0.690500  0.387600  0.939000  1.0  0.119
  H  H682  1  0.689100  0.440400  0.882600  1.0  0.1153
  H  H683  1  0.635700  0.442000  0.938300  1.0  0.1149
  H  H684  1  0.691600  0.309700  0.863700  1.0  0.1106
  H  H685  1  0.690500  0.887600  0.439000  1.0  0.119
  H  H686  1  0.689100  0.940400  0.382600  1.0  0.1153
  H  H687  1  0.635700  0.942000  0.438300  1.0  0.1149
  H  H688  1  0.691600  0.809700  0.363700  1.0  0.1106
  H  H689  1  0.809500  0.387600  0.561000  1.0  0.1188
  H  H690  1  0.810900  0.440400  0.617400  1.0  0.1153
  H  H691  1  0.864300  0.442000  0.561700  1.0  0.1149
  H  H692  1  0.808400  0.309700  0.636300  1.0  0.1107
  H  H693  1  0.809500  0.887600  0.061000  1.0  0.1188
  H  H694  1  0.810900  0.940400  0.117400  1.0  0.1153
  H  H695  1  0.864300  0.942000  0.061700  1.0  0.1149
  H  H696  1  0.808400  0.809700  0.136300  1.0  0.1107
  H  H697  1  0.309500  0.387600  0.061000  1.0  0.1188
  H  H698  1  0.310900  0.440400  0.117400  1.0  0.1153
  H  H699  1  0.364300  0.442000  0.061700  1.0  0.1149
  H  H700  1  0.308400  0.309700  0.136300  1.0  0.1107
  H  H701  1  0.309500  0.887600  0.561000  1.0  0.1188
  H  H702  1  0.310900  0.940400  0.617400  1.0  0.1153
  H  H703  1  0.364300  0.942000  0.561700  1.0  0.1149
  H  H704  1  0.308400  0.809700  0.636300  1.0  0.1107
  H  H705  1  0.612400  0.561000  0.190500  1.0  0.1195
  H  H706  1  0.559600  0.617400  0.189100  1.0  0.1152
  H  H707  1  0.558000  0.561700  0.135700  1.0  0.1159
  H  H708  1  0.690300  0.636300  0.191600  1.0  0.1103
  H  H709  1  0.612400  0.061000  0.690500  1.0  0.1195
  H  H710  1  0.559600  0.117400  0.689100  1.0  0.1152
  H  H711  1  0.558000  0.061700  0.635700  1.0  0.1159
  H  H712  1  0.690300  0.136300  0.691600  1.0  0.1103
  H  H713  1  0.112400  0.561000  0.690500  1.0  0.1195
  H  H714  1  0.059600  0.617400  0.689100  1.0  0.1152
  H  H715  1  0.058000  0.561700  0.635700  1.0  0.1159
  H  H716  1  0.190300  0.636300  0.691600  1.0  0.1103
  H  H717  1  0.112400  0.061000  0.190500  1.0  0.1195
  H  H718  1  0.059600  0.117400  0.189100  1.0  0.1152
  H  H719  1  0.058000  0.061700  0.135700  1.0  0.1159
  H  H720  1  0.190300  0.136300  0.191600  1.0  0.1103
  H  H721  1  0.612400  0.439000  0.809500  1.0  0.1193
  H  H722  1  0.559600  0.382600  0.810900  1.0  0.1148
  H  H723  1  0.558000  0.438300  0.864300  1.0  0.1156
  H  H724  1  0.690300  0.363700  0.808400  1.0  0.1102
  H  H725  1  0.612400  0.939000  0.309500  1.0  0.1193
  H  H726  1  0.559600  0.882600  0.310900  1.0  0.1148
  H  H727  1  0.558000  0.938300  0.364300  1.0  0.1156
  H  H728  1  0.690300  0.863700  0.308400  1.0  0.1102
  H  H729  1  0.112400  0.439000  0.309500  1.0  0.1193
  H  H730  1  0.059600  0.382600  0.310900  1.0  0.1148
  H  H731  1  0.058000  0.438300  0.364300  1.0  0.1156
  H  H732  1  0.190300  0.363700  0.308400  1.0  0.1102
  H  H733  1  0.112400  0.939000  0.809500  1.0  0.1193
  H  H734  1  0.059600  0.882600  0.810900  1.0  0.1148
  H  H735  1  0.058000  0.938300  0.864300  1.0  0.1156
  H  H736  1  0.190300  0.863700  0.808400  1.0  0.1102
  H  H737  1  0.387600  0.561000  0.809500  1.0  0.1195
  H  H738  1  0.440400  0.617400  0.810900  1.0  0.1149
  H  H739  1  0.442000  0.561700  0.864300  1.0  0.1157
  H  H740  1  0.309700  0.636300  0.808400  1.0  0.1101
  H  H741  1  0.387600  0.061000  0.309500  1.0  0.1195
  H  H742  1  0.440400  0.117400  0.310900  1.0  0.1149
  H  H743  1  0.442000  0.061700  0.364300  1.0  0.1157
  H  H744  1  0.309700  0.136300  0.308400  1.0  0.1101
  H  H745  1  0.887600  0.561000  0.309500  1.0  0.1195
  H  H746  1  0.940400  0.617400  0.310900  1.0  0.1149
  H  H747  1  0.942000  0.561700  0.364300  1.0  0.1157
  H  H748  1  0.809700  0.636300  0.308400  1.0  0.1101
  H  H749  1  0.887600  0.061000  0.809500  1.0  0.1195
  H  H750  1  0.940400  0.117400  0.810900  1.0  0.1149
  H  H751  1  0.942000  0.061700  0.864300  1.0  0.1157
  H  H752  1  0.809700  0.136300  0.808400  1.0  0.1101
  H  H753  1  0.387600  0.439000  0.190500  1.0  0.1194
  H  H754  1  0.440400  0.382600  0.189100  1.0  0.1151
  H  H755  1  0.442000  0.438300  0.135700  1.0  0.1159
  H  H756  1  0.309700  0.363700  0.191600  1.0  0.1103
  H  H757  1  0.387600  0.939000  0.690500  1.0  0.1194
  H  H758  1  0.440400  0.882600  0.689100  1.0  0.1151
  H  H759  1  0.442000  0.938300  0.635700  1.0  0.1159
  H  H760  1  0.309700  0.863700  0.691600  1.0  0.1103
  H  H761  1  0.887600  0.439000  0.690500  1.0  0.1194
  H  H762  1  0.940400  0.382600  0.689100  1.0  0.1151
  H  H763  1  0.942000  0.438300  0.635700  1.0  0.1159
  H  H764  1  0.809700  0.363700  0.691600  1.0  0.1103
  H  H765  1  0.887600  0.939000  0.190500  1.0  0.1194
  H  H766  1  0.940400  0.882600  0.189100  1.0  0.1151
  H  H767  1  0.942000  0.938300  0.135700  1.0  0.1159
  H  H768  1  0.809700  0.863700  0.191600  1.0  0.1103
  H  H769  1  0.690500  0.939000  0.887600  1.0  0.12
  H  H770  1  0.689100  0.882600  0.940400  1.0  0.115
  H  H771  1  0.635700  0.938300  0.942000  1.0  0.1149
  H  H772  1  0.691600  0.863700  0.809700  1.0  0.1104
  H  H773  1  0.690500  0.439000  0.387600  1.0  0.12
  H  H774  1  0.689100  0.382600  0.440400  1.0  0.115
  H  H775  1  0.635700  0.438300  0.442000  1.0  0.1149
  H  H776  1  0.691600  0.363700  0.309700  1.0  0.1104
  H  H777  1  0.190500  0.939000  0.387600  1.0  0.12
  H  H778  1  0.189100  0.882600  0.440400  1.0  0.115
  H  H779  1  0.135700  0.938300  0.442000  1.0  0.1149
  H  H780  1  0.191600  0.863700  0.309700  1.0  0.1104
  H  H781  1  0.190500  0.439000  0.887600  1.0  0.12
  H  H782  1  0.189100  0.382600  0.940400  1.0  0.115
  H  H783  1  0.135700  0.438300  0.942000  1.0  0.1149
  H  H784  1  0.191600  0.363700  0.809700  1.0  0.1104
  H  H785  1  0.309500  0.061000  0.887600  1.0  0.12
  H  H786  1  0.310900  0.117400  0.940400  1.0  0.1151
  H  H787  1  0.364300  0.061700  0.942000  1.0  0.115
  H  H788  1  0.308400  0.136300  0.809700  1.0  0.1103
  H  H789  1  0.309500  0.561000  0.387600  1.0  0.12
  H  H790  1  0.310900  0.617400  0.440400  1.0  0.1151
  H  H791  1  0.364300  0.561700  0.442000  1.0  0.115
  H  H792  1  0.308400  0.636300  0.309700  1.0  0.1103
  H  H793  1  0.809500  0.061000  0.387600  1.0  0.12
  H  H794  1  0.810900  0.117400  0.440400  1.0  0.1151
  H  H795  1  0.864300  0.061700  0.442000  1.0  0.115
  H  H796  1  0.808400  0.136300  0.309700  1.0  0.1103
  H  H797  1  0.809500  0.561000  0.887600  1.0  0.12
  H  H798  1  0.810900  0.617400  0.940400  1.0  0.1151
  H  H799  1  0.864300  0.561700  0.942000  1.0  0.115
  H  H800  1  0.808400  0.636300  0.809700  1.0  0.1103
  H  H801  1  0.309500  0.939000  0.112400  1.0  0.1201
  H  H802  1  0.310900  0.882600  0.059600  1.0  0.1146
  H  H803  1  0.364300  0.938300  0.058000  1.0  0.115
  H  H804  1  0.308400  0.863700  0.190300  1.0  0.1104
  H  H805  1  0.309500  0.439000  0.612400  1.0  0.1201
  H  H806  1  0.310900  0.382600  0.559600  1.0  0.1146
  H  H807  1  0.364300  0.438300  0.558000  1.0  0.115
  H  H808  1  0.308400  0.363700  0.690300  1.0  0.1104
  H  H809  1  0.809500  0.939000  0.612400  1.0  0.1201
  H  H810  1  0.810900  0.882600  0.559600  1.0  0.1146
  H  H811  1  0.864300  0.938300  0.558000  1.0  0.115
  H  H812  1  0.808400  0.863700  0.690300  1.0  0.1104
  H  H813  1  0.809500  0.439000  0.112400  1.0  0.1201
  H  H814  1  0.810900  0.382600  0.059600  1.0  0.1146
  H  H815  1  0.864300  0.438300  0.058000  1.0  0.115
  H  H816  1  0.808400  0.363700  0.190300  1.0  0.1104
  H  H817  1  0.690500  0.061000  0.112400  1.0  0.1201
  H  H818  1  0.689100  0.117400  0.059600  1.0  0.1148
  H  H819  1  0.635700  0.061700  0.058000  1.0  0.1151
  H  H820  1  0.691600  0.136300  0.190300  1.0  0.1104
  H  H821  1  0.690500  0.561000  0.612400  1.0  0.1201
  H  H822  1  0.689100  0.617400  0.559600  1.0  0.1148
  H  H823  1  0.635700  0.561700  0.558000  1.0  0.1151
  H  H824  1  0.691600  0.636300  0.690300  1.0  0.1104
  H  H825  1  0.190500  0.061000  0.612400  1.0  0.1201
  H  H826  1  0.189100  0.117400  0.559600  1.0  0.1148
  H  H827  1  0.135700  0.061700  0.558000  1.0  0.1151
  H  H828  1  0.191600  0.136300  0.690300  1.0  0.1104
  H  H829  1  0.190500  0.561000  0.112400  1.0  0.1201
  H  H830  1  0.189100  0.617400  0.059600  1.0  0.1148
  H  H831  1  0.135700  0.561700  0.058000  1.0  0.1151
  H  H832  1  0.191600  0.636300  0.190300  1.0  0.1104
  H  H833  1  0.887600  0.690500  0.939000  1.0  0.1194
  H  H834  1  0.940400  0.689100  0.882600  1.0  0.1155
  H  H835  1  0.942000  0.635700  0.938300  1.0  0.115
  H  H836  1  0.809700  0.691600  0.863700  1.0  0.1108
  H  H837  1  0.887600  0.190500  0.439000  1.0  0.1194
  H  H838  1  0.940400  0.189100  0.382600  1.0  0.1155
  H  H839  1  0.942000  0.135700  0.438300  1.0  0.115
  H  H840  1  0.809700  0.191600  0.363700  1.0  0.1108
  H  H841  1  0.387600  0.690500  0.439000  1.0  0.1194
  H  H842  1  0.440400  0.689100  0.382600  1.0  0.1155
  H  H843  1  0.442000  0.635700  0.438300  1.0  0.115
  H  H844  1  0.309700  0.691600  0.363700  1.0  0.1108
  H  H845  1  0.387600  0.190500  0.939000  1.0  0.1194
  H  H846  1  0.440400  0.189100  0.882600  1.0  0.1155
  H  H847  1  0.442000  0.135700  0.938300  1.0  0.115
  H  H848  1  0.309700  0.191600  0.863700  1.0  0.1108
  H  H849  1  0.887600  0.309500  0.061000  1.0  0.1195
  H  H850  1  0.940400  0.310900  0.117400  1.0  0.1155
  H  H851  1  0.942000  0.364300  0.061700  1.0  0.115
  H  H852  1  0.809700  0.308400  0.136300  1.0  0.1108
  H  H853  1  0.887600  0.809500  0.561000  1.0  0.1195
  H  H854  1  0.940400  0.810900  0.617400  1.0  0.1155
  H  H855  1  0.942000  0.864300  0.561700  1.0  0.115
  H  H856  1  0.809700  0.808400  0.636300  1.0  0.1108
  H  H857  1  0.387600  0.309500  0.561000  1.0  0.1195
  H  H858  1  0.440400  0.310900  0.617400  1.0  0.1155
  H  H859  1  0.442000  0.364300  0.561700  1.0  0.115
  H  H860  1  0.309700  0.308400  0.636300  1.0  0.1108
  H  H861  1  0.387600  0.809500  0.061000  1.0  0.1195
  H  H862  1  0.440400  0.810900  0.117400  1.0  0.1155
  H  H863  1  0.442000  0.864300  0.061700  1.0  0.115
  H  H864  1  0.309700  0.808400  0.136300  1.0  0.1108
  H  H865  1  0.112400  0.309500  0.939000  1.0  0.1195
  H  H866  1  0.059600  0.310900  0.882600  1.0  0.1155
  H  H867  1  0.058000  0.364300  0.938300  1.0  0.1149
  H  H868  1  0.190300  0.308400  0.863700  1.0  0.1106
  H  H869  1  0.112400  0.809500  0.439000  1.0  0.1195
  H  H870  1  0.059600  0.810900  0.382600  1.0  0.1155
  H  H871  1  0.058000  0.864300  0.438300  1.0  0.1149
  H  H872  1  0.190300  0.808400  0.363700  1.0  0.1106
  H  H873  1  0.612400  0.309500  0.439000  1.0  0.1195
  H  H874  1  0.559600  0.310900  0.382600  1.0  0.1155
  H  H875  1  0.558000  0.364300  0.438300  1.0  0.1149
  H  H876  1  0.690300  0.308400  0.363700  1.0  0.1106
  H  H877  1  0.612400  0.809500  0.939000  1.0  0.1195
  H  H878  1  0.559600  0.810900  0.882600  1.0  0.1155
  H  H879  1  0.558000  0.864300  0.938300  1.0  0.1149
  H  H880  1  0.690300  0.808400  0.863700  1.0  0.1106
  H  H881  1  0.112400  0.690500  0.061000  1.0  0.1193
  H  H882  1  0.059600  0.689100  0.117400  1.0  0.1155
  H  H883  1  0.058000  0.635700  0.061700  1.0  0.1151
  H  H884  1  0.190300  0.691600  0.136300  1.0  0.1109
  H  H885  1  0.112400  0.190500  0.561000  1.0  0.1193
  H  H886  1  0.059600  0.189100  0.617400  1.0  0.1155
  H  H887  1  0.058000  0.135700  0.561700  1.0  0.1151
  H  H888  1  0.190300  0.191600  0.636300  1.0  0.1109
  H  H889  1  0.612400  0.690500  0.561000  1.0  0.1193
  H  H890  1  0.559600  0.689100  0.617400  1.0  0.1155
  H  H891  1  0.558000  0.635700  0.561700  1.0  0.1151
  H  H892  1  0.690300  0.691600  0.636300  1.0  0.1109
  H  H893  1  0.612400  0.190500  0.061000  1.0  0.1193
  H  H894  1  0.559600  0.189100  0.117400  1.0  0.1155
  H  H895  1  0.558000  0.135700  0.061700  1.0  0.1151
  H  H896  1  0.690300  0.191600  0.136300  1.0  0.1109
  H  H897  1  0.939000  0.887600  0.690500  1.0  0.119
  H  H898  1  0.882600  0.940400  0.689100  1.0  0.1151
  H  H899  1  0.938300  0.942000  0.635700  1.0  0.1159
  H  H900  1  0.863700  0.809700  0.691600  1.0  0.1101
  H  H901  1  0.939000  0.387600  0.190500  1.0  0.119
  H  H902  1  0.882600  0.440400  0.189100  1.0  0.1151
  H  H903  1  0.938300  0.442000  0.135700  1.0  0.1159
  H  H904  1  0.863700  0.309700  0.191600  1.0  0.1101
  H  H905  1  0.439000  0.887600  0.190500  1.0  0.119
  H  H906  1  0.382600  0.940400  0.189100  1.0  0.1151
  H  H907  1  0.438300  0.942000  0.135700  1.0  0.1159
  H  H908  1  0.363700  0.809700  0.191600  1.0  0.1101
  H  H909  1  0.439000  0.387600  0.690500  1.0  0.119
  H  H910  1  0.382600  0.440400  0.689100  1.0  0.1151
  H  H911  1  0.438300  0.442000  0.635700  1.0  0.1159
  H  H912  1  0.363700  0.309700  0.691600  1.0  0.1101
  H  H913  1  0.061000  0.887600  0.309500  1.0  0.1188
  H  H914  1  0.117400  0.940400  0.310900  1.0  0.1152
  H  H915  1  0.061700  0.942000  0.364300  1.0  0.1156
  H  H916  1  0.136300  0.809700  0.308400  1.0  0.1101
  H  H917  1  0.061000  0.387600  0.809500  1.0  0.1188
  H  H918  1  0.117400  0.440400  0.810900  1.0  0.1152
  H  H919  1  0.061700  0.442000  0.864300  1.0  0.1156
  H  H920  1  0.136300  0.309700  0.808400  1.0  0.1101
  H  H921  1  0.561000  0.887600  0.809500  1.0  0.1188
  H  H922  1  0.617400  0.940400  0.810900  1.0  0.1152
  H  H923  1  0.561700  0.942000  0.864300  1.0  0.1156
  H  H924  1  0.636300  0.809700  0.808400  1.0  0.1101
  H  H925  1  0.561000  0.387600  0.309500  1.0  0.1188
  H  H926  1  0.617400  0.440400  0.310900  1.0  0.1152
  H  H927  1  0.561700  0.442000  0.364300  1.0  0.1156
  H  H928  1  0.636300  0.309700  0.308400  1.0  0.1101
  H  H929  1  0.939000  0.112400  0.309500  1.0  0.1192
  H  H930  1  0.882600  0.059600  0.310900  1.0  0.115
  H  H931  1  0.938300  0.058000  0.364300  1.0  0.1157
  H  H932  1  0.863700  0.190300  0.308400  1.0  0.1102
  H  H933  1  0.939000  0.612400  0.809500  1.0  0.1192
  H  H934  1  0.882600  0.559600  0.810900  1.0  0.115
  H  H935  1  0.938300  0.558000  0.864300  1.0  0.1157
  H  H936  1  0.863700  0.690300  0.808400  1.0  0.1102
  H  H937  1  0.439000  0.112400  0.809500  1.0  0.1192
  H  H938  1  0.382600  0.059600  0.810900  1.0  0.115
  H  H939  1  0.438300  0.058000  0.864300  1.0  0.1157
  H  H940  1  0.363700  0.190300  0.808400  1.0  0.1102
  H  H941  1  0.439000  0.612400  0.309500  1.0  0.1192
  H  H942  1  0.382600  0.559600  0.310900  1.0  0.115
  H  H943  1  0.438300  0.558000  0.364300  1.0  0.1157
  H  H944  1  0.363700  0.690300  0.308400  1.0  0.1102
  H  H945  1  0.061000  0.112400  0.690500  1.0  0.1194
  H  H946  1  0.117400  0.059600  0.689100  1.0  0.1151
  H  H947  1  0.061700  0.058000  0.635700  1.0  0.1159
  H  H948  1  0.136300  0.190300  0.691600  1.0  0.1101
  H  H949  1  0.061000  0.612400  0.190500  1.0  0.1194
  H  H950  1  0.117400  0.559600  0.189100  1.0  0.1151
  H  H951  1  0.061700  0.558000  0.135700  1.0  0.1159
  H  H952  1  0.136300  0.690300  0.191600  1.0  0.1101
  H  H953  1  0.561000  0.112400  0.190500  1.0  0.1194
  H  H954  1  0.617400  0.059600  0.189100  1.0  0.1151
  H  H955  1  0.561700  0.058000  0.135700  1.0  0.1159
  H  H956  1  0.636300  0.190300  0.191600  1.0  0.1101
  H  H957  1  0.561000  0.612400  0.690500  1.0  0.1194
  H  H958  1  0.617400  0.559600  0.689100  1.0  0.1151
  H  H959  1  0.561700  0.558000  0.635700  1.0  0.1159
  H  H960  1  0.636300  0.690300  0.691600  1.0  0.1101
  H  H961  1  0.439000  0.190500  0.612400  1.0  0.1201
  H  H962  1  0.382600  0.189100  0.559600  1.0  0.1151
  H  H963  1  0.438300  0.135700  0.558000  1.0  0.1152
  H  H964  1  0.363700  0.191600  0.690300  1.0  0.1102
  H  H965  1  0.439000  0.690500  0.112400  1.0  0.1201
  H  H966  1  0.382600  0.689100  0.059600  1.0  0.1151
  H  H967  1  0.438300  0.635700  0.058000  1.0  0.1152
  H  H968  1  0.363700  0.691600  0.190300  1.0  0.1102
  H  H969  1  0.939000  0.190500  0.112400  1.0  0.1201
  H  H970  1  0.882600  0.189100  0.059600  1.0  0.1151
  H  H971  1  0.938300  0.135700  0.058000  1.0  0.1152
  H  H972  1  0.863700  0.191600  0.190300  1.0  0.1102
  H  H973  1  0.939000  0.690500  0.612400  1.0  0.1201
  H  H974  1  0.882600  0.689100  0.559600  1.0  0.1151
  H  H975  1  0.938300  0.635700  0.558000  1.0  0.1152
  H  H976  1  0.863700  0.691600  0.690300  1.0  0.1102
  H  H977  1  0.561000  0.809500  0.612400  1.0  0.1203
  H  H978  1  0.617400  0.810900  0.559600  1.0  0.115
  H  H979  1  0.561700  0.864300  0.558000  1.0  0.1148
  H  H980  1  0.636300  0.808400  0.690300  1.0  0.1103
  H  H981  1  0.561000  0.309500  0.112400  1.0  0.1203
  H  H982  1  0.617400  0.310900  0.059600  1.0  0.115
  H  H983  1  0.561700  0.364300  0.058000  1.0  0.1148
  H  H984  1  0.636300  0.308400  0.190300  1.0  0.1103
  H  H985  1  0.061000  0.809500  0.112400  1.0  0.1203
  H  H986  1  0.117400  0.810900  0.059600  1.0  0.115
  H  H987  1  0.061700  0.864300  0.058000  1.0  0.1148
  H  H988  1  0.136300  0.808400  0.190300  1.0  0.1103
  H  H989  1  0.061000  0.309500  0.612400  1.0  0.1203
  H  H990  1  0.117400  0.310900  0.559600  1.0  0.115
  H  H991  1  0.061700  0.364300  0.558000  1.0  0.1148
  H  H992  1  0.136300  0.308400  0.690300  1.0  0.1103
  H  H993  1  0.439000  0.809500  0.387600  1.0  0.1201
  H  H994  1  0.382600  0.810900  0.440400  1.0  0.1151
  H  H995  1  0.438300  0.864300  0.442000  1.0  0.1152
  H  H996  1  0.363700  0.808400  0.309700  1.0  0.1103
  H  H997  1  0.439000  0.309500  0.887600  1.0  0.1201
  H  H998  1  0.382600  0.310900  0.940400  1.0  0.1151
  H  H999  1  0.438300  0.364300  0.942000  1.0  0.1152
  H  H1000  1  0.363700  0.308400  0.809700  1.0  0.1103
  H  H1001  1  0.939000  0.809500  0.887600  1.0  0.1201
  H  H1002  1  0.882600  0.810900  0.940400  1.0  0.1151
  H  H1003  1  0.938300  0.864300  0.942000  1.0  0.1152
  H  H1004  1  0.863700  0.808400  0.809700  1.0  0.1103
  H  H1005  1  0.939000  0.309500  0.387600  1.0  0.1201
  H  H1006  1  0.882600  0.310900  0.440400  1.0  0.1151
  H  H1007  1  0.938300  0.364300  0.442000  1.0  0.1152
  H  H1008  1  0.863700  0.308400  0.309700  1.0  0.1103
  H  H1009  1  0.561000  0.190500  0.387600  1.0  0.1197
  H  H1010  1  0.617400  0.189100  0.440400  1.0  0.1154
  H  H1011  1  0.561700  0.135700  0.442000  1.0  0.1152
  H  H1012  1  0.636300  0.191600  0.309700  1.0  0.1103
  H  H1013  1  0.561000  0.690500  0.887600  1.0  0.1197
  H  H1014  1  0.617400  0.689100  0.940400  1.0  0.1154
  H  H1015  1  0.561700  0.635700  0.942000  1.0  0.1152
  H  H1016  1  0.636300  0.691600  0.809700  1.0  0.1103
  H  H1017  1  0.061000  0.190500  0.887600  1.0  0.1197
  H  H1018  1  0.117400  0.189100  0.940400  1.0  0.1154
  H  H1019  1  0.061700  0.135700  0.942000  1.0  0.1152
  H  H1020  1  0.136300  0.191600  0.809700  1.0  0.1103
  H  H1021  1  0.061000  0.690500  0.387600  1.0  0.1197
  H  H1022  1  0.117400  0.689100  0.440400  1.0  0.1154
  H  H1023  1  0.061700  0.635700  0.442000  1.0  0.1152
  H  H1024  1  0.136300  0.691600  0.309700  1.0  0.1103
  H  H1025  1  0.190500  0.387600  0.561000  1.0  0.119
  H  H1026  1  0.189100  0.440400  0.617400  1.0  0.1154
  H  H1027  1  0.135700  0.442000  0.561700  1.0  0.1149
  H  H1028  1  0.191600  0.309700  0.636300  1.0  0.1109
  H  H1029  1  0.190500  0.887600  0.061000  1.0  0.119
  H  H1030  1  0.189100  0.940400  0.117400  1.0  0.1154
  H  H1031  1  0.135700  0.942000  0.061700  1.0  0.1149
  H  H1032  1  0.191600  0.809700  0.136300  1.0  0.1109
  H  H1033  1  0.690500  0.387600  0.061000  1.0  0.119
  H  H1034  1  0.689100  0.440400  0.117400  1.0  0.1154
  H  H1035  1  0.635700  0.442000  0.061700  1.0  0.1149
  H  H1036  1  0.691600  0.309700  0.136300  1.0  0.1109
  H  H1037  1  0.690500  0.887600  0.561000  1.0  0.119
  H  H1038  1  0.689100  0.940400  0.617400  1.0  0.1154
  H  H1039  1  0.635700  0.942000  0.561700  1.0  0.1149
  H  H1040  1  0.691600  0.809700  0.636300  1.0  0.1109
  H  H1041  1  0.809500  0.387600  0.439000  1.0  0.119
  H  H1042  1  0.810900  0.440400  0.382600  1.0  0.1152
  H  H1043  1  0.864300  0.442000  0.438300  1.0  0.115
  H  H1044  1  0.808400  0.309700  0.363700  1.0  0.1109
  H  H1045  1  0.809500  0.887600  0.939000  1.0  0.119
  H  H1046  1  0.810900  0.940400  0.882600  1.0  0.1152
  H  H1047  1  0.864300  0.942000  0.938300  1.0  0.115
  H  H1048  1  0.808400  0.809700  0.863700  1.0  0.1109
  H  H1049  1  0.309500  0.387600  0.939000  1.0  0.119
  H  H1050  1  0.310900  0.440400  0.882600  1.0  0.1152
  H  H1051  1  0.364300  0.442000  0.938300  1.0  0.115
  H  H1052  1  0.308400  0.309700  0.863700  1.0  0.1109
  H  H1053  1  0.309500  0.887600  0.439000  1.0  0.119
  H  H1054  1  0.310900  0.940400  0.382600  1.0  0.1152
  H  H1055  1  0.364300  0.942000  0.438300  1.0  0.115
  H  H1056  1  0.308400  0.809700  0.363700  1.0  0.1109
  H  H1057  1  0.809500  0.612400  0.561000  1.0  0.1192
  H  H1058  1  0.810900  0.559600  0.617400  1.0  0.1154
  H  H1059  1  0.864300  0.558000  0.561700  1.0  0.1149
  H  H1060  1  0.808400  0.690300  0.636300  1.0  0.1107
  H  H1061  1  0.809500  0.112400  0.061000  1.0  0.1192
  H  H1062  1  0.810900  0.059600  0.117400  1.0  0.1154
  H  H1063  1  0.864300  0.058000  0.061700  1.0  0.1149
  H  H1064  1  0.808400  0.190300  0.136300  1.0  0.1107
  H  H1065  1  0.309500  0.612400  0.061000  1.0  0.1192
  H  H1066  1  0.310900  0.559600  0.117400  1.0  0.1154
  H  H1067  1  0.364300  0.558000  0.061700  1.0  0.1149
  H  H1068  1  0.308400  0.690300  0.136300  1.0  0.1107
  H  H1069  1  0.309500  0.112400  0.561000  1.0  0.1192
  H  H1070  1  0.310900  0.059600  0.617400  1.0  0.1154
  H  H1071  1  0.364300  0.058000  0.561700  1.0  0.1149
  H  H1072  1  0.308400  0.190300  0.636300  1.0  0.1107
  H  H1073  1  0.190500  0.612400  0.439000  1.0  0.1192
  H  H1074  1  0.189100  0.559600  0.382600  1.0  0.1153
  H  H1075  1  0.135700  0.558000  0.438300  1.0  0.1151
  H  H1076  1  0.191600  0.690300  0.363700  1.0  0.1107
  H  H1077  1  0.190500  0.112400  0.939000  1.0  0.1192
  H  H1078  1  0.189100  0.059600  0.882600  1.0  0.1153
  H  H1079  1  0.135700  0.058000  0.938300  1.0  0.1151
  H  H1080  1  0.191600  0.190300  0.863700  1.0  0.1107
  H  H1081  1  0.690500  0.612400  0.939000  1.0  0.1192
  H  H1082  1  0.689100  0.559600  0.882600  1.0  0.1153
  H  H1083  1  0.635700  0.558000  0.938300  1.0  0.1151
  H  H1084  1  0.691600  0.690300  0.863700  1.0  0.1107
  H  H1085  1  0.690500  0.112400  0.439000  1.0  0.1192
  H  H1086  1  0.689100  0.059600  0.382600  1.0  0.1153
  H  H1087  1  0.635700  0.058000  0.438300  1.0  0.1151
  H  H1088  1  0.691600  0.190300  0.363700  1.0  0.1107
  H  H1089  1  0.387600  0.439000  0.809500  1.0  0.1194
  H  H1090  1  0.440400  0.382600  0.810900  1.0  0.115
  H  H1091  1  0.442000  0.438300  0.864300  1.0  0.1158
  H  H1092  1  0.309700  0.363700  0.808400  1.0  0.1102
  H  H1093  1  0.387600  0.939000  0.309500  1.0  0.1194
  H  H1094  1  0.440400  0.882600  0.310900  1.0  0.115
  H  H1095  1  0.442000  0.938300  0.364300  1.0  0.1158
  H  H1096  1  0.309700  0.863700  0.308400  1.0  0.1102
  H  H1097  1  0.887600  0.439000  0.309500  1.0  0.1194
  H  H1098  1  0.940400  0.382600  0.310900  1.0  0.115
  H  H1099  1  0.942000  0.438300  0.364300  1.0  0.1158
  H  H1100  1  0.809700  0.363700  0.308400  1.0  0.1102
  H  H1101  1  0.887600  0.939000  0.809500  1.0  0.1194
  H  H1102  1  0.940400  0.882600  0.810900  1.0  0.115
  H  H1103  1  0.942000  0.938300  0.864300  1.0  0.1158
  H  H1104  1  0.809700  0.863700  0.808400  1.0  0.1102
  H  H1105  1  0.387600  0.561000  0.190500  1.0  0.1195
  H  H1106  1  0.440400  0.617400  0.189100  1.0  0.1152
  H  H1107  1  0.442000  0.561700  0.135700  1.0  0.116
  H  H1108  1  0.309700  0.636300  0.191600  1.0  0.1104
  H  H1109  1  0.387600  0.061000  0.690500  1.0  0.1195
  H  H1110  1  0.440400  0.117400  0.689100  1.0  0.1152
  H  H1111  1  0.442000  0.061700  0.635700  1.0  0.116
  H  H1112  1  0.309700  0.136300  0.691600  1.0  0.1104
  H  H1113  1  0.887600  0.561000  0.690500  1.0  0.1195
  H  H1114  1  0.940400  0.617400  0.689100  1.0  0.1152
  H  H1115  1  0.942000  0.561700  0.635700  1.0  0.116
  H  H1116  1  0.809700  0.636300  0.691600  1.0  0.1104
  H  H1117  1  0.887600  0.061000  0.190500  1.0  0.1195
  H  H1118  1  0.940400  0.117400  0.189100  1.0  0.1152
  H  H1119  1  0.942000  0.061700  0.135700  1.0  0.116
  H  H1120  1  0.809700  0.136300  0.191600  1.0  0.1104
  H  H1121  1  0.612400  0.439000  0.190500  1.0  0.1194
  H  H1122  1  0.559600  0.382600  0.189100  1.0  0.1149
  H  H1123  1  0.558000  0.438300  0.135700  1.0  0.1154
  H  H1124  1  0.690300  0.363700  0.191600  1.0  0.1101
  H  H1125  1  0.612400  0.939000  0.690500  1.0  0.1194
  H  H1126  1  0.559600  0.882600  0.689100  1.0  0.1149
  H  H1127  1  0.558000  0.938300  0.635700  1.0  0.1154
  H  H1128  1  0.690300  0.863700  0.691600  1.0  0.1101
  H  H1129  1  0.112400  0.439000  0.690500  1.0  0.1194
  H  H1130  1  0.059600  0.382600  0.689100  1.0  0.1149
  H  H1131  1  0.058000  0.438300  0.635700  1.0  0.1154
  H  H1132  1  0.190300  0.363700  0.691600  1.0  0.1101
  H  H1133  1  0.112400  0.939000  0.190500  1.0  0.1194
  H  H1134  1  0.059600  0.882600  0.189100  1.0  0.1149
  H  H1135  1  0.058000  0.938300  0.135700  1.0  0.1154
  H  H1136  1  0.190300  0.863700  0.191600  1.0  0.1101
  H  H1137  1  0.612400  0.561000  0.809500  1.0  0.1194
  H  H1138  1  0.559600  0.617400  0.810900  1.0  0.1151
  H  H1139  1  0.558000  0.561700  0.864300  1.0  0.1158
  H  H1140  1  0.690300  0.636300  0.808400  1.0  0.1104
  H  H1141  1  0.612400  0.061000  0.309500  1.0  0.1194
  H  H1142  1  0.559600  0.117400  0.310900  1.0  0.1151
  H  H1143  1  0.558000  0.061700  0.364300  1.0  0.1158
  H  H1144  1  0.690300  0.136300  0.308400  1.0  0.1104
  H  H1145  1  0.112400  0.561000  0.309500  1.0  0.1194
  H  H1146  1  0.059600  0.617400  0.310900  1.0  0.1151
  H  H1147  1  0.058000  0.561700  0.364300  1.0  0.1158
  H  H1148  1  0.190300  0.636300  0.308400  1.0  0.1104
  H  H1149  1  0.112400  0.061000  0.809500  1.0  0.1194
  H  H1150  1  0.059600  0.117400  0.810900  1.0  0.1151
  H  H1151  1  0.058000  0.061700  0.864300  1.0  0.1158
  H  H1152  1  0.190300  0.136300  0.808400  1.0  0.1104
  C  C1153  1  0.350420  0.035070  0.099000  1.0  0.6993
  C  C1154  1  0.338370  0.057900  0.086890  1.0  -0.1321
  C  C1155  1  0.317020  0.068550  0.097780  1.0  0.0252
  C  C1156  1  0.306520  0.090570  0.087200  1.0  -0.1553
  C  C1157  1  0.317910  0.102190  0.066370  1.0  0.0304
  C  C1158  1  0.339340  0.091700  0.055430  1.0  -0.1373
  C  C1159  1  0.349720  0.069190  0.065550  1.0  0.0178
  C  C1160  1  0.284450  0.103120  0.100230  1.0  0.6825
  C  C1161  1  0.352690  0.105000  0.034080  1.0  0.6979
  C  C1162  1  0.283840  0.149330  0.148120  1.0  0.7048
  C  C1163  1  0.305540  0.162170  0.161140  1.0  -0.1637
  C  C1164  1  0.316130  0.150940  0.183140  1.0  0.0194
  C  C1165  1  0.350420  0.535070  0.599000  1.0  0.6993
  C  C1166  1  0.338370  0.557900  0.586890  1.0  -0.1321
  C  C1167  1  0.317020  0.568550  0.597780  1.0  0.0252
  C  C1168  1  0.306520  0.590570  0.587200  1.0  -0.1553
  C  C1169  1  0.317910  0.602190  0.566370  1.0  0.0304
  C  C1170  1  0.339340  0.591700  0.555430  1.0  -0.1373
  C  C1171  1  0.349720  0.569190  0.565550  1.0  0.0178
  C  C1172  1  0.284450  0.603120  0.600230  1.0  0.6825
  C  C1173  1  0.352690  0.605000  0.534080  1.0  0.6979
  C  C1174  1  0.283840  0.649330  0.648120  1.0  0.7048
  C  C1175  1  0.305540  0.662170  0.661140  1.0  -0.1637
  C  C1176  1  0.316130  0.650940  0.683140  1.0  0.0194
  C  C1177  1  0.850420  0.035070  0.599000  1.0  0.6993
  C  C1178  1  0.838370  0.057900  0.586890  1.0  -0.1321
  C  C1179  1  0.817020  0.068550  0.597780  1.0  0.0252
  C  C1180  1  0.806520  0.090570  0.587200  1.0  -0.1553
  C  C1181  1  0.817910  0.102190  0.566370  1.0  0.0304
  C  C1182  1  0.839340  0.091700  0.555430  1.0  -0.1373
  C  C1183  1  0.849720  0.069190  0.565550  1.0  0.0178
  C  C1184  1  0.784450  0.103120  0.600230  1.0  0.6825
  C  C1185  1  0.852690  0.105000  0.534080  1.0  0.6979
  C  C1186  1  0.783840  0.149330  0.648120  1.0  0.7048
  C  C1187  1  0.805540  0.162170  0.661140  1.0  -0.1637
  C  C1188  1  0.816130  0.150940  0.683140  1.0  0.0194
  C  C1189  1  0.850420  0.535070  0.099000  1.0  0.6993
  C  C1190  1  0.838370  0.557900  0.086890  1.0  -0.1321
  C  C1191  1  0.817020  0.568550  0.097780  1.0  0.0252
  C  C1192  1  0.806520  0.590570  0.087200  1.0  -0.1553
  C  C1193  1  0.817910  0.602190  0.066370  1.0  0.0304
  C  C1194  1  0.839340  0.591700  0.055430  1.0  -0.1373
  C  C1195  1  0.849720  0.569190  0.065550  1.0  0.0178
  C  C1196  1  0.784450  0.603120  0.100230  1.0  0.6825
  C  C1197  1  0.852690  0.605000  0.034080  1.0  0.6979
  C  C1198  1  0.783840  0.649330  0.148120  1.0  0.7048
  C  C1199  1  0.805540  0.662170  0.161140  1.0  -0.1637
  C  C1200  1  0.816130  0.650940  0.183140  1.0  0.0194
  C  C1201  1  0.649580  0.964930  0.099000  1.0  0.6995
  C  C1202  1  0.661630  0.942100  0.086890  1.0  -0.132
  C  C1203  1  0.682980  0.931450  0.097780  1.0  0.0246
  C  C1204  1  0.693480  0.909430  0.087200  1.0  -0.1553
  C  C1205  1  0.682090  0.897810  0.066370  1.0  0.0305
  C  C1206  1  0.660660  0.908300  0.055430  1.0  -0.1373
  C  C1207  1  0.650280  0.930810  0.065550  1.0  0.0178
  C  C1208  1  0.715550  0.896880  0.100230  1.0  0.6818
  C  C1209  1  0.647310  0.895000  0.034080  1.0  0.6986
  C  C1210  1  0.716160  0.850670  0.148120  1.0  0.7047
  C  C1211  1  0.694460  0.837830  0.161140  1.0  -0.1638
  C  C1212  1  0.683870  0.849060  0.183140  1.0  0.0199
  C  C1213  1  0.649580  0.464930  0.599000  1.0  0.6995
  C  C1214  1  0.661630  0.442100  0.586890  1.0  -0.132
  C  C1215  1  0.682980  0.431450  0.597780  1.0  0.0246
  C  C1216  1  0.693480  0.409430  0.587200  1.0  -0.1553
  C  C1217  1  0.682090  0.397810  0.566370  1.0  0.0305
  C  C1218  1  0.660660  0.408300  0.555430  1.0  -0.1373
  C  C1219  1  0.650280  0.430810  0.565550  1.0  0.0178
  C  C1220  1  0.715550  0.396880  0.600230  1.0  0.6818
  C  C1221  1  0.647310  0.395000  0.534080  1.0  0.6986
  C  C1222  1  0.716160  0.350670  0.648120  1.0  0.7047
  C  C1223  1  0.694460  0.337830  0.661140  1.0  -0.1638
  C  C1224  1  0.683870  0.349060  0.683140  1.0  0.0199
  C  C1225  1  0.149580  0.964930  0.599000  1.0  0.6995
  C  C1226  1  0.161630  0.942100  0.586890  1.0  -0.132
  C  C1227  1  0.182980  0.931450  0.597780  1.0  0.0246
  C  C1228  1  0.193480  0.909430  0.587200  1.0  -0.1553
  C  C1229  1  0.182090  0.897810  0.566370  1.0  0.0305
  C  C1230  1  0.160660  0.908300  0.555430  1.0  -0.1373
  C  C1231  1  0.150280  0.930810  0.565550  1.0  0.0178
  C  C1232  1  0.215550  0.896880  0.600230  1.0  0.6818
  C  C1233  1  0.147310  0.895000  0.534080  1.0  0.6986
  C  C1234  1  0.216160  0.850670  0.648120  1.0  0.7047
  C  C1235  1  0.194460  0.837830  0.661140  1.0  -0.1638
  C  C1236  1  0.183870  0.849060  0.683140  1.0  0.0199
  C  C1237  1  0.149580  0.464930  0.099000  1.0  0.6995
  C  C1238  1  0.161630  0.442100  0.086890  1.0  -0.132
  C  C1239  1  0.182980  0.431450  0.097780  1.0  0.0246
  C  C1240  1  0.193480  0.409430  0.087200  1.0  -0.1553
  C  C1241  1  0.182090  0.397810  0.066370  1.0  0.0305
  C  C1242  1  0.160660  0.408300  0.055430  1.0  -0.1373
  C  C1243  1  0.150280  0.430810  0.065550  1.0  0.0178
  C  C1244  1  0.215550  0.396880  0.100230  1.0  0.6818
  C  C1245  1  0.147310  0.395000  0.034080  1.0  0.6986
  C  C1246  1  0.216160  0.350670  0.148120  1.0  0.7047
  C  C1247  1  0.194460  0.337830  0.161140  1.0  -0.1638
  C  C1248  1  0.183870  0.349060  0.183140  1.0  0.0199
  C  C1249  1  0.649580  0.035070  0.901000  1.0  0.6995
  C  C1250  1  0.661630  0.057900  0.913110  1.0  -0.1325
  C  C1251  1  0.682980  0.068550  0.902220  1.0  0.0248
  C  C1252  1  0.693480  0.090570  0.912800  1.0  -0.1553
  C  C1253  1  0.682090  0.102190  0.933630  1.0  0.0306
  C  C1254  1  0.660660  0.091700  0.944570  1.0  -0.1376
  C  C1255  1  0.650280  0.069190  0.934450  1.0  0.019
  C  C1256  1  0.715550  0.103120  0.899770  1.0  0.6826
  C  C1257  1  0.647310  0.105000  0.965920  1.0  0.6992
  C  C1258  1  0.716160  0.149330  0.851880  1.0  0.705
  C  C1259  1  0.694460  0.162170  0.838860  1.0  -0.1638
  C  C1260  1  0.683870  0.150940  0.816860  1.0  0.0196
  C  C1261  1  0.649580  0.535070  0.401000  1.0  0.6995
  C  C1262  1  0.661630  0.557900  0.413110  1.0  -0.1325
  C  C1263  1  0.682980  0.568550  0.402220  1.0  0.0248
  C  C1264  1  0.693480  0.590570  0.412800  1.0  -0.1553
  C  C1265  1  0.682090  0.602190  0.433630  1.0  0.0306
  C  C1266  1  0.660660  0.591700  0.444570  1.0  -0.1376
  C  C1267  1  0.650280  0.569190  0.434450  1.0  0.019
  C  C1268  1  0.715550  0.603120  0.399770  1.0  0.6826
  C  C1269  1  0.647310  0.605000  0.465920  1.0  0.6992
  C  C1270  1  0.716160  0.649330  0.351880  1.0  0.705
  C  C1271  1  0.694460  0.662170  0.338860  1.0  -0.1638
  C  C1272  1  0.683870  0.650940  0.316860  1.0  0.0196
  C  C1273  1  0.149580  0.035070  0.401000  1.0  0.6995
  C  C1274  1  0.161630  0.057900  0.413110  1.0  -0.1325
  C  C1275  1  0.182980  0.068550  0.402220  1.0  0.0248
  C  C1276  1  0.193480  0.090570  0.412800  1.0  -0.1553
  C  C1277  1  0.182090  0.102190  0.433630  1.0  0.0306
  C  C1278  1  0.160660  0.091700  0.444570  1.0  -0.1376
  C  C1279  1  0.150280  0.069190  0.434450  1.0  0.019
  C  C1280  1  0.215550  0.103120  0.399770  1.0  0.6826
  C  C1281  1  0.147310  0.105000  0.465920  1.0  0.6992
  C  C1282  1  0.216160  0.149330  0.351880  1.0  0.705
  C  C1283  1  0.194460  0.162170  0.338860  1.0  -0.1638
  C  C1284  1  0.183870  0.150940  0.316860  1.0  0.0196
  C  C1285  1  0.149580  0.535070  0.901000  1.0  0.6995
  C  C1286  1  0.161630  0.557900  0.913110  1.0  -0.1325
  C  C1287  1  0.182980  0.568550  0.902220  1.0  0.0248
  C  C1288  1  0.193480  0.590570  0.912800  1.0  -0.1553
  C  C1289  1  0.182090  0.602190  0.933630  1.0  0.0306
  C  C1290  1  0.160660  0.591700  0.944570  1.0  -0.1376
  C  C1291  1  0.150280  0.569190  0.934450  1.0  0.019
  C  C1292  1  0.215550  0.603120  0.899770  1.0  0.6826
  C  C1293  1  0.147310  0.605000  0.965920  1.0  0.6992
  C  C1294  1  0.216160  0.649330  0.851880  1.0  0.705
  C  C1295  1  0.194460  0.662170  0.838860  1.0  -0.1638
  C  C1296  1  0.183870  0.650940  0.816860  1.0  0.0196
  C  C1297  1  0.350420  0.964930  0.901000  1.0  0.6995
  C  C1298  1  0.338370  0.942100  0.913110  1.0  -0.1317
  C  C1299  1  0.317020  0.931450  0.902220  1.0  0.0252
  C  C1300  1  0.306520  0.909430  0.912800  1.0  -0.1553
  C  C1301  1  0.317910  0.897810  0.933630  1.0  0.0306
  C  C1302  1  0.339340  0.908300  0.944570  1.0  -0.1378
  C  C1303  1  0.349720  0.930810  0.934450  1.0  0.0177
  C  C1304  1  0.284450  0.896880  0.899770  1.0  0.6823
  C  C1305  1  0.352690  0.895000  0.965920  1.0  0.6976
  C  C1306  1  0.283840  0.850670  0.851880  1.0  0.7046
  C  C1307  1  0.305540  0.837830  0.838860  1.0  -0.1629
  C  C1308  1  0.316130  0.849060  0.816860  1.0  0.0196
  C  C1309  1  0.350420  0.464930  0.401000  1.0  0.6995
  C  C1310  1  0.338370  0.442100  0.413110  1.0  -0.1317
  C  C1311  1  0.317020  0.431450  0.402220  1.0  0.0252
  C  C1312  1  0.306520  0.409430  0.412800  1.0  -0.1553
  C  C1313  1  0.317910  0.397810  0.433630  1.0  0.0306
  C  C1314  1  0.339340  0.408300  0.444570  1.0  -0.1378
  C  C1315  1  0.349720  0.430810  0.434450  1.0  0.0177
  C  C1316  1  0.284450  0.396880  0.399770  1.0  0.6823
  C  C1317  1  0.352690  0.395000  0.465920  1.0  0.6976
  C  C1318  1  0.283840  0.350670  0.351880  1.0  0.7046
  C  C1319  1  0.305540  0.337830  0.338860  1.0  -0.1629
  C  C1320  1  0.316130  0.349060  0.316860  1.0  0.0196
  C  C1321  1  0.850420  0.964930  0.401000  1.0  0.6995
  C  C1322  1  0.838370  0.942100  0.413110  1.0  -0.1317
  C  C1323  1  0.817020  0.931450  0.402220  1.0  0.0252
  C  C1324  1  0.806520  0.909430  0.412800  1.0  -0.1553
  C  C1325  1  0.817910  0.897810  0.433630  1.0  0.0306
  C  C1326  1  0.839340  0.908300  0.444570  1.0  -0.1378
  C  C1327  1  0.849720  0.930810  0.434450  1.0  0.0177
  C  C1328  1  0.784450  0.896880  0.399770  1.0  0.6823
  C  C1329  1  0.852690  0.895000  0.465920  1.0  0.6976
  C  C1330  1  0.783840  0.850670  0.351880  1.0  0.7046
  C  C1331  1  0.805540  0.837830  0.338860  1.0  -0.1629
  C  C1332  1  0.816130  0.849060  0.316860  1.0  0.0196
  C  C1333  1  0.850420  0.464930  0.901000  1.0  0.6995
  C  C1334  1  0.838370  0.442100  0.913110  1.0  -0.1317
  C  C1335  1  0.817020  0.431450  0.902220  1.0  0.0252
  C  C1336  1  0.806520  0.409430  0.912800  1.0  -0.1553
  C  C1337  1  0.817910  0.397810  0.933630  1.0  0.0306
  C  C1338  1  0.839340  0.408300  0.944570  1.0  -0.1378
  C  C1339  1  0.849720  0.430810  0.934450  1.0  0.0177
  C  C1340  1  0.784450  0.396880  0.899770  1.0  0.6823
  C  C1341  1  0.852690  0.395000  0.965920  1.0  0.6976
  C  C1342  1  0.783840  0.350670  0.851880  1.0  0.7046
  C  C1343  1  0.805540  0.337830  0.838860  1.0  -0.1629
  C  C1344  1  0.816130  0.349060  0.816860  1.0  0.0196
  C  C1345  1  0.099000  0.350420  0.035070  1.0  0.7006
  C  C1346  1  0.086890  0.338370  0.057900  1.0  -0.1325
  C  C1347  1  0.097780  0.317020  0.068550  1.0  0.024
  C  C1348  1  0.087200  0.306520  0.090570  1.0  -0.155
  C  C1349  1  0.066370  0.317910  0.102190  1.0  0.0304
  C  C1350  1  0.055430  0.339340  0.091700  1.0  -0.1372
  C  C1351  1  0.065550  0.349720  0.069190  1.0  0.0188
  C  C1352  1  0.100230  0.284450  0.103120  1.0  0.6823
  C  C1353  1  0.034080  0.352690  0.105000  1.0  0.698
  C  C1354  1  0.148120  0.283840  0.149330  1.0  0.7036
  C  C1355  1  0.161140  0.305540  0.162170  1.0  -0.1638
  C  C1356  1  0.183140  0.316130  0.150940  1.0  0.0188
  C  C1357  1  0.099000  0.850420  0.535070  1.0  0.7006
  C  C1358  1  0.086890  0.838370  0.557900  1.0  -0.1325
  C  C1359  1  0.097780  0.817020  0.568550  1.0  0.024
  C  C1360  1  0.087200  0.806520  0.590570  1.0  -0.155
  C  C1361  1  0.066370  0.817910  0.602190  1.0  0.0304
  C  C1362  1  0.055430  0.839340  0.591700  1.0  -0.1372
  C  C1363  1  0.065550  0.849720  0.569190  1.0  0.0188
  C  C1364  1  0.100230  0.784450  0.603120  1.0  0.6823
  C  C1365  1  0.034080  0.852690  0.605000  1.0  0.698
  C  C1366  1  0.148120  0.783840  0.649330  1.0  0.7036
  C  C1367  1  0.161140  0.805540  0.662170  1.0  -0.1638
  C  C1368  1  0.183140  0.816130  0.650940  1.0  0.0188
  C  C1369  1  0.599000  0.350420  0.535070  1.0  0.7006
  C  C1370  1  0.586890  0.338370  0.557900  1.0  -0.1325
  C  C1371  1  0.597780  0.317020  0.568550  1.0  0.024
  C  C1372  1  0.587200  0.306520  0.590570  1.0  -0.155
  C  C1373  1  0.566370  0.317910  0.602190  1.0  0.0304
  C  C1374  1  0.555430  0.339340  0.591700  1.0  -0.1372
  C  C1375  1  0.565550  0.349720  0.569190  1.0  0.0188
  C  C1376  1  0.600230  0.284450  0.603120  1.0  0.6823
  C  C1377  1  0.534080  0.352690  0.605000  1.0  0.698
  C  C1378  1  0.648120  0.283840  0.649330  1.0  0.7036
  C  C1379  1  0.661140  0.305540  0.662170  1.0  -0.1638
  C  C1380  1  0.683140  0.316130  0.650940  1.0  0.0188
  C  C1381  1  0.599000  0.850420  0.035070  1.0  0.7006
  C  C1382  1  0.586890  0.838370  0.057900  1.0  -0.1325
  C  C1383  1  0.597780  0.817020  0.068550  1.0  0.024
  C  C1384  1  0.587200  0.806520  0.090570  1.0  -0.155
  C  C1385  1  0.566370  0.817910  0.102190  1.0  0.0304
  C  C1386  1  0.555430  0.839340  0.091700  1.0  -0.1372
  C  C1387  1  0.565550  0.849720  0.069190  1.0  0.0188
  C  C1388  1  0.600230  0.784450  0.103120  1.0  0.6823
  C  C1389  1  0.534080  0.852690  0.105000  1.0  0.698
  C  C1390  1  0.648120  0.783840  0.149330  1.0  0.7036
  C  C1391  1  0.661140  0.805540  0.162170  1.0  -0.1638
  C  C1392  1  0.683140  0.816130  0.150940  1.0  0.0188
  C  C1393  1  0.099000  0.649580  0.964930  1.0  0.7004
  C  C1394  1  0.086890  0.661630  0.942100  1.0  -0.1338
  C  C1395  1  0.097780  0.682980  0.931450  1.0  0.0246
  C  C1396  1  0.087200  0.693480  0.909430  1.0  -0.1553
  C  C1397  1  0.066370  0.682090  0.897810  1.0  0.0302
  C  C1398  1  0.055430  0.660660  0.908300  1.0  -0.1371
  C  C1399  1  0.065550  0.650280  0.930810  1.0  0.0192
  C  C1400  1  0.100230  0.715550  0.896880  1.0  0.6824
  C  C1401  1  0.034080  0.647310  0.895000  1.0  0.6973
  C  C1402  1  0.148120  0.716160  0.850670  1.0  0.7038
  C  C1403  1  0.161140  0.694460  0.837830  1.0  -0.1633
  C  C1404  1  0.183140  0.683870  0.849060  1.0  0.0185
  C  C1405  1  0.099000  0.149580  0.464930  1.0  0.7004
  C  C1406  1  0.086890  0.161630  0.442100  1.0  -0.1338
  C  C1407  1  0.097780  0.182980  0.431450  1.0  0.0246
  C  C1408  1  0.087200  0.193480  0.409430  1.0  -0.1553
  C  C1409  1  0.066370  0.182090  0.397810  1.0  0.0302
  C  C1410  1  0.055430  0.160660  0.408300  1.0  -0.1371
  C  C1411  1  0.065550  0.150280  0.430810  1.0  0.0192
  C  C1412  1  0.100230  0.215550  0.396880  1.0  0.6824
  C  C1413  1  0.034080  0.147310  0.395000  1.0  0.6973
  C  C1414  1  0.148120  0.216160  0.350670  1.0  0.7038
  C  C1415  1  0.161140  0.194460  0.337830  1.0  -0.1633
  C  C1416  1  0.183140  0.183870  0.349060  1.0  0.0185
  C  C1417  1  0.599000  0.649580  0.464930  1.0  0.7004
  C  C1418  1  0.586890  0.661630  0.442100  1.0  -0.1338
  C  C1419  1  0.597780  0.682980  0.431450  1.0  0.0246
  C  C1420  1  0.587200  0.693480  0.409430  1.0  -0.1553
  C  C1421  1  0.566370  0.682090  0.397810  1.0  0.0302
  C  C1422  1  0.555430  0.660660  0.408300  1.0  -0.1371
  C  C1423  1  0.565550  0.650280  0.430810  1.0  0.0192
  C  C1424  1  0.600230  0.715550  0.396880  1.0  0.6824
  C  C1425  1  0.534080  0.647310  0.395000  1.0  0.6973
  C  C1426  1  0.648120  0.716160  0.350670  1.0  0.7038
  C  C1427  1  0.661140  0.694460  0.337830  1.0  -0.1633
  C  C1428  1  0.683140  0.683870  0.349060  1.0  0.0185
  C  C1429  1  0.599000  0.149580  0.964930  1.0  0.7004
  C  C1430  1  0.586890  0.161630  0.942100  1.0  -0.1338
  C  C1431  1  0.597780  0.182980  0.931450  1.0  0.0246
  C  C1432  1  0.587200  0.193480  0.909430  1.0  -0.1553
  C  C1433  1  0.566370  0.182090  0.897810  1.0  0.0302
  C  C1434  1  0.555430  0.160660  0.908300  1.0  -0.1371
  C  C1435  1  0.565550  0.150280  0.930810  1.0  0.0192
  C  C1436  1  0.600230  0.215550  0.896880  1.0  0.6824
  C  C1437  1  0.534080  0.147310  0.895000  1.0  0.6973
  C  C1438  1  0.648120  0.216160  0.850670  1.0  0.7038
  C  C1439  1  0.661140  0.194460  0.837830  1.0  -0.1633
  C  C1440  1  0.683140  0.183870  0.849060  1.0  0.0185
  C  C1441  1  0.901000  0.649580  0.035070  1.0  0.6999
  C  C1442  1  0.913110  0.661630  0.057900  1.0  -0.1332
  C  C1443  1  0.902220  0.682980  0.068550  1.0  0.0241
  C  C1444  1  0.912800  0.693480  0.090570  1.0  -0.1553
  C  C1445  1  0.933630  0.682090  0.102190  1.0  0.0302
  C  C1446  1  0.944570  0.660660  0.091700  1.0  -0.1369
  C  C1447  1  0.934450  0.650280  0.069190  1.0  0.0194
  C  C1448  1  0.899770  0.715550  0.103120  1.0  0.6822
  C  C1449  1  0.965920  0.647310  0.105000  1.0  0.6974
  C  C1450  1  0.851880  0.716160  0.149330  1.0  0.7038
  C  C1451  1  0.838860  0.694460  0.162170  1.0  -0.1638
  C  C1452  1  0.816860  0.683870  0.150940  1.0  0.0188
  C  C1453  1  0.901000  0.149580  0.535070  1.0  0.6999
  C  C1454  1  0.913110  0.161630  0.557900  1.0  -0.1332
  C  C1455  1  0.902220  0.182980  0.568550  1.0  0.0241
  C  C1456  1  0.912800  0.193480  0.590570  1.0  -0.1553
  C  C1457  1  0.933630  0.182090  0.602190  1.0  0.0302
  C  C1458  1  0.944570  0.160660  0.591700  1.0  -0.1369
  C  C1459  1  0.934450  0.150280  0.569190  1.0  0.0194
  C  C1460  1  0.899770  0.215550  0.603120  1.0  0.6822
  C  C1461  1  0.965920  0.147310  0.605000  1.0  0.6974
  C  C1462  1  0.851880  0.216160  0.649330  1.0  0.7038
  C  C1463  1  0.838860  0.194460  0.662170  1.0  -0.1638
  C  C1464  1  0.816860  0.183870  0.650940  1.0  0.0188
  C  C1465  1  0.401000  0.649580  0.535070  1.0  0.6999
  C  C1466  1  0.413110  0.661630  0.557900  1.0  -0.1332
  C  C1467  1  0.402220  0.682980  0.568550  1.0  0.0241
  C  C1468  1  0.412800  0.693480  0.590570  1.0  -0.1553
  C  C1469  1  0.433630  0.682090  0.602190  1.0  0.0302
  C  C1470  1  0.444570  0.660660  0.591700  1.0  -0.1369
  C  C1471  1  0.434450  0.650280  0.569190  1.0  0.0194
  C  C1472  1  0.399770  0.715550  0.603120  1.0  0.6822
  C  C1473  1  0.465920  0.647310  0.605000  1.0  0.6974
  C  C1474  1  0.351880  0.716160  0.649330  1.0  0.7038
  C  C1475  1  0.338860  0.694460  0.662170  1.0  -0.1638
  C  C1476  1  0.316860  0.683870  0.650940  1.0  0.0188
  C  C1477  1  0.401000  0.149580  0.035070  1.0  0.6999
  C  C1478  1  0.413110  0.161630  0.057900  1.0  -0.1332
  C  C1479  1  0.402220  0.182980  0.068550  1.0  0.0241
  C  C1480  1  0.412800  0.193480  0.090570  1.0  -0.1553
  C  C1481  1  0.433630  0.182090  0.102190  1.0  0.0302
  C  C1482  1  0.444570  0.160660  0.091700  1.0  -0.1369
  C  C1483  1  0.434450  0.150280  0.069190  1.0  0.0194
  C  C1484  1  0.399770  0.215550  0.103120  1.0  0.6822
  C  C1485  1  0.465920  0.147310  0.105000  1.0  0.6974
  C  C1486  1  0.351880  0.216160  0.149330  1.0  0.7038
  C  C1487  1  0.338860  0.194460  0.162170  1.0  -0.1638
  C  C1488  1  0.316860  0.183870  0.150940  1.0  0.0188
  C  C1489  1  0.901000  0.350420  0.964930  1.0  0.7006
  C  C1490  1  0.913110  0.338370  0.942100  1.0  -0.1333
  C  C1491  1  0.902220  0.317020  0.931450  1.0  0.0248
  C  C1492  1  0.912800  0.306520  0.909430  1.0  -0.1553
  C  C1493  1  0.933630  0.317910  0.897810  1.0  0.0303
  C  C1494  1  0.944570  0.339340  0.908300  1.0  -0.1368
  C  C1495  1  0.934450  0.349720  0.930810  1.0  0.0189
  C  C1496  1  0.899770  0.284450  0.896880  1.0  0.6823
  C  C1497  1  0.965920  0.352690  0.895000  1.0  0.6976
  C  C1498  1  0.851880  0.283840  0.850670  1.0  0.7038
  C  C1499  1  0.838860  0.305540  0.837830  1.0  -0.1637
  C  C1500  1  0.816860  0.316130  0.849060  1.0  0.0188
  C  C1501  1  0.901000  0.850420  0.464930  1.0  0.7006
  C  C1502  1  0.913110  0.838370  0.442100  1.0  -0.1333
  C  C1503  1  0.902220  0.817020  0.431450  1.0  0.0248
  C  C1504  1  0.912800  0.806520  0.409430  1.0  -0.1553
  C  C1505  1  0.933630  0.817910  0.397810  1.0  0.0303
  C  C1506  1  0.944570  0.839340  0.408300  1.0  -0.1368
  C  C1507  1  0.934450  0.849720  0.430810  1.0  0.0189
  C  C1508  1  0.899770  0.784450  0.396880  1.0  0.6823
  C  C1509  1  0.965920  0.852690  0.395000  1.0  0.6976
  C  C1510  1  0.851880  0.783840  0.350670  1.0  0.7038
  C  C1511  1  0.838860  0.805540  0.337830  1.0  -0.1637
  C  C1512  1  0.816860  0.816130  0.349060  1.0  0.0188
  C  C1513  1  0.401000  0.350420  0.464930  1.0  0.7006
  C  C1514  1  0.413110  0.338370  0.442100  1.0  -0.1333
  C  C1515  1  0.402220  0.317020  0.431450  1.0  0.0248
  C  C1516  1  0.412800  0.306520  0.409430  1.0  -0.1553
  C  C1517  1  0.433630  0.317910  0.397810  1.0  0.0303
  C  C1518  1  0.444570  0.339340  0.408300  1.0  -0.1368
  C  C1519  1  0.434450  0.349720  0.430810  1.0  0.0189
  C  C1520  1  0.399770  0.284450  0.396880  1.0  0.6823
  C  C1521  1  0.465920  0.352690  0.395000  1.0  0.6976
  C  C1522  1  0.351880  0.283840  0.350670  1.0  0.7038
  C  C1523  1  0.338860  0.305540  0.337830  1.0  -0.1637
  C  C1524  1  0.316860  0.316130  0.349060  1.0  0.0188
  C  C1525  1  0.401000  0.850420  0.964930  1.0  0.7006
  C  C1526  1  0.413110  0.838370  0.942100  1.0  -0.1333
  C  C1527  1  0.402220  0.817020  0.931450  1.0  0.0248
  C  C1528  1  0.412800  0.806520  0.909430  1.0  -0.1553
  C  C1529  1  0.433630  0.817910  0.897810  1.0  0.0303
  C  C1530  1  0.444570  0.839340  0.908300  1.0  -0.1368
  C  C1531  1  0.434450  0.849720  0.930810  1.0  0.0189
  C  C1532  1  0.399770  0.784450  0.896880  1.0  0.6823
  C  C1533  1  0.465920  0.852690  0.895000  1.0  0.6976
  C  C1534  1  0.351880  0.783840  0.850670  1.0  0.7038
  C  C1535  1  0.338860  0.805540  0.837830  1.0  -0.1637
  C  C1536  1  0.316860  0.816130  0.849060  1.0  0.0188
  C  C1537  1  0.035070  0.099000  0.350420  1.0  0.699
  C  C1538  1  0.057900  0.086890  0.338370  1.0  -0.132
  C  C1539  1  0.068550  0.097780  0.317020  1.0  0.0255
  C  C1540  1  0.090570  0.087200  0.306520  1.0  -0.1559
  C  C1541  1  0.102190  0.066370  0.317910  1.0  0.03
  C  C1542  1  0.091700  0.055430  0.339340  1.0  -0.1368
  C  C1543  1  0.069190  0.065550  0.349720  1.0  0.0196
  C  C1544  1  0.103120  0.100230  0.284450  1.0  0.6833
  C  C1545  1  0.105000  0.034080  0.352690  1.0  0.6962
  C  C1546  1  0.149330  0.148120  0.283840  1.0  0.7051
  C  C1547  1  0.162170  0.161140  0.305540  1.0  -0.1648
  C  C1548  1  0.150940  0.183140  0.316130  1.0  0.0175
  C  C1549  1  0.035070  0.599000  0.850420  1.0  0.699
  C  C1550  1  0.057900  0.586890  0.838370  1.0  -0.132
  C  C1551  1  0.068550  0.597780  0.817020  1.0  0.0255
  C  C1552  1  0.090570  0.587200  0.806520  1.0  -0.1559
  C  C1553  1  0.102190  0.566370  0.817910  1.0  0.03
  C  C1554  1  0.091700  0.555430  0.839340  1.0  -0.1368
  C  C1555  1  0.069190  0.565550  0.849720  1.0  0.0196
  C  C1556  1  0.103120  0.600230  0.784450  1.0  0.6833
  C  C1557  1  0.105000  0.534080  0.852690  1.0  0.6962
  C  C1558  1  0.149330  0.648120  0.783840  1.0  0.7051
  C  C1559  1  0.162170  0.661140  0.805540  1.0  -0.1648
  C  C1560  1  0.150940  0.683140  0.816130  1.0  0.0175
  C  C1561  1  0.535070  0.099000  0.850420  1.0  0.699
  C  C1562  1  0.557900  0.086890  0.838370  1.0  -0.132
  C  C1563  1  0.568550  0.097780  0.817020  1.0  0.0255
  C  C1564  1  0.590570  0.087200  0.806520  1.0  -0.1559
  C  C1565  1  0.602190  0.066370  0.817910  1.0  0.03
  C  C1566  1  0.591700  0.055430  0.839340  1.0  -0.1368
  C  C1567  1  0.569190  0.065550  0.849720  1.0  0.0196
  C  C1568  1  0.603120  0.100230  0.784450  1.0  0.6833
  C  C1569  1  0.605000  0.034080  0.852690  1.0  0.6962
  C  C1570  1  0.649330  0.148120  0.783840  1.0  0.7051
  C  C1571  1  0.662170  0.161140  0.805540  1.0  -0.1648
  C  C1572  1  0.650940  0.183140  0.816130  1.0  0.0175
  C  C1573  1  0.535070  0.599000  0.350420  1.0  0.699
  C  C1574  1  0.557900  0.586890  0.338370  1.0  -0.132
  C  C1575  1  0.568550  0.597780  0.317020  1.0  0.0255
  C  C1576  1  0.590570  0.587200  0.306520  1.0  -0.1559
  C  C1577  1  0.602190  0.566370  0.317910  1.0  0.03
  C  C1578  1  0.591700  0.555430  0.339340  1.0  -0.1368
  C  C1579  1  0.569190  0.565550  0.349720  1.0  0.0196
  C  C1580  1  0.603120  0.600230  0.284450  1.0  0.6833
  C  C1581  1  0.605000  0.534080  0.352690  1.0  0.6962
  C  C1582  1  0.649330  0.648120  0.283840  1.0  0.7051
  C  C1583  1  0.662170  0.661140  0.305540  1.0  -0.1648
  C  C1584  1  0.650940  0.683140  0.316130  1.0  0.0175
  C  C1585  1  0.964930  0.099000  0.649580  1.0  0.6994
  C  C1586  1  0.942100  0.086890  0.661630  1.0  -0.1314
  C  C1587  1  0.931450  0.097780  0.682980  1.0  0.0257
  C  C1588  1  0.909430  0.087200  0.693480  1.0  -0.157
  C  C1589  1  0.897810  0.066370  0.682090  1.0  0.0308
  C  C1590  1  0.908300  0.055430  0.660660  1.0  -0.1368
  C  C1591  1  0.930810  0.065550  0.650280  1.0  0.0197
  C  C1592  1  0.896880  0.100230  0.715550  1.0  0.6836
  C  C1593  1  0.895000  0.034080  0.647310  1.0  0.6976
  C  C1594  1  0.850670  0.148120  0.716160  1.0  0.7054
  C  C1595  1  0.837830  0.161140  0.694460  1.0  -0.1655
  C  C1596  1  0.849060  0.183140  0.683870  1.0  0.0182
  C  C1597  1  0.964930  0.599000  0.149580  1.0  0.6994
  C  C1598  1  0.942100  0.586890  0.161630  1.0  -0.1314
  C  C1599  1  0.931450  0.597780  0.182980  1.0  0.0257
  C  C1600  1  0.909430  0.587200  0.193480  1.0  -0.157
  C  C1601  1  0.897810  0.566370  0.182090  1.0  0.0308
  C  C1602  1  0.908300  0.555430  0.160660  1.0  -0.1368
  C  C1603  1  0.930810  0.565550  0.150280  1.0  0.0197
  C  C1604  1  0.896880  0.600230  0.215550  1.0  0.6836
  C  C1605  1  0.895000  0.534080  0.147310  1.0  0.6976
  C  C1606  1  0.850670  0.648120  0.216160  1.0  0.7054
  C  C1607  1  0.837830  0.661140  0.194460  1.0  -0.1655
  C  C1608  1  0.849060  0.683140  0.183870  1.0  0.0182
  C  C1609  1  0.464930  0.099000  0.149580  1.0  0.6994
  C  C1610  1  0.442100  0.086890  0.161630  1.0  -0.1314
  C  C1611  1  0.431450  0.097780  0.182980  1.0  0.0257
  C  C1612  1  0.409430  0.087200  0.193480  1.0  -0.157
  C  C1613  1  0.397810  0.066370  0.182090  1.0  0.0308
  C  C1614  1  0.408300  0.055430  0.160660  1.0  -0.1368
  C  C1615  1  0.430810  0.065550  0.150280  1.0  0.0197
  C  C1616  1  0.396880  0.100230  0.215550  1.0  0.6836
  C  C1617  1  0.395000  0.034080  0.147310  1.0  0.6976
  C  C1618  1  0.350670  0.148120  0.216160  1.0  0.7054
  C  C1619  1  0.337830  0.161140  0.194460  1.0  -0.1655
  C  C1620  1  0.349060  0.183140  0.183870  1.0  0.0182
  C  C1621  1  0.464930  0.599000  0.649580  1.0  0.6994
  C  C1622  1  0.442100  0.586890  0.661630  1.0  -0.1314
  C  C1623  1  0.431450  0.597780  0.682980  1.0  0.0257
  C  C1624  1  0.409430  0.587200  0.693480  1.0  -0.157
  C  C1625  1  0.397810  0.566370  0.682090  1.0  0.0308
  C  C1626  1  0.408300  0.555430  0.660660  1.0  -0.1368
  C  C1627  1  0.430810  0.565550  0.650280  1.0  0.0197
  C  C1628  1  0.396880  0.600230  0.715550  1.0  0.6836
  C  C1629  1  0.395000  0.534080  0.647310  1.0  0.6976
  C  C1630  1  0.350670  0.648120  0.716160  1.0  0.7054
  C  C1631  1  0.337830  0.661140  0.694460  1.0  -0.1655
  C  C1632  1  0.349060  0.683140  0.683870  1.0  0.0182
  C  C1633  1  0.035070  0.901000  0.649580  1.0  0.6985
  C  C1634  1  0.057900  0.913110  0.661630  1.0  -0.1318
  C  C1635  1  0.068550  0.902220  0.682980  1.0  0.0254
  C  C1636  1  0.090570  0.912800  0.693480  1.0  -0.1574
  C  C1637  1  0.102190  0.933630  0.682090  1.0  0.0303
  C  C1638  1  0.091700  0.944570  0.660660  1.0  -0.1363
  C  C1639  1  0.069190  0.934450  0.650280  1.0  0.0193
  C  C1640  1  0.103120  0.899770  0.715550  1.0  0.6834
  C  C1641  1  0.105000  0.965920  0.647310  1.0  0.6965
  C  C1642  1  0.149330  0.851880  0.716160  1.0  0.7051
  C  C1643  1  0.162170  0.838860  0.694460  1.0  -0.1654
  C  C1644  1  0.150940  0.816860  0.683870  1.0  0.018
  C  C1645  1  0.035070  0.401000  0.149580  1.0  0.6985
  C  C1646  1  0.057900  0.413110  0.161630  1.0  -0.1318
  C  C1647  1  0.068550  0.402220  0.182980  1.0  0.0254
  C  C1648  1  0.090570  0.412800  0.193480  1.0  -0.1574
  C  C1649  1  0.102190  0.433630  0.182090  1.0  0.0303
  C  C1650  1  0.091700  0.444570  0.160660  1.0  -0.1363
  C  C1651  1  0.069190  0.434450  0.150280  1.0  0.0193
  C  C1652  1  0.103120  0.399770  0.215550  1.0  0.6834
  C  C1653  1  0.105000  0.465920  0.147310  1.0  0.6965
  C  C1654  1  0.149330  0.351880  0.216160  1.0  0.7051
  C  C1655  1  0.162170  0.338860  0.194460  1.0  -0.1654
  C  C1656  1  0.150940  0.316860  0.183870  1.0  0.018
  C  C1657  1  0.535070  0.901000  0.149580  1.0  0.6985
  C  C1658  1  0.557900  0.913110  0.161630  1.0  -0.1318
  C  C1659  1  0.568550  0.902220  0.182980  1.0  0.0254
  C  C1660  1  0.590570  0.912800  0.193480  1.0  -0.1574
  C  C1661  1  0.602190  0.933630  0.182090  1.0  0.0303
  C  C1662  1  0.591700  0.944570  0.160660  1.0  -0.1363
  C  C1663  1  0.569190  0.934450  0.150280  1.0  0.0193
  C  C1664  1  0.603120  0.899770  0.215550  1.0  0.6834
  C  C1665  1  0.605000  0.965920  0.147310  1.0  0.6965
  C  C1666  1  0.649330  0.851880  0.216160  1.0  0.7051
  C  C1667  1  0.662170  0.838860  0.194460  1.0  -0.1654
  C  C1668  1  0.650940  0.816860  0.183870  1.0  0.018
  C  C1669  1  0.535070  0.401000  0.649580  1.0  0.6985
  C  C1670  1  0.557900  0.413110  0.661630  1.0  -0.1318
  C  C1671  1  0.568550  0.402220  0.682980  1.0  0.0254
  C  C1672  1  0.590570  0.412800  0.693480  1.0  -0.1574
  C  C1673  1  0.602190  0.433630  0.682090  1.0  0.0303
  C  C1674  1  0.591700  0.444570  0.660660  1.0  -0.1363
  C  C1675  1  0.569190  0.434450  0.650280  1.0  0.0193
  C  C1676  1  0.603120  0.399770  0.715550  1.0  0.6834
  C  C1677  1  0.605000  0.465920  0.647310  1.0  0.6965
  C  C1678  1  0.649330  0.351880  0.716160  1.0  0.7051
  C  C1679  1  0.662170  0.338860  0.694460  1.0  -0.1654
  C  C1680  1  0.650940  0.316860  0.683870  1.0  0.018
  C  C1681  1  0.964930  0.901000  0.350420  1.0  0.6991
  C  C1682  1  0.942100  0.913110  0.338370  1.0  -0.1321
  C  C1683  1  0.931450  0.902220  0.317020  1.0  0.0256
  C  C1684  1  0.909430  0.912800  0.306520  1.0  -0.1558
  C  C1685  1  0.897810  0.933630  0.317910  1.0  0.0301
  C  C1686  1  0.908300  0.944570  0.339340  1.0  -0.1364
  C  C1687  1  0.930810  0.934450  0.349720  1.0  0.0188
  C  C1688  1  0.896880  0.899770  0.284450  1.0  0.683
  C  C1689  1  0.895000  0.965920  0.352690  1.0  0.6975
  C  C1690  1  0.850670  0.851880  0.283840  1.0  0.7054
  C  C1691  1  0.837830  0.838860  0.305540  1.0  -0.1648
  C  C1692  1  0.849060  0.816860  0.316130  1.0  0.0178
  C  C1693  1  0.964930  0.401000  0.850420  1.0  0.6991
  C  C1694  1  0.942100  0.413110  0.838370  1.0  -0.1321
  C  C1695  1  0.931450  0.402220  0.817020  1.0  0.0256
  C  C1696  1  0.909430  0.412800  0.806520  1.0  -0.1558
  C  C1697  1  0.897810  0.433630  0.817910  1.0  0.0301
  C  C1698  1  0.908300  0.444570  0.839340  1.0  -0.1364
  C  C1699  1  0.930810  0.434450  0.849720  1.0  0.0188
  C  C1700  1  0.896880  0.399770  0.784450  1.0  0.683
  C  C1701  1  0.895000  0.465920  0.852690  1.0  0.6975
  C  C1702  1  0.850670  0.351880  0.783840  1.0  0.7054
  C  C1703  1  0.837830  0.338860  0.805540  1.0  -0.1648
  C  C1704  1  0.849060  0.316860  0.816130  1.0  0.0178
  C  C1705  1  0.464930  0.901000  0.850420  1.0  0.6991
  C  C1706  1  0.442100  0.913110  0.838370  1.0  -0.1321
  C  C1707  1  0.431450  0.902220  0.817020  1.0  0.0256
  C  C1708  1  0.409430  0.912800  0.806520  1.0  -0.1558
  C  C1709  1  0.397810  0.933630  0.817910  1.0  0.0301
  C  C1710  1  0.408300  0.944570  0.839340  1.0  -0.1364
  C  C1711  1  0.430810  0.934450  0.849720  1.0  0.0188
  C  C1712  1  0.396880  0.899770  0.784450  1.0  0.683
  C  C1713  1  0.395000  0.965920  0.852690  1.0  0.6975
  C  C1714  1  0.350670  0.851880  0.783840  1.0  0.7054
  C  C1715  1  0.337830  0.838860  0.805540  1.0  -0.1648
  C  C1716  1  0.349060  0.816860  0.816130  1.0  0.0178
  C  C1717  1  0.464930  0.401000  0.350420  1.0  0.6991
  C  C1718  1  0.442100  0.413110  0.338370  1.0  -0.1321
  C  C1719  1  0.431450  0.402220  0.317020  1.0  0.0256
  C  C1720  1  0.409430  0.412800  0.306520  1.0  -0.1558
  C  C1721  1  0.397810  0.433630  0.317910  1.0  0.0301
  C  C1722  1  0.408300  0.444570  0.339340  1.0  -0.1364
  C  C1723  1  0.430810  0.434450  0.349720  1.0  0.0188
  C  C1724  1  0.396880  0.399770  0.284450  1.0  0.683
  C  C1725  1  0.395000  0.465920  0.352690  1.0  0.6975
  C  C1726  1  0.350670  0.351880  0.283840  1.0  0.7054
  C  C1727  1  0.337830  0.338860  0.305540  1.0  -0.1648
  C  C1728  1  0.349060  0.316860  0.316130  1.0  0.0178
  C  C1729  1  0.535070  0.850420  0.401000  1.0  0.6988
  C  C1730  1  0.557900  0.838370  0.413110  1.0  -0.1315
  C  C1731  1  0.568550  0.817020  0.402220  1.0  0.0249
  C  C1732  1  0.590570  0.806520  0.412800  1.0  -0.1553
  C  C1733  1  0.602190  0.817910  0.433630  1.0  0.0306
  C  C1734  1  0.591700  0.839340  0.444570  1.0  -0.1378
  C  C1735  1  0.569190  0.849720  0.434450  1.0  0.0191
  C  C1736  1  0.603120  0.784450  0.399770  1.0  0.6823
  C  C1737  1  0.605000  0.852690  0.465920  1.0  0.6979
  C  C1738  1  0.649330  0.783840  0.351880  1.0  0.7038
  C  C1739  1  0.662170  0.805540  0.338860  1.0  -0.1634
  C  C1740  1  0.650940  0.816130  0.316860  1.0  0.0173
  C  C1741  1  0.535070  0.350420  0.901000  1.0  0.6988
  C  C1742  1  0.557900  0.338370  0.913110  1.0  -0.1315
  C  C1743  1  0.568550  0.317020  0.902220  1.0  0.0249
  C  C1744  1  0.590570  0.306520  0.912800  1.0  -0.1553
  C  C1745  1  0.602190  0.317910  0.933630  1.0  0.0306
  C  C1746  1  0.591700  0.339340  0.944570  1.0  -0.1378
  C  C1747  1  0.569190  0.349720  0.934450  1.0  0.0191
  C  C1748  1  0.603120  0.284450  0.899770  1.0  0.6823
  C  C1749  1  0.605000  0.352690  0.965920  1.0  0.6979
  C  C1750  1  0.649330  0.283840  0.851880  1.0  0.7038
  C  C1751  1  0.662170  0.305540  0.838860  1.0  -0.1634
  C  C1752  1  0.650940  0.316130  0.816860  1.0  0.0173
  C  C1753  1  0.035070  0.850420  0.901000  1.0  0.6988
  C  C1754  1  0.057900  0.838370  0.913110  1.0  -0.1315
  C  C1755  1  0.068550  0.817020  0.902220  1.0  0.0249
  C  C1756  1  0.090570  0.806520  0.912800  1.0  -0.1553
  C  C1757  1  0.102190  0.817910  0.933630  1.0  0.0306
  C  C1758  1  0.091700  0.839340  0.944570  1.0  -0.1378
  C  C1759  1  0.069190  0.849720  0.934450  1.0  0.0191
  C  C1760  1  0.103120  0.784450  0.899770  1.0  0.6823
  C  C1761  1  0.105000  0.852690  0.965920  1.0  0.6979
  C  C1762  1  0.149330  0.783840  0.851880  1.0  0.7038
  C  C1763  1  0.162170  0.805540  0.838860  1.0  -0.1634
  C  C1764  1  0.150940  0.816130  0.816860  1.0  0.0173
  C  C1765  1  0.035070  0.350420  0.401000  1.0  0.6988
  C  C1766  1  0.057900  0.338370  0.413110  1.0  -0.1315
  C  C1767  1  0.068550  0.317020  0.402220  1.0  0.0249
  C  C1768  1  0.090570  0.306520  0.412800  1.0  -0.1553
  C  C1769  1  0.102190  0.317910  0.433630  1.0  0.0306
  C  C1770  1  0.091700  0.339340  0.444570  1.0  -0.1378
  C  C1771  1  0.069190  0.349720  0.434450  1.0  0.0191
  C  C1772  1  0.103120  0.284450  0.399770  1.0  0.6823
  C  C1773  1  0.105000  0.352690  0.465920  1.0  0.6979
  C  C1774  1  0.149330  0.283840  0.351880  1.0  0.7038
  C  C1775  1  0.162170  0.305540  0.338860  1.0  -0.1634
  C  C1776  1  0.150940  0.316130  0.316860  1.0  0.0173
  C  C1777  1  0.464930  0.149580  0.401000  1.0  0.6989
  C  C1778  1  0.442100  0.161630  0.413110  1.0  -0.1317
  C  C1779  1  0.431450  0.182980  0.402220  1.0  0.0249
  C  C1780  1  0.409430  0.193480  0.412800  1.0  -0.1552
  C  C1781  1  0.397810  0.182090  0.433630  1.0  0.0303
  C  C1782  1  0.408300  0.160660  0.444570  1.0  -0.1376
  C  C1783  1  0.430810  0.150280  0.434450  1.0  0.0196
  C  C1784  1  0.396880  0.215550  0.399770  1.0  0.6821
  C  C1785  1  0.395000  0.147310  0.465920  1.0  0.6985
  C  C1786  1  0.350670  0.216160  0.351880  1.0  0.704
  C  C1787  1  0.337830  0.194460  0.338860  1.0  -0.1632
  C  C1788  1  0.349060  0.183870  0.316860  1.0  0.018
  C  C1789  1  0.464930  0.649580  0.901000  1.0  0.6989
  C  C1790  1  0.442100  0.661630  0.913110  1.0  -0.1317
  C  C1791  1  0.431450  0.682980  0.902220  1.0  0.0249
  C  C1792  1  0.409430  0.693480  0.912800  1.0  -0.1552
  C  C1793  1  0.397810  0.682090  0.933630  1.0  0.0303
  C  C1794  1  0.408300  0.660660  0.944570  1.0  -0.1376
  C  C1795  1  0.430810  0.650280  0.934450  1.0  0.0196
  C  C1796  1  0.396880  0.715550  0.899770  1.0  0.6821
  C  C1797  1  0.395000  0.647310  0.965920  1.0  0.6985
  C  C1798  1  0.350670  0.716160  0.851880  1.0  0.704
  C  C1799  1  0.337830  0.694460  0.838860  1.0  -0.1632
  C  C1800  1  0.349060  0.683870  0.816860  1.0  0.018
  C  C1801  1  0.964930  0.149580  0.901000  1.0  0.6989
  C  C1802  1  0.942100  0.161630  0.913110  1.0  -0.1317
  C  C1803  1  0.931450  0.182980  0.902220  1.0  0.0249
  C  C1804  1  0.909430  0.193480  0.912800  1.0  -0.1552
  C  C1805  1  0.897810  0.182090  0.933630  1.0  0.0303
  C  C1806  1  0.908300  0.160660  0.944570  1.0  -0.1376
  C  C1807  1  0.930810  0.150280  0.934450  1.0  0.0196
  C  C1808  1  0.896880  0.215550  0.899770  1.0  0.6821
  C  C1809  1  0.895000  0.147310  0.965920  1.0  0.6985
  C  C1810  1  0.850670  0.216160  0.851880  1.0  0.704
  C  C1811  1  0.837830  0.194460  0.838860  1.0  -0.1632
  C  C1812  1  0.849060  0.183870  0.816860  1.0  0.018
  C  C1813  1  0.964930  0.649580  0.401000  1.0  0.6989
  C  C1814  1  0.942100  0.661630  0.413110  1.0  -0.1317
  C  C1815  1  0.931450  0.682980  0.402220  1.0  0.0249
  C  C1816  1  0.909430  0.693480  0.412800  1.0  -0.1552
  C  C1817  1  0.897810  0.682090  0.433630  1.0  0.0303
  C  C1818  1  0.908300  0.660660  0.444570  1.0  -0.1376
  C  C1819  1  0.930810  0.650280  0.434450  1.0  0.0196
  C  C1820  1  0.896880  0.715550  0.399770  1.0  0.6821
  C  C1821  1  0.895000  0.647310  0.465920  1.0  0.6985
  C  C1822  1  0.850670  0.716160  0.351880  1.0  0.704
  C  C1823  1  0.837830  0.694460  0.338860  1.0  -0.1632
  C  C1824  1  0.849060  0.683870  0.316860  1.0  0.018
  C  C1825  1  0.535070  0.149580  0.599000  1.0  0.6985
  C  C1826  1  0.557900  0.161630  0.586890  1.0  -0.132
  C  C1827  1  0.568550  0.182980  0.597780  1.0  0.0249
  C  C1828  1  0.590570  0.193480  0.587200  1.0  -0.1553
  C  C1829  1  0.602190  0.182090  0.566370  1.0  0.03
  C  C1830  1  0.591700  0.160660  0.555430  1.0  -0.1373
  C  C1831  1  0.569190  0.150280  0.565550  1.0  0.0188
  C  C1832  1  0.603120  0.215550  0.600230  1.0  0.6819
  C  C1833  1  0.605000  0.147310  0.534080  1.0  0.6972
  C  C1834  1  0.649330  0.216160  0.648120  1.0  0.7037
  C  C1835  1  0.662170  0.194460  0.661140  1.0  -0.1633
  C  C1836  1  0.650940  0.183870  0.683140  1.0  0.0175
  C  C1837  1  0.535070  0.649580  0.099000  1.0  0.6985
  C  C1838  1  0.557900  0.661630  0.086890  1.0  -0.132
  C  C1839  1  0.568550  0.682980  0.097780  1.0  0.0249
  C  C1840  1  0.590570  0.693480  0.087200  1.0  -0.1553
  C  C1841  1  0.602190  0.682090  0.066370  1.0  0.03
  C  C1842  1  0.591700  0.660660  0.055430  1.0  -0.1373
  C  C1843  1  0.569190  0.650280  0.065550  1.0  0.0188
  C  C1844  1  0.603120  0.715550  0.100230  1.0  0.6819
  C  C1845  1  0.605000  0.647310  0.034080  1.0  0.6972
  C  C1846  1  0.649330  0.716160  0.148120  1.0  0.7037
  C  C1847  1  0.662170  0.694460  0.161140  1.0  -0.1633
  C  C1848  1  0.650940  0.683870  0.183140  1.0  0.0175
  C  C1849  1  0.035070  0.149580  0.099000  1.0  0.6985
  C  C1850  1  0.057900  0.161630  0.086890  1.0  -0.132
  C  C1851  1  0.068550  0.182980  0.097780  1.0  0.0249
  C  C1852  1  0.090570  0.193480  0.087200  1.0  -0.1553
  C  C1853  1  0.102190  0.182090  0.066370  1.0  0.03
  C  C1854  1  0.091700  0.160660  0.055430  1.0  -0.1373
  C  C1855  1  0.069190  0.150280  0.065550  1.0  0.0188
  C  C1856  1  0.103120  0.215550  0.100230  1.0  0.6819
  C  C1857  1  0.105000  0.147310  0.034080  1.0  0.6972
  C  C1858  1  0.149330  0.216160  0.148120  1.0  0.7037
  C  C1859  1  0.162170  0.194460  0.161140  1.0  -0.1633
  C  C1860  1  0.150940  0.183870  0.183140  1.0  0.0175
  C  C1861  1  0.035070  0.649580  0.599000  1.0  0.6985
  C  C1862  1  0.057900  0.661630  0.586890  1.0  -0.132
  C  C1863  1  0.068550  0.682980  0.597780  1.0  0.0249
  C  C1864  1  0.090570  0.693480  0.587200  1.0  -0.1553
  C  C1865  1  0.102190  0.682090  0.566370  1.0  0.03
  C  C1866  1  0.091700  0.660660  0.555430  1.0  -0.1373
  C  C1867  1  0.069190  0.650280  0.565550  1.0  0.0188
  C  C1868  1  0.103120  0.715550  0.600230  1.0  0.6819
  C  C1869  1  0.105000  0.647310  0.534080  1.0  0.6972
  C  C1870  1  0.149330  0.716160  0.648120  1.0  0.7037
  C  C1871  1  0.162170  0.694460  0.661140  1.0  -0.1633
  C  C1872  1  0.150940  0.683870  0.683140  1.0  0.0175
  C  C1873  1  0.464930  0.850420  0.599000  1.0  0.6993
  C  C1874  1  0.442100  0.838370  0.586890  1.0  -0.1312
  C  C1875  1  0.431450  0.817020  0.597780  1.0  0.0255
  C  C1876  1  0.409430  0.806520  0.587200  1.0  -0.155
  C  C1877  1  0.397810  0.817910  0.566370  1.0  0.0302
  C  C1878  1  0.408300  0.839340  0.555430  1.0  -0.1374
  C  C1879  1  0.430810  0.849720  0.565550  1.0  0.0186
  C  C1880  1  0.396880  0.784450  0.600230  1.0  0.6817
  C  C1881  1  0.395000  0.852690  0.534080  1.0  0.6991
  C  C1882  1  0.350670  0.783840  0.648120  1.0  0.704
  C  C1883  1  0.337830  0.805540  0.661140  1.0  -0.1637
  C  C1884  1  0.349060  0.816130  0.683140  1.0  0.0183
  C  C1885  1  0.464930  0.350420  0.099000  1.0  0.6993
  C  C1886  1  0.442100  0.338370  0.086890  1.0  -0.1312
  C  C1887  1  0.431450  0.317020  0.097780  1.0  0.0255
  C  C1888  1  0.409430  0.306520  0.087200  1.0  -0.155
  C  C1889  1  0.397810  0.317910  0.066370  1.0  0.0302
  C  C1890  1  0.408300  0.339340  0.055430  1.0  -0.1374
  C  C1891  1  0.430810  0.349720  0.065550  1.0  0.0186
  C  C1892  1  0.396880  0.284450  0.100230  1.0  0.6817
  C  C1893  1  0.395000  0.352690  0.034080  1.0  0.6991
  C  C1894  1  0.350670  0.283840  0.148120  1.0  0.704
  C  C1895  1  0.337830  0.305540  0.161140  1.0  -0.1637
  C  C1896  1  0.349060  0.316130  0.183140  1.0  0.0183
  C  C1897  1  0.964930  0.850420  0.099000  1.0  0.6993
  C  C1898  1  0.942100  0.838370  0.086890  1.0  -0.1312
  C  C1899  1  0.931450  0.817020  0.097780  1.0  0.0255
  C  C1900  1  0.909430  0.806520  0.087200  1.0  -0.155
  C  C1901  1  0.897810  0.817910  0.066370  1.0  0.0302
  C  C1902  1  0.908300  0.839340  0.055430  1.0  -0.1374
  C  C1903  1  0.930810  0.849720  0.065550  1.0  0.0186
  C  C1904  1  0.896880  0.784450  0.100230  1.0  0.6817
  C  C1905  1  0.895000  0.852690  0.034080  1.0  0.6991
  C  C1906  1  0.850670  0.783840  0.148120  1.0  0.704
  C  C1907  1  0.837830  0.805540  0.161140  1.0  -0.1637
  C  C1908  1  0.849060  0.816130  0.183140  1.0  0.0183
  C  C1909  1  0.964930  0.350420  0.599000  1.0  0.6993
  C  C1910  1  0.942100  0.338370  0.586890  1.0  -0.1312
  C  C1911  1  0.931450  0.317020  0.597780  1.0  0.0255
  C  C1912  1  0.909430  0.306520  0.587200  1.0  -0.155
  C  C1913  1  0.897810  0.317910  0.566370  1.0  0.0302
  C  C1914  1  0.908300  0.339340  0.555430  1.0  -0.1374
  C  C1915  1  0.930810  0.349720  0.565550  1.0  0.0186
  C  C1916  1  0.896880  0.284450  0.600230  1.0  0.6817
  C  C1917  1  0.895000  0.352690  0.534080  1.0  0.6991
  C  C1918  1  0.850670  0.283840  0.648120  1.0  0.704
  C  C1919  1  0.837830  0.305540  0.661140  1.0  -0.1637
  C  C1920  1  0.849060  0.316130  0.683140  1.0  0.0183
  C  C1921  1  0.850420  0.599000  0.464930  1.0  0.7009
  C  C1922  1  0.838370  0.586890  0.442100  1.0  -0.134
  C  C1923  1  0.817020  0.597780  0.431450  1.0  0.0257
  C  C1924  1  0.806520  0.587200  0.409430  1.0  -0.1552
  C  C1925  1  0.817910  0.566370  0.397810  1.0  0.0298
  C  C1926  1  0.839340  0.555430  0.408300  1.0  -0.1368
  C  C1927  1  0.849720  0.565550  0.430810  1.0  0.0182
  C  C1928  1  0.784450  0.600230  0.396880  1.0  0.6828
  C  C1929  1  0.852690  0.534080  0.395000  1.0  0.6966
  C  C1930  1  0.783840  0.648120  0.350670  1.0  0.7047
  C  C1931  1  0.805540  0.661140  0.337830  1.0  -0.1633
  C  C1932  1  0.816130  0.683140  0.349060  1.0  0.0183
  C  C1933  1  0.850420  0.099000  0.964930  1.0  0.7009
  C  C1934  1  0.838370  0.086890  0.942100  1.0  -0.134
  C  C1935  1  0.817020  0.097780  0.931450  1.0  0.0257
  C  C1936  1  0.806520  0.087200  0.909430  1.0  -0.1552
  C  C1937  1  0.817910  0.066370  0.897810  1.0  0.0298
  C  C1938  1  0.839340  0.055430  0.908300  1.0  -0.1368
  C  C1939  1  0.849720  0.065550  0.930810  1.0  0.0182
  C  C1940  1  0.784450  0.100230  0.896880  1.0  0.6828
  C  C1941  1  0.852690  0.034080  0.895000  1.0  0.6966
  C  C1942  1  0.783840  0.148120  0.850670  1.0  0.7047
  C  C1943  1  0.805540  0.161140  0.837830  1.0  -0.1633
  C  C1944  1  0.816130  0.183140  0.849060  1.0  0.0183
  C  C1945  1  0.350420  0.599000  0.964930  1.0  0.7009
  C  C1946  1  0.338370  0.586890  0.942100  1.0  -0.134
  C  C1947  1  0.317020  0.597780  0.931450  1.0  0.0257
  C  C1948  1  0.306520  0.587200  0.909430  1.0  -0.1552
  C  C1949  1  0.317910  0.566370  0.897810  1.0  0.0298
  C  C1950  1  0.339340  0.555430  0.908300  1.0  -0.1368
  C  C1951  1  0.349720  0.565550  0.930810  1.0  0.0182
  C  C1952  1  0.284450  0.600230  0.896880  1.0  0.6828
  C  C1953  1  0.352690  0.534080  0.895000  1.0  0.6966
  C  C1954  1  0.283840  0.648120  0.850670  1.0  0.7047
  C  C1955  1  0.305540  0.661140  0.837830  1.0  -0.1633
  C  C1956  1  0.316130  0.683140  0.849060  1.0  0.0183
  C  C1957  1  0.350420  0.099000  0.464930  1.0  0.7009
  C  C1958  1  0.338370  0.086890  0.442100  1.0  -0.134
  C  C1959  1  0.317020  0.097780  0.431450  1.0  0.0257
  C  C1960  1  0.306520  0.087200  0.409430  1.0  -0.1552
  C  C1961  1  0.317910  0.066370  0.397810  1.0  0.0298
  C  C1962  1  0.339340  0.055430  0.408300  1.0  -0.1368
  C  C1963  1  0.349720  0.065550  0.430810  1.0  0.0182
  C  C1964  1  0.284450  0.100230  0.396880  1.0  0.6828
  C  C1965  1  0.352690  0.034080  0.395000  1.0  0.6966
  C  C1966  1  0.283840  0.148120  0.350670  1.0  0.7047
  C  C1967  1  0.305540  0.161140  0.337830  1.0  -0.1633
  C  C1968  1  0.316130  0.183140  0.349060  1.0  0.0183
  C  C1969  1  0.149580  0.599000  0.535070  1.0  0.701
  C  C1970  1  0.161630  0.586890  0.557900  1.0  -0.1335
  C  C1971  1  0.182980  0.597780  0.568550  1.0  0.025
  C  C1972  1  0.193480  0.587200  0.590570  1.0  -0.155
  C  C1973  1  0.182090  0.566370  0.602190  1.0  0.0308
  C  C1974  1  0.160660  0.555430  0.591700  1.0  -0.1368
  C  C1975  1  0.150280  0.565550  0.569190  1.0  0.0183
  C  C1976  1  0.215550  0.600230  0.603120  1.0  0.6825
  C  C1977  1  0.147310  0.534080  0.605000  1.0  0.6978
  C  C1978  1  0.216160  0.648120  0.649330  1.0  0.7046
  C  C1979  1  0.194460  0.661140  0.662170  1.0  -0.164
  C  C1980  1  0.183870  0.683140  0.650940  1.0  0.0189
  C  C1981  1  0.149580  0.099000  0.035070  1.0  0.701
  C  C1982  1  0.161630  0.086890  0.057900  1.0  -0.1335
  C  C1983  1  0.182980  0.097780  0.068550  1.0  0.025
  C  C1984  1  0.193480  0.087200  0.090570  1.0  -0.155
  C  C1985  1  0.182090  0.066370  0.102190  1.0  0.0308
  C  C1986  1  0.160660  0.055430  0.091700  1.0  -0.1368
  C  C1987  1  0.150280  0.065550  0.069190  1.0  0.0183
  C  C1988  1  0.215550  0.100230  0.103120  1.0  0.6825
  C  C1989  1  0.147310  0.034080  0.105000  1.0  0.6978
  C  C1990  1  0.216160  0.148120  0.149330  1.0  0.7046
  C  C1991  1  0.194460  0.161140  0.162170  1.0  -0.164
  C  C1992  1  0.183870  0.183140  0.150940  1.0  0.0189
  C  C1993  1  0.649580  0.599000  0.035070  1.0  0.701
  C  C1994  1  0.661630  0.586890  0.057900  1.0  -0.1335
  C  C1995  1  0.682980  0.597780  0.068550  1.0  0.025
  C  C1996  1  0.693480  0.587200  0.090570  1.0  -0.155
  C  C1997  1  0.682090  0.566370  0.102190  1.0  0.0308
  C  C1998  1  0.660660  0.555430  0.091700  1.0  -0.1368
  C  C1999  1  0.650280  0.565550  0.069190  1.0  0.0183
  C  C2000  1  0.715550  0.600230  0.103120  1.0  0.6825
  C  C2001  1  0.647310  0.534080  0.105000  1.0  0.6978
  C  C2002  1  0.716160  0.648120  0.149330  1.0  0.7046
  C  C2003  1  0.694460  0.661140  0.162170  1.0  -0.164
  C  C2004  1  0.683870  0.683140  0.150940  1.0  0.0189
  C  C2005  1  0.649580  0.099000  0.535070  1.0  0.701
  C  C2006  1  0.661630  0.086890  0.557900  1.0  -0.1335
  C  C2007  1  0.682980  0.097780  0.568550  1.0  0.025
  C  C2008  1  0.693480  0.087200  0.590570  1.0  -0.155
  C  C2009  1  0.682090  0.066370  0.602190  1.0  0.0308
  C  C2010  1  0.660660  0.055430  0.591700  1.0  -0.1368
  C  C2011  1  0.650280  0.065550  0.569190  1.0  0.0183
  C  C2012  1  0.715550  0.100230  0.603120  1.0  0.6825
  C  C2013  1  0.647310  0.034080  0.605000  1.0  0.6978
  C  C2014  1  0.716160  0.148120  0.649330  1.0  0.7046
  C  C2015  1  0.694460  0.161140  0.662170  1.0  -0.164
  C  C2016  1  0.683870  0.183140  0.650940  1.0  0.0189
  C  C2017  1  0.149580  0.401000  0.464930  1.0  0.7009
  C  C2018  1  0.161630  0.413110  0.442100  1.0  -0.1341
  C  C2019  1  0.182980  0.402220  0.431450  1.0  0.026
  C  C2020  1  0.193480  0.412800  0.409430  1.0  -0.1553
  C  C2021  1  0.182090  0.433630  0.397810  1.0  0.0302
  C  C2022  1  0.160660  0.444570  0.408300  1.0  -0.1362
  C  C2023  1  0.150280  0.434450  0.430810  1.0  0.0179
  C  C2024  1  0.215550  0.399770  0.396880  1.0  0.6821
  C  C2025  1  0.147310  0.465920  0.395000  1.0  0.6979
  C  C2026  1  0.216160  0.351880  0.350670  1.0  0.7048
  C  C2027  1  0.194460  0.338860  0.337830  1.0  -0.1638
  C  C2028  1  0.183870  0.316860  0.349060  1.0  0.0193
  C  C2029  1  0.149580  0.901000  0.964930  1.0  0.7009
  C  C2030  1  0.161630  0.913110  0.942100  1.0  -0.1341
  C  C2031  1  0.182980  0.902220  0.931450  1.0  0.026
  C  C2032  1  0.193480  0.912800  0.909430  1.0  -0.1553
  C  C2033  1  0.182090  0.933630  0.897810  1.0  0.0302
  C  C2034  1  0.160660  0.944570  0.908300  1.0  -0.1362
  C  C2035  1  0.150280  0.934450  0.930810  1.0  0.0179
  C  C2036  1  0.215550  0.899770  0.896880  1.0  0.6821
  C  C2037  1  0.147310  0.965920  0.895000  1.0  0.6979
  C  C2038  1  0.216160  0.851880  0.850670  1.0  0.7048
  C  C2039  1  0.194460  0.838860  0.837830  1.0  -0.1638
  C  C2040  1  0.183870  0.816860  0.849060  1.0  0.0193
  C  C2041  1  0.649580  0.401000  0.964930  1.0  0.7009
  C  C2042  1  0.661630  0.413110  0.942100  1.0  -0.1341
  C  C2043  1  0.682980  0.402220  0.931450  1.0  0.026
  C  C2044  1  0.693480  0.412800  0.909430  1.0  -0.1553
  C  C2045  1  0.682090  0.433630  0.897810  1.0  0.0302
  C  C2046  1  0.660660  0.444570  0.908300  1.0  -0.1362
  C  C2047  1  0.650280  0.434450  0.930810  1.0  0.0179
  C  C2048  1  0.715550  0.399770  0.896880  1.0  0.6821
  C  C2049  1  0.647310  0.465920  0.895000  1.0  0.6979
  C  C2050  1  0.716160  0.351880  0.850670  1.0  0.7048
  C  C2051  1  0.694460  0.338860  0.837830  1.0  -0.1638
  C  C2052  1  0.683870  0.316860  0.849060  1.0  0.0193
  C  C2053  1  0.649580  0.901000  0.464930  1.0  0.7009
  C  C2054  1  0.661630  0.913110  0.442100  1.0  -0.1341
  C  C2055  1  0.682980  0.902220  0.431450  1.0  0.026
  C  C2056  1  0.693480  0.912800  0.409430  1.0  -0.1553
  C  C2057  1  0.682090  0.933630  0.397810  1.0  0.0302
  C  C2058  1  0.660660  0.944570  0.408300  1.0  -0.1362
  C  C2059  1  0.650280  0.934450  0.430810  1.0  0.0179
  C  C2060  1  0.715550  0.899770  0.396880  1.0  0.6821
  C  C2061  1  0.647310  0.965920  0.395000  1.0  0.6979
  C  C2062  1  0.716160  0.851880  0.350670  1.0  0.7048
  C  C2063  1  0.694460  0.838860  0.337830  1.0  -0.1638
  C  C2064  1  0.683870  0.816860  0.349060  1.0  0.0193
  C  C2065  1  0.850420  0.401000  0.535070  1.0  0.7005
  C  C2066  1  0.838370  0.413110  0.557900  1.0  -0.133
  C  C2067  1  0.817020  0.402220  0.568550  1.0  0.0252
  C  C2068  1  0.806520  0.412800  0.590570  1.0  -0.1552
  C  C2069  1  0.817910  0.433630  0.602190  1.0  0.0297
  C  C2070  1  0.839340  0.444570  0.591700  1.0  -0.1364
  C  C2071  1  0.849720  0.434450  0.569190  1.0  0.0176
  C  C2072  1  0.784450  0.399770  0.603120  1.0  0.6825
  C  C2073  1  0.852690  0.465920  0.605000  1.0  0.6971
  C  C2074  1  0.783840  0.351880  0.649330  1.0  0.7044
  C  C2075  1  0.805540  0.338860  0.662170  1.0  -0.1637
  C  C2076  1  0.816130  0.316860  0.650940  1.0  0.0186
  C  C2077  1  0.850420  0.901000  0.035070  1.0  0.7005
  C  C2078  1  0.838370  0.913110  0.057900  1.0  -0.133
  C  C2079  1  0.817020  0.902220  0.068550  1.0  0.0252
  C  C2080  1  0.806520  0.912800  0.090570  1.0  -0.1552
  C  C2081  1  0.817910  0.933630  0.102190  1.0  0.0297
  C  C2082  1  0.839340  0.944570  0.091700  1.0  -0.1364
  C  C2083  1  0.849720  0.934450  0.069190  1.0  0.0176
  C  C2084  1  0.784450  0.899770  0.103120  1.0  0.6825
  C  C2085  1  0.852690  0.965920  0.105000  1.0  0.6971
  C  C2086  1  0.783840  0.851880  0.149330  1.0  0.7044
  C  C2087  1  0.805540  0.838860  0.162170  1.0  -0.1637
  C  C2088  1  0.816130  0.816860  0.150940  1.0  0.0186
  C  C2089  1  0.350420  0.401000  0.035070  1.0  0.7005
  C  C2090  1  0.338370  0.413110  0.057900  1.0  -0.133
  C  C2091  1  0.317020  0.402220  0.068550  1.0  0.0252
  C  C2092  1  0.306520  0.412800  0.090570  1.0  -0.1552
  C  C2093  1  0.317910  0.433630  0.102190  1.0  0.0297
  C  C2094  1  0.339340  0.444570  0.091700  1.0  -0.1364
  C  C2095  1  0.349720  0.434450  0.069190  1.0  0.0176
  C  C2096  1  0.284450  0.399770  0.103120  1.0  0.6825
  C  C2097  1  0.352690  0.465920  0.105000  1.0  0.6971
  C  C2098  1  0.283840  0.351880  0.149330  1.0  0.7044
  C  C2099  1  0.305540  0.338860  0.162170  1.0  -0.1637
  C  C2100  1  0.316130  0.316860  0.150940  1.0  0.0186
  C  C2101  1  0.350420  0.901000  0.535070  1.0  0.7005
  C  C2102  1  0.338370  0.913110  0.557900  1.0  -0.133
  C  C2103  1  0.317020  0.902220  0.568550  1.0  0.0252
  C  C2104  1  0.306520  0.912800  0.590570  1.0  -0.1552
  C  C2105  1  0.317910  0.933630  0.602190  1.0  0.0297
  C  C2106  1  0.339340  0.944570  0.591700  1.0  -0.1364
  C  C2107  1  0.349720  0.934450  0.569190  1.0  0.0176
  C  C2108  1  0.284450  0.899770  0.603120  1.0  0.6825
  C  C2109  1  0.352690  0.965920  0.605000  1.0  0.6971
  C  C2110  1  0.283840  0.851880  0.649330  1.0  0.7044
  C  C2111  1  0.305540  0.838860  0.662170  1.0  -0.1637
  C  C2112  1  0.316130  0.816860  0.650940  1.0  0.0186
  C  C2113  1  0.599000  0.535070  0.149580  1.0  0.6993
  C  C2114  1  0.586890  0.557900  0.161630  1.0  -0.1321
  C  C2115  1  0.597780  0.568550  0.182980  1.0  0.0247
  C  C2116  1  0.587200  0.590570  0.193480  1.0  -0.1574
  C  C2117  1  0.566370  0.602190  0.182090  1.0  0.0307
  C  C2118  1  0.555430  0.591700  0.160660  1.0  -0.1372
  C  C2119  1  0.565550  0.569190  0.150280  1.0  0.0194
  C  C2120  1  0.600230  0.603120  0.215550  1.0  0.6839
  C  C2121  1  0.534080  0.605000  0.147310  1.0  0.6978
  C  C2122  1  0.648120  0.649330  0.216160  1.0  0.7053
  C  C2123  1  0.661140  0.662170  0.194460  1.0  -0.1654
  C  C2124  1  0.683140  0.650940  0.183870  1.0  0.02
  C  C2125  1  0.599000  0.035070  0.649580  1.0  0.6993
  C  C2126  1  0.586890  0.057900  0.661630  1.0  -0.1321
  C  C2127  1  0.597780  0.068550  0.682980  1.0  0.0247
  C  C2128  1  0.587200  0.090570  0.693480  1.0  -0.1574
  C  C2129  1  0.566370  0.102190  0.682090  1.0  0.0307
  C  C2130  1  0.555430  0.091700  0.660660  1.0  -0.1372
  C  C2131  1  0.565550  0.069190  0.650280  1.0  0.0194
  C  C2132  1  0.600230  0.103120  0.715550  1.0  0.6839
  C  C2133  1  0.534080  0.105000  0.647310  1.0  0.6978
  C  C2134  1  0.648120  0.149330  0.716160  1.0  0.7053
  C  C2135  1  0.661140  0.162170  0.694460  1.0  -0.1654
  C  C2136  1  0.683140  0.150940  0.683870  1.0  0.02
  C  C2137  1  0.099000  0.535070  0.649580  1.0  0.6993
  C  C2138  1  0.086890  0.557900  0.661630  1.0  -0.1321
  C  C2139  1  0.097780  0.568550  0.682980  1.0  0.0247
  C  C2140  1  0.087200  0.590570  0.693480  1.0  -0.1574
  C  C2141  1  0.066370  0.602190  0.682090  1.0  0.0307
  C  C2142  1  0.055430  0.591700  0.660660  1.0  -0.1372
  C  C2143  1  0.065550  0.569190  0.650280  1.0  0.0194
  C  C2144  1  0.100230  0.603120  0.715550  1.0  0.6839
  C  C2145  1  0.034080  0.605000  0.647310  1.0  0.6978
  C  C2146  1  0.148120  0.649330  0.716160  1.0  0.7053
  C  C2147  1  0.161140  0.662170  0.694460  1.0  -0.1654
  C  C2148  1  0.183140  0.650940  0.683870  1.0  0.02
  C  C2149  1  0.099000  0.035070  0.149580  1.0  0.6993
  C  C2150  1  0.086890  0.057900  0.161630  1.0  -0.1321
  C  C2151  1  0.097780  0.068550  0.182980  1.0  0.0247
  C  C2152  1  0.087200  0.090570  0.193480  1.0  -0.1574
  C  C2153  1  0.066370  0.102190  0.182090  1.0  0.0307
  C  C2154  1  0.055430  0.091700  0.160660  1.0  -0.1372
  C  C2155  1  0.065550  0.069190  0.150280  1.0  0.0194
  C  C2156  1  0.100230  0.103120  0.215550  1.0  0.6839
  C  C2157  1  0.034080  0.105000  0.147310  1.0  0.6978
  C  C2158  1  0.148120  0.149330  0.216160  1.0  0.7053
  C  C2159  1  0.161140  0.162170  0.194460  1.0  -0.1654
  C  C2160  1  0.183140  0.150940  0.183870  1.0  0.02
  C  C2161  1  0.599000  0.464930  0.850420  1.0  0.6992
  C  C2162  1  0.586890  0.442100  0.838370  1.0  -0.1317
  C  C2163  1  0.597780  0.431450  0.817020  1.0  0.024
  C  C2164  1  0.587200  0.409430  0.806520  1.0  -0.1558
  C  C2165  1  0.566370  0.397810  0.817910  1.0  0.03
  C  C2166  1  0.555430  0.408300  0.839340  1.0  -0.137
  C  C2167  1  0.565550  0.430810  0.849720  1.0  0.0187
  C  C2168  1  0.600230  0.396880  0.784450  1.0  0.6832
  C  C2169  1  0.534080  0.395000  0.852690  1.0  0.6973
  C  C2170  1  0.648120  0.350670  0.783840  1.0  0.7052
  C  C2171  1  0.661140  0.337830  0.805540  1.0  -0.1646
  C  C2172  1  0.683140  0.349060  0.816130  1.0  0.0197
  C  C2173  1  0.599000  0.964930  0.350420  1.0  0.6992
  C  C2174  1  0.586890  0.942100  0.338370  1.0  -0.1317
  C  C2175  1  0.597780  0.931450  0.317020  1.0  0.024
  C  C2176  1  0.587200  0.909430  0.306520  1.0  -0.1558
  C  C2177  1  0.566370  0.897810  0.317910  1.0  0.03
  C  C2178  1  0.555430  0.908300  0.339340  1.0  -0.137
  C  C2179  1  0.565550  0.930810  0.349720  1.0  0.0187
  C  C2180  1  0.600230  0.896880  0.284450  1.0  0.6832
  C  C2181  1  0.534080  0.895000  0.352690  1.0  0.6973
  C  C2182  1  0.648120  0.850670  0.283840  1.0  0.7052
  C  C2183  1  0.661140  0.837830  0.305540  1.0  -0.1646
  C  C2184  1  0.683140  0.849060  0.316130  1.0  0.0197
  C  C2185  1  0.099000  0.464930  0.350420  1.0  0.6992
  C  C2186  1  0.086890  0.442100  0.338370  1.0  -0.1317
  C  C2187  1  0.097780  0.431450  0.317020  1.0  0.024
  C  C2188  1  0.087200  0.409430  0.306520  1.0  -0.1558
  C  C2189  1  0.066370  0.397810  0.317910  1.0  0.03
  C  C2190  1  0.055430  0.408300  0.339340  1.0  -0.137
  C  C2191  1  0.065550  0.430810  0.349720  1.0  0.0187
  C  C2192  1  0.100230  0.396880  0.284450  1.0  0.6832
  C  C2193  1  0.034080  0.395000  0.352690  1.0  0.6973
  C  C2194  1  0.148120  0.350670  0.283840  1.0  0.7052
  C  C2195  1  0.161140  0.337830  0.305540  1.0  -0.1646
  C  C2196  1  0.183140  0.349060  0.316130  1.0  0.0197
  C  C2197  1  0.099000  0.964930  0.850420  1.0  0.6992
  C  C2198  1  0.086890  0.942100  0.838370  1.0  -0.1317
  C  C2199  1  0.097780  0.931450  0.817020  1.0  0.024
  C  C2200  1  0.087200  0.909430  0.806520  1.0  -0.1558
  C  C2201  1  0.066370  0.897810  0.817910  1.0  0.03
  C  C2202  1  0.055430  0.908300  0.839340  1.0  -0.137
  C  C2203  1  0.065550  0.930810  0.849720  1.0  0.0187
  C  C2204  1  0.100230  0.896880  0.784450  1.0  0.6832
  C  C2205  1  0.034080  0.895000  0.852690  1.0  0.6973
  C  C2206  1  0.148120  0.850670  0.783840  1.0  0.7052
  C  C2207  1  0.161140  0.837830  0.805540  1.0  -0.1646
  C  C2208  1  0.183140  0.849060  0.816130  1.0  0.0197
  C  C2209  1  0.401000  0.535070  0.850420  1.0  0.6992
  C  C2210  1  0.413110  0.557900  0.838370  1.0  -0.1323
  C  C2211  1  0.402220  0.568550  0.817020  1.0  0.0241
  C  C2212  1  0.412800  0.590570  0.806520  1.0  -0.1563
  C  C2213  1  0.433630  0.602190  0.817910  1.0  0.0303
  C  C2214  1  0.444570  0.591700  0.839340  1.0  -0.1368
  C  C2215  1  0.434450  0.569190  0.849720  1.0  0.02
  C  C2216  1  0.399770  0.603120  0.784450  1.0  0.6836
  C  C2217  1  0.465920  0.605000  0.852690  1.0  0.6975
  C  C2218  1  0.351880  0.649330  0.783840  1.0  0.7054
  C  C2219  1  0.338860  0.662170  0.805540  1.0  -0.1651
  C  C2220  1  0.316860  0.650940  0.816130  1.0  0.019
  C  C2221  1  0.401000  0.035070  0.350420  1.0  0.6992
  C  C2222  1  0.413110  0.057900  0.338370  1.0  -0.1323
  C  C2223  1  0.402220  0.068550  0.317020  1.0  0.0241
  C  C2224  1  0.412800  0.090570  0.306520  1.0  -0.1563
  C  C2225  1  0.433630  0.102190  0.317910  1.0  0.0303
  C  C2226  1  0.444570  0.091700  0.339340  1.0  -0.1368
  C  C2227  1  0.434450  0.069190  0.349720  1.0  0.02
  C  C2228  1  0.399770  0.103120  0.284450  1.0  0.6836
  C  C2229  1  0.465920  0.105000  0.352690  1.0  0.6975
  C  C2230  1  0.351880  0.149330  0.283840  1.0  0.7054
  C  C2231  1  0.338860  0.162170  0.305540  1.0  -0.1651
  C  C2232  1  0.316860  0.150940  0.316130  1.0  0.019
  C  C2233  1  0.901000  0.535070  0.350420  1.0  0.6992
  C  C2234  1  0.913110  0.557900  0.338370  1.0  -0.1323
  C  C2235  1  0.902220  0.568550  0.317020  1.0  0.0241
  C  C2236  1  0.912800  0.590570  0.306520  1.0  -0.1563
  C  C2237  1  0.933630  0.602190  0.317910  1.0  0.0303
  C  C2238  1  0.944570  0.591700  0.339340  1.0  -0.1368
  C  C2239  1  0.934450  0.569190  0.349720  1.0  0.02
  C  C2240  1  0.899770  0.603120  0.284450  1.0  0.6836
  C  C2241  1  0.965920  0.605000  0.352690  1.0  0.6975
  C  C2242  1  0.851880  0.649330  0.283840  1.0  0.7054
  C  C2243  1  0.838860  0.662170  0.305540  1.0  -0.1651
  C  C2244  1  0.816860  0.650940  0.316130  1.0  0.019
  C  C2245  1  0.901000  0.035070  0.850420  1.0  0.6992
  C  C2246  1  0.913110  0.057900  0.838370  1.0  -0.1323
  C  C2247  1  0.902220  0.068550  0.817020  1.0  0.0241
  C  C2248  1  0.912800  0.090570  0.806520  1.0  -0.1563
  C  C2249  1  0.933630  0.102190  0.817910  1.0  0.0303
  C  C2250  1  0.944570  0.091700  0.839340  1.0  -0.1368
  C  C2251  1  0.934450  0.069190  0.849720  1.0  0.02
  C  C2252  1  0.899770  0.103120  0.784450  1.0  0.6836
  C  C2253  1  0.965920  0.105000  0.852690  1.0  0.6975
  C  C2254  1  0.851880  0.149330  0.783840  1.0  0.7054
  C  C2255  1  0.838860  0.162170  0.805540  1.0  -0.1651
  C  C2256  1  0.816860  0.150940  0.816130  1.0  0.019
  C  C2257  1  0.401000  0.464930  0.149580  1.0  0.699
  C  C2258  1  0.413110  0.442100  0.161630  1.0  -0.1314
  C  C2259  1  0.402220  0.431450  0.182980  1.0  0.024
  C  C2260  1  0.412800  0.409430  0.193480  1.0  -0.1574
  C  C2261  1  0.433630  0.397810  0.182090  1.0  0.0311
  C  C2262  1  0.444570  0.408300  0.160660  1.0  -0.1367
  C  C2263  1  0.434450  0.430810  0.150280  1.0  0.0194
  C  C2264  1  0.399770  0.396880  0.215550  1.0  0.6834
  C  C2265  1  0.465920  0.395000  0.147310  1.0  0.6969
  C  C2266  1  0.351880  0.350670  0.216160  1.0  0.7053
  C  C2267  1  0.338860  0.337830  0.194460  1.0  -0.1655
  C  C2268  1  0.316860  0.349060  0.183870  1.0  0.0195
  C  C2269  1  0.401000  0.964930  0.649580  1.0  0.699
  C  C2270  1  0.413110  0.942100  0.661630  1.0  -0.1314
  C  C2271  1  0.402220  0.931450  0.682980  1.0  0.024
  C  C2272  1  0.412800  0.909430  0.693480  1.0  -0.1574
  C  C2273  1  0.433630  0.897810  0.682090  1.0  0.0311
  C  C2274  1  0.444570  0.908300  0.660660  1.0  -0.1367
  C  C2275  1  0.434450  0.930810  0.650280  1.0  0.0194
  C  C2276  1  0.399770  0.896880  0.715550  1.0  0.6834
  C  C2277  1  0.465920  0.895000  0.647310  1.0  0.6969
  C  C2278  1  0.351880  0.850670  0.716160  1.0  0.7053
  C  C2279  1  0.338860  0.837830  0.694460  1.0  -0.1655
  C  C2280  1  0.316860  0.849060  0.683870  1.0  0.0195
  C  C2281  1  0.901000  0.464930  0.649580  1.0  0.699
  C  C2282  1  0.913110  0.442100  0.661630  1.0  -0.1314
  C  C2283  1  0.902220  0.431450  0.682980  1.0  0.024
  C  C2284  1  0.912800  0.409430  0.693480  1.0  -0.1574
  C  C2285  1  0.933630  0.397810  0.682090  1.0  0.0311
  C  C2286  1  0.944570  0.408300  0.660660  1.0  -0.1367
  C  C2287  1  0.934450  0.430810  0.650280  1.0  0.0194
  C  C2288  1  0.899770  0.396880  0.715550  1.0  0.6834
  C  C2289  1  0.965920  0.395000  0.647310  1.0  0.6969
  C  C2290  1  0.851880  0.350670  0.716160  1.0  0.7053
  C  C2291  1  0.838860  0.337830  0.694460  1.0  -0.1655
  C  C2292  1  0.816860  0.349060  0.683870  1.0  0.0195
  C  C2293  1  0.901000  0.964930  0.149580  1.0  0.699
  C  C2294  1  0.913110  0.942100  0.161630  1.0  -0.1314
  C  C2295  1  0.902220  0.931450  0.182980  1.0  0.024
  C  C2296  1  0.912800  0.909430  0.193480  1.0  -0.1574
  C  C2297  1  0.933630  0.897810  0.182090  1.0  0.0311
  C  C2298  1  0.944570  0.908300  0.160660  1.0  -0.1367
  C  C2299  1  0.934450  0.930810  0.150280  1.0  0.0194
  C  C2300  1  0.899770  0.896880  0.215550  1.0  0.6834
  C  C2301  1  0.965920  0.895000  0.147310  1.0  0.6969
  C  C2302  1  0.851880  0.850670  0.216160  1.0  0.7053
  C  C2303  1  0.838860  0.837830  0.194460  1.0  -0.1655
  C  C2304  1  0.816860  0.849060  0.183870  1.0  0.0195
  C  C2305  1  0.649580  0.964930  0.901000  1.0  0.6994
  C  C2306  1  0.661630  0.942100  0.913110  1.0  -0.1319
  C  C2307  1  0.682980  0.931450  0.902220  1.0  0.0247
  C  C2308  1  0.693480  0.909430  0.912800  1.0  -0.1552
  C  C2309  1  0.682090  0.897810  0.933630  1.0  0.0311
  C  C2310  1  0.660660  0.908300  0.944570  1.0  -0.1374
  C  C2311  1  0.650280  0.930810  0.934450  1.0  0.0179
  C  C2312  1  0.715550  0.896880  0.899770  1.0  0.6821
  C  C2313  1  0.647310  0.895000  0.965920  1.0  0.6987
  C  C2314  1  0.716160  0.850670  0.851880  1.0  0.7049
  C  C2315  1  0.694460  0.837830  0.838860  1.0  -0.1635
  C  C2316  1  0.683870  0.849060  0.816860  1.0  0.0196
  C  C2317  1  0.649580  0.464930  0.401000  1.0  0.6994
  C  C2318  1  0.661630  0.442100  0.413110  1.0  -0.1319
  C  C2319  1  0.682980  0.431450  0.402220  1.0  0.0247
  C  C2320  1  0.693480  0.409430  0.412800  1.0  -0.1552
  C  C2321  1  0.682090  0.397810  0.433630  1.0  0.0311
  C  C2322  1  0.660660  0.408300  0.444570  1.0  -0.1374
  C  C2323  1  0.650280  0.430810  0.434450  1.0  0.0179
  C  C2324  1  0.715550  0.396880  0.399770  1.0  0.6821
  C  C2325  1  0.647310  0.395000  0.465920  1.0  0.6987
  C  C2326  1  0.716160  0.350670  0.351880  1.0  0.7049
  C  C2327  1  0.694460  0.337830  0.338860  1.0  -0.1635
  C  C2328  1  0.683870  0.349060  0.316860  1.0  0.0196
  C  C2329  1  0.149580  0.964930  0.401000  1.0  0.6994
  C  C2330  1  0.161630  0.942100  0.413110  1.0  -0.1319
  C  C2331  1  0.182980  0.931450  0.402220  1.0  0.0247
  C  C2332  1  0.193480  0.909430  0.412800  1.0  -0.1552
  C  C2333  1  0.182090  0.897810  0.433630  1.0  0.0311
  C  C2334  1  0.160660  0.908300  0.444570  1.0  -0.1374
  C  C2335  1  0.150280  0.930810  0.434450  1.0  0.0179
  C  C2336  1  0.215550  0.896880  0.399770  1.0  0.6821
  C  C2337  1  0.147310  0.895000  0.465920  1.0  0.6987
  C  C2338  1  0.216160  0.850670  0.351880  1.0  0.7049
  C  C2339  1  0.194460  0.837830  0.338860  1.0  -0.1635
  C  C2340  1  0.183870  0.849060  0.316860  1.0  0.0196
  C  C2341  1  0.149580  0.464930  0.901000  1.0  0.6994
  C  C2342  1  0.161630  0.442100  0.913110  1.0  -0.1319
  C  C2343  1  0.182980  0.431450  0.902220  1.0  0.0247
  C  C2344  1  0.193480  0.409430  0.912800  1.0  -0.1552
  C  C2345  1  0.182090  0.397810  0.933630  1.0  0.0311
  C  C2346  1  0.160660  0.408300  0.944570  1.0  -0.1374
  C  C2347  1  0.150280  0.430810  0.934450  1.0  0.0179
  C  C2348  1  0.215550  0.396880  0.899770  1.0  0.6821
  C  C2349  1  0.147310  0.395000  0.965920  1.0  0.6987
  C  C2350  1  0.216160  0.350670  0.851880  1.0  0.7049
  C  C2351  1  0.194460  0.337830  0.838860  1.0  -0.1635
  C  C2352  1  0.183870  0.349060  0.816860  1.0  0.0196
  C  C2353  1  0.350420  0.035070  0.901000  1.0  0.6994
  C  C2354  1  0.338370  0.057900  0.913110  1.0  -0.1322
  C  C2355  1  0.317020  0.068550  0.902220  1.0  0.0249
  C  C2356  1  0.306520  0.090570  0.912800  1.0  -0.1553
  C  C2357  1  0.317910  0.102190  0.933630  1.0  0.0305
  C  C2358  1  0.339340  0.091700  0.944570  1.0  -0.1379
  C  C2359  1  0.349720  0.069190  0.934450  1.0  0.0183
  C  C2360  1  0.284450  0.103120  0.899770  1.0  0.6828
  C  C2361  1  0.352690  0.105000  0.965920  1.0  0.6982
  C  C2362  1  0.283840  0.149330  0.851880  1.0  0.7049
  C  C2363  1  0.305540  0.162170  0.838860  1.0  -0.1634
  C  C2364  1  0.316130  0.150940  0.816860  1.0  0.0189
  C  C2365  1  0.350420  0.535070  0.401000  1.0  0.6994
  C  C2366  1  0.338370  0.557900  0.413110  1.0  -0.1322
  C  C2367  1  0.317020  0.568550  0.402220  1.0  0.0249
  C  C2368  1  0.306520  0.590570  0.412800  1.0  -0.1553
  C  C2369  1  0.317910  0.602190  0.433630  1.0  0.0305
  C  C2370  1  0.339340  0.591700  0.444570  1.0  -0.1379
  C  C2371  1  0.349720  0.569190  0.434450  1.0  0.0183
  C  C2372  1  0.284450  0.603120  0.399770  1.0  0.6828
  C  C2373  1  0.352690  0.605000  0.465920  1.0  0.6982
  C  C2374  1  0.283840  0.649330  0.351880  1.0  0.7049
  C  C2375  1  0.305540  0.662170  0.338860  1.0  -0.1634
  C  C2376  1  0.316130  0.650940  0.316860  1.0  0.0189
  C  C2377  1  0.850420  0.035070  0.401000  1.0  0.6994
  C  C2378  1  0.838370  0.057900  0.413110  1.0  -0.1322
  C  C2379  1  0.817020  0.068550  0.402220  1.0  0.0249
  C  C2380  1  0.806520  0.090570  0.412800  1.0  -0.1553
  C  C2381  1  0.817910  0.102190  0.433630  1.0  0.0305
  C  C2382  1  0.839340  0.091700  0.444570  1.0  -0.1379
  C  C2383  1  0.849720  0.069190  0.434450  1.0  0.0183
  C  C2384  1  0.784450  0.103120  0.399770  1.0  0.6828
  C  C2385  1  0.852690  0.105000  0.465920  1.0  0.6982
  C  C2386  1  0.783840  0.149330  0.351880  1.0  0.7049
  C  C2387  1  0.805540  0.162170  0.338860  1.0  -0.1634
  C  C2388  1  0.816130  0.150940  0.316860  1.0  0.0189
  C  C2389  1  0.850420  0.535070  0.901000  1.0  0.6994
  C  C2390  1  0.838370  0.557900  0.913110  1.0  -0.1322
  C  C2391  1  0.817020  0.568550  0.902220  1.0  0.0249
  C  C2392  1  0.806520  0.590570  0.912800  1.0  -0.1553
  C  C2393  1  0.817910  0.602190  0.933630  1.0  0.0305
  C  C2394  1  0.839340  0.591700  0.944570  1.0  -0.1379
  C  C2395  1  0.849720  0.569190  0.934450  1.0  0.0183
  C  C2396  1  0.784450  0.603120  0.899770  1.0  0.6828
  C  C2397  1  0.852690  0.605000  0.965920  1.0  0.6982
  C  C2398  1  0.783840  0.649330  0.851880  1.0  0.7049
  C  C2399  1  0.805540  0.662170  0.838860  1.0  -0.1634
  C  C2400  1  0.816130  0.650940  0.816860  1.0  0.0189
  C  C2401  1  0.350420  0.964930  0.099000  1.0  0.6992
  C  C2402  1  0.338370  0.942100  0.086890  1.0  -0.1317
  C  C2403  1  0.317020  0.931450  0.097780  1.0  0.0248
  C  C2404  1  0.306520  0.909430  0.087200  1.0  -0.1553
  C  C2405  1  0.317910  0.897810  0.066370  1.0  0.0299
  C  C2406  1  0.339340  0.908300  0.055430  1.0  -0.1372
  C  C2407  1  0.349720  0.930810  0.065550  1.0  0.0176
  C  C2408  1  0.284450  0.896880  0.100230  1.0  0.682
  C  C2409  1  0.352690  0.895000  0.034080  1.0  0.6974
  C  C2410  1  0.283840  0.850670  0.148120  1.0  0.7045
  C  C2411  1  0.305540  0.837830  0.161140  1.0  -0.1633
  C  C2412  1  0.316130  0.849060  0.183140  1.0  0.0198
  C  C2413  1  0.350420  0.464930  0.599000  1.0  0.6992
  C  C2414  1  0.338370  0.442100  0.586890  1.0  -0.1317
  C  C2415  1  0.317020  0.431450  0.597780  1.0  0.0248
  C  C2416  1  0.306520  0.409430  0.587200  1.0  -0.1553
  C  C2417  1  0.317910  0.397810  0.566370  1.0  0.0299
  C  C2418  1  0.339340  0.408300  0.555430  1.0  -0.1372
  C  C2419  1  0.349720  0.430810  0.565550  1.0  0.0176
  C  C2420  1  0.284450  0.396880  0.600230  1.0  0.682
  C  C2421  1  0.352690  0.395000  0.534080  1.0  0.6974
  C  C2422  1  0.283840  0.350670  0.648120  1.0  0.7045
  C  C2423  1  0.305540  0.337830  0.661140  1.0  -0.1633
  C  C2424  1  0.316130  0.349060  0.683140  1.0  0.0198
  C  C2425  1  0.850420  0.964930  0.599000  1.0  0.6992
  C  C2426  1  0.838370  0.942100  0.586890  1.0  -0.1317
  C  C2427  1  0.817020  0.931450  0.597780  1.0  0.0248
  C  C2428  1  0.806520  0.909430  0.587200  1.0  -0.1553
  C  C2429  1  0.817910  0.897810  0.566370  1.0  0.0299
  C  C2430  1  0.839340  0.908300  0.555430  1.0  -0.1372
  C  C2431  1  0.849720  0.930810  0.565550  1.0  0.0176
  C  C2432  1  0.784450  0.896880  0.600230  1.0  0.682
  C  C2433  1  0.852690  0.895000  0.534080  1.0  0.6974
  C  C2434  1  0.783840  0.850670  0.648120  1.0  0.7045
  C  C2435  1  0.805540  0.837830  0.661140  1.0  -0.1633
  C  C2436  1  0.816130  0.849060  0.683140  1.0  0.0198
  C  C2437  1  0.850420  0.464930  0.099000  1.0  0.6992
  C  C2438  1  0.838370  0.442100  0.086890  1.0  -0.1317
  C  C2439  1  0.817020  0.431450  0.097780  1.0  0.0248
  C  C2440  1  0.806520  0.409430  0.087200  1.0  -0.1553
  C  C2441  1  0.817910  0.397810  0.066370  1.0  0.0299
  C  C2442  1  0.839340  0.408300  0.055430  1.0  -0.1372
  C  C2443  1  0.849720  0.430810  0.065550  1.0  0.0176
  C  C2444  1  0.784450  0.396880  0.100230  1.0  0.682
  C  C2445  1  0.852690  0.395000  0.034080  1.0  0.6974
  C  C2446  1  0.783840  0.350670  0.148120  1.0  0.7045
  C  C2447  1  0.805540  0.337830  0.161140  1.0  -0.1633
  C  C2448  1  0.816130  0.349060  0.183140  1.0  0.0198
  C  C2449  1  0.649580  0.035070  0.099000  1.0  0.6996
  C  C2450  1  0.661630  0.057900  0.086890  1.0  -0.1325
  C  C2451  1  0.682980  0.068550  0.097780  1.0  0.0253
  C  C2452  1  0.693480  0.090570  0.087200  1.0  -0.1553
  C  C2453  1  0.682090  0.102190  0.066370  1.0  0.0303
  C  C2454  1  0.660660  0.091700  0.055430  1.0  -0.1374
  C  C2455  1  0.650280  0.069190  0.065550  1.0  0.0182
  C  C2456  1  0.715550  0.103120  0.100230  1.0  0.6822
  C  C2457  1  0.647310  0.105000  0.034080  1.0  0.699
  C  C2458  1  0.716160  0.149330  0.148120  1.0  0.7048
  C  C2459  1  0.694460  0.162170  0.161140  1.0  -0.1641
  C  C2460  1  0.683870  0.150940  0.183140  1.0  0.0201
  C  C2461  1  0.649580  0.535070  0.599000  1.0  0.6996
  C  C2462  1  0.661630  0.557900  0.586890  1.0  -0.1325
  C  C2463  1  0.682980  0.568550  0.597780  1.0  0.0253
  C  C2464  1  0.693480  0.590570  0.587200  1.0  -0.1553
  C  C2465  1  0.682090  0.602190  0.566370  1.0  0.0303
  C  C2466  1  0.660660  0.591700  0.555430  1.0  -0.1374
  C  C2467  1  0.650280  0.569190  0.565550  1.0  0.0182
  C  C2468  1  0.715550  0.603120  0.600230  1.0  0.6822
  C  C2469  1  0.647310  0.605000  0.534080  1.0  0.699
  C  C2470  1  0.716160  0.649330  0.648120  1.0  0.7048
  C  C2471  1  0.694460  0.662170  0.661140  1.0  -0.1641
  C  C2472  1  0.683870  0.650940  0.683140  1.0  0.0201
  C  C2473  1  0.149580  0.035070  0.599000  1.0  0.6996
  C  C2474  1  0.161630  0.057900  0.586890  1.0  -0.1325
  C  C2475  1  0.182980  0.068550  0.597780  1.0  0.0253
  C  C2476  1  0.193480  0.090570  0.587200  1.0  -0.1553
  C  C2477  1  0.182090  0.102190  0.566370  1.0  0.0303
  C  C2478  1  0.160660  0.091700  0.555430  1.0  -0.1374
  C  C2479  1  0.150280  0.069190  0.565550  1.0  0.0182
  C  C2480  1  0.215550  0.103120  0.600230  1.0  0.6822
  C  C2481  1  0.147310  0.105000  0.534080  1.0  0.699
  C  C2482  1  0.216160  0.149330  0.648120  1.0  0.7048
  C  C2483  1  0.194460  0.162170  0.661140  1.0  -0.1641
  C  C2484  1  0.183870  0.150940  0.683140  1.0  0.0201
  C  C2485  1  0.149580  0.535070  0.099000  1.0  0.6996
  C  C2486  1  0.161630  0.557900  0.086890  1.0  -0.1325
  C  C2487  1  0.182980  0.568550  0.097780  1.0  0.0253
  C  C2488  1  0.193480  0.590570  0.087200  1.0  -0.1553
  C  C2489  1  0.182090  0.602190  0.066370  1.0  0.0303
  C  C2490  1  0.160660  0.591700  0.055430  1.0  -0.1374
  C  C2491  1  0.150280  0.569190  0.065550  1.0  0.0182
  C  C2492  1  0.215550  0.603120  0.100230  1.0  0.6822
  C  C2493  1  0.147310  0.605000  0.034080  1.0  0.699
  C  C2494  1  0.216160  0.649330  0.148120  1.0  0.7048
  C  C2495  1  0.194460  0.662170  0.161140  1.0  -0.1641
  C  C2496  1  0.183870  0.650940  0.183140  1.0  0.0201
  C  C2497  1  0.901000  0.649580  0.964930  1.0  0.7001
  C  C2498  1  0.913110  0.661630  0.942100  1.0  -0.1337
  C  C2499  1  0.902220  0.682980  0.931450  1.0  0.0243
  C  C2500  1  0.912800  0.693480  0.909430  1.0  -0.1555
  C  C2501  1  0.933630  0.682090  0.897810  1.0  0.0302
  C  C2502  1  0.944570  0.660660  0.908300  1.0  -0.1367
  C  C2503  1  0.934450  0.650280  0.930810  1.0  0.0196
  C  C2504  1  0.899770  0.715550  0.896880  1.0  0.6823
  C  C2505  1  0.965920  0.647310  0.895000  1.0  0.6971
  C  C2506  1  0.851880  0.716160  0.850670  1.0  0.7038
  C  C2507  1  0.838860  0.694460  0.837830  1.0  -0.1636
  C  C2508  1  0.816860  0.683870  0.849060  1.0  0.0182
  C  C2509  1  0.901000  0.149580  0.464930  1.0  0.7001
  C  C2510  1  0.913110  0.161630  0.442100  1.0  -0.1337
  C  C2511  1  0.902220  0.182980  0.431450  1.0  0.0243
  C  C2512  1  0.912800  0.193480  0.409430  1.0  -0.1555
  C  C2513  1  0.933630  0.182090  0.397810  1.0  0.0302
  C  C2514  1  0.944570  0.160660  0.408300  1.0  -0.1367
  C  C2515  1  0.934450  0.150280  0.430810  1.0  0.0196
  C  C2516  1  0.899770  0.215550  0.396880  1.0  0.6823
  C  C2517  1  0.965920  0.147310  0.395000  1.0  0.6971
  C  C2518  1  0.851880  0.216160  0.350670  1.0  0.7038
  C  C2519  1  0.838860  0.194460  0.337830  1.0  -0.1636
  C  C2520  1  0.816860  0.183870  0.349060  1.0  0.0182
  C  C2521  1  0.401000  0.649580  0.464930  1.0  0.7001
  C  C2522  1  0.413110  0.661630  0.442100  1.0  -0.1337
  C  C2523  1  0.402220  0.682980  0.431450  1.0  0.0243
  C  C2524  1  0.412800  0.693480  0.409430  1.0  -0.1555
  C  C2525  1  0.433630  0.682090  0.397810  1.0  0.0302
  C  C2526  1  0.444570  0.660660  0.408300  1.0  -0.1367
  C  C2527  1  0.434450  0.650280  0.430810  1.0  0.0196
  C  C2528  1  0.399770  0.715550  0.396880  1.0  0.6823
  C  C2529  1  0.465920  0.647310  0.395000  1.0  0.6971
  C  C2530  1  0.351880  0.716160  0.350670  1.0  0.7038
  C  C2531  1  0.338860  0.694460  0.337830  1.0  -0.1636
  C  C2532  1  0.316860  0.683870  0.349060  1.0  0.0182
  C  C2533  1  0.401000  0.149580  0.964930  1.0  0.7001
  C  C2534  1  0.413110  0.161630  0.942100  1.0  -0.1337
  C  C2535  1  0.402220  0.182980  0.931450  1.0  0.0243
  C  C2536  1  0.412800  0.193480  0.909430  1.0  -0.1555
  C  C2537  1  0.433630  0.182090  0.897810  1.0  0.0302
  C  C2538  1  0.444570  0.160660  0.908300  1.0  -0.1367
  C  C2539  1  0.434450  0.150280  0.930810  1.0  0.0196
  C  C2540  1  0.399770  0.215550  0.896880  1.0  0.6823
  C  C2541  1  0.465920  0.147310  0.895000  1.0  0.6971
  C  C2542  1  0.351880  0.216160  0.850670  1.0  0.7038
  C  C2543  1  0.338860  0.194460  0.837830  1.0  -0.1636
  C  C2544  1  0.316860  0.183870  0.849060  1.0  0.0182
  C  C2545  1  0.901000  0.350420  0.035070  1.0  0.7004
  C  C2546  1  0.913110  0.338370  0.057900  1.0  -0.1327
  C  C2547  1  0.902220  0.317020  0.068550  1.0  0.0241
  C  C2548  1  0.912800  0.306520  0.090570  1.0  -0.1551
  C  C2549  1  0.933630  0.317910  0.102190  1.0  0.0308
  C  C2550  1  0.944570  0.339340  0.091700  1.0  -0.1368
  C  C2551  1  0.934450  0.349720  0.069190  1.0  0.0187
  C  C2552  1  0.899770  0.284450  0.103120  1.0  0.6823
  C  C2553  1  0.965920  0.352690  0.105000  1.0  0.6978
  C  C2554  1  0.851880  0.283840  0.149330  1.0  0.7037
  C  C2555  1  0.838860  0.305540  0.162170  1.0  -0.1641
  C  C2556  1  0.816860  0.316130  0.150940  1.0  0.0185
  C  C2557  1  0.901000  0.850420  0.535070  1.0  0.7004
  C  C2558  1  0.913110  0.838370  0.557900  1.0  -0.1327
  C  C2559  1  0.902220  0.817020  0.568550  1.0  0.0241
  C  C2560  1  0.912800  0.806520  0.590570  1.0  -0.1551
  C  C2561  1  0.933630  0.817910  0.602190  1.0  0.0308
  C  C2562  1  0.944570  0.839340  0.591700  1.0  -0.1368
  C  C2563  1  0.934450  0.849720  0.569190  1.0  0.0187
  C  C2564  1  0.899770  0.784450  0.603120  1.0  0.6823
  C  C2565  1  0.965920  0.852690  0.605000  1.0  0.6978
  C  C2566  1  0.851880  0.783840  0.649330  1.0  0.7037
  C  C2567  1  0.838860  0.805540  0.662170  1.0  -0.1641
  C  C2568  1  0.816860  0.816130  0.650940  1.0  0.0185
  C  C2569  1  0.401000  0.350420  0.535070  1.0  0.7004
  C  C2570  1  0.413110  0.338370  0.557900  1.0  -0.1327
  C  C2571  1  0.402220  0.317020  0.568550  1.0  0.0241
  C  C2572  1  0.412800  0.306520  0.590570  1.0  -0.1551
  C  C2573  1  0.433630  0.317910  0.602190  1.0  0.0308
  C  C2574  1  0.444570  0.339340  0.591700  1.0  -0.1368
  C  C2575  1  0.434450  0.349720  0.569190  1.0  0.0187
  C  C2576  1  0.399770  0.284450  0.603120  1.0  0.6823
  C  C2577  1  0.465920  0.352690  0.605000  1.0  0.6978
  C  C2578  1  0.351880  0.283840  0.649330  1.0  0.7037
  C  C2579  1  0.338860  0.305540  0.662170  1.0  -0.1641
  C  C2580  1  0.316860  0.316130  0.650940  1.0  0.0185
  C  C2581  1  0.401000  0.850420  0.035070  1.0  0.7004
  C  C2582  1  0.413110  0.838370  0.057900  1.0  -0.1327
  C  C2583  1  0.402220  0.817020  0.068550  1.0  0.0241
  C  C2584  1  0.412800  0.806520  0.090570  1.0  -0.1551
  C  C2585  1  0.433630  0.817910  0.102190  1.0  0.0308
  C  C2586  1  0.444570  0.839340  0.091700  1.0  -0.1368
  C  C2587  1  0.434450  0.849720  0.069190  1.0  0.0187
  C  C2588  1  0.399770  0.784450  0.103120  1.0  0.6823
  C  C2589  1  0.465920  0.852690  0.105000  1.0  0.6978
  C  C2590  1  0.351880  0.783840  0.149330  1.0  0.7037
  C  C2591  1  0.338860  0.805540  0.162170  1.0  -0.1641
  C  C2592  1  0.316860  0.816130  0.150940  1.0  0.0185
  C  C2593  1  0.099000  0.350420  0.964930  1.0  0.7009
  C  C2594  1  0.086890  0.338370  0.942100  1.0  -0.1334
  C  C2595  1  0.097780  0.317020  0.931450  1.0  0.0249
  C  C2596  1  0.087200  0.306520  0.909430  1.0  -0.1551
  C  C2597  1  0.066370  0.317910  0.897810  1.0  0.0301
  C  C2598  1  0.055430  0.339340  0.908300  1.0  -0.1372
  C  C2599  1  0.065550  0.349720  0.930810  1.0  0.019
  C  C2600  1  0.100230  0.284450  0.896880  1.0  0.6825
  C  C2601  1  0.034080  0.352690  0.895000  1.0  0.6979
  C  C2602  1  0.148120  0.283840  0.850670  1.0  0.7038
  C  C2603  1  0.161140  0.305540  0.837830  1.0  -0.1635
  C  C2604  1  0.183140  0.316130  0.849060  1.0  0.0193
  C  C2605  1  0.099000  0.850420  0.464930  1.0  0.7009
  C  C2606  1  0.086890  0.838370  0.442100  1.0  -0.1334
  C  C2607  1  0.097780  0.817020  0.431450  1.0  0.0249
  C  C2608  1  0.087200  0.806520  0.409430  1.0  -0.1551
  C  C2609  1  0.066370  0.817910  0.397810  1.0  0.0301
  C  C2610  1  0.055430  0.839340  0.408300  1.0  -0.1372
  C  C2611  1  0.065550  0.849720  0.430810  1.0  0.019
  C  C2612  1  0.100230  0.784450  0.396880  1.0  0.6825
  C  C2613  1  0.034080  0.852690  0.395000  1.0  0.6979
  C  C2614  1  0.148120  0.783840  0.350670  1.0  0.7038
  C  C2615  1  0.161140  0.805540  0.337830  1.0  -0.1635
  C  C2616  1  0.183140  0.816130  0.349060  1.0  0.0193
  C  C2617  1  0.599000  0.350420  0.464930  1.0  0.7009
  C  C2618  1  0.586890  0.338370  0.442100  1.0  -0.1334
  C  C2619  1  0.597780  0.317020  0.431450  1.0  0.0249
  C  C2620  1  0.587200  0.306520  0.409430  1.0  -0.1551
  C  C2621  1  0.566370  0.317910  0.397810  1.0  0.0301
  C  C2622  1  0.555430  0.339340  0.408300  1.0  -0.1372
  C  C2623  1  0.565550  0.349720  0.430810  1.0  0.019
  C  C2624  1  0.600230  0.284450  0.396880  1.0  0.6825
  C  C2625  1  0.534080  0.352690  0.395000  1.0  0.6979
  C  C2626  1  0.648120  0.283840  0.350670  1.0  0.7038
  C  C2627  1  0.661140  0.305540  0.337830  1.0  -0.1635
  C  C2628  1  0.683140  0.316130  0.349060  1.0  0.0193
  C  C2629  1  0.599000  0.850420  0.964930  1.0  0.7009
  C  C2630  1  0.586890  0.838370  0.942100  1.0  -0.1334
  C  C2631  1  0.597780  0.817020  0.931450  1.0  0.0249
  C  C2632  1  0.587200  0.806520  0.909430  1.0  -0.1551
  C  C2633  1  0.566370  0.817910  0.897810  1.0  0.0301
  C  C2634  1  0.555430  0.839340  0.908300  1.0  -0.1372
  C  C2635  1  0.565550  0.849720  0.930810  1.0  0.019
  C  C2636  1  0.600230  0.784450  0.896880  1.0  0.6825
  C  C2637  1  0.534080  0.852690  0.895000  1.0  0.6979
  C  C2638  1  0.648120  0.783840  0.850670  1.0  0.7038
  C  C2639  1  0.661140  0.805540  0.837830  1.0  -0.1635
  C  C2640  1  0.683140  0.816130  0.849060  1.0  0.0193
  C  C2641  1  0.099000  0.649580  0.035070  1.0  0.7001
  C  C2642  1  0.086890  0.661630  0.057900  1.0  -0.1331
  C  C2643  1  0.097780  0.682980  0.068550  1.0  0.0241
  C  C2644  1  0.087200  0.693480  0.090570  1.0  -0.1551
  C  C2645  1  0.066370  0.682090  0.102190  1.0  0.03
  C  C2646  1  0.055430  0.660660  0.091700  1.0  -0.1371
  C  C2647  1  0.065550  0.650280  0.069190  1.0  0.0189
  C  C2648  1  0.100230  0.715550  0.103120  1.0  0.6822
  C  C2649  1  0.034080  0.647310  0.105000  1.0  0.6976
  C  C2650  1  0.148120  0.716160  0.149330  1.0  0.7036
  C  C2651  1  0.161140  0.694460  0.162170  1.0  -0.1635
  C  C2652  1  0.183140  0.683870  0.150940  1.0  0.0189
  C  C2653  1  0.099000  0.149580  0.535070  1.0  0.7001
  C  C2654  1  0.086890  0.161630  0.557900  1.0  -0.1331
  C  C2655  1  0.097780  0.182980  0.568550  1.0  0.0241
  C  C2656  1  0.087200  0.193480  0.590570  1.0  -0.1551
  C  C2657  1  0.066370  0.182090  0.602190  1.0  0.03
  C  C2658  1  0.055430  0.160660  0.591700  1.0  -0.1371
  C  C2659  1  0.065550  0.150280  0.569190  1.0  0.0189
  C  C2660  1  0.100230  0.215550  0.603120  1.0  0.6822
  C  C2661  1  0.034080  0.147310  0.605000  1.0  0.6976
  C  C2662  1  0.148120  0.216160  0.649330  1.0  0.7036
  C  C2663  1  0.161140  0.194460  0.662170  1.0  -0.1635
  C  C2664  1  0.183140  0.183870  0.650940  1.0  0.0189
  C  C2665  1  0.599000  0.649580  0.535070  1.0  0.7001
  C  C2666  1  0.586890  0.661630  0.557900  1.0  -0.1331
  C  C2667  1  0.597780  0.682980  0.568550  1.0  0.0241
  C  C2668  1  0.587200  0.693480  0.590570  1.0  -0.1551
  C  C2669  1  0.566370  0.682090  0.602190  1.0  0.03
  C  C2670  1  0.555430  0.660660  0.591700  1.0  -0.1371
  C  C2671  1  0.565550  0.650280  0.569190  1.0  0.0189
  C  C2672  1  0.600230  0.715550  0.603120  1.0  0.6822
  C  C2673  1  0.534080  0.647310  0.605000  1.0  0.6976
  C  C2674  1  0.648120  0.716160  0.649330  1.0  0.7036
  C  C2675  1  0.661140  0.694460  0.662170  1.0  -0.1635
  C  C2676  1  0.683140  0.683870  0.650940  1.0  0.0189
  C  C2677  1  0.599000  0.149580  0.035070  1.0  0.7001
  C  C2678  1  0.586890  0.161630  0.057900  1.0  -0.1331
  C  C2679  1  0.597780  0.182980  0.068550  1.0  0.0241
  C  C2680  1  0.587200  0.193480  0.090570  1.0  -0.1551
  C  C2681  1  0.566370  0.182090  0.102190  1.0  0.03
  C  C2682  1  0.555430  0.160660  0.091700  1.0  -0.1371
  C  C2683  1  0.565550  0.150280  0.069190  1.0  0.0189
  C  C2684  1  0.600230  0.215550  0.103120  1.0  0.6822
  C  C2685  1  0.534080  0.147310  0.105000  1.0  0.6976
  C  C2686  1  0.648120  0.216160  0.149330  1.0  0.7036
  C  C2687  1  0.661140  0.194460  0.162170  1.0  -0.1635
  C  C2688  1  0.683140  0.183870  0.150940  1.0  0.0189
  C  C2689  1  0.964930  0.901000  0.649580  1.0  0.699
  C  C2690  1  0.942100  0.913110  0.661630  1.0  -0.1315
  C  C2691  1  0.931450  0.902220  0.682980  1.0  0.026
  C  C2692  1  0.909430  0.912800  0.693480  1.0  -0.157
  C  C2693  1  0.897810  0.933630  0.682090  1.0  0.0304
  C  C2694  1  0.908300  0.944570  0.660660  1.0  -0.1363
  C  C2695  1  0.930810  0.934450  0.650280  1.0  0.0193
  C  C2696  1  0.896880  0.899770  0.715550  1.0  0.6832
  C  C2697  1  0.895000  0.965920  0.647310  1.0  0.6977
  C  C2698  1  0.850670  0.851880  0.716160  1.0  0.7053
  C  C2699  1  0.837830  0.838860  0.694460  1.0  -0.1656
  C  C2700  1  0.849060  0.816860  0.683870  1.0  0.0182
  C  C2701  1  0.964930  0.401000  0.149580  1.0  0.699
  C  C2702  1  0.942100  0.413110  0.161630  1.0  -0.1315
  C  C2703  1  0.931450  0.402220  0.182980  1.0  0.026
  C  C2704  1  0.909430  0.412800  0.193480  1.0  -0.157
  C  C2705  1  0.897810  0.433630  0.182090  1.0  0.0304
  C  C2706  1  0.908300  0.444570  0.160660  1.0  -0.1363
  C  C2707  1  0.930810  0.434450  0.150280  1.0  0.0193
  C  C2708  1  0.896880  0.399770  0.215550  1.0  0.6832
  C  C2709  1  0.895000  0.465920  0.147310  1.0  0.6977
  C  C2710  1  0.850670  0.351880  0.216160  1.0  0.7053
  C  C2711  1  0.837830  0.338860  0.194460  1.0  -0.1656
  C  C2712  1  0.849060  0.316860  0.183870  1.0  0.0182
  C  C2713  1  0.464930  0.901000  0.149580  1.0  0.699
  C  C2714  1  0.442100  0.913110  0.161630  1.0  -0.1315
  C  C2715  1  0.431450  0.902220  0.182980  1.0  0.026
  C  C2716  1  0.409430  0.912800  0.193480  1.0  -0.157
  C  C2717  1  0.397810  0.933630  0.182090  1.0  0.0304
  C  C2718  1  0.408300  0.944570  0.160660  1.0  -0.1363
  C  C2719  1  0.430810  0.934450  0.150280  1.0  0.0193
  C  C2720  1  0.396880  0.899770  0.215550  1.0  0.6832
  C  C2721  1  0.395000  0.965920  0.147310  1.0  0.6977
  C  C2722  1  0.350670  0.851880  0.216160  1.0  0.7053
  C  C2723  1  0.337830  0.838860  0.194460  1.0  -0.1656
  C  C2724  1  0.349060  0.816860  0.183870  1.0  0.0182
  C  C2725  1  0.464930  0.401000  0.649580  1.0  0.699
  C  C2726  1  0.442100  0.413110  0.661630  1.0  -0.1315
  C  C2727  1  0.431450  0.402220  0.682980  1.0  0.026
  C  C2728  1  0.409430  0.412800  0.693480  1.0  -0.157
  C  C2729  1  0.397810  0.433630  0.682090  1.0  0.0304
  C  C2730  1  0.408300  0.444570  0.660660  1.0  -0.1363
  C  C2731  1  0.430810  0.434450  0.650280  1.0  0.0193
  C  C2732  1  0.396880  0.399770  0.715550  1.0  0.6832
  C  C2733  1  0.395000  0.465920  0.647310  1.0  0.6977
  C  C2734  1  0.350670  0.351880  0.716160  1.0  0.7053
  C  C2735  1  0.337830  0.338860  0.694460  1.0  -0.1656
  C  C2736  1  0.349060  0.316860  0.683870  1.0  0.0182
  C  C2737  1  0.035070  0.901000  0.350420  1.0  0.6988
  C  C2738  1  0.057900  0.913110  0.338370  1.0  -0.1321
  C  C2739  1  0.068550  0.902220  0.317020  1.0  0.0252
  C  C2740  1  0.090570  0.912800  0.306520  1.0  -0.1559
  C  C2741  1  0.102190  0.933630  0.317910  1.0  0.0299
  C  C2742  1  0.091700  0.944570  0.339340  1.0  -0.1363
  C  C2743  1  0.069190  0.934450  0.349720  1.0  0.0187
  C  C2744  1  0.103120  0.899770  0.284450  1.0  0.6831
  C  C2745  1  0.105000  0.965920  0.352690  1.0  0.6965
  C  C2746  1  0.149330  0.851880  0.283840  1.0  0.7051
  C  C2747  1  0.162170  0.838860  0.305540  1.0  -0.1648
  C  C2748  1  0.150940  0.816860  0.316130  1.0  0.0174
  C  C2749  1  0.035070  0.401000  0.850420  1.0  0.6988
  C  C2750  1  0.057900  0.413110  0.838370  1.0  -0.1321
  C  C2751  1  0.068550  0.402220  0.817020  1.0  0.0252
  C  C2752  1  0.090570  0.412800  0.806520  1.0  -0.1559
  C  C2753  1  0.102190  0.433630  0.817910  1.0  0.0299
  C  C2754  1  0.091700  0.444570  0.839340  1.0  -0.1363
  C  C2755  1  0.069190  0.434450  0.849720  1.0  0.0187
  C  C2756  1  0.103120  0.399770  0.784450  1.0  0.6831
  C  C2757  1  0.105000  0.465920  0.852690  1.0  0.6965
  C  C2758  1  0.149330  0.351880  0.783840  1.0  0.7051
  C  C2759  1  0.162170  0.338860  0.805540  1.0  -0.1648
  C  C2760  1  0.150940  0.316860  0.816130  1.0  0.0174
  C  C2761  1  0.535070  0.901000  0.850420  1.0  0.6988
  C  C2762  1  0.557900  0.913110  0.838370  1.0  -0.1321
  C  C2763  1  0.568550  0.902220  0.817020  1.0  0.0252
  C  C2764  1  0.590570  0.912800  0.806520  1.0  -0.1559
  C  C2765  1  0.602190  0.933630  0.817910  1.0  0.0299
  C  C2766  1  0.591700  0.944570  0.839340  1.0  -0.1363
  C  C2767  1  0.569190  0.934450  0.849720  1.0  0.0187
  C  C2768  1  0.603120  0.899770  0.784450  1.0  0.6831
  C  C2769  1  0.605000  0.965920  0.852690  1.0  0.6965
  C  C2770  1  0.649330  0.851880  0.783840  1.0  0.7051
  C  C2771  1  0.662170  0.838860  0.805540  1.0  -0.1648
  C  C2772  1  0.650940  0.816860  0.816130  1.0  0.0174
  C  C2773  1  0.535070  0.401000  0.350420  1.0  0.6988
  C  C2774  1  0.557900  0.413110  0.338370  1.0  -0.1321
  C  C2775  1  0.568550  0.402220  0.317020  1.0  0.0252
  C  C2776  1  0.590570  0.412800  0.306520  1.0  -0.1559
  C  C2777  1  0.602190  0.433630  0.317910  1.0  0.0299
  C  C2778  1  0.591700  0.444570  0.339340  1.0  -0.1363
  C  C2779  1  0.569190  0.434450  0.349720  1.0  0.0187
  C  C2780  1  0.603120  0.399770  0.284450  1.0  0.6831
  C  C2781  1  0.605000  0.465920  0.352690  1.0  0.6965
  C  C2782  1  0.649330  0.351880  0.283840  1.0  0.7051
  C  C2783  1  0.662170  0.338860  0.305540  1.0  -0.1648
  C  C2784  1  0.650940  0.316860  0.316130  1.0  0.0174
  C  C2785  1  0.964930  0.099000  0.350420  1.0  0.6994
  C  C2786  1  0.942100  0.086890  0.338370  1.0  -0.1319
  C  C2787  1  0.931450  0.097780  0.317020  1.0  0.0252
  C  C2788  1  0.909430  0.087200  0.306520  1.0  -0.1558
  C  C2789  1  0.897810  0.066370  0.317910  1.0  0.0301
  C  C2790  1  0.908300  0.055430  0.339340  1.0  -0.1368
  C  C2791  1  0.930810  0.065550  0.349720  1.0  0.0199
  C  C2792  1  0.896880  0.100230  0.284450  1.0  0.6833
  C  C2793  1  0.895000  0.034080  0.352690  1.0  0.6974
  C  C2794  1  0.850670  0.148120  0.283840  1.0  0.7055
  C  C2795  1  0.837830  0.161140  0.305540  1.0  -0.1648
  C  C2796  1  0.849060  0.183140  0.316130  1.0  0.0182
  C  C2797  1  0.964930  0.599000  0.850420  1.0  0.6994
  C  C2798  1  0.942100  0.586890  0.838370  1.0  -0.1319
  C  C2799  1  0.931450  0.597780  0.817020  1.0  0.0252
  C  C2800  1  0.909430  0.587200  0.806520  1.0  -0.1558
  C  C2801  1  0.897810  0.566370  0.817910  1.0  0.0301
  C  C2802  1  0.908300  0.555430  0.839340  1.0  -0.1368
  C  C2803  1  0.930810  0.565550  0.849720  1.0  0.0199
  C  C2804  1  0.896880  0.600230  0.784450  1.0  0.6833
  C  C2805  1  0.895000  0.534080  0.852690  1.0  0.6974
  C  C2806  1  0.850670  0.648120  0.783840  1.0  0.7055
  C  C2807  1  0.837830  0.661140  0.805540  1.0  -0.1648
  C  C2808  1  0.849060  0.683140  0.816130  1.0  0.0182
  C  C2809  1  0.464930  0.099000  0.850420  1.0  0.6994
  C  C2810  1  0.442100  0.086890  0.838370  1.0  -0.1319
  C  C2811  1  0.431450  0.097780  0.817020  1.0  0.0252
  C  C2812  1  0.409430  0.087200  0.806520  1.0  -0.1558
  C  C2813  1  0.397810  0.066370  0.817910  1.0  0.0301
  C  C2814  1  0.408300  0.055430  0.839340  1.0  -0.1368
  C  C2815  1  0.430810  0.065550  0.849720  1.0  0.0199
  C  C2816  1  0.396880  0.100230  0.784450  1.0  0.6833
  C  C2817  1  0.395000  0.034080  0.852690  1.0  0.6974
  C  C2818  1  0.350670  0.148120  0.783840  1.0  0.7055
  C  C2819  1  0.337830  0.161140  0.805540  1.0  -0.1648
  C  C2820  1  0.349060  0.183140  0.816130  1.0  0.0182
  C  C2821  1  0.464930  0.599000  0.350420  1.0  0.6994
  C  C2822  1  0.442100  0.586890  0.338370  1.0  -0.1319
  C  C2823  1  0.431450  0.597780  0.317020  1.0  0.0252
  C  C2824  1  0.409430  0.587200  0.306520  1.0  -0.1558
  C  C2825  1  0.397810  0.566370  0.317910  1.0  0.0301
  C  C2826  1  0.408300  0.555430  0.339340  1.0  -0.1368
  C  C2827  1  0.430810  0.565550  0.349720  1.0  0.0199
  C  C2828  1  0.396880  0.600230  0.284450  1.0  0.6833
  C  C2829  1  0.395000  0.534080  0.352690  1.0  0.6974
  C  C2830  1  0.350670  0.648120  0.283840  1.0  0.7055
  C  C2831  1  0.337830  0.661140  0.305540  1.0  -0.1648
  C  C2832  1  0.349060  0.683140  0.316130  1.0  0.0182
  C  C2833  1  0.035070  0.099000  0.649580  1.0  0.6988
  C  C2834  1  0.057900  0.086890  0.661630  1.0  -0.1318
  C  C2835  1  0.068550  0.097780  0.682980  1.0  0.0254
  C  C2836  1  0.090570  0.087200  0.693480  1.0  -0.1573
  C  C2837  1  0.102190  0.066370  0.682090  1.0  0.0306
  C  C2838  1  0.091700  0.055430  0.660660  1.0  -0.1368
  C  C2839  1  0.069190  0.065550  0.650280  1.0  0.0194
  C  C2840  1  0.103120  0.100230  0.715550  1.0  0.6837
  C  C2841  1  0.105000  0.034080  0.647310  1.0  0.6963
  C  C2842  1  0.149330  0.148120  0.716160  1.0  0.7052
  C  C2843  1  0.162170  0.161140  0.694460  1.0  -0.1653
  C  C2844  1  0.150940  0.183140  0.683870  1.0  0.0175
  C  C2845  1  0.035070  0.599000  0.149580  1.0  0.6988
  C  C2846  1  0.057900  0.586890  0.161630  1.0  -0.1318
  C  C2847  1  0.068550  0.597780  0.182980  1.0  0.0254
  C  C2848  1  0.090570  0.587200  0.193480  1.0  -0.1573
  C  C2849  1  0.102190  0.566370  0.182090  1.0  0.0306
  C  C2850  1  0.091700  0.555430  0.160660  1.0  -0.1368
  C  C2851  1  0.069190  0.565550  0.150280  1.0  0.0194
  C  C2852  1  0.103120  0.600230  0.215550  1.0  0.6837
  C  C2853  1  0.105000  0.534080  0.147310  1.0  0.6963
  C  C2854  1  0.149330  0.648120  0.216160  1.0  0.7052
  C  C2855  1  0.162170  0.661140  0.194460  1.0  -0.1653
  C  C2856  1  0.150940  0.683140  0.183870  1.0  0.0175
  C  C2857  1  0.535070  0.099000  0.149580  1.0  0.6988
  C  C2858  1  0.557900  0.086890  0.161630  1.0  -0.1318
  C  C2859  1  0.568550  0.097780  0.182980  1.0  0.0254
  C  C2860  1  0.590570  0.087200  0.193480  1.0  -0.1573
  C  C2861  1  0.602190  0.066370  0.182090  1.0  0.0306
  C  C2862  1  0.591700  0.055430  0.160660  1.0  -0.1368
  C  C2863  1  0.569190  0.065550  0.150280  1.0  0.0194
  C  C2864  1  0.603120  0.100230  0.215550  1.0  0.6837
  C  C2865  1  0.605000  0.034080  0.147310  1.0  0.6963
  C  C2866  1  0.649330  0.148120  0.216160  1.0  0.7052
  C  C2867  1  0.662170  0.161140  0.194460  1.0  -0.1653
  C  C2868  1  0.650940  0.183140  0.183870  1.0  0.0175
  C  C2869  1  0.535070  0.599000  0.649580  1.0  0.6988
  C  C2870  1  0.557900  0.586890  0.661630  1.0  -0.1318
  C  C2871  1  0.568550  0.597780  0.682980  1.0  0.0254
  C  C2872  1  0.590570  0.587200  0.693480  1.0  -0.1573
  C  C2873  1  0.602190  0.566370  0.682090  1.0  0.0306
  C  C2874  1  0.591700  0.555430  0.660660  1.0  -0.1368
  C  C2875  1  0.569190  0.565550  0.650280  1.0  0.0194
  C  C2876  1  0.603120  0.600230  0.715550  1.0  0.6837
  C  C2877  1  0.605000  0.534080  0.647310  1.0  0.6963
  C  C2878  1  0.649330  0.648120  0.716160  1.0  0.7052
  C  C2879  1  0.662170  0.661140  0.694460  1.0  -0.1653
  C  C2880  1  0.650940  0.683140  0.683870  1.0  0.0175
  C  C2881  1  0.464930  0.149580  0.599000  1.0  0.6988
  C  C2882  1  0.442100  0.161630  0.586890  1.0  -0.1318
  C  C2883  1  0.431450  0.182980  0.597780  1.0  0.0249
  C  C2884  1  0.409430  0.193480  0.587200  1.0  -0.1552
  C  C2885  1  0.397810  0.182090  0.566370  1.0  0.0302
  C  C2886  1  0.408300  0.160660  0.555430  1.0  -0.1375
  C  C2887  1  0.430810  0.150280  0.565550  1.0  0.0193
  C  C2888  1  0.396880  0.215550  0.600230  1.0  0.6816
  C  C2889  1  0.395000  0.147310  0.534080  1.0  0.6986
  C  C2890  1  0.350670  0.216160  0.648120  1.0  0.704
  C  C2891  1  0.337830  0.194460  0.661140  1.0  -0.1635
  C  C2892  1  0.349060  0.183870  0.683140  1.0  0.0182
  C  C2893  1  0.464930  0.649580  0.099000  1.0  0.6988
  C  C2894  1  0.442100  0.661630  0.086890  1.0  -0.1318
  C  C2895  1  0.431450  0.682980  0.097780  1.0  0.0249
  C  C2896  1  0.409430  0.693480  0.087200  1.0  -0.1552
  C  C2897  1  0.397810  0.682090  0.066370  1.0  0.0302
  C  C2898  1  0.408300  0.660660  0.055430  1.0  -0.1375
  C  C2899  1  0.430810  0.650280  0.065550  1.0  0.0193
  C  C2900  1  0.396880  0.715550  0.100230  1.0  0.6816
  C  C2901  1  0.395000  0.647310  0.034080  1.0  0.6986
  C  C2902  1  0.350670  0.716160  0.148120  1.0  0.704
  C  C2903  1  0.337830  0.694460  0.161140  1.0  -0.1635
  C  C2904  1  0.349060  0.683870  0.183140  1.0  0.0182
  C  C2905  1  0.964930  0.149580  0.099000  1.0  0.6988
  C  C2906  1  0.942100  0.161630  0.086890  1.0  -0.1318
  C  C2907  1  0.931450  0.182980  0.097780  1.0  0.0249
  C  C2908  1  0.909430  0.193480  0.087200  1.0  -0.1552
  C  C2909  1  0.897810  0.182090  0.066370  1.0  0.0302
  C  C2910  1  0.908300  0.160660  0.055430  1.0  -0.1375
  C  C2911  1  0.930810  0.150280  0.065550  1.0  0.0193
  C  C2912  1  0.896880  0.215550  0.100230  1.0  0.6816
  C  C2913  1  0.895000  0.147310  0.034080  1.0  0.6986
  C  C2914  1  0.850670  0.216160  0.148120  1.0  0.704
  C  C2915  1  0.837830  0.194460  0.161140  1.0  -0.1635
  C  C2916  1  0.849060  0.183870  0.183140  1.0  0.0182
  C  C2917  1  0.964930  0.649580  0.599000  1.0  0.6988
  C  C2918  1  0.942100  0.661630  0.586890  1.0  -0.1318
  C  C2919  1  0.931450  0.682980  0.597780  1.0  0.0249
  C  C2920  1  0.909430  0.693480  0.587200  1.0  -0.1552
  C  C2921  1  0.897810  0.682090  0.566370  1.0  0.0302
  C  C2922  1  0.908300  0.660660  0.555430  1.0  -0.1375
  C  C2923  1  0.930810  0.650280  0.565550  1.0  0.0193
  C  C2924  1  0.896880  0.715550  0.600230  1.0  0.6816
  C  C2925  1  0.895000  0.647310  0.534080  1.0  0.6986
  C  C2926  1  0.850670  0.716160  0.648120  1.0  0.704
  C  C2927  1  0.837830  0.694460  0.661140  1.0  -0.1635
  C  C2928  1  0.849060  0.683870  0.683140  1.0  0.0182
  C  C2929  1  0.535070  0.850420  0.599000  1.0  0.6989
  C  C2930  1  0.557900  0.838370  0.586890  1.0  -0.1315
  C  C2931  1  0.568550  0.817020  0.597780  1.0  0.0253
  C  C2932  1  0.590570  0.806520  0.587200  1.0  -0.1552
  C  C2933  1  0.602190  0.817910  0.566370  1.0  0.0302
  C  C2934  1  0.591700  0.839340  0.555430  1.0  -0.1372
  C  C2935  1  0.569190  0.849720  0.565550  1.0  0.0187
  C  C2936  1  0.603120  0.784450  0.600230  1.0  0.682
  C  C2937  1  0.605000  0.852690  0.534080  1.0  0.6976
  C  C2938  1  0.649330  0.783840  0.648120  1.0  0.7037
  C  C2939  1  0.662170  0.805540  0.661140  1.0  -0.1637
  C  C2940  1  0.650940  0.816130  0.683140  1.0  0.0181
  C  C2941  1  0.535070  0.350420  0.099000  1.0  0.6989
  C  C2942  1  0.557900  0.338370  0.086890  1.0  -0.1315
  C  C2943  1  0.568550  0.317020  0.097780  1.0  0.0253
  C  C2944  1  0.590570  0.306520  0.087200  1.0  -0.1552
  C  C2945  1  0.602190  0.317910  0.066370  1.0  0.0302
  C  C2946  1  0.591700  0.339340  0.055430  1.0  -0.1372
  C  C2947  1  0.569190  0.349720  0.065550  1.0  0.0187
  C  C2948  1  0.603120  0.284450  0.100230  1.0  0.682
  C  C2949  1  0.605000  0.352690  0.034080  1.0  0.6976
  C  C2950  1  0.649330  0.283840  0.148120  1.0  0.7037
  C  C2951  1  0.662170  0.305540  0.161140  1.0  -0.1637
  C  C2952  1  0.650940  0.316130  0.183140  1.0  0.0181
  C  C2953  1  0.035070  0.850420  0.099000  1.0  0.6989
  C  C2954  1  0.057900  0.838370  0.086890  1.0  -0.1315
  C  C2955  1  0.068550  0.817020  0.097780  1.0  0.0253
  C  C2956  1  0.090570  0.806520  0.087200  1.0  -0.1552
  C  C2957  1  0.102190  0.817910  0.066370  1.0  0.0302
  C  C2958  1  0.091700  0.839340  0.055430  1.0  -0.1372
  C  C2959  1  0.069190  0.849720  0.065550  1.0  0.0187
  C  C2960  1  0.103120  0.784450  0.100230  1.0  0.682
  C  C2961  1  0.105000  0.852690  0.034080  1.0  0.6976
  C  C2962  1  0.149330  0.783840  0.148120  1.0  0.7037
  C  C2963  1  0.162170  0.805540  0.161140  1.0  -0.1637
  C  C2964  1  0.150940  0.816130  0.183140  1.0  0.0181
  C  C2965  1  0.035070  0.350420  0.599000  1.0  0.6989
  C  C2966  1  0.057900  0.338370  0.586890  1.0  -0.1315
  C  C2967  1  0.068550  0.317020  0.597780  1.0  0.0253
  C  C2968  1  0.090570  0.306520  0.587200  1.0  -0.1552
  C  C2969  1  0.102190  0.317910  0.566370  1.0  0.0302
  C  C2970  1  0.091700  0.339340  0.555430  1.0  -0.1372
  C  C2971  1  0.069190  0.349720  0.565550  1.0  0.0187
  C  C2972  1  0.103120  0.284450  0.600230  1.0  0.682
  C  C2973  1  0.105000  0.352690  0.534080  1.0  0.6976
  C  C2974  1  0.149330  0.283840  0.648120  1.0  0.7037
  C  C2975  1  0.162170  0.305540  0.661140  1.0  -0.1637
  C  C2976  1  0.150940  0.316130  0.683140  1.0  0.0181
  C  C2977  1  0.464930  0.850420  0.401000  1.0  0.6994
  C  C2978  1  0.442100  0.838370  0.413110  1.0  -0.1312
  C  C2979  1  0.431450  0.817020  0.402220  1.0  0.0249
  C  C2980  1  0.409430  0.806520  0.412800  1.0  -0.155
  C  C2981  1  0.397810  0.817910  0.433630  1.0  0.0309
  C  C2982  1  0.408300  0.839340  0.444570  1.0  -0.1377
  C  C2983  1  0.430810  0.849720  0.434450  1.0  0.0189
  C  C2984  1  0.396880  0.784450  0.399770  1.0  0.6821
  C  C2985  1  0.395000  0.852690  0.465920  1.0  0.699
  C  C2986  1  0.350670  0.783840  0.351880  1.0  0.7039
  C  C2987  1  0.337830  0.805540  0.338860  1.0  -0.1634
  C  C2988  1  0.349060  0.816130  0.316860  1.0  0.0177
  C  C2989  1  0.464930  0.350420  0.901000  1.0  0.6994
  C  C2990  1  0.442100  0.338370  0.913110  1.0  -0.1312
  C  C2991  1  0.431450  0.317020  0.902220  1.0  0.0249
  C  C2992  1  0.409430  0.306520  0.912800  1.0  -0.155
  C  C2993  1  0.397810  0.317910  0.933630  1.0  0.0309
  C  C2994  1  0.408300  0.339340  0.944570  1.0  -0.1377
  C  C2995  1  0.430810  0.349720  0.934450  1.0  0.0189
  C  C2996  1  0.396880  0.284450  0.899770  1.0  0.6821
  C  C2997  1  0.395000  0.352690  0.965920  1.0  0.699
  C  C2998  1  0.350670  0.283840  0.851880  1.0  0.7039
  C  C2999  1  0.337830  0.305540  0.838860  1.0  -0.1634
  C  C3000  1  0.349060  0.316130  0.816860  1.0  0.0177
  C  C3001  1  0.964930  0.850420  0.901000  1.0  0.6994
  C  C3002  1  0.942100  0.838370  0.913110  1.0  -0.1312
  C  C3003  1  0.931450  0.817020  0.902220  1.0  0.0249
  C  C3004  1  0.909430  0.806520  0.912800  1.0  -0.155
  C  C3005  1  0.897810  0.817910  0.933630  1.0  0.0309
  C  C3006  1  0.908300  0.839340  0.944570  1.0  -0.1377
  C  C3007  1  0.930810  0.849720  0.934450  1.0  0.0189
  C  C3008  1  0.896880  0.784450  0.899770  1.0  0.6821
  C  C3009  1  0.895000  0.852690  0.965920  1.0  0.699
  C  C3010  1  0.850670  0.783840  0.851880  1.0  0.7039
  C  C3011  1  0.837830  0.805540  0.838860  1.0  -0.1634
  C  C3012  1  0.849060  0.816130  0.816860  1.0  0.0177
  C  C3013  1  0.964930  0.350420  0.401000  1.0  0.6994
  C  C3014  1  0.942100  0.338370  0.413110  1.0  -0.1312
  C  C3015  1  0.931450  0.317020  0.402220  1.0  0.0249
  C  C3016  1  0.909430  0.306520  0.412800  1.0  -0.155
  C  C3017  1  0.897810  0.317910  0.433630  1.0  0.0309
  C  C3018  1  0.908300  0.339340  0.444570  1.0  -0.1377
  C  C3019  1  0.930810  0.349720  0.434450  1.0  0.0189
  C  C3020  1  0.896880  0.284450  0.399770  1.0  0.6821
  C  C3021  1  0.895000  0.352690  0.465920  1.0  0.699
  C  C3022  1  0.850670  0.283840  0.351880  1.0  0.7039
  C  C3023  1  0.837830  0.305540  0.338860  1.0  -0.1634
  C  C3024  1  0.849060  0.316130  0.316860  1.0  0.0177
  C  C3025  1  0.535070  0.149580  0.401000  1.0  0.6983
  C  C3026  1  0.557900  0.161630  0.413110  1.0  -0.132
  C  C3027  1  0.568550  0.182980  0.402220  1.0  0.0253
  C  C3028  1  0.590570  0.193480  0.412800  1.0  -0.1553
  C  C3029  1  0.602190  0.182090  0.433630  1.0  0.0301
  C  C3030  1  0.591700  0.160660  0.444570  1.0  -0.1377
  C  C3031  1  0.569190  0.150280  0.434450  1.0  0.0193
  C  C3032  1  0.603120  0.215550  0.399770  1.0  0.6823
  C  C3033  1  0.605000  0.147310  0.465920  1.0  0.6974
  C  C3034  1  0.649330  0.216160  0.351880  1.0  0.7038
  C  C3035  1  0.662170  0.194460  0.338860  1.0  -0.1631
  C  C3036  1  0.650940  0.183870  0.316860  1.0  0.0174
  C  C3037  1  0.535070  0.649580  0.901000  1.0  0.6983
  C  C3038  1  0.557900  0.661630  0.913110  1.0  -0.132
  C  C3039  1  0.568550  0.682980  0.902220  1.0  0.0253
  C  C3040  1  0.590570  0.693480  0.912800  1.0  -0.1553
  C  C3041  1  0.602190  0.682090  0.933630  1.0  0.0301
  C  C3042  1  0.591700  0.660660  0.944570  1.0  -0.1377
  C  C3043  1  0.569190  0.650280  0.934450  1.0  0.0193
  C  C3044  1  0.603120  0.715550  0.899770  1.0  0.6823
  C  C3045  1  0.605000  0.647310  0.965920  1.0  0.6974
  C  C3046  1  0.649330  0.716160  0.851880  1.0  0.7038
  C  C3047  1  0.662170  0.694460  0.838860  1.0  -0.1631
  C  C3048  1  0.650940  0.683870  0.816860  1.0  0.0174
  C  C3049  1  0.035070  0.149580  0.901000  1.0  0.6983
  C  C3050  1  0.057900  0.161630  0.913110  1.0  -0.132
  C  C3051  1  0.068550  0.182980  0.902220  1.0  0.0253
  C  C3052  1  0.090570  0.193480  0.912800  1.0  -0.1553
  C  C3053  1  0.102190  0.182090  0.933630  1.0  0.0301
  C  C3054  1  0.091700  0.160660  0.944570  1.0  -0.1377
  C  C3055  1  0.069190  0.150280  0.934450  1.0  0.0193
  C  C3056  1  0.103120  0.215550  0.899770  1.0  0.6823
  C  C3057  1  0.105000  0.147310  0.965920  1.0  0.6974
  C  C3058  1  0.149330  0.216160  0.851880  1.0  0.7038
  C  C3059  1  0.162170  0.194460  0.838860  1.0  -0.1631
  C  C3060  1  0.150940  0.183870  0.816860  1.0  0.0174
  C  C3061  1  0.035070  0.649580  0.401000  1.0  0.6983
  C  C3062  1  0.057900  0.661630  0.413110  1.0  -0.132
  C  C3063  1  0.068550  0.682980  0.402220  1.0  0.0253
  C  C3064  1  0.090570  0.693480  0.412800  1.0  -0.1553
  C  C3065  1  0.102190  0.682090  0.433630  1.0  0.0301
  C  C3066  1  0.091700  0.660660  0.444570  1.0  -0.1377
  C  C3067  1  0.069190  0.650280  0.434450  1.0  0.0193
  C  C3068  1  0.103120  0.715550  0.399770  1.0  0.6823
  C  C3069  1  0.105000  0.647310  0.465920  1.0  0.6974
  C  C3070  1  0.149330  0.716160  0.351880  1.0  0.7038
  C  C3071  1  0.162170  0.694460  0.338860  1.0  -0.1631
  C  C3072  1  0.150940  0.683870  0.316860  1.0  0.0174
  C  C3073  1  0.149580  0.401000  0.535070  1.0  0.7008
  C  C3074  1  0.161630  0.413110  0.557900  1.0  -0.1335
  C  C3075  1  0.182980  0.402220  0.568550  1.0  0.0254
  C  C3076  1  0.193480  0.412800  0.590570  1.0  -0.1552
  C  C3077  1  0.182090  0.433630  0.602190  1.0  0.0302
  C  C3078  1  0.160660  0.444570  0.591700  1.0  -0.1363
  C  C3079  1  0.150280  0.434450  0.569190  1.0  0.0178
  C  C3080  1  0.215550  0.399770  0.603120  1.0  0.6822
  C  C3081  1  0.147310  0.465920  0.605000  1.0  0.6979
  C  C3082  1  0.216160  0.351880  0.649330  1.0  0.7046
  C  C3083  1  0.194460  0.338860  0.662170  1.0  -0.164
  C  C3084  1  0.183870  0.316860  0.650940  1.0  0.0189
  C  C3085  1  0.149580  0.901000  0.035070  1.0  0.7008
  C  C3086  1  0.161630  0.913110  0.057900  1.0  -0.1335
  C  C3087  1  0.182980  0.902220  0.068550  1.0  0.0254
  C  C3088  1  0.193480  0.912800  0.090570  1.0  -0.1552
  C  C3089  1  0.182090  0.933630  0.102190  1.0  0.0302
  C  C3090  1  0.160660  0.944570  0.091700  1.0  -0.1363
  C  C3091  1  0.150280  0.934450  0.069190  1.0  0.0178
  C  C3092  1  0.215550  0.899770  0.103120  1.0  0.6822
  C  C3093  1  0.147310  0.965920  0.105000  1.0  0.6979
  C  C3094  1  0.216160  0.851880  0.149330  1.0  0.7046
  C  C3095  1  0.194460  0.838860  0.162170  1.0  -0.164
  C  C3096  1  0.183870  0.816860  0.150940  1.0  0.0189
  C  C3097  1  0.649580  0.401000  0.035070  1.0  0.7008
  C  C3098  1  0.661630  0.413110  0.057900  1.0  -0.1335
  C  C3099  1  0.682980  0.402220  0.068550  1.0  0.0254
  C  C3100  1  0.693480  0.412800  0.090570  1.0  -0.1552
  C  C3101  1  0.682090  0.433630  0.102190  1.0  0.0302
  C  C3102  1  0.660660  0.444570  0.091700  1.0  -0.1363
  C  C3103  1  0.650280  0.434450  0.069190  1.0  0.0178
  C  C3104  1  0.715550  0.399770  0.103120  1.0  0.6822
  C  C3105  1  0.647310  0.465920  0.105000  1.0  0.6979
  C  C3106  1  0.716160  0.351880  0.149330  1.0  0.7046
  C  C3107  1  0.694460  0.338860  0.162170  1.0  -0.164
  C  C3108  1  0.683870  0.316860  0.150940  1.0  0.0189
  C  C3109  1  0.649580  0.901000  0.535070  1.0  0.7008
  C  C3110  1  0.661630  0.913110  0.557900  1.0  -0.1335
  C  C3111  1  0.682980  0.902220  0.568550  1.0  0.0254
  C  C3112  1  0.693480  0.912800  0.590570  1.0  -0.1552
  C  C3113  1  0.682090  0.933630  0.602190  1.0  0.0302
  C  C3114  1  0.660660  0.944570  0.591700  1.0  -0.1363
  C  C3115  1  0.650280  0.934450  0.569190  1.0  0.0178
  C  C3116  1  0.715550  0.899770  0.603120  1.0  0.6822
  C  C3117  1  0.647310  0.965920  0.605000  1.0  0.6979
  C  C3118  1  0.716160  0.851880  0.649330  1.0  0.7046
  C  C3119  1  0.694460  0.838860  0.662170  1.0  -0.164
  C  C3120  1  0.683870  0.816860  0.650940  1.0  0.0189
  C  C3121  1  0.850420  0.401000  0.464930  1.0  0.7007
  C  C3122  1  0.838370  0.413110  0.442100  1.0  -0.134
  C  C3123  1  0.817020  0.402220  0.431450  1.0  0.0256
  C  C3124  1  0.806520  0.412800  0.409430  1.0  -0.1553
  C  C3125  1  0.817910  0.433630  0.397810  1.0  0.03
  C  C3126  1  0.839340  0.444570  0.408300  1.0  -0.1364
  C  C3127  1  0.849720  0.434450  0.430810  1.0  0.0176
  C  C3128  1  0.784450  0.399770  0.396880  1.0  0.6824
  C  C3129  1  0.852690  0.465920  0.395000  1.0  0.6969
  C  C3130  1  0.783840  0.351880  0.350670  1.0  0.7045
  C  C3131  1  0.805540  0.338860  0.337830  1.0  -0.1634
  C  C3132  1  0.816130  0.316860  0.349060  1.0  0.0188
  C  C3133  1  0.850420  0.901000  0.964930  1.0  0.7007
  C  C3134  1  0.838370  0.913110  0.942100  1.0  -0.134
  C  C3135  1  0.817020  0.902220  0.931450  1.0  0.0256
  C  C3136  1  0.806520  0.912800  0.909430  1.0  -0.1553
  C  C3137  1  0.817910  0.933630  0.897810  1.0  0.03
  C  C3138  1  0.839340  0.944570  0.908300  1.0  -0.1364
  C  C3139  1  0.849720  0.934450  0.930810  1.0  0.0176
  C  C3140  1  0.784450  0.899770  0.896880  1.0  0.6824
  C  C3141  1  0.852690  0.965920  0.895000  1.0  0.6969
  C  C3142  1  0.783840  0.851880  0.850670  1.0  0.7045
  C  C3143  1  0.805540  0.838860  0.837830  1.0  -0.1634
  C  C3144  1  0.816130  0.816860  0.849060  1.0  0.0188
  C  C3145  1  0.350420  0.401000  0.964930  1.0  0.7007
  C  C3146  1  0.338370  0.413110  0.942100  1.0  -0.134
  C  C3147  1  0.317020  0.402220  0.931450  1.0  0.0256
  C  C3148  1  0.306520  0.412800  0.909430  1.0  -0.1553
  C  C3149  1  0.317910  0.433630  0.897810  1.0  0.03
  C  C3150  1  0.339340  0.444570  0.908300  1.0  -0.1364
  C  C3151  1  0.349720  0.434450  0.930810  1.0  0.0176
  C  C3152  1  0.284450  0.399770  0.896880  1.0  0.6824
  C  C3153  1  0.352690  0.465920  0.895000  1.0  0.6969
  C  C3154  1  0.283840  0.351880  0.850670  1.0  0.7045
  C  C3155  1  0.305540  0.338860  0.837830  1.0  -0.1634
  C  C3156  1  0.316130  0.316860  0.849060  1.0  0.0188
  C  C3157  1  0.350420  0.901000  0.464930  1.0  0.7007
  C  C3158  1  0.338370  0.913110  0.442100  1.0  -0.134
  C  C3159  1  0.317020  0.902220  0.431450  1.0  0.0256
  C  C3160  1  0.306520  0.912800  0.409430  1.0  -0.1553
  C  C3161  1  0.317910  0.933630  0.397810  1.0  0.03
  C  C3162  1  0.339340  0.944570  0.408300  1.0  -0.1364
  C  C3163  1  0.349720  0.934450  0.430810  1.0  0.0176
  C  C3164  1  0.284450  0.899770  0.396880  1.0  0.6824
  C  C3165  1  0.352690  0.965920  0.395000  1.0  0.6969
  C  C3166  1  0.283840  0.851880  0.350670  1.0  0.7045
  C  C3167  1  0.305540  0.838860  0.337830  1.0  -0.1634
  C  C3168  1  0.316130  0.816860  0.349060  1.0  0.0188
  C  C3169  1  0.850420  0.599000  0.535070  1.0  0.7007
  C  C3170  1  0.838370  0.586890  0.557900  1.0  -0.1329
  C  C3171  1  0.817020  0.597780  0.568550  1.0  0.0255
  C  C3172  1  0.806520  0.587200  0.590570  1.0  -0.155
  C  C3173  1  0.817910  0.566370  0.602190  1.0  0.0302
  C  C3174  1  0.839340  0.555430  0.591700  1.0  -0.1369
  C  C3175  1  0.849720  0.565550  0.569190  1.0  0.0179
  C  C3176  1  0.784450  0.600230  0.603120  1.0  0.6827
  C  C3177  1  0.852690  0.534080  0.605000  1.0  0.6968
  C  C3178  1  0.783840  0.648120  0.649330  1.0  0.7046
  C  C3179  1  0.805540  0.661140  0.662170  1.0  -0.1635
  C  C3180  1  0.816130  0.683140  0.650940  1.0  0.0189
  C  C3181  1  0.850420  0.099000  0.035070  1.0  0.7007
  C  C3182  1  0.838370  0.086890  0.057900  1.0  -0.1329
  C  C3183  1  0.817020  0.097780  0.068550  1.0  0.0255
  C  C3184  1  0.806520  0.087200  0.090570  1.0  -0.155
  C  C3185  1  0.817910  0.066370  0.102190  1.0  0.0302
  C  C3186  1  0.839340  0.055430  0.091700  1.0  -0.1369
  C  C3187  1  0.849720  0.065550  0.069190  1.0  0.0179
  C  C3188  1  0.784450  0.100230  0.103120  1.0  0.6827
  C  C3189  1  0.852690  0.034080  0.105000  1.0  0.6968
  C  C3190  1  0.783840  0.148120  0.149330  1.0  0.7046
  C  C3191  1  0.805540  0.161140  0.162170  1.0  -0.1635
  C  C3192  1  0.816130  0.183140  0.150940  1.0  0.0189
  C  C3193  1  0.350420  0.599000  0.035070  1.0  0.7007
  C  C3194  1  0.338370  0.586890  0.057900  1.0  -0.1329
  C  C3195  1  0.317020  0.597780  0.068550  1.0  0.0255
  C  C3196  1  0.306520  0.587200  0.090570  1.0  -0.155
  C  C3197  1  0.317910  0.566370  0.102190  1.0  0.0302
  C  C3198  1  0.339340  0.555430  0.091700  1.0  -0.1369
  C  C3199  1  0.349720  0.565550  0.069190  1.0  0.0179
  C  C3200  1  0.284450  0.600230  0.103120  1.0  0.6827
  C  C3201  1  0.352690  0.534080  0.105000  1.0  0.6968
  C  C3202  1  0.283840  0.648120  0.149330  1.0  0.7046
  C  C3203  1  0.305540  0.661140  0.162170  1.0  -0.1635
  C  C3204  1  0.316130  0.683140  0.150940  1.0  0.0189
  C  C3205  1  0.350420  0.099000  0.535070  1.0  0.7007
  C  C3206  1  0.338370  0.086890  0.557900  1.0  -0.1329
  C  C3207  1  0.317020  0.097780  0.568550  1.0  0.0255
  C  C3208  1  0.306520  0.087200  0.590570  1.0  -0.155
  C  C3209  1  0.317910  0.066370  0.602190  1.0  0.0302
  C  C3210  1  0.339340  0.055430  0.591700  1.0  -0.1369
  C  C3211  1  0.349720  0.065550  0.569190  1.0  0.0179
  C  C3212  1  0.284450  0.100230  0.603120  1.0  0.6827
  C  C3213  1  0.352690  0.034080  0.605000  1.0  0.6968
  C  C3214  1  0.283840  0.148120  0.649330  1.0  0.7046
  C  C3215  1  0.305540  0.161140  0.662170  1.0  -0.1635
  C  C3216  1  0.316130  0.183140  0.650940  1.0  0.0189
  C  C3217  1  0.149580  0.599000  0.464930  1.0  0.7012
  C  C3218  1  0.161630  0.586890  0.442100  1.0  -0.134
  C  C3219  1  0.182980  0.597780  0.431450  1.0  0.0258
  C  C3220  1  0.193480  0.587200  0.409430  1.0  -0.1552
  C  C3221  1  0.182090  0.566370  0.397810  1.0  0.0304
  C  C3222  1  0.160660  0.555430  0.408300  1.0  -0.1367
  C  C3223  1  0.150280  0.565550  0.430810  1.0  0.0188
  C  C3224  1  0.215550  0.600230  0.396880  1.0  0.6826
  C  C3225  1  0.147310  0.534080  0.395000  1.0  0.6978
  C  C3226  1  0.216160  0.648120  0.350670  1.0  0.7049
  C  C3227  1  0.194460  0.661140  0.337830  1.0  -0.1639
  C  C3228  1  0.183870  0.683140  0.349060  1.0  0.0186
  C  C3229  1  0.149580  0.099000  0.964930  1.0  0.7012
  C  C3230  1  0.161630  0.086890  0.942100  1.0  -0.134
  C  C3231  1  0.182980  0.097780  0.931450  1.0  0.0258
  C  C3232  1  0.193480  0.087200  0.909430  1.0  -0.1552
  C  C3233  1  0.182090  0.066370  0.897810  1.0  0.0304
  C  C3234  1  0.160660  0.055430  0.908300  1.0  -0.1367
  C  C3235  1  0.150280  0.065550  0.930810  1.0  0.0188
  C  C3236  1  0.215550  0.100230  0.896880  1.0  0.6826
  C  C3237  1  0.147310  0.034080  0.895000  1.0  0.6978
  C  C3238  1  0.216160  0.148120  0.850670  1.0  0.7049
  C  C3239  1  0.194460  0.161140  0.837830  1.0  -0.1639
  C  C3240  1  0.183870  0.183140  0.849060  1.0  0.0186
  C  C3241  1  0.649580  0.599000  0.964930  1.0  0.7012
  C  C3242  1  0.661630  0.586890  0.942100  1.0  -0.134
  C  C3243  1  0.682980  0.597780  0.931450  1.0  0.0258
  C  C3244  1  0.693480  0.587200  0.909430  1.0  -0.1552
  C  C3245  1  0.682090  0.566370  0.897810  1.0  0.0304
  C  C3246  1  0.660660  0.555430  0.908300  1.0  -0.1367
  C  C3247  1  0.650280  0.565550  0.930810  1.0  0.0188
  C  C3248  1  0.715550  0.600230  0.896880  1.0  0.6826
  C  C3249  1  0.647310  0.534080  0.895000  1.0  0.6978
  C  C3250  1  0.716160  0.648120  0.850670  1.0  0.7049
  C  C3251  1  0.694460  0.661140  0.837830  1.0  -0.1639
  C  C3252  1  0.683870  0.683140  0.849060  1.0  0.0186
  C  C3253  1  0.649580  0.099000  0.464930  1.0  0.7012
  C  C3254  1  0.661630  0.086890  0.442100  1.0  -0.134
  C  C3255  1  0.682980  0.097780  0.431450  1.0  0.0258
  C  C3256  1  0.693480  0.087200  0.409430  1.0  -0.1552
  C  C3257  1  0.682090  0.066370  0.397810  1.0  0.0304
  C  C3258  1  0.660660  0.055430  0.408300  1.0  -0.1367
  C  C3259  1  0.650280  0.065550  0.430810  1.0  0.0188
  C  C3260  1  0.715550  0.100230  0.396880  1.0  0.6826
  C  C3261  1  0.647310  0.034080  0.395000  1.0  0.6978
  C  C3262  1  0.716160  0.148120  0.350670  1.0  0.7049
  C  C3263  1  0.694460  0.161140  0.337830  1.0  -0.1639
  C  C3264  1  0.683870  0.183140  0.349060  1.0  0.0186
  C  C3265  1  0.401000  0.464930  0.850420  1.0  0.6991
  C  C3266  1  0.413110  0.442100  0.838370  1.0  -0.1317
  C  C3267  1  0.402220  0.431450  0.817020  1.0  0.0239
  C  C3268  1  0.412800  0.409430  0.806520  1.0  -0.1562
  C  C3269  1  0.433630  0.397810  0.817910  1.0  0.0302
  C  C3270  1  0.444570  0.408300  0.839340  1.0  -0.1368
  C  C3271  1  0.434450  0.430810  0.849720  1.0  0.0189
  C  C3272  1  0.399770  0.396880  0.784450  1.0  0.6831
  C  C3273  1  0.465920  0.395000  0.852690  1.0  0.697
  C  C3274  1  0.351880  0.350670  0.783840  1.0  0.7052
  C  C3275  1  0.338860  0.337830  0.805540  1.0  -0.1648
  C  C3276  1  0.316860  0.349060  0.816130  1.0  0.0195
  C  C3277  1  0.401000  0.964930  0.350420  1.0  0.6991
  C  C3278  1  0.413110  0.942100  0.338370  1.0  -0.1317
  C  C3279  1  0.402220  0.931450  0.317020  1.0  0.0239
  C  C3280  1  0.412800  0.909430  0.306520  1.0  -0.1562
  C  C3281  1  0.433630  0.897810  0.317910  1.0  0.0302
  C  C3282  1  0.444570  0.908300  0.339340  1.0  -0.1368
  C  C3283  1  0.434450  0.930810  0.349720  1.0  0.0189
  C  C3284  1  0.399770  0.896880  0.284450  1.0  0.6831
  C  C3285  1  0.465920  0.895000  0.352690  1.0  0.697
  C  C3286  1  0.351880  0.850670  0.283840  1.0  0.7052
  C  C3287  1  0.338860  0.837830  0.305540  1.0  -0.1648
  C  C3288  1  0.316860  0.849060  0.316130  1.0  0.0195
  C  C3289  1  0.901000  0.464930  0.350420  1.0  0.6991
  C  C3290  1  0.913110  0.442100  0.338370  1.0  -0.1317
  C  C3291  1  0.902220  0.431450  0.317020  1.0  0.0239
  C  C3292  1  0.912800  0.409430  0.306520  1.0  -0.1562
  C  C3293  1  0.933630  0.397810  0.317910  1.0  0.0302
  C  C3294  1  0.944570  0.408300  0.339340  1.0  -0.1368
  C  C3295  1  0.934450  0.430810  0.349720  1.0  0.0189
  C  C3296  1  0.899770  0.396880  0.284450  1.0  0.6831
  C  C3297  1  0.965920  0.395000  0.352690  1.0  0.697
  C  C3298  1  0.851880  0.350670  0.283840  1.0  0.7052
  C  C3299  1  0.838860  0.337830  0.305540  1.0  -0.1648
  C  C3300  1  0.816860  0.349060  0.316130  1.0  0.0195
  C  C3301  1  0.901000  0.964930  0.850420  1.0  0.6991
  C  C3302  1  0.913110  0.942100  0.838370  1.0  -0.1317
  C  C3303  1  0.902220  0.931450  0.817020  1.0  0.0239
  C  C3304  1  0.912800  0.909430  0.806520  1.0  -0.1562
  C  C3305  1  0.933630  0.897810  0.817910  1.0  0.0302
  C  C3306  1  0.944570  0.908300  0.839340  1.0  -0.1368
  C  C3307  1  0.934450  0.930810  0.849720  1.0  0.0189
  C  C3308  1  0.899770  0.896880  0.784450  1.0  0.6831
  C  C3309  1  0.965920  0.895000  0.852690  1.0  0.697
  C  C3310  1  0.851880  0.850670  0.783840  1.0  0.7052
  C  C3311  1  0.838860  0.837830  0.805540  1.0  -0.1648
  C  C3312  1  0.816860  0.849060  0.816130  1.0  0.0195
  C  C3313  1  0.401000  0.535070  0.149580  1.0  0.699
  C  C3314  1  0.413110  0.557900  0.161630  1.0  -0.1321
  C  C3315  1  0.402220  0.568550  0.182980  1.0  0.0246
  C  C3316  1  0.412800  0.590570  0.193480  1.0  -0.1576
  C  C3317  1  0.433630  0.602190  0.182090  1.0  0.0306
  C  C3318  1  0.444570  0.591700  0.160660  1.0  -0.1367
  C  C3319  1  0.434450  0.569190  0.150280  1.0  0.0198
  C  C3320  1  0.399770  0.603120  0.215550  1.0  0.684
  C  C3321  1  0.465920  0.605000  0.147310  1.0  0.6975
  C  C3322  1  0.351880  0.649330  0.216160  1.0  0.7054
  C  C3323  1  0.338860  0.662170  0.194460  1.0  -0.1657
  C  C3324  1  0.316860  0.650940  0.183870  1.0  0.0193
  C  C3325  1  0.401000  0.035070  0.649580  1.0  0.699
  C  C3326  1  0.413110  0.057900  0.661630  1.0  -0.1321
  C  C3327  1  0.402220  0.068550  0.682980  1.0  0.0246
  C  C3328  1  0.412800  0.090570  0.693480  1.0  -0.1576
  C  C3329  1  0.433630  0.102190  0.682090  1.0  0.0306
  C  C3330  1  0.444570  0.091700  0.660660  1.0  -0.1367
  C  C3331  1  0.434450  0.069190  0.650280  1.0  0.0198
  C  C3332  1  0.399770  0.103120  0.715550  1.0  0.684
  C  C3333  1  0.465920  0.105000  0.647310  1.0  0.6975
  C  C3334  1  0.351880  0.149330  0.716160  1.0  0.7054
  C  C3335  1  0.338860  0.162170  0.694460  1.0  -0.1657
  C  C3336  1  0.316860  0.150940  0.683870  1.0  0.0193
  C  C3337  1  0.901000  0.535070  0.649580  1.0  0.699
  C  C3338  1  0.913110  0.557900  0.661630  1.0  -0.1321
  C  C3339  1  0.902220  0.568550  0.682980  1.0  0.0246
  C  C3340  1  0.912800  0.590570  0.693480  1.0  -0.1576
  C  C3341  1  0.933630  0.602190  0.682090  1.0  0.0306
  C  C3342  1  0.944570  0.591700  0.660660  1.0  -0.1367
  C  C3343  1  0.934450  0.569190  0.650280  1.0  0.0198
  C  C3344  1  0.899770  0.603120  0.715550  1.0  0.684
  C  C3345  1  0.965920  0.605000  0.647310  1.0  0.6975
  C  C3346  1  0.851880  0.649330  0.716160  1.0  0.7054
  C  C3347  1  0.838860  0.662170  0.694460  1.0  -0.1657
  C  C3348  1  0.816860  0.650940  0.683870  1.0  0.0193
  C  C3349  1  0.901000  0.035070  0.149580  1.0  0.699
  C  C3350  1  0.913110  0.057900  0.161630  1.0  -0.1321
  C  C3351  1  0.902220  0.068550  0.182980  1.0  0.0246
  C  C3352  1  0.912800  0.090570  0.193480  1.0  -0.1576
  C  C3353  1  0.933630  0.102190  0.182090  1.0  0.0306
  C  C3354  1  0.944570  0.091700  0.160660  1.0  -0.1367
  C  C3355  1  0.934450  0.069190  0.150280  1.0  0.0198
  C  C3356  1  0.899770  0.103120  0.215550  1.0  0.684
  C  C3357  1  0.965920  0.105000  0.147310  1.0  0.6975
  C  C3358  1  0.851880  0.149330  0.216160  1.0  0.7054
  C  C3359  1  0.838860  0.162170  0.194460  1.0  -0.1657
  C  C3360  1  0.816860  0.150940  0.183870  1.0  0.0193
  C  C3361  1  0.599000  0.464930  0.149580  1.0  0.6993
  C  C3362  1  0.586890  0.442100  0.161630  1.0  -0.1315
  C  C3363  1  0.597780  0.431450  0.182980  1.0  0.0244
  C  C3364  1  0.587200  0.409430  0.193480  1.0  -0.1573
  C  C3365  1  0.566370  0.397810  0.182090  1.0  0.0308
  C  C3366  1  0.555430  0.408300  0.160660  1.0  -0.137
  C  C3367  1  0.565550  0.430810  0.150280  1.0  0.0192
  C  C3368  1  0.600230  0.396880  0.215550  1.0  0.6834
  C  C3369  1  0.534080  0.395000  0.147310  1.0  0.6973
  C  C3370  1  0.648120  0.350670  0.216160  1.0  0.7052
  C  C3371  1  0.661140  0.337830  0.194460  1.0  -0.1652
  C  C3372  1  0.683140  0.349060  0.183870  1.0  0.0199
  C  C3373  1  0.599000  0.964930  0.649580  1.0  0.6993
  C  C3374  1  0.586890  0.942100  0.661630  1.0  -0.1315
  C  C3375  1  0.597780  0.931450  0.682980  1.0  0.0244
  C  C3376  1  0.587200  0.909430  0.693480  1.0  -0.1573
  C  C3377  1  0.566370  0.897810  0.682090  1.0  0.0308
  C  C3378  1  0.555430  0.908300  0.660660  1.0  -0.137
  C  C3379  1  0.565550  0.930810  0.650280  1.0  0.0192
  C  C3380  1  0.600230  0.896880  0.715550  1.0  0.6834
  C  C3381  1  0.534080  0.895000  0.647310  1.0  0.6973
  C  C3382  1  0.648120  0.850670  0.716160  1.0  0.7052
  C  C3383  1  0.661140  0.837830  0.694460  1.0  -0.1652
  C  C3384  1  0.683140  0.849060  0.683870  1.0  0.0199
  C  C3385  1  0.099000  0.464930  0.649580  1.0  0.6993
  C  C3386  1  0.086890  0.442100  0.661630  1.0  -0.1315
  C  C3387  1  0.097780  0.431450  0.682980  1.0  0.0244
  C  C3388  1  0.087200  0.409430  0.693480  1.0  -0.1573
  C  C3389  1  0.066370  0.397810  0.682090  1.0  0.0308
  C  C3390  1  0.055430  0.408300  0.660660  1.0  -0.137
  C  C3391  1  0.065550  0.430810  0.650280  1.0  0.0192
  C  C3392  1  0.100230  0.396880  0.715550  1.0  0.6834
  C  C3393  1  0.034080  0.395000  0.647310  1.0  0.6973
  C  C3394  1  0.148120  0.350670  0.716160  1.0  0.7052
  C  C3395  1  0.161140  0.337830  0.694460  1.0  -0.1652
  C  C3396  1  0.183140  0.349060  0.683870  1.0  0.0199
  C  C3397  1  0.099000  0.964930  0.149580  1.0  0.6993
  C  C3398  1  0.086890  0.942100  0.161630  1.0  -0.1315
  C  C3399  1  0.097780  0.931450  0.182980  1.0  0.0244
  C  C3400  1  0.087200  0.909430  0.193480  1.0  -0.1573
  C  C3401  1  0.066370  0.897810  0.182090  1.0  0.0308
  C  C3402  1  0.055430  0.908300  0.160660  1.0  -0.137
  C  C3403  1  0.065550  0.930810  0.150280  1.0  0.0192
  C  C3404  1  0.100230  0.896880  0.215550  1.0  0.6834
  C  C3405  1  0.034080  0.895000  0.147310  1.0  0.6973
  C  C3406  1  0.148120  0.850670  0.216160  1.0  0.7052
  C  C3407  1  0.161140  0.837830  0.194460  1.0  -0.1652
  C  C3408  1  0.183140  0.849060  0.183870  1.0  0.0199
  C  C3409  1  0.599000  0.535070  0.850420  1.0  0.6992
  C  C3410  1  0.586890  0.557900  0.838370  1.0  -0.1323
  C  C3411  1  0.597780  0.568550  0.817020  1.0  0.024
  C  C3412  1  0.587200  0.590570  0.806520  1.0  -0.1558
  C  C3413  1  0.566370  0.602190  0.817910  1.0  0.0305
  C  C3414  1  0.555430  0.591700  0.839340  1.0  -0.1371
  C  C3415  1  0.565550  0.569190  0.849720  1.0  0.0196
  C  C3416  1  0.600230  0.603120  0.784450  1.0  0.6836
  C  C3417  1  0.534080  0.605000  0.852690  1.0  0.6977
  C  C3418  1  0.648120  0.649330  0.783840  1.0  0.7053
  C  C3419  1  0.661140  0.662170  0.805540  1.0  -0.1649
  C  C3420  1  0.683140  0.650940  0.816130  1.0  0.0197
  C  C3421  1  0.599000  0.035070  0.350420  1.0  0.6992
  C  C3422  1  0.586890  0.057900  0.338370  1.0  -0.1323
  C  C3423  1  0.597780  0.068550  0.317020  1.0  0.024
  C  C3424  1  0.587200  0.090570  0.306520  1.0  -0.1558
  C  C3425  1  0.566370  0.102190  0.317910  1.0  0.0305
  C  C3426  1  0.555430  0.091700  0.339340  1.0  -0.1371
  C  C3427  1  0.565550  0.069190  0.349720  1.0  0.0196
  C  C3428  1  0.600230  0.103120  0.284450  1.0  0.6836
  C  C3429  1  0.534080  0.105000  0.352690  1.0  0.6977
  C  C3430  1  0.648120  0.149330  0.283840  1.0  0.7053
  C  C3431  1  0.661140  0.162170  0.305540  1.0  -0.1649
  C  C3432  1  0.683140  0.150940  0.316130  1.0  0.0197
  C  C3433  1  0.099000  0.535070  0.350420  1.0  0.6992
  C  C3434  1  0.086890  0.557900  0.338370  1.0  -0.1323
  C  C3435  1  0.097780  0.568550  0.317020  1.0  0.024
  C  C3436  1  0.087200  0.590570  0.306520  1.0  -0.1558
  C  C3437  1  0.066370  0.602190  0.317910  1.0  0.0305
  C  C3438  1  0.055430  0.591700  0.339340  1.0  -0.1371
  C  C3439  1  0.065550  0.569190  0.349720  1.0  0.0196
  C  C3440  1  0.100230  0.603120  0.284450  1.0  0.6836
  C  C3441  1  0.034080  0.605000  0.352690  1.0  0.6977
  C  C3442  1  0.148120  0.649330  0.283840  1.0  0.7053
  C  C3443  1  0.161140  0.662170  0.305540  1.0  -0.1649
  C  C3444  1  0.183140  0.650940  0.316130  1.0  0.0197
  C  C3445  1  0.099000  0.035070  0.850420  1.0  0.6992
  C  C3446  1  0.086890  0.057900  0.838370  1.0  -0.1323
  C  C3447  1  0.097780  0.068550  0.817020  1.0  0.024
  C  C3448  1  0.087200  0.090570  0.806520  1.0  -0.1558
  C  C3449  1  0.066370  0.102190  0.817910  1.0  0.0305
  C  C3450  1  0.055430  0.091700  0.839340  1.0  -0.1371
  C  C3451  1  0.065550  0.069190  0.849720  1.0  0.0196
  C  C3452  1  0.100230  0.103120  0.784450  1.0  0.6836
  C  C3453  1  0.034080  0.105000  0.852690  1.0  0.6977
  C  C3454  1  0.148120  0.149330  0.783840  1.0  0.7053
  C  C3455  1  0.161140  0.162170  0.805540  1.0  -0.1649
  C  C3456  1  0.183140  0.150940  0.816130  1.0  0.0197
  O  O3457  1  0.370240  0.026300  0.088850  1.0  -0.568
  O  O3458  1  0.339980  0.026550  0.118470  1.0  -0.5732
  O  O3459  1  0.277550  0.093830  0.121120  1.0  -0.5757
  O  O3460  1  0.274500  0.122060  0.089500  1.0  -0.5756
  O  O3461  1  0.343020  0.124990  0.026030  1.0  -0.5651
  O  O3462  1  0.372740  0.094640  0.026020  1.0  -0.5718
  O  O3463  1  0.277730  0.158410  0.127090  1.0  -0.5661
  O  O3464  1  0.274690  0.130510  0.158890  1.0  -0.5672
  O  O3465  1  0.370240  0.526300  0.588850  1.0  -0.568
  O  O3466  1  0.339980  0.526550  0.618470  1.0  -0.5732
  O  O3467  1  0.277550  0.593830  0.621120  1.0  -0.5757
  O  O3468  1  0.274500  0.622060  0.589500  1.0  -0.5756
  O  O3469  1  0.343020  0.624990  0.526030  1.0  -0.5651
  O  O3470  1  0.372740  0.594640  0.526020  1.0  -0.5718
  O  O3471  1  0.277730  0.658410  0.627090  1.0  -0.5661
  O  O3472  1  0.274690  0.630510  0.658890  1.0  -0.5672
  O  O3473  1  0.870240  0.026300  0.588850  1.0  -0.568
  O  O3474  1  0.839980  0.026550  0.618470  1.0  -0.5732
  O  O3475  1  0.777550  0.093830  0.621120  1.0  -0.5757
  O  O3476  1  0.774500  0.122060  0.589500  1.0  -0.5756
  O  O3477  1  0.843020  0.124990  0.526030  1.0  -0.5651
  O  O3478  1  0.872740  0.094640  0.526020  1.0  -0.5718
  O  O3479  1  0.777730  0.158410  0.627090  1.0  -0.5661
  O  O3480  1  0.774690  0.130510  0.658890  1.0  -0.5672
  O  O3481  1  0.870240  0.526300  0.088850  1.0  -0.568
  O  O3482  1  0.839980  0.526550  0.118470  1.0  -0.5732
  O  O3483  1  0.777550  0.593830  0.121120  1.0  -0.5757
  O  O3484  1  0.774500  0.622060  0.089500  1.0  -0.5756
  O  O3485  1  0.843020  0.624990  0.026030  1.0  -0.5651
  O  O3486  1  0.872740  0.594640  0.026020  1.0  -0.5718
  O  O3487  1  0.777730  0.658410  0.127090  1.0  -0.5661
  O  O3488  1  0.774690  0.630510  0.158890  1.0  -0.5672
  O  O3489  1  0.629760  0.973700  0.088850  1.0  -0.5675
  O  O3490  1  0.660020  0.973450  0.118470  1.0  -0.5736
  O  O3491  1  0.722450  0.906170  0.121120  1.0  -0.5756
  O  O3492  1  0.725500  0.877940  0.089500  1.0  -0.576
  O  O3493  1  0.656980  0.875010  0.026030  1.0  -0.5657
  O  O3494  1  0.627260  0.905360  0.026020  1.0  -0.5716
  O  O3495  1  0.722270  0.841590  0.127090  1.0  -0.5667
  O  O3496  1  0.725310  0.869490  0.158890  1.0  -0.5671
  O  O3497  1  0.629760  0.473700  0.588850  1.0  -0.5675
  O  O3498  1  0.660020  0.473450  0.618470  1.0  -0.5736
  O  O3499  1  0.722450  0.406170  0.621120  1.0  -0.5756
  O  O3500  1  0.725500  0.377940  0.589500  1.0  -0.576
  O  O3501  1  0.656980  0.375010  0.526030  1.0  -0.5657
  O  O3502  1  0.627260  0.405360  0.526020  1.0  -0.5716
  O  O3503  1  0.722270  0.341590  0.627090  1.0  -0.5667
  O  O3504  1  0.725310  0.369490  0.658890  1.0  -0.5671
  O  O3505  1  0.129760  0.973700  0.588850  1.0  -0.5675
  O  O3506  1  0.160020  0.973450  0.618470  1.0  -0.5736
  O  O3507  1  0.222450  0.906170  0.621120  1.0  -0.5756
  O  O3508  1  0.225500  0.877940  0.589500  1.0  -0.576
  O  O3509  1  0.156980  0.875010  0.526030  1.0  -0.5657
  O  O3510  1  0.127260  0.905360  0.526020  1.0  -0.5716
  O  O3511  1  0.222270  0.841590  0.627090  1.0  -0.5667
  O  O3512  1  0.225310  0.869490  0.658890  1.0  -0.5671
  O  O3513  1  0.129760  0.473700  0.088850  1.0  -0.5675
  O  O3514  1  0.160020  0.473450  0.118470  1.0  -0.5736
  O  O3515  1  0.222450  0.406170  0.121120  1.0  -0.5756
  O  O3516  1  0.225500  0.377940  0.089500  1.0  -0.576
  O  O3517  1  0.156980  0.375010  0.026030  1.0  -0.5657
  O  O3518  1  0.127260  0.405360  0.026020  1.0  -0.5716
  O  O3519  1  0.222270  0.341590  0.127090  1.0  -0.5667
  O  O3520  1  0.225310  0.369490  0.158890  1.0  -0.5671
  O  O3521  1  0.629760  0.026300  0.911150  1.0  -0.5674
  O  O3522  1  0.660020  0.026550  0.881530  1.0  -0.5735
  O  O3523  1  0.722450  0.093830  0.878880  1.0  -0.5752
  O  O3524  1  0.725500  0.122060  0.910500  1.0  -0.5743
  O  O3525  1  0.656980  0.124990  0.973970  1.0  -0.565
  O  O3526  1  0.627260  0.094640  0.973980  1.0  -0.572
  O  O3527  1  0.722270  0.158410  0.872910  1.0  -0.5654
  O  O3528  1  0.725310  0.130510  0.841110  1.0  -0.5675
  O  O3529  1  0.629760  0.526300  0.411150  1.0  -0.5674
  O  O3530  1  0.660020  0.526550  0.381530  1.0  -0.5735
  O  O3531  1  0.722450  0.593830  0.378880  1.0  -0.5752
  O  O3532  1  0.725500  0.622060  0.410500  1.0  -0.5743
  O  O3533  1  0.656980  0.624990  0.473970  1.0  -0.565
  O  O3534  1  0.627260  0.594640  0.473980  1.0  -0.572
  O  O3535  1  0.722270  0.658410  0.372910  1.0  -0.5654
  O  O3536  1  0.725310  0.630510  0.341110  1.0  -0.5675
  O  O3537  1  0.129760  0.026300  0.411150  1.0  -0.5674
  O  O3538  1  0.160020  0.026550  0.381530  1.0  -0.5735
  O  O3539  1  0.222450  0.093830  0.378880  1.0  -0.5752
  O  O3540  1  0.225500  0.122060  0.410500  1.0  -0.5743
  O  O3541  1  0.156980  0.124990  0.473970  1.0  -0.565
  O  O3542  1  0.127260  0.094640  0.473980  1.0  -0.572
  O  O3543  1  0.222270  0.158410  0.372910  1.0  -0.5654
  O  O3544  1  0.225310  0.130510  0.341110  1.0  -0.5675
  O  O3545  1  0.129760  0.526300  0.911150  1.0  -0.5674
  O  O3546  1  0.160020  0.526550  0.881530  1.0  -0.5735
  O  O3547  1  0.222450  0.593830  0.878880  1.0  -0.5752
  O  O3548  1  0.225500  0.622060  0.910500  1.0  -0.5743
  O  O3549  1  0.156980  0.624990  0.973970  1.0  -0.565
  O  O3550  1  0.127260  0.594640  0.973980  1.0  -0.572
  O  O3551  1  0.222270  0.658410  0.872910  1.0  -0.5654
  O  O3552  1  0.225310  0.630510  0.841110  1.0  -0.5675
  O  O3553  1  0.370240  0.973700  0.911150  1.0  -0.5674
  O  O3554  1  0.339980  0.973450  0.881530  1.0  -0.5735
  O  O3555  1  0.277550  0.906170  0.878880  1.0  -0.5757
  O  O3556  1  0.274500  0.877940  0.910500  1.0  -0.5749
  O  O3557  1  0.343020  0.875010  0.973970  1.0  -0.5649
  O  O3558  1  0.372740  0.905360  0.973980  1.0  -0.5716
  O  O3559  1  0.277730  0.841590  0.872910  1.0  -0.5668
  O  O3560  1  0.274690  0.869490  0.841110  1.0  -0.568
  O  O3561  1  0.370240  0.473700  0.411150  1.0  -0.5674
  O  O3562  1  0.339980  0.473450  0.381530  1.0  -0.5735
  O  O3563  1  0.277550  0.406170  0.378880  1.0  -0.5757
  O  O3564  1  0.274500  0.377940  0.410500  1.0  -0.5749
  O  O3565  1  0.343020  0.375010  0.473970  1.0  -0.5649
  O  O3566  1  0.372740  0.405360  0.473980  1.0  -0.5716
  O  O3567  1  0.277730  0.341590  0.372910  1.0  -0.5668
  O  O3568  1  0.274690  0.369490  0.341110  1.0  -0.568
  O  O3569  1  0.870240  0.973700  0.411150  1.0  -0.5674
  O  O3570  1  0.839980  0.973450  0.381530  1.0  -0.5735
  O  O3571  1  0.777550  0.906170  0.378880  1.0  -0.5757
  O  O3572  1  0.774500  0.877940  0.410500  1.0  -0.5749
  O  O3573  1  0.843020  0.875010  0.473970  1.0  -0.5649
  O  O3574  1  0.872740  0.905360  0.473980  1.0  -0.5716
  O  O3575  1  0.777730  0.841590  0.372910  1.0  -0.5668
  O  O3576  1  0.774690  0.869490  0.341110  1.0  -0.568
  O  O3577  1  0.870240  0.473700  0.911150  1.0  -0.5674
  O  O3578  1  0.839980  0.473450  0.881530  1.0  -0.5735
  O  O3579  1  0.777550  0.406170  0.878880  1.0  -0.5757
  O  O3580  1  0.774500  0.377940  0.910500  1.0  -0.5749
  O  O3581  1  0.843020  0.375010  0.973970  1.0  -0.5649
  O  O3582  1  0.872740  0.405360  0.973980  1.0  -0.5716
  O  O3583  1  0.777730  0.341590  0.872910  1.0  -0.5668
  O  O3584  1  0.774690  0.369490  0.841110  1.0  -0.568
  O  O3585  1  0.088850  0.370240  0.026300  1.0  -0.5683
  O  O3586  1  0.118470  0.339980  0.026550  1.0  -0.5747
  O  O3587  1  0.121120  0.277550  0.093830  1.0  -0.5771
  O  O3588  1  0.089500  0.274500  0.122060  1.0  -0.5736
  O  O3589  1  0.026030  0.343020  0.124990  1.0  -0.5639
  O  O3590  1  0.026020  0.372740  0.094640  1.0  -0.5706
  O  O3591  1  0.127090  0.277730  0.158410  1.0  -0.5654
  O  O3592  1  0.158890  0.274690  0.130510  1.0  -0.5669
  O  O3593  1  0.088850  0.870240  0.526300  1.0  -0.5683
  O  O3594  1  0.118470  0.839980  0.526550  1.0  -0.5747
  O  O3595  1  0.121120  0.777550  0.593830  1.0  -0.5771
  O  O3596  1  0.089500  0.774500  0.622060  1.0  -0.5736
  O  O3597  1  0.026030  0.843020  0.624990  1.0  -0.5639
  O  O3598  1  0.026020  0.872740  0.594640  1.0  -0.5706
  O  O3599  1  0.127090  0.777730  0.658410  1.0  -0.5654
  O  O3600  1  0.158890  0.774690  0.630510  1.0  -0.5669
  O  O3601  1  0.588850  0.370240  0.526300  1.0  -0.5683
  O  O3602  1  0.618470  0.339980  0.526550  1.0  -0.5747
  O  O3603  1  0.621120  0.277550  0.593830  1.0  -0.5771
  O  O3604  1  0.589500  0.274500  0.622060  1.0  -0.5736
  O  O3605  1  0.526030  0.343020  0.624990  1.0  -0.5639
  O  O3606  1  0.526020  0.372740  0.594640  1.0  -0.5706
  O  O3607  1  0.627090  0.277730  0.658410  1.0  -0.5654
  O  O3608  1  0.658890  0.274690  0.630510  1.0  -0.5669
  O  O3609  1  0.588850  0.870240  0.026300  1.0  -0.5683
  O  O3610  1  0.618470  0.839980  0.026550  1.0  -0.5747
  O  O3611  1  0.621120  0.777550  0.093830  1.0  -0.5771
  O  O3612  1  0.589500  0.774500  0.122060  1.0  -0.5736
  O  O3613  1  0.526030  0.843020  0.124990  1.0  -0.5639
  O  O3614  1  0.526020  0.872740  0.094640  1.0  -0.5706
  O  O3615  1  0.627090  0.777730  0.158410  1.0  -0.5654
  O  O3616  1  0.658890  0.774690  0.130510  1.0  -0.5669
  O  O3617  1  0.088850  0.629760  0.973700  1.0  -0.568
  O  O3618  1  0.118470  0.660020  0.973450  1.0  -0.5754
  O  O3619  1  0.121120  0.722450  0.906170  1.0  -0.5762
  O  O3620  1  0.089500  0.725500  0.877940  1.0  -0.5733
  O  O3621  1  0.026030  0.656980  0.875010  1.0  -0.5634
  O  O3622  1  0.026020  0.627260  0.905360  1.0  -0.5709
  O  O3623  1  0.127090  0.722270  0.841590  1.0  -0.566
  O  O3624  1  0.158890  0.725310  0.869490  1.0  -0.5676
  O  O3625  1  0.088850  0.129760  0.473700  1.0  -0.568
  O  O3626  1  0.118470  0.160020  0.473450  1.0  -0.5754
  O  O3627  1  0.121120  0.222450  0.406170  1.0  -0.5762
  O  O3628  1  0.089500  0.225500  0.377940  1.0  -0.5733
  O  O3629  1  0.026030  0.156980  0.375010  1.0  -0.5634
  O  O3630  1  0.026020  0.127260  0.405360  1.0  -0.5709
  O  O3631  1  0.127090  0.222270  0.341590  1.0  -0.566
  O  O3632  1  0.158890  0.225310  0.369490  1.0  -0.5676
  O  O3633  1  0.588850  0.629760  0.473700  1.0  -0.568
  O  O3634  1  0.618470  0.660020  0.473450  1.0  -0.5754
  O  O3635  1  0.621120  0.722450  0.406170  1.0  -0.5762
  O  O3636  1  0.589500  0.725500  0.377940  1.0  -0.5733
  O  O3637  1  0.526030  0.656980  0.375010  1.0  -0.5634
  O  O3638  1  0.526020  0.627260  0.405360  1.0  -0.5709
  O  O3639  1  0.627090  0.722270  0.341590  1.0  -0.566
  O  O3640  1  0.658890  0.725310  0.369490  1.0  -0.5676
  O  O3641  1  0.588850  0.129760  0.973700  1.0  -0.568
  O  O3642  1  0.618470  0.160020  0.973450  1.0  -0.5754
  O  O3643  1  0.621120  0.222450  0.906170  1.0  -0.5762
  O  O3644  1  0.589500  0.225500  0.877940  1.0  -0.5733
  O  O3645  1  0.526030  0.156980  0.875010  1.0  -0.5634
  O  O3646  1  0.526020  0.127260  0.905360  1.0  -0.5709
  O  O3647  1  0.627090  0.222270  0.841590  1.0  -0.566
  O  O3648  1  0.658890  0.225310  0.869490  1.0  -0.5676
  O  O3649  1  0.911150  0.629760  0.026300  1.0  -0.5681
  O  O3650  1  0.881530  0.660020  0.026550  1.0  -0.5746
  O  O3651  1  0.878880  0.722450  0.093830  1.0  -0.576
  O  O3652  1  0.910500  0.725500  0.122060  1.0  -0.5738
  O  O3653  1  0.973970  0.656980  0.124990  1.0  -0.5639
  O  O3654  1  0.973980  0.627260  0.094640  1.0  -0.5711
  O  O3655  1  0.872910  0.722270  0.158410  1.0  -0.5656
  O  O3656  1  0.841110  0.725310  0.130510  1.0  -0.5669
  O  O3657  1  0.911150  0.129760  0.526300  1.0  -0.5681
  O  O3658  1  0.881530  0.160020  0.526550  1.0  -0.5746
  O  O3659  1  0.878880  0.222450  0.593830  1.0  -0.576
  O  O3660  1  0.910500  0.225500  0.622060  1.0  -0.5738
  O  O3661  1  0.973970  0.156980  0.624990  1.0  -0.5639
  O  O3662  1  0.973980  0.127260  0.594640  1.0  -0.5711
  O  O3663  1  0.872910  0.222270  0.658410  1.0  -0.5656
  O  O3664  1  0.841110  0.225310  0.630510  1.0  -0.5669
  O  O3665  1  0.411150  0.629760  0.526300  1.0  -0.5681
  O  O3666  1  0.381530  0.660020  0.526550  1.0  -0.5746
  O  O3667  1  0.378880  0.722450  0.593830  1.0  -0.576
  O  O3668  1  0.410500  0.725500  0.622060  1.0  -0.5738
  O  O3669  1  0.473970  0.656980  0.624990  1.0  -0.5639
  O  O3670  1  0.473980  0.627260  0.594640  1.0  -0.5711
  O  O3671  1  0.372910  0.722270  0.658410  1.0  -0.5656
  O  O3672  1  0.341110  0.725310  0.630510  1.0  -0.5669
  O  O3673  1  0.411150  0.129760  0.026300  1.0  -0.5681
  O  O3674  1  0.381530  0.160020  0.026550  1.0  -0.5746
  O  O3675  1  0.378880  0.222450  0.093830  1.0  -0.576
  O  O3676  1  0.410500  0.225500  0.122060  1.0  -0.5738
  O  O3677  1  0.473970  0.156980  0.124990  1.0  -0.5639
  O  O3678  1  0.473980  0.127260  0.094640  1.0  -0.5711
  O  O3679  1  0.372910  0.222270  0.158410  1.0  -0.5656
  O  O3680  1  0.341110  0.225310  0.130510  1.0  -0.5669
  O  O3681  1  0.911150  0.370240  0.973700  1.0  -0.5684
  O  O3682  1  0.881530  0.339980  0.973450  1.0  -0.5745
  O  O3683  1  0.878880  0.277550  0.906170  1.0  -0.5756
  O  O3684  1  0.910500  0.274500  0.877940  1.0  -0.574
  O  O3685  1  0.973970  0.343020  0.875010  1.0  -0.5637
  O  O3686  1  0.973980  0.372740  0.905360  1.0  -0.5704
  O  O3687  1  0.872910  0.277730  0.841590  1.0  -0.5667
  O  O3688  1  0.841110  0.274690  0.869490  1.0  -0.5666
  O  O3689  1  0.911150  0.870240  0.473700  1.0  -0.5684
  O  O3690  1  0.881530  0.839980  0.473450  1.0  -0.5745
  O  O3691  1  0.878880  0.777550  0.406170  1.0  -0.5756
  O  O3692  1  0.910500  0.774500  0.377940  1.0  -0.574
  O  O3693  1  0.973970  0.843020  0.375010  1.0  -0.5637
  O  O3694  1  0.973980  0.872740  0.405360  1.0  -0.5704
  O  O3695  1  0.872910  0.777730  0.341590  1.0  -0.5667
  O  O3696  1  0.841110  0.774690  0.369490  1.0  -0.5666
  O  O3697  1  0.411150  0.370240  0.473700  1.0  -0.5684
  O  O3698  1  0.381530  0.339980  0.473450  1.0  -0.5745
  O  O3699  1  0.378880  0.277550  0.406170  1.0  -0.5756
  O  O3700  1  0.410500  0.274500  0.377940  1.0  -0.574
  O  O3701  1  0.473970  0.343020  0.375010  1.0  -0.5637
  O  O3702  1  0.473980  0.372740  0.405360  1.0  -0.5704
  O  O3703  1  0.372910  0.277730  0.341590  1.0  -0.5667
  O  O3704  1  0.341110  0.274690  0.369490  1.0  -0.5666
  O  O3705  1  0.411150  0.870240  0.973700  1.0  -0.5684
  O  O3706  1  0.381530  0.839980  0.973450  1.0  -0.5745
  O  O3707  1  0.378880  0.777550  0.906170  1.0  -0.5756
  O  O3708  1  0.410500  0.774500  0.877940  1.0  -0.574
  O  O3709  1  0.473970  0.843020  0.875010  1.0  -0.5637
  O  O3710  1  0.473980  0.872740  0.905360  1.0  -0.5704
  O  O3711  1  0.372910  0.777730  0.841590  1.0  -0.5667
  O  O3712  1  0.341110  0.774690  0.869490  1.0  -0.5666
  O  O3713  1  0.026300  0.088850  0.370240  1.0  -0.5672
  O  O3714  1  0.026550  0.118470  0.339980  1.0  -0.5749
  O  O3715  1  0.093830  0.121120  0.277550  1.0  -0.5755
  O  O3716  1  0.122060  0.089500  0.274500  1.0  -0.5751
  O  O3717  1  0.124990  0.026030  0.343020  1.0  -0.5652
  O  O3718  1  0.094640  0.026020  0.372740  1.0  -0.5698
  O  O3719  1  0.158410  0.127090  0.277730  1.0  -0.5674
  O  O3720  1  0.130510  0.158890  0.274690  1.0  -0.5681
  O  O3721  1  0.026300  0.588850  0.870240  1.0  -0.5672
  O  O3722  1  0.026550  0.618470  0.839980  1.0  -0.5749
  O  O3723  1  0.093830  0.621120  0.777550  1.0  -0.5755
  O  O3724  1  0.122060  0.589500  0.774500  1.0  -0.5751
  O  O3725  1  0.124990  0.526030  0.843020  1.0  -0.5652
  O  O3726  1  0.094640  0.526020  0.872740  1.0  -0.5698
  O  O3727  1  0.158410  0.627090  0.777730  1.0  -0.5674
  O  O3728  1  0.130510  0.658890  0.774690  1.0  -0.5681
  O  O3729  1  0.526300  0.088850  0.870240  1.0  -0.5672
  O  O3730  1  0.526550  0.118470  0.839980  1.0  -0.5749
  O  O3731  1  0.593830  0.121120  0.777550  1.0  -0.5755
  O  O3732  1  0.622060  0.089500  0.774500  1.0  -0.5751
  O  O3733  1  0.624990  0.026030  0.843020  1.0  -0.5652
  O  O3734  1  0.594640  0.026020  0.872740  1.0  -0.5698
  O  O3735  1  0.658410  0.127090  0.777730  1.0  -0.5674
  O  O3736  1  0.630510  0.158890  0.774690  1.0  -0.5681
  O  O3737  1  0.526300  0.588850  0.370240  1.0  -0.5672
  O  O3738  1  0.526550  0.618470  0.339980  1.0  -0.5749
  O  O3739  1  0.593830  0.621120  0.277550  1.0  -0.5755
  O  O3740  1  0.622060  0.589500  0.274500  1.0  -0.5751
  O  O3741  1  0.624990  0.526030  0.343020  1.0  -0.5652
  O  O3742  1  0.594640  0.526020  0.372740  1.0  -0.5698
  O  O3743  1  0.658410  0.627090  0.277730  1.0  -0.5674
  O  O3744  1  0.630510  0.658890  0.274690  1.0  -0.5681
  O  O3745  1  0.973700  0.088850  0.629760  1.0  -0.5671
  O  O3746  1  0.973450  0.118470  0.660020  1.0  -0.5737
  O  O3747  1  0.906170  0.121120  0.722450  1.0  -0.576
  O  O3748  1  0.877940  0.089500  0.725500  1.0  -0.5752
  O  O3749  1  0.875010  0.026030  0.656980  1.0  -0.5642
  O  O3750  1  0.905360  0.026020  0.627260  1.0  -0.5702
  O  O3751  1  0.841590  0.127090  0.722270  1.0  -0.5667
  O  O3752  1  0.869490  0.158890  0.725310  1.0  -0.5691
  O  O3753  1  0.973700  0.588850  0.129760  1.0  -0.5671
  O  O3754  1  0.973450  0.618470  0.160020  1.0  -0.5737
  O  O3755  1  0.906170  0.621120  0.222450  1.0  -0.576
  O  O3756  1  0.877940  0.589500  0.225500  1.0  -0.5752
  O  O3757  1  0.875010  0.526030  0.156980  1.0  -0.5642
  O  O3758  1  0.905360  0.526020  0.127260  1.0  -0.5702
  O  O3759  1  0.841590  0.627090  0.222270  1.0  -0.5667
  O  O3760  1  0.869490  0.658890  0.225310  1.0  -0.5691
  O  O3761  1  0.473700  0.088850  0.129760  1.0  -0.5671
  O  O3762  1  0.473450  0.118470  0.160020  1.0  -0.5737
  O  O3763  1  0.406170  0.121120  0.222450  1.0  -0.576
  O  O3764  1  0.377940  0.089500  0.225500  1.0  -0.5752
  O  O3765  1  0.375010  0.026030  0.156980  1.0  -0.5642
  O  O3766  1  0.405360  0.026020  0.127260  1.0  -0.5702
  O  O3767  1  0.341590  0.127090  0.222270  1.0  -0.5667
  O  O3768  1  0.369490  0.158890  0.225310  1.0  -0.5691
  O  O3769  1  0.473700  0.588850  0.629760  1.0  -0.5671
  O  O3770  1  0.473450  0.618470  0.660020  1.0  -0.5737
  O  O3771  1  0.406170  0.621120  0.722450  1.0  -0.576
  O  O3772  1  0.377940  0.589500  0.725500  1.0  -0.5752
  O  O3773  1  0.375010  0.526030  0.656980  1.0  -0.5642
  O  O3774  1  0.405360  0.526020  0.627260  1.0  -0.5702
  O  O3775  1  0.341590  0.627090  0.722270  1.0  -0.5667
  O  O3776  1  0.369490  0.658890  0.725310  1.0  -0.5691
  O  O3777  1  0.026300  0.911150  0.629760  1.0  -0.5672
  O  O3778  1  0.026550  0.881530  0.660020  1.0  -0.574
  O  O3779  1  0.093830  0.878880  0.722450  1.0  -0.5755
  O  O3780  1  0.122060  0.910500  0.725500  1.0  -0.5757
  O  O3781  1  0.124990  0.973970  0.656980  1.0  -0.5647
  O  O3782  1  0.094640  0.973980  0.627260  1.0  -0.5701
  O  O3783  1  0.158410  0.872910  0.722270  1.0  -0.5662
  O  O3784  1  0.130510  0.841110  0.725310  1.0  -0.5687
  O  O3785  1  0.026300  0.411150  0.129760  1.0  -0.5672
  O  O3786  1  0.026550  0.381530  0.160020  1.0  -0.574
  O  O3787  1  0.093830  0.378880  0.222450  1.0  -0.5755
  O  O3788  1  0.122060  0.410500  0.225500  1.0  -0.5757
  O  O3789  1  0.124990  0.473970  0.156980  1.0  -0.5647
  O  O3790  1  0.094640  0.473980  0.127260  1.0  -0.5701
  O  O3791  1  0.158410  0.372910  0.222270  1.0  -0.5662
  O  O3792  1  0.130510  0.341110  0.225310  1.0  -0.5687
  O  O3793  1  0.526300  0.911150  0.129760  1.0  -0.5672
  O  O3794  1  0.526550  0.881530  0.160020  1.0  -0.574
  O  O3795  1  0.593830  0.878880  0.222450  1.0  -0.5755
  O  O3796  1  0.622060  0.910500  0.225500  1.0  -0.5757
  O  O3797  1  0.624990  0.973970  0.156980  1.0  -0.5647
  O  O3798  1  0.594640  0.973980  0.127260  1.0  -0.5701
  O  O3799  1  0.658410  0.872910  0.222270  1.0  -0.5662
  O  O3800  1  0.630510  0.841110  0.225310  1.0  -0.5687
  O  O3801  1  0.526300  0.411150  0.629760  1.0  -0.5672
  O  O3802  1  0.526550  0.381530  0.660020  1.0  -0.574
  O  O3803  1  0.593830  0.378880  0.722450  1.0  -0.5755
  O  O3804  1  0.622060  0.410500  0.725500  1.0  -0.5757
  O  O3805  1  0.624990  0.473970  0.656980  1.0  -0.5647
  O  O3806  1  0.594640  0.473980  0.627260  1.0  -0.5701
  O  O3807  1  0.658410  0.372910  0.722270  1.0  -0.5662
  O  O3808  1  0.630510  0.341110  0.725310  1.0  -0.5687
  O  O3809  1  0.973700  0.911150  0.370240  1.0  -0.5673
  O  O3810  1  0.973450  0.881530  0.339980  1.0  -0.5743
  O  O3811  1  0.906170  0.878880  0.277550  1.0  -0.5766
  O  O3812  1  0.877940  0.910500  0.274500  1.0  -0.5753
  O  O3813  1  0.875010  0.973970  0.343020  1.0  -0.5645
  O  O3814  1  0.905360  0.973980  0.372740  1.0  -0.5701
  O  O3815  1  0.841590  0.872910  0.277730  1.0  -0.5661
  O  O3816  1  0.869490  0.841110  0.274690  1.0  -0.5684
  O  O3817  1  0.973700  0.411150  0.870240  1.0  -0.5673
  O  O3818  1  0.973450  0.381530  0.839980  1.0  -0.5743
  O  O3819  1  0.906170  0.378880  0.777550  1.0  -0.5766
  O  O3820  1  0.877940  0.410500  0.774500  1.0  -0.5753
  O  O3821  1  0.875010  0.473970  0.843020  1.0  -0.5645
  O  O3822  1  0.905360  0.473980  0.872740  1.0  -0.5701
  O  O3823  1  0.841590  0.372910  0.777730  1.0  -0.5661
  O  O3824  1  0.869490  0.341110  0.774690  1.0  -0.5684
  O  O3825  1  0.473700  0.911150  0.870240  1.0  -0.5673
  O  O3826  1  0.473450  0.881530  0.839980  1.0  -0.5743
  O  O3827  1  0.406170  0.878880  0.777550  1.0  -0.5766
  O  O3828  1  0.377940  0.910500  0.774500  1.0  -0.5753
  O  O3829  1  0.375010  0.973970  0.843020  1.0  -0.5645
  O  O3830  1  0.405360  0.973980  0.872740  1.0  -0.5701
  O  O3831  1  0.341590  0.872910  0.777730  1.0  -0.5661
  O  O3832  1  0.369490  0.841110  0.774690  1.0  -0.5684
  O  O3833  1  0.473700  0.411150  0.370240  1.0  -0.5673
  O  O3834  1  0.473450  0.381530  0.339980  1.0  -0.5743
  O  O3835  1  0.406170  0.378880  0.277550  1.0  -0.5766
  O  O3836  1  0.377940  0.410500  0.274500  1.0  -0.5753
  O  O3837  1  0.375010  0.473970  0.343020  1.0  -0.5645
  O  O3838  1  0.405360  0.473980  0.372740  1.0  -0.5701
  O  O3839  1  0.341590  0.372910  0.277730  1.0  -0.5661
  O  O3840  1  0.369490  0.341110  0.274690  1.0  -0.5684
  O  O3841  1  0.526300  0.870240  0.411150  1.0  -0.5671
  O  O3842  1  0.526550  0.839980  0.381530  1.0  -0.5735
  O  O3843  1  0.593830  0.777550  0.378880  1.0  -0.5753
  O  O3844  1  0.622060  0.774500  0.410500  1.0  -0.5743
  O  O3845  1  0.624990  0.843020  0.473970  1.0  -0.5651
  O  O3846  1  0.594640  0.872740  0.473980  1.0  -0.5709
  O  O3847  1  0.658410  0.777730  0.372910  1.0  -0.5661
  O  O3848  1  0.630510  0.774690  0.341110  1.0  -0.5672
  O  O3849  1  0.526300  0.370240  0.911150  1.0  -0.5671
  O  O3850  1  0.526550  0.339980  0.881530  1.0  -0.5735
  O  O3851  1  0.593830  0.277550  0.878880  1.0  -0.5753
  O  O3852  1  0.622060  0.274500  0.910500  1.0  -0.5743
  O  O3853  1  0.624990  0.343020  0.973970  1.0  -0.5651
  O  O3854  1  0.594640  0.372740  0.973980  1.0  -0.5709
  O  O3855  1  0.658410  0.277730  0.872910  1.0  -0.5661
  O  O3856  1  0.630510  0.274690  0.841110  1.0  -0.5672
  O  O3857  1  0.026300  0.870240  0.911150  1.0  -0.5671
  O  O3858  1  0.026550  0.839980  0.881530  1.0  -0.5735
  O  O3859  1  0.093830  0.777550  0.878880  1.0  -0.5753
  O  O3860  1  0.122060  0.774500  0.910500  1.0  -0.5743
  O  O3861  1  0.124990  0.843020  0.973970  1.0  -0.5651
  O  O3862  1  0.094640  0.872740  0.973980  1.0  -0.5709
  O  O3863  1  0.158410  0.777730  0.872910  1.0  -0.5661
  O  O3864  1  0.130510  0.774690  0.841110  1.0  -0.5672
  O  O3865  1  0.026300  0.370240  0.411150  1.0  -0.5671
  O  O3866  1  0.026550  0.339980  0.381530  1.0  -0.5735
  O  O3867  1  0.093830  0.277550  0.378880  1.0  -0.5753
  O  O3868  1  0.122060  0.274500  0.410500  1.0  -0.5743
  O  O3869  1  0.124990  0.343020  0.473970  1.0  -0.5651
  O  O3870  1  0.094640  0.372740  0.473980  1.0  -0.5709
  O  O3871  1  0.158410  0.277730  0.372910  1.0  -0.5661
  O  O3872  1  0.130510  0.274690  0.341110  1.0  -0.5672
  O  O3873  1  0.473700  0.129760  0.411150  1.0  -0.5678
  O  O3874  1  0.473450  0.160020  0.381530  1.0  -0.5739
  O  O3875  1  0.406170  0.222450  0.378880  1.0  -0.5756
  O  O3876  1  0.377940  0.225500  0.410500  1.0  -0.5745
  O  O3877  1  0.375010  0.156980  0.473970  1.0  -0.5649
  O  O3878  1  0.405360  0.127260  0.473980  1.0  -0.5714
  O  O3879  1  0.341590  0.222270  0.372910  1.0  -0.5663
  O  O3880  1  0.369490  0.225310  0.341110  1.0  -0.5672
  O  O3881  1  0.473700  0.629760  0.911150  1.0  -0.5678
  O  O3882  1  0.473450  0.660020  0.881530  1.0  -0.5739
  O  O3883  1  0.406170  0.722450  0.878880  1.0  -0.5756
  O  O3884  1  0.377940  0.725500  0.910500  1.0  -0.5745
  O  O3885  1  0.375010  0.656980  0.973970  1.0  -0.5649
  O  O3886  1  0.405360  0.627260  0.973980  1.0  -0.5714
  O  O3887  1  0.341590  0.722270  0.872910  1.0  -0.5663
  O  O3888  1  0.369490  0.725310  0.841110  1.0  -0.5672
  O  O3889  1  0.973700  0.129760  0.911150  1.0  -0.5678
  O  O3890  1  0.973450  0.160020  0.881530  1.0  -0.5739
  O  O3891  1  0.906170  0.222450  0.878880  1.0  -0.5756
  O  O3892  1  0.877940  0.225500  0.910500  1.0  -0.5745
  O  O3893  1  0.875010  0.156980  0.973970  1.0  -0.5649
  O  O3894  1  0.905360  0.127260  0.973980  1.0  -0.5714
  O  O3895  1  0.841590  0.222270  0.872910  1.0  -0.5663
  O  O3896  1  0.869490  0.225310  0.841110  1.0  -0.5672
  O  O3897  1  0.973700  0.629760  0.411150  1.0  -0.5678
  O  O3898  1  0.973450  0.660020  0.381530  1.0  -0.5739
  O  O3899  1  0.906170  0.722450  0.378880  1.0  -0.5756
  O  O3900  1  0.877940  0.725500  0.410500  1.0  -0.5745
  O  O3901  1  0.875010  0.656980  0.473970  1.0  -0.5649
  O  O3902  1  0.905360  0.627260  0.473980  1.0  -0.5714
  O  O3903  1  0.841590  0.722270  0.372910  1.0  -0.5663
  O  O3904  1  0.869490  0.725310  0.341110  1.0  -0.5672
  O  O3905  1  0.526300  0.129760  0.588850  1.0  -0.5677
  O  O3906  1  0.526550  0.160020  0.618470  1.0  -0.5739
  O  O3907  1  0.593830  0.222450  0.621120  1.0  -0.5752
  O  O3908  1  0.622060  0.225500  0.589500  1.0  -0.5752
  O  O3909  1  0.624990  0.156980  0.526030  1.0  -0.5655
  O  O3910  1  0.594640  0.127260  0.526020  1.0  -0.5707
  O  O3911  1  0.658410  0.222270  0.627090  1.0  -0.5662
  O  O3912  1  0.630510  0.225310  0.658890  1.0  -0.5667
  O  O3913  1  0.526300  0.629760  0.088850  1.0  -0.5677
  O  O3914  1  0.526550  0.660020  0.118470  1.0  -0.5739
  O  O3915  1  0.593830  0.722450  0.121120  1.0  -0.5752
  O  O3916  1  0.622060  0.725500  0.089500  1.0  -0.5752
  O  O3917  1  0.624990  0.656980  0.026030  1.0  -0.5655
  O  O3918  1  0.594640  0.627260  0.026020  1.0  -0.5707
  O  O3919  1  0.658410  0.722270  0.127090  1.0  -0.5662
  O  O3920  1  0.630510  0.725310  0.158890  1.0  -0.5667
  O  O3921  1  0.026300  0.129760  0.088850  1.0  -0.5677
  O  O3922  1  0.026550  0.160020  0.118470  1.0  -0.5739
  O  O3923  1  0.093830  0.222450  0.121120  1.0  -0.5752
  O  O3924  1  0.122060  0.225500  0.089500  1.0  -0.5752
  O  O3925  1  0.124990  0.156980  0.026030  1.0  -0.5655
  O  O3926  1  0.094640  0.127260  0.026020  1.0  -0.5707
  O  O3927  1  0.158410  0.222270  0.127090  1.0  -0.5662
  O  O3928  1  0.130510  0.225310  0.158890  1.0  -0.5667
  O  O3929  1  0.026300  0.629760  0.588850  1.0  -0.5677
  O  O3930  1  0.026550  0.660020  0.618470  1.0  -0.5739
  O  O3931  1  0.093830  0.722450  0.621120  1.0  -0.5752
  O  O3932  1  0.122060  0.725500  0.589500  1.0  -0.5752
  O  O3933  1  0.124990  0.656980  0.526030  1.0  -0.5655
  O  O3934  1  0.094640  0.627260  0.526020  1.0  -0.5707
  O  O3935  1  0.158410  0.722270  0.627090  1.0  -0.5662
  O  O3936  1  0.130510  0.725310  0.658890  1.0  -0.5667
  O  O3937  1  0.473700  0.870240  0.588850  1.0  -0.5675
  O  O3938  1  0.473450  0.839980  0.618470  1.0  -0.5736
  O  O3939  1  0.406170  0.777550  0.621120  1.0  -0.5758
  O  O3940  1  0.377940  0.774500  0.589500  1.0  -0.575
  O  O3941  1  0.375010  0.843020  0.526030  1.0  -0.5652
  O  O3942  1  0.405360  0.872740  0.526020  1.0  -0.5713
  O  O3943  1  0.341590  0.777730  0.627090  1.0  -0.5665
  O  O3944  1  0.369490  0.774690  0.658890  1.0  -0.5668
  O  O3945  1  0.473700  0.370240  0.088850  1.0  -0.5675
  O  O3946  1  0.473450  0.339980  0.118470  1.0  -0.5736
  O  O3947  1  0.406170  0.277550  0.121120  1.0  -0.5758
  O  O3948  1  0.377940  0.274500  0.089500  1.0  -0.575
  O  O3949  1  0.375010  0.343020  0.026030  1.0  -0.5652
  O  O3950  1  0.405360  0.372740  0.026020  1.0  -0.5713
  O  O3951  1  0.341590  0.277730  0.127090  1.0  -0.5665
  O  O3952  1  0.369490  0.274690  0.158890  1.0  -0.5668
  O  O3953  1  0.973700  0.870240  0.088850  1.0  -0.5675
  O  O3954  1  0.973450  0.839980  0.118470  1.0  -0.5736
  O  O3955  1  0.906170  0.777550  0.121120  1.0  -0.5758
  O  O3956  1  0.877940  0.774500  0.089500  1.0  -0.575
  O  O3957  1  0.875010  0.843020  0.026030  1.0  -0.5652
  O  O3958  1  0.905360  0.872740  0.026020  1.0  -0.5713
  O  O3959  1  0.841590  0.777730  0.127090  1.0  -0.5665
  O  O3960  1  0.869490  0.774690  0.158890  1.0  -0.5668
  O  O3961  1  0.973700  0.370240  0.588850  1.0  -0.5675
  O  O3962  1  0.973450  0.339980  0.618470  1.0  -0.5736
  O  O3963  1  0.906170  0.277550  0.621120  1.0  -0.5758
  O  O3964  1  0.877940  0.274500  0.589500  1.0  -0.575
  O  O3965  1  0.875010  0.343020  0.526030  1.0  -0.5652
  O  O3966  1  0.905360  0.372740  0.526020  1.0  -0.5713
  O  O3967  1  0.841590  0.277730  0.627090  1.0  -0.5665
  O  O3968  1  0.869490  0.274690  0.658890  1.0  -0.5668
  O  O3969  1  0.870240  0.588850  0.473700  1.0  -0.5683
  O  O3970  1  0.839980  0.618470  0.473450  1.0  -0.5746
  O  O3971  1  0.777550  0.621120  0.406170  1.0  -0.5757
  O  O3972  1  0.774500  0.589500  0.377940  1.0  -0.5745
  O  O3973  1  0.843020  0.526030  0.375010  1.0  -0.5641
  O  O3974  1  0.872740  0.526020  0.405360  1.0  -0.5708
  O  O3975  1  0.777730  0.627090  0.341590  1.0  -0.5671
  O  O3976  1  0.774690  0.658890  0.369490  1.0  -0.5668
  O  O3977  1  0.870240  0.088850  0.973700  1.0  -0.5683
  O  O3978  1  0.839980  0.118470  0.973450  1.0  -0.5746
  O  O3979  1  0.777550  0.121120  0.906170  1.0  -0.5757
  O  O3980  1  0.774500  0.089500  0.877940  1.0  -0.5745
  O  O3981  1  0.843020  0.026030  0.875010  1.0  -0.5641
  O  O3982  1  0.872740  0.026020  0.905360  1.0  -0.5708
  O  O3983  1  0.777730  0.127090  0.841590  1.0  -0.5671
  O  O3984  1  0.774690  0.158890  0.869490  1.0  -0.5668
  O  O3985  1  0.370240  0.588850  0.973700  1.0  -0.5683
  O  O3986  1  0.339980  0.618470  0.973450  1.0  -0.5746
  O  O3987  1  0.277550  0.621120  0.906170  1.0  -0.5757
  O  O3988  1  0.274500  0.589500  0.877940  1.0  -0.5745
  O  O3989  1  0.343020  0.526030  0.875010  1.0  -0.5641
  O  O3990  1  0.372740  0.526020  0.905360  1.0  -0.5708
  O  O3991  1  0.277730  0.627090  0.841590  1.0  -0.5671
  O  O3992  1  0.274690  0.658890  0.869490  1.0  -0.5668
  O  O3993  1  0.370240  0.088850  0.473700  1.0  -0.5683
  O  O3994  1  0.339980  0.118470  0.473450  1.0  -0.5746
  O  O3995  1  0.277550  0.121120  0.406170  1.0  -0.5757
  O  O3996  1  0.274500  0.089500  0.377940  1.0  -0.5745
  O  O3997  1  0.343020  0.026030  0.375010  1.0  -0.5641
  O  O3998  1  0.372740  0.026020  0.405360  1.0  -0.5708
  O  O3999  1  0.277730  0.127090  0.341590  1.0  -0.5671
  O  O4000  1  0.274690  0.158890  0.369490  1.0  -0.5668
  O  O4001  1  0.129760  0.588850  0.526300  1.0  -0.5681
  O  O4002  1  0.160020  0.618470  0.526550  1.0  -0.5754
  O  O4003  1  0.222450  0.621120  0.593830  1.0  -0.5762
  O  O4004  1  0.225500  0.589500  0.622060  1.0  -0.5747
  O  O4005  1  0.156980  0.526030  0.624990  1.0  -0.565
  O  O4006  1  0.127260  0.526020  0.594640  1.0  -0.5712
  O  O4007  1  0.222270  0.627090  0.658410  1.0  -0.5663
  O  O4008  1  0.225310  0.658890  0.630510  1.0  -0.5673
  O  O4009  1  0.129760  0.088850  0.026300  1.0  -0.5681
  O  O4010  1  0.160020  0.118470  0.026550  1.0  -0.5754
  O  O4011  1  0.222450  0.121120  0.093830  1.0  -0.5762
  O  O4012  1  0.225500  0.089500  0.122060  1.0  -0.5747
  O  O4013  1  0.156980  0.026030  0.124990  1.0  -0.565
  O  O4014  1  0.127260  0.026020  0.094640  1.0  -0.5712
  O  O4015  1  0.222270  0.127090  0.158410  1.0  -0.5663
  O  O4016  1  0.225310  0.158890  0.130510  1.0  -0.5673
  O  O4017  1  0.629760  0.588850  0.026300  1.0  -0.5681
  O  O4018  1  0.660020  0.618470  0.026550  1.0  -0.5754
  O  O4019  1  0.722450  0.621120  0.093830  1.0  -0.5762
  O  O4020  1  0.725500  0.589500  0.122060  1.0  -0.5747
  O  O4021  1  0.656980  0.526030  0.124990  1.0  -0.565
  O  O4022  1  0.627260  0.526020  0.094640  1.0  -0.5712
  O  O4023  1  0.722270  0.627090  0.158410  1.0  -0.5663
  O  O4024  1  0.725310  0.658890  0.130510  1.0  -0.5673
  O  O4025  1  0.629760  0.088850  0.526300  1.0  -0.5681
  O  O4026  1  0.660020  0.118470  0.526550  1.0  -0.5754
  O  O4027  1  0.722450  0.121120  0.593830  1.0  -0.5762
  O  O4028  1  0.725500  0.089500  0.622060  1.0  -0.5747
  O  O4029  1  0.656980  0.026030  0.624990  1.0  -0.565
  O  O4030  1  0.627260  0.026020  0.594640  1.0  -0.5712
  O  O4031  1  0.722270  0.127090  0.658410  1.0  -0.5663
  O  O4032  1  0.725310  0.158890  0.630510  1.0  -0.5673
  O  O4033  1  0.129760  0.411150  0.473700  1.0  -0.5686
  O  O4034  1  0.160020  0.381530  0.473450  1.0  -0.5746
  O  O4035  1  0.222450  0.378880  0.406170  1.0  -0.5763
  O  O4036  1  0.225500  0.410500  0.377940  1.0  -0.5752
  O  O4037  1  0.156980  0.473970  0.375010  1.0  -0.5638
  O  O4038  1  0.127260  0.473980  0.405360  1.0  -0.5707
  O  O4039  1  0.222270  0.372910  0.341590  1.0  -0.566
  O  O4040  1  0.225310  0.341110  0.369490  1.0  -0.5669
  O  O4041  1  0.129760  0.911150  0.973700  1.0  -0.5686
  O  O4042  1  0.160020  0.881530  0.973450  1.0  -0.5746
  O  O4043  1  0.222450  0.878880  0.906170  1.0  -0.5763
  O  O4044  1  0.225500  0.910500  0.877940  1.0  -0.5752
  O  O4045  1  0.156980  0.973970  0.875010  1.0  -0.5638
  O  O4046  1  0.127260  0.973980  0.905360  1.0  -0.5707
  O  O4047  1  0.222270  0.872910  0.841590  1.0  -0.566
  O  O4048  1  0.225310  0.841110  0.869490  1.0  -0.5669
  O  O4049  1  0.629760  0.411150  0.973700  1.0  -0.5686
  O  O4050  1  0.660020  0.381530  0.973450  1.0  -0.5746
  O  O4051  1  0.722450  0.378880  0.906170  1.0  -0.5763
  O  O4052  1  0.725500  0.410500  0.877940  1.0  -0.5752
  O  O4053  1  0.656980  0.473970  0.875010  1.0  -0.5638
  O  O4054  1  0.627260  0.473980  0.905360  1.0  -0.5707
  O  O4055  1  0.722270  0.372910  0.841590  1.0  -0.566
  O  O4056  1  0.725310  0.341110  0.869490  1.0  -0.5669
  O  O4057  1  0.629760  0.911150  0.473700  1.0  -0.5686
  O  O4058  1  0.660020  0.881530  0.473450  1.0  -0.5746
  O  O4059  1  0.722450  0.878880  0.406170  1.0  -0.5763
  O  O4060  1  0.725500  0.910500  0.377940  1.0  -0.5752
  O  O4061  1  0.656980  0.973970  0.375010  1.0  -0.5638
  O  O4062  1  0.627260  0.973980  0.405360  1.0  -0.5707
  O  O4063  1  0.722270  0.872910  0.341590  1.0  -0.566
  O  O4064  1  0.725310  0.841110  0.369490  1.0  -0.5669
  O  O4065  1  0.870240  0.411150  0.526300  1.0  -0.5687
  O  O4066  1  0.839980  0.381530  0.526550  1.0  -0.5745
  O  O4067  1  0.777550  0.378880  0.593830  1.0  -0.5769
  O  O4068  1  0.774500  0.410500  0.622060  1.0  -0.5748
  O  O4069  1  0.843020  0.473970  0.624990  1.0  -0.5641
  O  O4070  1  0.872740  0.473980  0.594640  1.0  -0.5711
  O  O4071  1  0.777730  0.372910  0.658410  1.0  -0.5654
  O  O4072  1  0.774690  0.341110  0.630510  1.0  -0.567
  O  O4073  1  0.870240  0.911150  0.026300  1.0  -0.5687
  O  O4074  1  0.839980  0.881530  0.026550  1.0  -0.5745
  O  O4075  1  0.777550  0.878880  0.093830  1.0  -0.5769
  O  O4076  1  0.774500  0.910500  0.122060  1.0  -0.5748
  O  O4077  1  0.843020  0.973970  0.124990  1.0  -0.5641
  O  O4078  1  0.872740  0.973980  0.094640  1.0  -0.5711
  O  O4079  1  0.777730  0.872910  0.158410  1.0  -0.5654
  O  O4080  1  0.774690  0.841110  0.130510  1.0  -0.567
  O  O4081  1  0.370240  0.411150  0.026300  1.0  -0.5687
  O  O4082  1  0.339980  0.381530  0.026550  1.0  -0.5745
  O  O4083  1  0.277550  0.378880  0.093830  1.0  -0.5769
  O  O4084  1  0.274500  0.410500  0.122060  1.0  -0.5748
  O  O4085  1  0.343020  0.473970  0.124990  1.0  -0.5641
  O  O4086  1  0.372740  0.473980  0.094640  1.0  -0.5711
  O  O4087  1  0.277730  0.372910  0.158410  1.0  -0.5654
  O  O4088  1  0.274690  0.341110  0.130510  1.0  -0.567
  O  O4089  1  0.370240  0.911150  0.526300  1.0  -0.5687
  O  O4090  1  0.339980  0.881530  0.526550  1.0  -0.5745
  O  O4091  1  0.277550  0.878880  0.593830  1.0  -0.5769
  O  O4092  1  0.274500  0.910500  0.622060  1.0  -0.5748
  O  O4093  1  0.343020  0.973970  0.624990  1.0  -0.5641
  O  O4094  1  0.372740  0.973980  0.594640  1.0  -0.5711
  O  O4095  1  0.277730  0.872910  0.658410  1.0  -0.5654
  O  O4096  1  0.274690  0.841110  0.630510  1.0  -0.567
  O  O4097  1  0.588850  0.526300  0.129760  1.0  -0.5675
  O  O4098  1  0.618470  0.526550  0.160020  1.0  -0.5738
  O  O4099  1  0.621120  0.593830  0.222450  1.0  -0.5763
  O  O4100  1  0.589500  0.622060  0.225500  1.0  -0.5742
  O  O4101  1  0.526030  0.624990  0.156980  1.0  -0.5636
  O  O4102  1  0.526020  0.594640  0.127260  1.0  -0.5704
  O  O4103  1  0.627090  0.658410  0.222270  1.0  -0.5657
  O  O4104  1  0.658890  0.630510  0.225310  1.0  -0.5676
  O  O4105  1  0.588850  0.026300  0.629760  1.0  -0.5675
  O  O4106  1  0.618470  0.026550  0.660020  1.0  -0.5738
  O  O4107  1  0.621120  0.093830  0.722450  1.0  -0.5763
  O  O4108  1  0.589500  0.122060  0.725500  1.0  -0.5742
  O  O4109  1  0.526030  0.124990  0.656980  1.0  -0.5636
  O  O4110  1  0.526020  0.094640  0.627260  1.0  -0.5704
  O  O4111  1  0.627090  0.158410  0.722270  1.0  -0.5657
  O  O4112  1  0.658890  0.130510  0.725310  1.0  -0.5676
  O  O4113  1  0.088850  0.526300  0.629760  1.0  -0.5675
  O  O4114  1  0.118470  0.526550  0.660020  1.0  -0.5738
  O  O4115  1  0.121120  0.593830  0.722450  1.0  -0.5763
  O  O4116  1  0.089500  0.622060  0.725500  1.0  -0.5742
  O  O4117  1  0.026030  0.624990  0.656980  1.0  -0.5636
  O  O4118  1  0.026020  0.594640  0.627260  1.0  -0.5704
  O  O4119  1  0.127090  0.658410  0.722270  1.0  -0.5657
  O  O4120  1  0.158890  0.630510  0.725310  1.0  -0.5676
  O  O4121  1  0.088850  0.026300  0.129760  1.0  -0.5675
  O  O4122  1  0.118470  0.026550  0.160020  1.0  -0.5738
  O  O4123  1  0.121120  0.093830  0.222450  1.0  -0.5763
  O  O4124  1  0.089500  0.122060  0.225500  1.0  -0.5742
  O  O4125  1  0.026030  0.124990  0.156980  1.0  -0.5636
  O  O4126  1  0.026020  0.094640  0.127260  1.0  -0.5704
  O  O4127  1  0.127090  0.158410  0.222270  1.0  -0.5657
  O  O4128  1  0.158890  0.130510  0.225310  1.0  -0.5676
  O  O4129  1  0.588850  0.473700  0.870240  1.0  -0.5677
  O  O4130  1  0.618470  0.473450  0.839980  1.0  -0.5751
  O  O4131  1  0.621120  0.406170  0.777550  1.0  -0.5768
  O  O4132  1  0.589500  0.377940  0.774500  1.0  -0.5741
  O  O4133  1  0.526030  0.375010  0.843020  1.0  -0.5654
  O  O4134  1  0.526020  0.405360  0.872740  1.0  -0.5702
  O  O4135  1  0.627090  0.341590  0.777730  1.0  -0.5668
  O  O4136  1  0.658890  0.369490  0.774690  1.0  -0.5679
  O  O4137  1  0.588850  0.973700  0.370240  1.0  -0.5677
  O  O4138  1  0.618470  0.973450  0.339980  1.0  -0.5751
  O  O4139  1  0.621120  0.906170  0.277550  1.0  -0.5768
  O  O4140  1  0.589500  0.877940  0.274500  1.0  -0.5741
  O  O4141  1  0.526030  0.875010  0.343020  1.0  -0.5654
  O  O4142  1  0.526020  0.905360  0.372740  1.0  -0.5702
  O  O4143  1  0.627090  0.841590  0.277730  1.0  -0.5668
  O  O4144  1  0.658890  0.869490  0.274690  1.0  -0.5679
  O  O4145  1  0.088850  0.473700  0.370240  1.0  -0.5677
  O  O4146  1  0.118470  0.473450  0.339980  1.0  -0.5751
  O  O4147  1  0.121120  0.406170  0.277550  1.0  -0.5768
  O  O4148  1  0.089500  0.377940  0.274500  1.0  -0.5741
  O  O4149  1  0.026030  0.375010  0.343020  1.0  -0.5654
  O  O4150  1  0.026020  0.405360  0.372740  1.0  -0.5702
  O  O4151  1  0.127090  0.341590  0.277730  1.0  -0.5668
  O  O4152  1  0.158890  0.369490  0.274690  1.0  -0.5679
  O  O4153  1  0.088850  0.973700  0.870240  1.0  -0.5677
  O  O4154  1  0.118470  0.973450  0.839980  1.0  -0.5751
  O  O4155  1  0.121120  0.906170  0.777550  1.0  -0.5768
  O  O4156  1  0.089500  0.877940  0.774500  1.0  -0.5741
  O  O4157  1  0.026030  0.875010  0.843020  1.0  -0.5654
  O  O4158  1  0.026020  0.905360  0.872740  1.0  -0.5702
  O  O4159  1  0.127090  0.841590  0.777730  1.0  -0.5668
  O  O4160  1  0.158890  0.869490  0.774690  1.0  -0.5679
  O  O4161  1  0.411150  0.526300  0.870240  1.0  -0.5674
  O  O4162  1  0.381530  0.526550  0.839980  1.0  -0.5739
  O  O4163  1  0.378880  0.593830  0.777550  1.0  -0.5757
  O  O4164  1  0.410500  0.622060  0.774500  1.0  -0.5744
  O  O4165  1  0.473970  0.624990  0.843020  1.0  -0.5644
  O  O4166  1  0.473980  0.594640  0.872740  1.0  -0.5705
  O  O4167  1  0.372910  0.658410  0.777730  1.0  -0.5662
  O  O4168  1  0.341110  0.630510  0.774690  1.0  -0.5668
  O  O4169  1  0.411150  0.026300  0.370240  1.0  -0.5674
  O  O4170  1  0.381530  0.026550  0.339980  1.0  -0.5739
  O  O4171  1  0.378880  0.093830  0.277550  1.0  -0.5757
  O  O4172  1  0.410500  0.122060  0.274500  1.0  -0.5744
  O  O4173  1  0.473970  0.124990  0.343020  1.0  -0.5644
  O  O4174  1  0.473980  0.094640  0.372740  1.0  -0.5705
  O  O4175  1  0.372910  0.158410  0.277730  1.0  -0.5662
  O  O4176  1  0.341110  0.130510  0.274690  1.0  -0.5668
  O  O4177  1  0.911150  0.526300  0.370240  1.0  -0.5674
  O  O4178  1  0.881530  0.526550  0.339980  1.0  -0.5739
  O  O4179  1  0.878880  0.593830  0.277550  1.0  -0.5757
  O  O4180  1  0.910500  0.622060  0.274500  1.0  -0.5744
  O  O4181  1  0.973970  0.624990  0.343020  1.0  -0.5644
  O  O4182  1  0.973980  0.594640  0.372740  1.0  -0.5705
  O  O4183  1  0.872910  0.658410  0.277730  1.0  -0.5662
  O  O4184  1  0.841110  0.630510  0.274690  1.0  -0.5668
  O  O4185  1  0.911150  0.026300  0.870240  1.0  -0.5674
  O  O4186  1  0.881530  0.026550  0.839980  1.0  -0.5739
  O  O4187  1  0.878880  0.093830  0.777550  1.0  -0.5757
  O  O4188  1  0.910500  0.122060  0.774500  1.0  -0.5744
  O  O4189  1  0.973970  0.124990  0.843020  1.0  -0.5644
  O  O4190  1  0.973980  0.094640  0.872740  1.0  -0.5705
  O  O4191  1  0.872910  0.158410  0.777730  1.0  -0.5662
  O  O4192  1  0.841110  0.130510  0.774690  1.0  -0.5668
  O  O4193  1  0.411150  0.473700  0.129760  1.0  -0.5671
  O  O4194  1  0.381530  0.473450  0.160020  1.0  -0.5739
  O  O4195  1  0.378880  0.406170  0.222450  1.0  -0.5761
  O  O4196  1  0.410500  0.377940  0.225500  1.0  -0.5753
  O  O4197  1  0.473970  0.375010  0.156980  1.0  -0.5651
  O  O4198  1  0.473980  0.405360  0.127260  1.0  -0.5706
  O  O4199  1  0.372910  0.341590  0.222270  1.0  -0.5667
  O  O4200  1  0.341110  0.369490  0.225310  1.0  -0.5675
  O  O4201  1  0.411150  0.973700  0.629760  1.0  -0.5671
  O  O4202  1  0.381530  0.973450  0.660020  1.0  -0.5739
  O  O4203  1  0.378880  0.906170  0.722450  1.0  -0.5761
  O  O4204  1  0.410500  0.877940  0.725500  1.0  -0.5753
  O  O4205  1  0.473970  0.875010  0.656980  1.0  -0.5651
  O  O4206  1  0.473980  0.905360  0.627260  1.0  -0.5706
  O  O4207  1  0.372910  0.841590  0.722270  1.0  -0.5667
  O  O4208  1  0.341110  0.869490  0.725310  1.0  -0.5675
  O  O4209  1  0.911150  0.473700  0.629760  1.0  -0.5671
  O  O4210  1  0.881530  0.473450  0.660020  1.0  -0.5739
  O  O4211  1  0.878880  0.406170  0.722450  1.0  -0.5761
  O  O4212  1  0.910500  0.377940  0.725500  1.0  -0.5753
  O  O4213  1  0.973970  0.375010  0.656980  1.0  -0.5651
  O  O4214  1  0.973980  0.405360  0.627260  1.0  -0.5706
  O  O4215  1  0.872910  0.341590  0.722270  1.0  -0.5667
  O  O4216  1  0.841110  0.369490  0.725310  1.0  -0.5675
  O  O4217  1  0.911150  0.973700  0.129760  1.0  -0.5671
  O  O4218  1  0.881530  0.973450  0.160020  1.0  -0.5739
  O  O4219  1  0.878880  0.906170  0.222450  1.0  -0.5761
  O  O4220  1  0.910500  0.877940  0.225500  1.0  -0.5753
  O  O4221  1  0.973970  0.875010  0.156980  1.0  -0.5651
  O  O4222  1  0.973980  0.905360  0.127260  1.0  -0.5706
  O  O4223  1  0.872910  0.841590  0.222270  1.0  -0.5667
  O  O4224  1  0.841110  0.869490  0.225310  1.0  -0.5675
  O  O4225  1  0.629760  0.973700  0.911150  1.0  -0.5675
  O  O4226  1  0.660020  0.973450  0.881530  1.0  -0.5744
  O  O4227  1  0.722450  0.906170  0.878880  1.0  -0.5758
  O  O4228  1  0.725500  0.877940  0.910500  1.0  -0.5749
  O  O4229  1  0.656980  0.875010  0.973970  1.0  -0.5655
  O  O4230  1  0.627260  0.905360  0.973980  1.0  -0.5713
  O  O4231  1  0.722270  0.841590  0.872910  1.0  -0.5667
  O  O4232  1  0.725310  0.869490  0.841110  1.0  -0.5677
  O  O4233  1  0.629760  0.473700  0.411150  1.0  -0.5675
  O  O4234  1  0.660020  0.473450  0.381530  1.0  -0.5744
  O  O4235  1  0.722450  0.406170  0.378880  1.0  -0.5758
  O  O4236  1  0.725500  0.377940  0.410500  1.0  -0.5749
  O  O4237  1  0.656980  0.375010  0.473970  1.0  -0.5655
  O  O4238  1  0.627260  0.405360  0.473980  1.0  -0.5713
  O  O4239  1  0.722270  0.341590  0.372910  1.0  -0.5667
  O  O4240  1  0.725310  0.369490  0.341110  1.0  -0.5677
  O  O4241  1  0.129760  0.973700  0.411150  1.0  -0.5675
  O  O4242  1  0.160020  0.973450  0.381530  1.0  -0.5744
  O  O4243  1  0.222450  0.906170  0.378880  1.0  -0.5758
  O  O4244  1  0.225500  0.877940  0.410500  1.0  -0.5749
  O  O4245  1  0.156980  0.875010  0.473970  1.0  -0.5655
  O  O4246  1  0.127260  0.905360  0.473980  1.0  -0.5713
  O  O4247  1  0.222270  0.841590  0.372910  1.0  -0.5667
  O  O4248  1  0.225310  0.869490  0.341110  1.0  -0.5677
  O  O4249  1  0.129760  0.473700  0.911150  1.0  -0.5675
  O  O4250  1  0.160020  0.473450  0.881530  1.0  -0.5744
  O  O4251  1  0.222450  0.406170  0.878880  1.0  -0.5758
  O  O4252  1  0.225500  0.377940  0.910500  1.0  -0.5749
  O  O4253  1  0.156980  0.375010  0.973970  1.0  -0.5655
  O  O4254  1  0.127260  0.405360  0.973980  1.0  -0.5713
  O  O4255  1  0.222270  0.341590  0.872910  1.0  -0.5667
  O  O4256  1  0.225310  0.369490  0.841110  1.0  -0.5677
  O  O4257  1  0.370240  0.026300  0.911150  1.0  -0.5675
  O  O4258  1  0.339980  0.026550  0.881530  1.0  -0.5742
  O  O4259  1  0.277550  0.093830  0.878880  1.0  -0.5752
  O  O4260  1  0.274500  0.122060  0.910500  1.0  -0.5744
  O  O4261  1  0.343020  0.124990  0.973970  1.0  -0.565
  O  O4262  1  0.372740  0.094640  0.973980  1.0  -0.5713
  O  O4263  1  0.277730  0.158410  0.872910  1.0  -0.5656
  O  O4264  1  0.274690  0.130510  0.841110  1.0  -0.5678
  O  O4265  1  0.370240  0.526300  0.411150  1.0  -0.5675
  O  O4266  1  0.339980  0.526550  0.381530  1.0  -0.5742
  O  O4267  1  0.277550  0.593830  0.378880  1.0  -0.5752
  O  O4268  1  0.274500  0.622060  0.410500  1.0  -0.5744
  O  O4269  1  0.343020  0.624990  0.473970  1.0  -0.565
  O  O4270  1  0.372740  0.594640  0.473980  1.0  -0.5713
  O  O4271  1  0.277730  0.658410  0.372910  1.0  -0.5656
  O  O4272  1  0.274690  0.630510  0.341110  1.0  -0.5678
  O  O4273  1  0.870240  0.026300  0.411150  1.0  -0.5675
  O  O4274  1  0.839980  0.026550  0.381530  1.0  -0.5742
  O  O4275  1  0.777550  0.093830  0.378880  1.0  -0.5752
  O  O4276  1  0.774500  0.122060  0.410500  1.0  -0.5744
  O  O4277  1  0.843020  0.124990  0.473970  1.0  -0.565
  O  O4278  1  0.872740  0.094640  0.473980  1.0  -0.5713
  O  O4279  1  0.777730  0.158410  0.372910  1.0  -0.5656
  O  O4280  1  0.774690  0.130510  0.341110  1.0  -0.5678
  O  O4281  1  0.870240  0.526300  0.911150  1.0  -0.5675
  O  O4282  1  0.839980  0.526550  0.881530  1.0  -0.5742
  O  O4283  1  0.777550  0.593830  0.878880  1.0  -0.5752
  O  O4284  1  0.774500  0.622060  0.910500  1.0  -0.5744
  O  O4285  1  0.843020  0.624990  0.973970  1.0  -0.565
  O  O4286  1  0.872740  0.594640  0.973980  1.0  -0.5713
  O  O4287  1  0.777730  0.658410  0.872910  1.0  -0.5656
  O  O4288  1  0.774690  0.630510  0.841110  1.0  -0.5678
  O  O4289  1  0.370240  0.973700  0.088850  1.0  -0.5678
  O  O4290  1  0.339980  0.973450  0.118470  1.0  -0.5745
  O  O4291  1  0.277550  0.906170  0.121120  1.0  -0.5758
  O  O4292  1  0.274500  0.877940  0.089500  1.0  -0.5762
  O  O4293  1  0.343020  0.875010  0.026030  1.0  -0.5654
  O  O4294  1  0.372740  0.905360  0.026020  1.0  -0.5715
  O  O4295  1  0.277730  0.841590  0.127090  1.0  -0.5666
  O  O4296  1  0.274690  0.869490  0.158890  1.0  -0.5673
  O  O4297  1  0.370240  0.473700  0.588850  1.0  -0.5678
  O  O4298  1  0.339980  0.473450  0.618470  1.0  -0.5745
  O  O4299  1  0.277550  0.406170  0.621120  1.0  -0.5758
  O  O4300  1  0.274500  0.377940  0.589500  1.0  -0.5762
  O  O4301  1  0.343020  0.375010  0.526030  1.0  -0.5654
  O  O4302  1  0.372740  0.405360  0.526020  1.0  -0.5715
  O  O4303  1  0.277730  0.341590  0.627090  1.0  -0.5666
  O  O4304  1  0.274690  0.369490  0.658890  1.0  -0.5673
  O  O4305  1  0.870240  0.973700  0.588850  1.0  -0.5678
  O  O4306  1  0.839980  0.973450  0.618470  1.0  -0.5745
  O  O4307  1  0.777550  0.906170  0.621120  1.0  -0.5758
  O  O4308  1  0.774500  0.877940  0.589500  1.0  -0.5762
  O  O4309  1  0.843020  0.875010  0.526030  1.0  -0.5654
  O  O4310  1  0.872740  0.905360  0.526020  1.0  -0.5715
  O  O4311  1  0.777730  0.841590  0.627090  1.0  -0.5666
  O  O4312  1  0.774690  0.869490  0.658890  1.0  -0.5673
  O  O4313  1  0.870240  0.473700  0.088850  1.0  -0.5678
  O  O4314  1  0.839980  0.473450  0.118470  1.0  -0.5745
  O  O4315  1  0.777550  0.406170  0.121120  1.0  -0.5758
  O  O4316  1  0.774500  0.377940  0.089500  1.0  -0.5762
  O  O4317  1  0.843020  0.375010  0.026030  1.0  -0.5654
  O  O4318  1  0.872740  0.405360  0.026020  1.0  -0.5715
  O  O4319  1  0.777730  0.341590  0.127090  1.0  -0.5666
  O  O4320  1  0.774690  0.369490  0.158890  1.0  -0.5673
  O  O4321  1  0.629760  0.026300  0.088850  1.0  -0.5676
  O  O4322  1  0.660020  0.026550  0.118470  1.0  -0.5745
  O  O4323  1  0.722450  0.093830  0.121120  1.0  -0.5755
  O  O4324  1  0.725500  0.122060  0.089500  1.0  -0.5755
  O  O4325  1  0.656980  0.124990  0.026030  1.0  -0.5651
  O  O4326  1  0.627260  0.094640  0.026020  1.0  -0.5721
  O  O4327  1  0.722270  0.158410  0.127090  1.0  -0.5663
  O  O4328  1  0.725310  0.130510  0.158890  1.0  -0.567
  O  O4329  1  0.629760  0.526300  0.588850  1.0  -0.5676
  O  O4330  1  0.660020  0.526550  0.618470  1.0  -0.5745
  O  O4331  1  0.722450  0.593830  0.621120  1.0  -0.5755
  O  O4332  1  0.725500  0.622060  0.589500  1.0  -0.5755
  O  O4333  1  0.656980  0.624990  0.526030  1.0  -0.5651
  O  O4334  1  0.627260  0.594640  0.526020  1.0  -0.5721
  O  O4335  1  0.722270  0.658410  0.627090  1.0  -0.5663
  O  O4336  1  0.725310  0.630510  0.658890  1.0  -0.567
  O  O4337  1  0.129760  0.026300  0.588850  1.0  -0.5676
  O  O4338  1  0.160020  0.026550  0.618470  1.0  -0.5745
  O  O4339  1  0.222450  0.093830  0.621120  1.0  -0.5755
  O  O4340  1  0.225500  0.122060  0.589500  1.0  -0.5755
  O  O4341  1  0.156980  0.124990  0.526030  1.0  -0.5651
  O  O4342  1  0.127260  0.094640  0.526020  1.0  -0.5721
  O  O4343  1  0.222270  0.158410  0.627090  1.0  -0.5663
  O  O4344  1  0.225310  0.130510  0.658890  1.0  -0.567
  O  O4345  1  0.129760  0.526300  0.088850  1.0  -0.5676
  O  O4346  1  0.160020  0.526550  0.118470  1.0  -0.5745
  O  O4347  1  0.222450  0.593830  0.121120  1.0  -0.5755
  O  O4348  1  0.225500  0.622060  0.089500  1.0  -0.5755
  O  O4349  1  0.156980  0.624990  0.026030  1.0  -0.5651
  O  O4350  1  0.127260  0.594640  0.026020  1.0  -0.5721
  O  O4351  1  0.222270  0.658410  0.127090  1.0  -0.5663
  O  O4352  1  0.225310  0.630510  0.158890  1.0  -0.567
  O  O4353  1  0.911150  0.629760  0.973700  1.0  -0.5685
  O  O4354  1  0.881530  0.660020  0.973450  1.0  -0.5752
  O  O4355  1  0.878880  0.722450  0.906170  1.0  -0.5757
  O  O4356  1  0.910500  0.725500  0.877940  1.0  -0.5737
  O  O4357  1  0.973970  0.656980  0.875010  1.0  -0.5636
  O  O4358  1  0.973980  0.627260  0.905360  1.0  -0.5706
  O  O4359  1  0.872910  0.722270  0.841590  1.0  -0.5668
  O  O4360  1  0.841110  0.725310  0.869490  1.0  -0.5667
  O  O4361  1  0.911150  0.129760  0.473700  1.0  -0.5685
  O  O4362  1  0.881530  0.160020  0.473450  1.0  -0.5752
  O  O4363  1  0.878880  0.222450  0.406170  1.0  -0.5757
  O  O4364  1  0.910500  0.225500  0.377940  1.0  -0.5737
  O  O4365  1  0.973970  0.156980  0.375010  1.0  -0.5636
  O  O4366  1  0.973980  0.127260  0.405360  1.0  -0.5706
  O  O4367  1  0.872910  0.222270  0.341590  1.0  -0.5668
  O  O4368  1  0.841110  0.225310  0.369490  1.0  -0.5667
  O  O4369  1  0.411150  0.629760  0.473700  1.0  -0.5685
  O  O4370  1  0.381530  0.660020  0.473450  1.0  -0.5752
  O  O4371  1  0.378880  0.722450  0.406170  1.0  -0.5757
  O  O4372  1  0.410500  0.725500  0.377940  1.0  -0.5737
  O  O4373  1  0.473970  0.656980  0.375010  1.0  -0.5636
  O  O4374  1  0.473980  0.627260  0.405360  1.0  -0.5706
  O  O4375  1  0.372910  0.722270  0.341590  1.0  -0.5668
  O  O4376  1  0.341110  0.725310  0.369490  1.0  -0.5667
  O  O4377  1  0.411150  0.129760  0.973700  1.0  -0.5685
  O  O4378  1  0.381530  0.160020  0.973450  1.0  -0.5752
  O  O4379  1  0.378880  0.222450  0.906170  1.0  -0.5757
  O  O4380  1  0.410500  0.225500  0.877940  1.0  -0.5737
  O  O4381  1  0.473970  0.156980  0.875010  1.0  -0.5636
  O  O4382  1  0.473980  0.127260  0.905360  1.0  -0.5706
  O  O4383  1  0.372910  0.222270  0.841590  1.0  -0.5668
  O  O4384  1  0.341110  0.225310  0.869490  1.0  -0.5667
  O  O4385  1  0.911150  0.370240  0.026300  1.0  -0.568
  O  O4386  1  0.881530  0.339980  0.026550  1.0  -0.5755
  O  O4387  1  0.878880  0.277550  0.093830  1.0  -0.5761
  O  O4388  1  0.910500  0.274500  0.122060  1.0  -0.574
  O  O4389  1  0.973970  0.343020  0.124990  1.0  -0.5643
  O  O4390  1  0.973980  0.372740  0.094640  1.0  -0.5708
  O  O4391  1  0.872910  0.277730  0.158410  1.0  -0.5653
  O  O4392  1  0.841110  0.274690  0.130510  1.0  -0.567
  O  O4393  1  0.911150  0.870240  0.526300  1.0  -0.568
  O  O4394  1  0.881530  0.839980  0.526550  1.0  -0.5755
  O  O4395  1  0.878880  0.777550  0.593830  1.0  -0.5761
  O  O4396  1  0.910500  0.774500  0.622060  1.0  -0.574
  O  O4397  1  0.973970  0.843020  0.624990  1.0  -0.5643
  O  O4398  1  0.973980  0.872740  0.594640  1.0  -0.5708
  O  O4399  1  0.872910  0.777730  0.658410  1.0  -0.5653
  O  O4400  1  0.841110  0.774690  0.630510  1.0  -0.567
  O  O4401  1  0.411150  0.370240  0.526300  1.0  -0.568
  O  O4402  1  0.381530  0.339980  0.526550  1.0  -0.5755
  O  O4403  1  0.378880  0.277550  0.593830  1.0  -0.5761
  O  O4404  1  0.410500  0.274500  0.622060  1.0  -0.574
  O  O4405  1  0.473970  0.343020  0.624990  1.0  -0.5643
  O  O4406  1  0.473980  0.372740  0.594640  1.0  -0.5708
  O  O4407  1  0.372910  0.277730  0.658410  1.0  -0.5653
  O  O4408  1  0.341110  0.274690  0.630510  1.0  -0.567
  O  O4409  1  0.411150  0.870240  0.026300  1.0  -0.568
  O  O4410  1  0.381530  0.839980  0.026550  1.0  -0.5755
  O  O4411  1  0.378880  0.777550  0.093830  1.0  -0.5761
  O  O4412  1  0.410500  0.774500  0.122060  1.0  -0.574
  O  O4413  1  0.473970  0.843020  0.124990  1.0  -0.5643
  O  O4414  1  0.473980  0.872740  0.094640  1.0  -0.5708
  O  O4415  1  0.372910  0.777730  0.158410  1.0  -0.5653
  O  O4416  1  0.341110  0.774690  0.130510  1.0  -0.567
  O  O4417  1  0.088850  0.370240  0.973700  1.0  -0.5684
  O  O4418  1  0.118470  0.339980  0.973450  1.0  -0.5755
  O  O4419  1  0.121120  0.277550  0.906170  1.0  -0.5759
  O  O4420  1  0.089500  0.274500  0.877940  1.0  -0.5737
  O  O4421  1  0.026030  0.343020  0.875010  1.0  -0.5639
  O  O4422  1  0.026020  0.372740  0.905360  1.0  -0.5701
  O  O4423  1  0.127090  0.277730  0.841590  1.0  -0.5659
  O  O4424  1  0.158890  0.274690  0.869490  1.0  -0.5675
  O  O4425  1  0.088850  0.870240  0.473700  1.0  -0.5684
  O  O4426  1  0.118470  0.839980  0.473450  1.0  -0.5755
  O  O4427  1  0.121120  0.777550  0.406170  1.0  -0.5759
  O  O4428  1  0.089500  0.774500  0.377940  1.0  -0.5737
  O  O4429  1  0.026030  0.843020  0.375010  1.0  -0.5639
  O  O4430  1  0.026020  0.872740  0.405360  1.0  -0.5701
  O  O4431  1  0.127090  0.777730  0.341590  1.0  -0.5659
  O  O4432  1  0.158890  0.774690  0.369490  1.0  -0.5675
  O  O4433  1  0.588850  0.370240  0.473700  1.0  -0.5684
  O  O4434  1  0.618470  0.339980  0.473450  1.0  -0.5755
  O  O4435  1  0.621120  0.277550  0.406170  1.0  -0.5759
  O  O4436  1  0.589500  0.274500  0.377940  1.0  -0.5737
  O  O4437  1  0.526030  0.343020  0.375010  1.0  -0.5639
  O  O4438  1  0.526020  0.372740  0.405360  1.0  -0.5701
  O  O4439  1  0.627090  0.277730  0.341590  1.0  -0.5659
  O  O4440  1  0.658890  0.274690  0.369490  1.0  -0.5675
  O  O4441  1  0.588850  0.870240  0.973700  1.0  -0.5684
  O  O4442  1  0.618470  0.839980  0.973450  1.0  -0.5755
  O  O4443  1  0.621120  0.777550  0.906170  1.0  -0.5759
  O  O4444  1  0.589500  0.774500  0.877940  1.0  -0.5737
  O  O4445  1  0.526030  0.843020  0.875010  1.0  -0.5639
  O  O4446  1  0.526020  0.872740  0.905360  1.0  -0.5701
  O  O4447  1  0.627090  0.777730  0.841590  1.0  -0.5659
  O  O4448  1  0.658890  0.774690  0.869490  1.0  -0.5675
  O  O4449  1  0.088850  0.629760  0.026300  1.0  -0.5679
  O  O4450  1  0.118470  0.660020  0.026550  1.0  -0.5764
  O  O4451  1  0.121120  0.722450  0.093830  1.0  -0.5771
  O  O4452  1  0.089500  0.725500  0.122060  1.0  -0.5735
  O  O4453  1  0.026030  0.656980  0.124990  1.0  -0.5642
  O  O4454  1  0.026020  0.627260  0.094640  1.0  -0.5708
  O  O4455  1  0.127090  0.722270  0.158410  1.0  -0.5658
  O  O4456  1  0.158890  0.725310  0.130510  1.0  -0.5669
  O  O4457  1  0.088850  0.129760  0.526300  1.0  -0.5679
  O  O4458  1  0.118470  0.160020  0.526550  1.0  -0.5764
  O  O4459  1  0.121120  0.222450  0.593830  1.0  -0.5771
  O  O4460  1  0.089500  0.225500  0.622060  1.0  -0.5735
  O  O4461  1  0.026030  0.156980  0.624990  1.0  -0.5642
  O  O4462  1  0.026020  0.127260  0.594640  1.0  -0.5708
  O  O4463  1  0.127090  0.222270  0.658410  1.0  -0.5658
  O  O4464  1  0.158890  0.225310  0.630510  1.0  -0.5669
  O  O4465  1  0.588850  0.629760  0.526300  1.0  -0.5679
  O  O4466  1  0.618470  0.660020  0.526550  1.0  -0.5764
  O  O4467  1  0.621120  0.722450  0.593830  1.0  -0.5771
  O  O4468  1  0.589500  0.725500  0.622060  1.0  -0.5735
  O  O4469  1  0.526030  0.656980  0.624990  1.0  -0.5642
  O  O4470  1  0.526020  0.627260  0.594640  1.0  -0.5708
  O  O4471  1  0.627090  0.722270  0.658410  1.0  -0.5658
  O  O4472  1  0.658890  0.725310  0.630510  1.0  -0.5669
  O  O4473  1  0.588850  0.129760  0.026300  1.0  -0.5679
  O  O4474  1  0.618470  0.160020  0.026550  1.0  -0.5764
  O  O4475  1  0.621120  0.222450  0.093830  1.0  -0.5771
  O  O4476  1  0.589500  0.225500  0.122060  1.0  -0.5735
  O  O4477  1  0.526030  0.156980  0.124990  1.0  -0.5642
  O  O4478  1  0.526020  0.127260  0.094640  1.0  -0.5708
  O  O4479  1  0.627090  0.222270  0.158410  1.0  -0.5658
  O  O4480  1  0.658890  0.225310  0.130510  1.0  -0.5669
  O  O4481  1  0.973700  0.911150  0.629760  1.0  -0.5672
  O  O4482  1  0.973450  0.881530  0.660020  1.0  -0.5747
  O  O4483  1  0.906170  0.878880  0.722450  1.0  -0.5766
  O  O4484  1  0.877940  0.910500  0.725500  1.0  -0.5755
  O  O4485  1  0.875010  0.973970  0.656980  1.0  -0.5643
  O  O4486  1  0.905360  0.973980  0.627260  1.0  -0.5697
  O  O4487  1  0.841590  0.872910  0.722270  1.0  -0.5661
  O  O4488  1  0.869490  0.841110  0.725310  1.0  -0.5686
  O  O4489  1  0.973700  0.411150  0.129760  1.0  -0.5672
  O  O4490  1  0.973450  0.381530  0.160020  1.0  -0.5747
  O  O4491  1  0.906170  0.378880  0.222450  1.0  -0.5766
  O  O4492  1  0.877940  0.410500  0.225500  1.0  -0.5755
  O  O4493  1  0.875010  0.473970  0.156980  1.0  -0.5643
  O  O4494  1  0.905360  0.473980  0.127260  1.0  -0.5697
  O  O4495  1  0.841590  0.372910  0.222270  1.0  -0.5661
  O  O4496  1  0.869490  0.341110  0.225310  1.0  -0.5686
  O  O4497  1  0.473700  0.911150  0.129760  1.0  -0.5672
  O  O4498  1  0.473450  0.881530  0.160020  1.0  -0.5747
  O  O4499  1  0.406170  0.878880  0.222450  1.0  -0.5766
  O  O4500  1  0.377940  0.910500  0.225500  1.0  -0.5755
  O  O4501  1  0.375010  0.973970  0.156980  1.0  -0.5643
  O  O4502  1  0.405360  0.973980  0.127260  1.0  -0.5697
  O  O4503  1  0.341590  0.872910  0.222270  1.0  -0.5661
  O  O4504  1  0.369490  0.841110  0.225310  1.0  -0.5686
  O  O4505  1  0.473700  0.411150  0.629760  1.0  -0.5672
  O  O4506  1  0.473450  0.381530  0.660020  1.0  -0.5747
  O  O4507  1  0.406170  0.378880  0.722450  1.0  -0.5766
  O  O4508  1  0.377940  0.410500  0.725500  1.0  -0.5755
  O  O4509  1  0.375010  0.473970  0.656980  1.0  -0.5643
  O  O4510  1  0.405360  0.473980  0.627260  1.0  -0.5697
  O  O4511  1  0.341590  0.372910  0.722270  1.0  -0.5661
  O  O4512  1  0.369490  0.341110  0.725310  1.0  -0.5686
  O  O4513  1  0.026300  0.911150  0.370240  1.0  -0.5674
  O  O4514  1  0.026550  0.881530  0.339980  1.0  -0.5754
  O  O4515  1  0.093830  0.878880  0.277550  1.0  -0.5756
  O  O4516  1  0.122060  0.910500  0.274500  1.0  -0.5752
  O  O4517  1  0.124990  0.973970  0.343020  1.0  -0.5651
  O  O4518  1  0.094640  0.973980  0.372740  1.0  -0.5699
  O  O4519  1  0.158410  0.872910  0.277730  1.0  -0.566
  O  O4520  1  0.130510  0.841110  0.274690  1.0  -0.5686
  O  O4521  1  0.026300  0.411150  0.870240  1.0  -0.5674
  O  O4522  1  0.026550  0.381530  0.839980  1.0  -0.5754
  O  O4523  1  0.093830  0.378880  0.777550  1.0  -0.5756
  O  O4524  1  0.122060  0.410500  0.774500  1.0  -0.5752
  O  O4525  1  0.124990  0.473970  0.843020  1.0  -0.5651
  O  O4526  1  0.094640  0.473980  0.872740  1.0  -0.5699
  O  O4527  1  0.158410  0.372910  0.777730  1.0  -0.566
  O  O4528  1  0.130510  0.341110  0.774690  1.0  -0.5686
  O  O4529  1  0.526300  0.911150  0.870240  1.0  -0.5674
  O  O4530  1  0.526550  0.881530  0.839980  1.0  -0.5754
  O  O4531  1  0.593830  0.878880  0.777550  1.0  -0.5756
  O  O4532  1  0.622060  0.910500  0.774500  1.0  -0.5752
  O  O4533  1  0.624990  0.973970  0.843020  1.0  -0.5651
  O  O4534  1  0.594640  0.973980  0.872740  1.0  -0.5699
  O  O4535  1  0.658410  0.872910  0.777730  1.0  -0.566
  O  O4536  1  0.630510  0.841110  0.774690  1.0  -0.5686
  O  O4537  1  0.526300  0.411150  0.370240  1.0  -0.5674
  O  O4538  1  0.526550  0.381530  0.339980  1.0  -0.5754
  O  O4539  1  0.593830  0.378880  0.277550  1.0  -0.5756
  O  O4540  1  0.622060  0.410500  0.274500  1.0  -0.5752
  O  O4541  1  0.624990  0.473970  0.343020  1.0  -0.5651
  O  O4542  1  0.594640  0.473980  0.372740  1.0  -0.5699
  O  O4543  1  0.658410  0.372910  0.277730  1.0  -0.566
  O  O4544  1  0.630510  0.341110  0.274690  1.0  -0.5686
  O  O4545  1  0.973700  0.088850  0.370240  1.0  -0.5673
  O  O4546  1  0.973450  0.118470  0.339980  1.0  -0.5757
  O  O4547  1  0.906170  0.121120  0.277550  1.0  -0.576
  O  O4548  1  0.877940  0.089500  0.274500  1.0  -0.5751
  O  O4549  1  0.875010  0.026030  0.343020  1.0  -0.5647
  O  O4550  1  0.905360  0.026020  0.372740  1.0  -0.5699
  O  O4551  1  0.841590  0.127090  0.277730  1.0  -0.5669
  O  O4552  1  0.869490  0.158890  0.274690  1.0  -0.5688
  O  O4553  1  0.973700  0.588850  0.870240  1.0  -0.5673
  O  O4554  1  0.973450  0.618470  0.839980  1.0  -0.5757
  O  O4555  1  0.906170  0.621120  0.777550  1.0  -0.576
  O  O4556  1  0.877940  0.589500  0.774500  1.0  -0.5751
  O  O4557  1  0.875010  0.526030  0.843020  1.0  -0.5647
  O  O4558  1  0.905360  0.526020  0.872740  1.0  -0.5699
  O  O4559  1  0.841590  0.627090  0.777730  1.0  -0.5669
  O  O4560  1  0.869490  0.658890  0.774690  1.0  -0.5688
  O  O4561  1  0.473700  0.088850  0.870240  1.0  -0.5673
  O  O4562  1  0.473450  0.118470  0.839980  1.0  -0.5757
  O  O4563  1  0.406170  0.121120  0.777550  1.0  -0.576
  O  O4564  1  0.377940  0.089500  0.774500  1.0  -0.5751
  O  O4565  1  0.375010  0.026030  0.843020  1.0  -0.5647
  O  O4566  1  0.405360  0.026020  0.872740  1.0  -0.5699
  O  O4567  1  0.341590  0.127090  0.777730  1.0  -0.5669
  O  O4568  1  0.369490  0.158890  0.774690  1.0  -0.5688
  O  O4569  1  0.473700  0.588850  0.370240  1.0  -0.5673
  O  O4570  1  0.473450  0.618470  0.339980  1.0  -0.5757
  O  O4571  1  0.406170  0.621120  0.277550  1.0  -0.576
  O  O4572  1  0.377940  0.589500  0.274500  1.0  -0.5751
  O  O4573  1  0.375010  0.526030  0.343020  1.0  -0.5647
  O  O4574  1  0.405360  0.526020  0.372740  1.0  -0.5699
  O  O4575  1  0.341590  0.627090  0.277730  1.0  -0.5669
  O  O4576  1  0.369490  0.658890  0.274690  1.0  -0.5688
  O  O4577  1  0.026300  0.088850  0.629760  1.0  -0.567
  O  O4578  1  0.026550  0.118470  0.660020  1.0  -0.5746
  O  O4579  1  0.093830  0.121120  0.722450  1.0  -0.5756
  O  O4580  1  0.122060  0.089500  0.725500  1.0  -0.5754
  O  O4581  1  0.124990  0.026030  0.656980  1.0  -0.5648
  O  O4582  1  0.094640  0.026020  0.627260  1.0  -0.5701
  O  O4583  1  0.158410  0.127090  0.722270  1.0  -0.5676
  O  O4584  1  0.130510  0.158890  0.725310  1.0  -0.5683
  O  O4585  1  0.026300  0.588850  0.129760  1.0  -0.567
  O  O4586  1  0.026550  0.618470  0.160020  1.0  -0.5746
  O  O4587  1  0.093830  0.621120  0.222450  1.0  -0.5756
  O  O4588  1  0.122060  0.589500  0.225500  1.0  -0.5754
  O  O4589  1  0.124990  0.526030  0.156980  1.0  -0.5648
  O  O4590  1  0.094640  0.526020  0.127260  1.0  -0.5701
  O  O4591  1  0.158410  0.627090  0.222270  1.0  -0.5676
  O  O4592  1  0.130510  0.658890  0.225310  1.0  -0.5683
  O  O4593  1  0.526300  0.088850  0.129760  1.0  -0.567
  O  O4594  1  0.526550  0.118470  0.160020  1.0  -0.5746
  O  O4595  1  0.593830  0.121120  0.222450  1.0  -0.5756
  O  O4596  1  0.622060  0.089500  0.225500  1.0  -0.5754
  O  O4597  1  0.624990  0.026030  0.156980  1.0  -0.5648
  O  O4598  1  0.594640  0.026020  0.127260  1.0  -0.5701
  O  O4599  1  0.658410  0.127090  0.222270  1.0  -0.5676
  O  O4600  1  0.630510  0.158890  0.225310  1.0  -0.5683
  O  O4601  1  0.526300  0.588850  0.629760  1.0  -0.567
  O  O4602  1  0.526550  0.618470  0.660020  1.0  -0.5746
  O  O4603  1  0.593830  0.621120  0.722450  1.0  -0.5756
  O  O4604  1  0.622060  0.589500  0.725500  1.0  -0.5754
  O  O4605  1  0.624990  0.526030  0.656980  1.0  -0.5648
  O  O4606  1  0.594640  0.526020  0.627260  1.0  -0.5701
  O  O4607  1  0.658410  0.627090  0.722270  1.0  -0.5676
  O  O4608  1  0.630510  0.658890  0.725310  1.0  -0.5683
  O  O4609  1  0.473700  0.129760  0.588850  1.0  -0.5676
  O  O4610  1  0.473450  0.160020  0.618470  1.0  -0.5744
  O  O4611  1  0.406170  0.222450  0.621120  1.0  -0.576
  O  O4612  1  0.377940  0.225500  0.589500  1.0  -0.5748
  O  O4613  1  0.375010  0.156980  0.526030  1.0  -0.5651
  O  O4614  1  0.405360  0.127260  0.526020  1.0  -0.5712
  O  O4615  1  0.341590  0.222270  0.627090  1.0  -0.5667
  O  O4616  1  0.369490  0.225310  0.658890  1.0  -0.5669
  O  O4617  1  0.473700  0.629760  0.088850  1.0  -0.5676
  O  O4618  1  0.473450  0.660020  0.118470  1.0  -0.5744
  O  O4619  1  0.406170  0.722450  0.121120  1.0  -0.576
  O  O4620  1  0.377940  0.725500  0.089500  1.0  -0.5748
  O  O4621  1  0.375010  0.656980  0.026030  1.0  -0.5651
  O  O4622  1  0.405360  0.627260  0.026020  1.0  -0.5712
  O  O4623  1  0.341590  0.722270  0.127090  1.0  -0.5667
  O  O4624  1  0.369490  0.725310  0.158890  1.0  -0.5669
  O  O4625  1  0.973700  0.129760  0.088850  1.0  -0.5676
  O  O4626  1  0.973450  0.160020  0.118470  1.0  -0.5744
  O  O4627  1  0.906170  0.222450  0.121120  1.0  -0.576
  O  O4628  1  0.877940  0.225500  0.089500  1.0  -0.5748
  O  O4629  1  0.875010  0.156980  0.026030  1.0  -0.5651
  O  O4630  1  0.905360  0.127260  0.026020  1.0  -0.5712
  O  O4631  1  0.841590  0.222270  0.127090  1.0  -0.5667
  O  O4632  1  0.869490  0.225310  0.158890  1.0  -0.5669
  O  O4633  1  0.973700  0.629760  0.588850  1.0  -0.5676
  O  O4634  1  0.973450  0.660020  0.618470  1.0  -0.5744
  O  O4635  1  0.906170  0.722450  0.621120  1.0  -0.576
  O  O4636  1  0.877940  0.725500  0.589500  1.0  -0.5748
  O  O4637  1  0.875010  0.656980  0.526030  1.0  -0.5651
  O  O4638  1  0.905360  0.627260  0.526020  1.0  -0.5712
  O  O4639  1  0.841590  0.722270  0.627090  1.0  -0.5667
  O  O4640  1  0.869490  0.725310  0.658890  1.0  -0.5669
  O  O4641  1  0.526300  0.870240  0.588850  1.0  -0.5676
  O  O4642  1  0.526550  0.839980  0.618470  1.0  -0.5744
  O  O4643  1  0.593830  0.777550  0.621120  1.0  -0.5751
  O  O4644  1  0.622060  0.774500  0.589500  1.0  -0.5754
  O  O4645  1  0.624990  0.843020  0.526030  1.0  -0.5655
  O  O4646  1  0.594640  0.872740  0.526020  1.0  -0.5709
  O  O4647  1  0.658410  0.777730  0.627090  1.0  -0.5661
  O  O4648  1  0.630510  0.774690  0.658890  1.0  -0.5666
  O  O4649  1  0.526300  0.370240  0.088850  1.0  -0.5676
  O  O4650  1  0.526550  0.339980  0.118470  1.0  -0.5744
  O  O4651  1  0.593830  0.277550  0.121120  1.0  -0.5751
  O  O4652  1  0.622060  0.274500  0.089500  1.0  -0.5754
  O  O4653  1  0.624990  0.343020  0.026030  1.0  -0.5655
  O  O4654  1  0.594640  0.372740  0.026020  1.0  -0.5709
  O  O4655  1  0.658410  0.277730  0.127090  1.0  -0.5661
  O  O4656  1  0.630510  0.274690  0.158890  1.0  -0.5666
  O  O4657  1  0.026300  0.870240  0.088850  1.0  -0.5676
  O  O4658  1  0.026550  0.839980  0.118470  1.0  -0.5744
  O  O4659  1  0.093830  0.777550  0.121120  1.0  -0.5751
  O  O4660  1  0.122060  0.774500  0.089500  1.0  -0.5754
  O  O4661  1  0.124990  0.843020  0.026030  1.0  -0.5655
  O  O4662  1  0.094640  0.872740  0.026020  1.0  -0.5709
  O  O4663  1  0.158410  0.777730  0.127090  1.0  -0.5661
  O  O4664  1  0.130510  0.774690  0.158890  1.0  -0.5666
  O  O4665  1  0.026300  0.370240  0.588850  1.0  -0.5676
  O  O4666  1  0.026550  0.339980  0.618470  1.0  -0.5744
  O  O4667  1  0.093830  0.277550  0.621120  1.0  -0.5751
  O  O4668  1  0.122060  0.274500  0.589500  1.0  -0.5754
  O  O4669  1  0.124990  0.343020  0.526030  1.0  -0.5655
  O  O4670  1  0.094640  0.372740  0.526020  1.0  -0.5709
  O  O4671  1  0.158410  0.277730  0.627090  1.0  -0.5661
  O  O4672  1  0.130510  0.274690  0.658890  1.0  -0.5666
  O  O4673  1  0.473700  0.870240  0.411150  1.0  -0.5669
  O  O4674  1  0.473450  0.839980  0.381530  1.0  -0.5742
  O  O4675  1  0.406170  0.777550  0.378880  1.0  -0.5758
  O  O4676  1  0.377940  0.774500  0.410500  1.0  -0.5746
  O  O4677  1  0.375010  0.843020  0.473970  1.0  -0.565
  O  O4678  1  0.405360  0.872740  0.473980  1.0  -0.5711
  O  O4679  1  0.341590  0.777730  0.372910  1.0  -0.5658
  O  O4680  1  0.369490  0.774690  0.341110  1.0  -0.5673
  O  O4681  1  0.473700  0.370240  0.911150  1.0  -0.5669
  O  O4682  1  0.473450  0.339980  0.881530  1.0  -0.5742
  O  O4683  1  0.406170  0.277550  0.878880  1.0  -0.5758
  O  O4684  1  0.377940  0.274500  0.910500  1.0  -0.5746
  O  O4685  1  0.375010  0.343020  0.973970  1.0  -0.565
  O  O4686  1  0.405360  0.372740  0.973980  1.0  -0.5711
  O  O4687  1  0.341590  0.277730  0.872910  1.0  -0.5658
  O  O4688  1  0.369490  0.274690  0.841110  1.0  -0.5673
  O  O4689  1  0.973700  0.870240  0.911150  1.0  -0.5669
  O  O4690  1  0.973450  0.839980  0.881530  1.0  -0.5742
  O  O4691  1  0.906170  0.777550  0.878880  1.0  -0.5758
  O  O4692  1  0.877940  0.774500  0.910500  1.0  -0.5746
  O  O4693  1  0.875010  0.843020  0.973970  1.0  -0.565
  O  O4694  1  0.905360  0.872740  0.973980  1.0  -0.5711
  O  O4695  1  0.841590  0.777730  0.872910  1.0  -0.5658
  O  O4696  1  0.869490  0.774690  0.841110  1.0  -0.5673
  O  O4697  1  0.973700  0.370240  0.411150  1.0  -0.5669
  O  O4698  1  0.973450  0.339980  0.381530  1.0  -0.5742
  O  O4699  1  0.906170  0.277550  0.378880  1.0  -0.5758
  O  O4700  1  0.877940  0.274500  0.410500  1.0  -0.5746
  O  O4701  1  0.875010  0.343020  0.473970  1.0  -0.565
  O  O4702  1  0.905360  0.372740  0.473980  1.0  -0.5711
  O  O4703  1  0.841590  0.277730  0.372910  1.0  -0.5658
  O  O4704  1  0.869490  0.274690  0.341110  1.0  -0.5673
  O  O4705  1  0.526300  0.129760  0.411150  1.0  -0.5678
  O  O4706  1  0.526550  0.160020  0.381530  1.0  -0.5749
  O  O4707  1  0.593830  0.222450  0.378880  1.0  -0.5752
  O  O4708  1  0.622060  0.225500  0.410500  1.0  -0.5742
  O  O4709  1  0.624990  0.156980  0.473970  1.0  -0.5654
  O  O4710  1  0.594640  0.127260  0.473980  1.0  -0.5702
  O  O4711  1  0.658410  0.222270  0.372910  1.0  -0.5665
  O  O4712  1  0.630510  0.225310  0.341110  1.0  -0.567
  O  O4713  1  0.526300  0.629760  0.911150  1.0  -0.5678
  O  O4714  1  0.526550  0.660020  0.881530  1.0  -0.5749
  O  O4715  1  0.593830  0.722450  0.878880  1.0  -0.5752
  O  O4716  1  0.622060  0.725500  0.910500  1.0  -0.5742
  O  O4717  1  0.624990  0.656980  0.973970  1.0  -0.5654
  O  O4718  1  0.594640  0.627260  0.973980  1.0  -0.5702
  O  O4719  1  0.658410  0.722270  0.872910  1.0  -0.5665
  O  O4720  1  0.630510  0.725310  0.841110  1.0  -0.567
  O  O4721  1  0.026300  0.129760  0.911150  1.0  -0.5678
  O  O4722  1  0.026550  0.160020  0.881530  1.0  -0.5749
  O  O4723  1  0.093830  0.222450  0.878880  1.0  -0.5752
  O  O4724  1  0.122060  0.225500  0.910500  1.0  -0.5742
  O  O4725  1  0.124990  0.156980  0.973970  1.0  -0.5654
  O  O4726  1  0.094640  0.127260  0.973980  1.0  -0.5702
  O  O4727  1  0.158410  0.222270  0.872910  1.0  -0.5665
  O  O4728  1  0.130510  0.225310  0.841110  1.0  -0.567
  O  O4729  1  0.026300  0.629760  0.411150  1.0  -0.5678
  O  O4730  1  0.026550  0.660020  0.381530  1.0  -0.5749
  O  O4731  1  0.093830  0.722450  0.378880  1.0  -0.5752
  O  O4732  1  0.122060  0.725500  0.410500  1.0  -0.5742
  O  O4733  1  0.124990  0.656980  0.473970  1.0  -0.5654
  O  O4734  1  0.094640  0.627260  0.473980  1.0  -0.5702
  O  O4735  1  0.158410  0.722270  0.372910  1.0  -0.5665
  O  O4736  1  0.130510  0.725310  0.341110  1.0  -0.567
  O  O4737  1  0.129760  0.411150  0.526300  1.0  -0.5684
  O  O4738  1  0.160020  0.381530  0.526550  1.0  -0.5757
  O  O4739  1  0.222450  0.378880  0.593830  1.0  -0.5765
  O  O4740  1  0.225500  0.410500  0.622060  1.0  -0.5747
  O  O4741  1  0.156980  0.473970  0.624990  1.0  -0.565
  O  O4742  1  0.127260  0.473980  0.594640  1.0  -0.5709
  O  O4743  1  0.222270  0.372910  0.658410  1.0  -0.5654
  O  O4744  1  0.225310  0.341110  0.630510  1.0  -0.5667
  O  O4745  1  0.129760  0.911150  0.026300  1.0  -0.5684
  O  O4746  1  0.160020  0.881530  0.026550  1.0  -0.5757
  O  O4747  1  0.222450  0.878880  0.093830  1.0  -0.5765
  O  O4748  1  0.225500  0.910500  0.122060  1.0  -0.5747
  O  O4749  1  0.156980  0.973970  0.124990  1.0  -0.565
  O  O4750  1  0.127260  0.973980  0.094640  1.0  -0.5709
  O  O4751  1  0.222270  0.872910  0.158410  1.0  -0.5654
  O  O4752  1  0.225310  0.841110  0.130510  1.0  -0.5667
  O  O4753  1  0.629760  0.411150  0.026300  1.0  -0.5684
  O  O4754  1  0.660020  0.381530  0.026550  1.0  -0.5757
  O  O4755  1  0.722450  0.378880  0.093830  1.0  -0.5765
  O  O4756  1  0.725500  0.410500  0.122060  1.0  -0.5747
  O  O4757  1  0.656980  0.473970  0.124990  1.0  -0.565
  O  O4758  1  0.627260  0.473980  0.094640  1.0  -0.5709
  O  O4759  1  0.722270  0.372910  0.158410  1.0  -0.5654
  O  O4760  1  0.725310  0.341110  0.130510  1.0  -0.5667
  O  O4761  1  0.629760  0.911150  0.526300  1.0  -0.5684
  O  O4762  1  0.660020  0.881530  0.526550  1.0  -0.5757
  O  O4763  1  0.722450  0.878880  0.593830  1.0  -0.5765
  O  O4764  1  0.725500  0.910500  0.622060  1.0  -0.5747
  O  O4765  1  0.656980  0.973970  0.624990  1.0  -0.565
  O  O4766  1  0.627260  0.973980  0.594640  1.0  -0.5709
  O  O4767  1  0.722270  0.872910  0.658410  1.0  -0.5654
  O  O4768  1  0.725310  0.841110  0.630510  1.0  -0.5667
  O  O4769  1  0.870240  0.411150  0.473700  1.0  -0.5688
  O  O4770  1  0.839980  0.381530  0.473450  1.0  -0.575
  O  O4771  1  0.777550  0.378880  0.406170  1.0  -0.5766
  O  O4772  1  0.774500  0.410500  0.377940  1.0  -0.5752
  O  O4773  1  0.843020  0.473970  0.375010  1.0  -0.564
  O  O4774  1  0.872740  0.473980  0.405360  1.0  -0.5707
  O  O4775  1  0.777730  0.372910  0.341590  1.0  -0.5656
  O  O4776  1  0.774690  0.341110  0.369490  1.0  -0.5672
  O  O4777  1  0.870240  0.911150  0.973700  1.0  -0.5688
  O  O4778  1  0.839980  0.881530  0.973450  1.0  -0.575
  O  O4779  1  0.777550  0.878880  0.906170  1.0  -0.5766
  O  O4780  1  0.774500  0.910500  0.877940  1.0  -0.5752
  O  O4781  1  0.843020  0.973970  0.875010  1.0  -0.564
  O  O4782  1  0.872740  0.973980  0.905360  1.0  -0.5707
  O  O4783  1  0.777730  0.872910  0.841590  1.0  -0.5656
  O  O4784  1  0.774690  0.841110  0.869490  1.0  -0.5672
  O  O4785  1  0.370240  0.411150  0.973700  1.0  -0.5688
  O  O4786  1  0.339980  0.381530  0.973450  1.0  -0.575
  O  O4787  1  0.277550  0.378880  0.906170  1.0  -0.5766
  O  O4788  1  0.274500  0.410500  0.877940  1.0  -0.5752
  O  O4789  1  0.343020  0.473970  0.875010  1.0  -0.564
  O  O4790  1  0.372740  0.473980  0.905360  1.0  -0.5707
  O  O4791  1  0.277730  0.372910  0.841590  1.0  -0.5656
  O  O4792  1  0.274690  0.341110  0.869490  1.0  -0.5672
  O  O4793  1  0.370240  0.911150  0.473700  1.0  -0.5688
  O  O4794  1  0.339980  0.881530  0.473450  1.0  -0.575
  O  O4795  1  0.277550  0.878880  0.406170  1.0  -0.5766
  O  O4796  1  0.274500  0.910500  0.377940  1.0  -0.5752
  O  O4797  1  0.343020  0.973970  0.375010  1.0  -0.564
  O  O4798  1  0.372740  0.973980  0.405360  1.0  -0.5707
  O  O4799  1  0.277730  0.872910  0.341590  1.0  -0.5656
  O  O4800  1  0.274690  0.841110  0.369490  1.0  -0.5672
  O  O4801  1  0.870240  0.588850  0.526300  1.0  -0.5681
  O  O4802  1  0.839980  0.618470  0.526550  1.0  -0.5755
  O  O4803  1  0.777550  0.621120  0.593830  1.0  -0.576
  O  O4804  1  0.774500  0.589500  0.622060  1.0  -0.5747
  O  O4805  1  0.843020  0.526030  0.624990  1.0  -0.564
  O  O4806  1  0.872740  0.526020  0.594640  1.0  -0.5711
  O  O4807  1  0.777730  0.627090  0.658410  1.0  -0.5664
  O  O4808  1  0.774690  0.658890  0.630510  1.0  -0.5675
  O  O4809  1  0.870240  0.088850  0.026300  1.0  -0.5681
  O  O4810  1  0.839980  0.118470  0.026550  1.0  -0.5755
  O  O4811  1  0.777550  0.121120  0.093830  1.0  -0.576
  O  O4812  1  0.774500  0.089500  0.122060  1.0  -0.5747
  O  O4813  1  0.843020  0.026030  0.124990  1.0  -0.564
  O  O4814  1  0.872740  0.026020  0.094640  1.0  -0.5711
  O  O4815  1  0.777730  0.127090  0.158410  1.0  -0.5664
  O  O4816  1  0.774690  0.158890  0.130510  1.0  -0.5675
  O  O4817  1  0.370240  0.588850  0.026300  1.0  -0.5681
  O  O4818  1  0.339980  0.618470  0.026550  1.0  -0.5755
  O  O4819  1  0.277550  0.621120  0.093830  1.0  -0.576
  O  O4820  1  0.274500  0.589500  0.122060  1.0  -0.5747
  O  O4821  1  0.343020  0.526030  0.124990  1.0  -0.564
  O  O4822  1  0.372740  0.526020  0.094640  1.0  -0.5711
  O  O4823  1  0.277730  0.627090  0.158410  1.0  -0.5664
  O  O4824  1  0.274690  0.658890  0.130510  1.0  -0.5675
  O  O4825  1  0.370240  0.088850  0.526300  1.0  -0.5681
  O  O4826  1  0.339980  0.118470  0.526550  1.0  -0.5755
  O  O4827  1  0.277550  0.121120  0.593830  1.0  -0.576
  O  O4828  1  0.274500  0.089500  0.622060  1.0  -0.5747
  O  O4829  1  0.343020  0.026030  0.624990  1.0  -0.564
  O  O4830  1  0.372740  0.026020  0.594640  1.0  -0.5711
  O  O4831  1  0.277730  0.127090  0.658410  1.0  -0.5664
  O  O4832  1  0.274690  0.158890  0.630510  1.0  -0.5675
  O  O4833  1  0.129760  0.588850  0.473700  1.0  -0.5682
  O  O4834  1  0.160020  0.618470  0.473450  1.0  -0.576
  O  O4835  1  0.222450  0.621120  0.406170  1.0  -0.5756
  O  O4836  1  0.225500  0.589500  0.377940  1.0  -0.5745
  O  O4837  1  0.156980  0.526030  0.375010  1.0  -0.5641
  O  O4838  1  0.127260  0.526020  0.405360  1.0  -0.5703
  O  O4839  1  0.222270  0.627090  0.341590  1.0  -0.5671
  O  O4840  1  0.225310  0.658890  0.369490  1.0  -0.5666
  O  O4841  1  0.129760  0.088850  0.973700  1.0  -0.5682
  O  O4842  1  0.160020  0.118470  0.973450  1.0  -0.576
  O  O4843  1  0.222450  0.121120  0.906170  1.0  -0.5756
  O  O4844  1  0.225500  0.089500  0.877940  1.0  -0.5745
  O  O4845  1  0.156980  0.026030  0.875010  1.0  -0.5641
  O  O4846  1  0.127260  0.026020  0.905360  1.0  -0.5703
  O  O4847  1  0.222270  0.127090  0.841590  1.0  -0.5671
  O  O4848  1  0.225310  0.158890  0.869490  1.0  -0.5666
  O  O4849  1  0.629760  0.588850  0.973700  1.0  -0.5682
  O  O4850  1  0.660020  0.618470  0.973450  1.0  -0.576
  O  O4851  1  0.722450  0.621120  0.906170  1.0  -0.5756
  O  O4852  1  0.725500  0.589500  0.877940  1.0  -0.5745
  O  O4853  1  0.656980  0.526030  0.875010  1.0  -0.5641
  O  O4854  1  0.627260  0.526020  0.905360  1.0  -0.5703
  O  O4855  1  0.722270  0.627090  0.841590  1.0  -0.5671
  O  O4856  1  0.725310  0.658890  0.869490  1.0  -0.5666
  O  O4857  1  0.629760  0.088850  0.473700  1.0  -0.5682
  O  O4858  1  0.660020  0.118470  0.473450  1.0  -0.576
  O  O4859  1  0.722450  0.121120  0.406170  1.0  -0.5756
  O  O4860  1  0.725500  0.089500  0.377940  1.0  -0.5745
  O  O4861  1  0.656980  0.026030  0.375010  1.0  -0.5641
  O  O4862  1  0.627260  0.026020  0.405360  1.0  -0.5703
  O  O4863  1  0.722270  0.127090  0.341590  1.0  -0.5671
  O  O4864  1  0.725310  0.158890  0.369490  1.0  -0.5666
  O  O4865  1  0.411150  0.473700  0.870240  1.0  -0.5674
  O  O4866  1  0.381530  0.473450  0.839980  1.0  -0.5748
  O  O4867  1  0.378880  0.406170  0.777550  1.0  -0.5761
  O  O4868  1  0.410500  0.377940  0.774500  1.0  -0.5751
  O  O4869  1  0.473970  0.375010  0.843020  1.0  -0.5656
  O  O4870  1  0.473980  0.405360  0.872740  1.0  -0.5699
  O  O4871  1  0.372910  0.341590  0.777730  1.0  -0.5667
  O  O4872  1  0.341110  0.369490  0.774690  1.0  -0.5674
  O  O4873  1  0.411150  0.973700  0.370240  1.0  -0.5674
  O  O4874  1  0.381530  0.973450  0.339980  1.0  -0.5748
  O  O4875  1  0.378880  0.906170  0.277550  1.0  -0.5761
  O  O4876  1  0.410500  0.877940  0.274500  1.0  -0.5751
  O  O4877  1  0.473970  0.875010  0.343020  1.0  -0.5656
  O  O4878  1  0.473980  0.905360  0.372740  1.0  -0.5699
  O  O4879  1  0.372910  0.841590  0.277730  1.0  -0.5667
  O  O4880  1  0.341110  0.869490  0.274690  1.0  -0.5674
  O  O4881  1  0.911150  0.473700  0.370240  1.0  -0.5674
  O  O4882  1  0.881530  0.473450  0.339980  1.0  -0.5748
  O  O4883  1  0.878880  0.406170  0.277550  1.0  -0.5761
  O  O4884  1  0.910500  0.377940  0.274500  1.0  -0.5751
  O  O4885  1  0.973970  0.375010  0.343020  1.0  -0.5656
  O  O4886  1  0.973980  0.405360  0.372740  1.0  -0.5699
  O  O4887  1  0.872910  0.341590  0.277730  1.0  -0.5667
  O  O4888  1  0.841110  0.369490  0.274690  1.0  -0.5674
  O  O4889  1  0.911150  0.973700  0.870240  1.0  -0.5674
  O  O4890  1  0.881530  0.973450  0.839980  1.0  -0.5748
  O  O4891  1  0.878880  0.906170  0.777550  1.0  -0.5761
  O  O4892  1  0.910500  0.877940  0.774500  1.0  -0.5751
  O  O4893  1  0.973970  0.875010  0.843020  1.0  -0.5656
  O  O4894  1  0.973980  0.905360  0.872740  1.0  -0.5699
  O  O4895  1  0.872910  0.841590  0.777730  1.0  -0.5667
  O  O4896  1  0.841110  0.869490  0.774690  1.0  -0.5674
  O  O4897  1  0.411150  0.526300  0.129760  1.0  -0.5673
  O  O4898  1  0.381530  0.526550  0.160020  1.0  -0.5745
  O  O4899  1  0.378880  0.593830  0.222450  1.0  -0.5757
  O  O4900  1  0.410500  0.622060  0.225500  1.0  -0.5749
  O  O4901  1  0.473970  0.624990  0.156980  1.0  -0.5638
  O  O4902  1  0.473980  0.594640  0.127260  1.0  -0.5703
  O  O4903  1  0.372910  0.658410  0.222270  1.0  -0.5664
  O  O4904  1  0.341110  0.630510  0.225310  1.0  -0.5668
  O  O4905  1  0.411150  0.026300  0.629760  1.0  -0.5673
  O  O4906  1  0.381530  0.026550  0.660020  1.0  -0.5745
  O  O4907  1  0.378880  0.093830  0.722450  1.0  -0.5757
  O  O4908  1  0.410500  0.122060  0.725500  1.0  -0.5749
  O  O4909  1  0.473970  0.124990  0.656980  1.0  -0.5638
  O  O4910  1  0.473980  0.094640  0.627260  1.0  -0.5703
  O  O4911  1  0.372910  0.158410  0.722270  1.0  -0.5664
  O  O4912  1  0.341110  0.130510  0.725310  1.0  -0.5668
  O  O4913  1  0.911150  0.526300  0.629760  1.0  -0.5673
  O  O4914  1  0.881530  0.526550  0.660020  1.0  -0.5745
  O  O4915  1  0.878880  0.593830  0.722450  1.0  -0.5757
  O  O4916  1  0.910500  0.622060  0.725500  1.0  -0.5749
  O  O4917  1  0.973970  0.624990  0.656980  1.0  -0.5638
  O  O4918  1  0.973980  0.594640  0.627260  1.0  -0.5703
  O  O4919  1  0.872910  0.658410  0.722270  1.0  -0.5664
  O  O4920  1  0.841110  0.630510  0.725310  1.0  -0.5668
  O  O4921  1  0.911150  0.026300  0.129760  1.0  -0.5673
  O  O4922  1  0.881530  0.026550  0.160020  1.0  -0.5745
  O  O4923  1  0.878880  0.093830  0.222450  1.0  -0.5757
  O  O4924  1  0.910500  0.122060  0.225500  1.0  -0.5749
  O  O4925  1  0.973970  0.124990  0.156980  1.0  -0.5638
  O  O4926  1  0.973980  0.094640  0.127260  1.0  -0.5703
  O  O4927  1  0.872910  0.158410  0.222270  1.0  -0.5664
  O  O4928  1  0.841110  0.130510  0.225310  1.0  -0.5668
  O  O4929  1  0.588850  0.473700  0.129760  1.0  -0.5676
  O  O4930  1  0.618470  0.473450  0.160020  1.0  -0.575
  O  O4931  1  0.621120  0.406170  0.222450  1.0  -0.5769
  O  O4932  1  0.589500  0.377940  0.225500  1.0  -0.5742
  O  O4933  1  0.526030  0.375010  0.156980  1.0  -0.5654
  O  O4934  1  0.526020  0.405360  0.127260  1.0  -0.5701
  O  O4935  1  0.627090  0.341590  0.222270  1.0  -0.5667
  O  O4936  1  0.658890  0.369490  0.225310  1.0  -0.5683
  O  O4937  1  0.588850  0.973700  0.629760  1.0  -0.5676
  O  O4938  1  0.618470  0.973450  0.660020  1.0  -0.575
  O  O4939  1  0.621120  0.906170  0.722450  1.0  -0.5769
  O  O4940  1  0.589500  0.877940  0.725500  1.0  -0.5742
  O  O4941  1  0.526030  0.875010  0.656980  1.0  -0.5654
  O  O4942  1  0.526020  0.905360  0.627260  1.0  -0.5701
  O  O4943  1  0.627090  0.841590  0.722270  1.0  -0.5667
  O  O4944  1  0.658890  0.869490  0.725310  1.0  -0.5683
  O  O4945  1  0.088850  0.473700  0.629760  1.0  -0.5676
  O  O4946  1  0.118470  0.473450  0.660020  1.0  -0.575
  O  O4947  1  0.121120  0.406170  0.722450  1.0  -0.5769
  O  O4948  1  0.089500  0.377940  0.725500  1.0  -0.5742
  O  O4949  1  0.026030  0.375010  0.656980  1.0  -0.5654
  O  O4950  1  0.026020  0.405360  0.627260  1.0  -0.5701
  O  O4951  1  0.127090  0.341590  0.722270  1.0  -0.5667
  O  O4952  1  0.158890  0.369490  0.725310  1.0  -0.5683
  O  O4953  1  0.088850  0.973700  0.129760  1.0  -0.5676
  O  O4954  1  0.118470  0.973450  0.160020  1.0  -0.575
  O  O4955  1  0.121120  0.906170  0.222450  1.0  -0.5769
  O  O4956  1  0.089500  0.877940  0.225500  1.0  -0.5742
  O  O4957  1  0.026030  0.875010  0.156980  1.0  -0.5654
  O  O4958  1  0.026020  0.905360  0.127260  1.0  -0.5701
  O  O4959  1  0.127090  0.841590  0.222270  1.0  -0.5667
  O  O4960  1  0.158890  0.869490  0.225310  1.0  -0.5683
  O  O4961  1  0.588850  0.526300  0.870240  1.0  -0.5676
  O  O4962  1  0.618470  0.526550  0.839980  1.0  -0.5761
  O  O4963  1  0.621120  0.593830  0.777550  1.0  -0.5763
  O  O4964  1  0.589500  0.622060  0.774500  1.0  -0.5741
  O  O4965  1  0.526030  0.624990  0.843020  1.0  -0.5645
  O  O4966  1  0.526020  0.594640  0.872740  1.0  -0.5702
  O  O4967  1  0.627090  0.658410  0.777730  1.0  -0.5657
  O  O4968  1  0.658890  0.630510  0.774690  1.0  -0.5673
  O  O4969  1  0.588850  0.026300  0.370240  1.0  -0.5676
  O  O4970  1  0.618470  0.026550  0.339980  1.0  -0.5761
  O  O4971  1  0.621120  0.093830  0.277550  1.0  -0.5763
  O  O4972  1  0.589500  0.122060  0.274500  1.0  -0.5741
  O  O4973  1  0.526030  0.124990  0.343020  1.0  -0.5645
  O  O4974  1  0.526020  0.094640  0.372740  1.0  -0.5702
  O  O4975  1  0.627090  0.158410  0.277730  1.0  -0.5657
  O  O4976  1  0.658890  0.130510  0.274690  1.0  -0.5673
  O  O4977  1  0.088850  0.526300  0.370240  1.0  -0.5676
  O  O4978  1  0.118470  0.526550  0.339980  1.0  -0.5761
  O  O4979  1  0.121120  0.593830  0.277550  1.0  -0.5763
  O  O4980  1  0.089500  0.622060  0.274500  1.0  -0.5741
  O  O4981  1  0.026030  0.624990  0.343020  1.0  -0.5645
  O  O4982  1  0.026020  0.594640  0.372740  1.0  -0.5702
  O  O4983  1  0.127090  0.658410  0.277730  1.0  -0.5657
  O  O4984  1  0.158890  0.630510  0.274690  1.0  -0.5673
  O  O4985  1  0.088850  0.026300  0.870240  1.0  -0.5676
  O  O4986  1  0.118470  0.026550  0.839980  1.0  -0.5761
  O  O4987  1  0.121120  0.093830  0.777550  1.0  -0.5763
  O  O4988  1  0.089500  0.122060  0.774500  1.0  -0.5741
  O  O4989  1  0.026030  0.124990  0.843020  1.0  -0.5645
  O  O4990  1  0.026020  0.094640  0.872740  1.0  -0.5702
  O  O4991  1  0.127090  0.158410  0.777730  1.0  -0.5657
  O  O4992  1  0.158890  0.130510  0.774690  1.0  -0.5673
