# generated using pymatgen
data_Zn2SiH16(C7O2)4
_symmetry_space_group_name_H-M   'P 1'
_cell_length_a   22.57560000
_cell_length_b   29.63020000
_cell_length_c   28.20800000
_cell_angle_alpha   90.00000000
_cell_angle_beta   90.00000000
_cell_angle_gamma   90.00000000
_symmetry_Int_Tables_number   1
_chemical_formula_structural   Zn2SiH16(C7O2)4
_chemical_formula_sum   'Zn32 Si16 H256 C448 O128'
_cell_volume   18868.88247233
_cell_formula_units_Z   16
loop_
 _symmetry_equiv_pos_site_id
 _symmetry_equiv_pos_as_xyz
  1  'x, y, z'
loop_
 _atom_site_type_symbol
 _atom_site_label
 _atom_site_symmetry_multiplicity
 _atom_site_fract_x
 _atom_site_fract_y
 _atom_site_fract_z
 _atom_site_occupancy
 _atom_site_charge
  Zn  Zn1  1  0.357140  0.126400  0.658020  1.0  1.0808
  Zn  Zn2  1  0.421350  0.124950  0.773070  1.0  0.9066
  Zn  Zn3  1  0.854140  0.371890  0.861280  1.0  1.0741
  Zn  Zn4  1  0.761010  0.458670  0.900020  1.0  0.9081
  Zn  Zn5  1  0.857140  0.873600  0.841980  1.0  1.0809
  Zn  Zn6  1  0.921350  0.875050  0.726930  1.0  0.906
  Zn  Zn7  1  0.354140  0.628110  0.638720  1.0  1.0737
  Zn  Zn8  1  0.261010  0.541330  0.599980  1.0  0.909
  Zn  Zn9  1  0.642860  0.873600  0.341980  1.0  1.0803
  Zn  Zn10  1  0.578650  0.875050  0.226930  1.0  0.9059
  Zn  Zn11  1  0.145860  0.628110  0.138720  1.0  1.0699
  Zn  Zn12  1  0.238990  0.541330  0.099980  1.0  0.9061
  Zn  Zn13  1  0.142860  0.126400  0.158020  1.0  1.0801
  Zn  Zn14  1  0.078650  0.124950  0.273070  1.0  0.9062
  Zn  Zn15  1  0.645860  0.371890  0.361280  1.0  1.0724
  Zn  Zn16  1  0.738990  0.458670  0.400020  1.0  0.9061
  Zn  Zn17  1  0.142860  0.373600  0.658020  1.0  1.0801
  Zn  Zn18  1  0.078650  0.375050  0.773070  1.0  0.9061
  Zn  Zn19  1  0.645860  0.128110  0.861280  1.0  1.0741
  Zn  Zn20  1  0.738990  0.041330  0.900020  1.0  0.9078
  Zn  Zn21  1  0.642860  0.626400  0.841980  1.0  1.0797
  Zn  Zn22  1  0.578650  0.624950  0.726930  1.0  0.906
  Zn  Zn23  1  0.145860  0.871890  0.638720  1.0  1.0742
  Zn  Zn24  1  0.238990  0.958670  0.599980  1.0  0.9048
  Zn  Zn25  1  0.857140  0.626400  0.341980  1.0  1.0803
  Zn  Zn26  1  0.921350  0.624950  0.226930  1.0  0.9061
  Zn  Zn27  1  0.354140  0.871890  0.138720  1.0  1.07
  Zn  Zn28  1  0.261010  0.958670  0.099980  1.0  0.9078
  Zn  Zn29  1  0.357140  0.373600  0.158020  1.0  1.0808
  Zn  Zn30  1  0.421350  0.375050  0.273070  1.0  0.9064
  Zn  Zn31  1  0.854140  0.128110  0.361280  1.0  1.072
  Zn  Zn32  1  0.761010  0.041330  0.400020  1.0  0.9095
  Si  Si33  1  0.561810  0.377650  0.660040  1.0  0.8964
  Si  Si34  1  0.061760  0.122150  0.857710  1.0  0.9421
  Si  Si35  1  0.061810  0.622350  0.839960  1.0  0.8972
  Si  Si36  1  0.561760  0.877850  0.642290  1.0  0.9412
  Si  Si37  1  0.438190  0.622350  0.339960  1.0  0.8973
  Si  Si38  1  0.938240  0.877850  0.142290  1.0  0.9417
  Si  Si39  1  0.938190  0.377650  0.160040  1.0  0.8967
  Si  Si40  1  0.438240  0.122150  0.357710  1.0  0.9427
  Si  Si41  1  0.938190  0.122350  0.660040  1.0  0.8968
  Si  Si42  1  0.438240  0.377850  0.857710  1.0  0.9424
  Si  Si43  1  0.438190  0.877650  0.839960  1.0  0.8971
  Si  Si44  1  0.938240  0.622150  0.642290  1.0  0.9419
  Si  Si45  1  0.061810  0.877650  0.339960  1.0  0.897
  Si  Si46  1  0.561760  0.622150  0.142290  1.0  0.9413
  Si  Si47  1  0.561810  0.122350  0.160040  1.0  0.8964
  Si  Si48  1  0.061760  0.377850  0.357710  1.0  0.942
  H  H49  1  0.475000  0.320100  0.609500  1.0  0.1009
  H  H50  1  0.425200  0.253700  0.625400  1.0  0.1102
  H  H51  1  0.508200  0.244600  0.751000  1.0  0.1034
  H  H52  1  0.557700  0.310700  0.735100  1.0  0.0762
  H  H53  1  0.565700  0.412100  0.753800  1.0  0.1009
  H  H54  1  0.634800  0.415300  0.815500  1.0  0.1029
  H  H55  1  0.758400  0.358400  0.730200  1.0  0.1112
  H  H56  1  0.689300  0.355200  0.668400  1.0  0.1182
  H  H57  1  0.628000  0.442800  0.610000  1.0  0.1054
  H  H58  1  0.669200  0.451200  0.534400  1.0  0.1132
  H  H59  1  0.613100  0.325700  0.499400  1.0  0.1103
  H  H60  1  0.571900  0.317300  0.575000  1.0  0.102
  H  H61  1  0.568500  0.476000  0.661100  1.0  0.102
  H  H62  1  0.503300  0.535000  0.654000  1.0  0.103
  H  H63  1  0.366600  0.448300  0.661400  1.0  0.1058
  H  H64  1  0.433000  0.388900  0.668200  1.0  0.096
  H  H65  1  0.189700  0.117300  0.870500  1.0  0.0974
  H  H66  1  0.273500  0.117200  0.823300  1.0  0.1207
  H  H67  1  0.169800  0.145000  0.710500  1.0  0.1144
  H  H68  1  0.088400  0.144800  0.758000  1.0  0.0862
  H  H69  1  0.074600  0.220400  0.850800  1.0  0.1032
  H  H70  1  0.010300  0.282400  0.850900  1.0  0.1065
  H  H71  1  0.871100  0.199200  0.850700  1.0  0.1074
  H  H72  1  0.933300  0.137200  0.850400  1.0  0.1059
  H  H73  1  0.067300  0.056700  0.778700  1.0  0.092
  H  H74  1  0.018900  0.990400  0.758700  1.0  0.1057
  H  H75  1  0.919200  0.999900  0.877100  1.0  0.1221
  H  H76  1  0.966700  0.066700  0.896300  1.0  0.0994
  H  H77  1  0.103400  0.046900  0.916100  1.0  0.1014
  H  H78  1  0.140300  0.037500  0.991400  1.0  0.1109
  H  H79  1  0.112400  0.166900  0.020900  1.0  0.1215
  H  H80  1  0.075300  0.178700  0.943600  1.0  0.1074
  H  H81  1  0.975000  0.679900  0.890500  1.0  0.1013
  H  H82  1  0.925200  0.746300  0.874600  1.0  0.1106
  H  H83  1  0.008200  0.755400  0.749000  1.0  0.1034
  H  H84  1  0.057700  0.689300  0.764900  1.0  0.0757
  H  H85  1  0.065700  0.587900  0.746200  1.0  0.1009
  H  H86  1  0.134800  0.584700  0.684500  1.0  0.1029
  H  H87  1  0.258400  0.641600  0.769800  1.0  0.111
  H  H88  1  0.189300  0.644800  0.831600  1.0  0.1176
  H  H89  1  0.128000  0.557200  0.890000  1.0  0.1059
  H  H90  1  0.169200  0.548800  0.965600  1.0  0.1128
  H  H91  1  0.113100  0.674300  0.000600  1.0  0.1102
  H  H92  1  0.071900  0.682700  0.925000  1.0  0.1024
  H  H93  1  0.068500  0.524000  0.838900  1.0  0.1024
  H  H94  1  0.003300  0.465000  0.846000  1.0  0.1026
  H  H95  1  0.866600  0.551700  0.838600  1.0  0.1056
  H  H96  1  0.933000  0.611100  0.831800  1.0  0.0965
  H  H97  1  0.689700  0.882700  0.629500  1.0  0.0983
  H  H98  1  0.773500  0.882800  0.676700  1.0  0.1215
  H  H99  1  0.669800  0.855000  0.789500  1.0  0.1144
  H  H100  1  0.588400  0.855200  0.742000  1.0  0.0863
  H  H101  1  0.574600  0.779600  0.649200  1.0  0.1032
  H  H102  1  0.510300  0.717600  0.649100  1.0  0.1076
  H  H103  1  0.371100  0.800800  0.649300  1.0  0.1071
  H  H104  1  0.433300  0.862800  0.649600  1.0  0.1067
  H  H105  1  0.567300  0.943300  0.721300  1.0  0.0915
  H  H106  1  0.518900  0.009600  0.741300  1.0  0.1058
  H  H107  1  0.419200  0.000100  0.622900  1.0  0.122
  H  H108  1  0.466700  0.933300  0.603700  1.0  0.0997
  H  H109  1  0.603400  0.953100  0.583900  1.0  0.1011
  H  H110  1  0.640300  0.962500  0.508600  1.0  0.1112
  H  H111  1  0.612400  0.833100  0.479100  1.0  0.1213
  H  H112  1  0.575300  0.821300  0.556400  1.0  0.1065
  H  H113  1  0.525000  0.679900  0.390500  1.0  0.1002
  H  H114  1  0.574800  0.746300  0.374600  1.0  0.1108
  H  H115  1  0.491800  0.755400  0.249000  1.0  0.1029
  H  H116  1  0.442300  0.689300  0.264900  1.0  0.0758
  H  H117  1  0.434300  0.587900  0.246200  1.0  0.1009
  H  H118  1  0.365200  0.584700  0.184500  1.0  0.1025
  H  H119  1  0.241600  0.641600  0.269800  1.0  0.1108
  H  H120  1  0.310700  0.644800  0.331600  1.0  0.1182
  H  H121  1  0.372000  0.557200  0.390000  1.0  0.1056
  H  H122  1  0.330800  0.548800  0.465600  1.0  0.1126
  H  H123  1  0.386900  0.674300  0.500600  1.0  0.1101
  H  H124  1  0.428100  0.682700  0.425000  1.0  0.103
  H  H125  1  0.431500  0.524000  0.338900  1.0  0.1024
  H  H126  1  0.496700  0.465000  0.346000  1.0  0.1027
  H  H127  1  0.633400  0.551700  0.338600  1.0  0.1056
  H  H128  1  0.567000  0.611100  0.331800  1.0  0.0963
  H  H129  1  0.810300  0.882700  0.129500  1.0  0.0986
  H  H130  1  0.726500  0.882800  0.176700  1.0  0.1209
  H  H131  1  0.830200  0.855000  0.289500  1.0  0.1147
  H  H132  1  0.911600  0.855200  0.242000  1.0  0.0864
  H  H133  1  0.925400  0.779600  0.149200  1.0  0.1037
  H  H134  1  0.989700  0.717600  0.149100  1.0  0.1072
  H  H135  1  0.128900  0.800800  0.149300  1.0  0.1075
  H  H136  1  0.066700  0.862800  0.149600  1.0  0.1062
  H  H137  1  0.932700  0.943300  0.221300  1.0  0.0914
  H  H138  1  0.981100  0.009600  0.241300  1.0  0.1058
  H  H139  1  0.080800  0.000100  0.122900  1.0  0.1217
  H  H140  1  0.033300  0.933300  0.103700  1.0  0.0996
  H  H141  1  0.896600  0.953100  0.083900  1.0  0.1013
  H  H142  1  0.859700  0.962500  0.008600  1.0  0.1111
  H  H143  1  0.887600  0.833100  0.979100  1.0  0.1215
  H  H144  1  0.924700  0.821300  0.056400  1.0  0.1066
  H  H145  1  0.025000  0.320100  0.109500  1.0  0.1013
  H  H146  1  0.074800  0.253700  0.125400  1.0  0.1105
  H  H147  1  0.991800  0.244600  0.251000  1.0  0.1031
  H  H148  1  0.942300  0.310700  0.235100  1.0  0.0761
  H  H149  1  0.934300  0.412100  0.253800  1.0  0.1006
  H  H150  1  0.865200  0.415300  0.315500  1.0  0.1028
  H  H151  1  0.741600  0.358400  0.230200  1.0  0.1109
  H  H152  1  0.810700  0.355200  0.168400  1.0  0.1179
  H  H153  1  0.872000  0.442800  0.110000  1.0  0.1056
  H  H154  1  0.830800  0.451200  0.034400  1.0  0.1132
  H  H155  1  0.886900  0.325700  0.999400  1.0  0.1101
  H  H156  1  0.928100  0.317300  0.075000  1.0  0.1028
  H  H157  1  0.931500  0.476000  0.161100  1.0  0.1014
  H  H158  1  0.996700  0.535000  0.154000  1.0  0.1033
  H  H159  1  0.133400  0.448300  0.161400  1.0  0.1063
  H  H160  1  0.067000  0.388900  0.168200  1.0  0.096
  H  H161  1  0.310300  0.117300  0.370500  1.0  0.0985
  H  H162  1  0.226500  0.117200  0.323300  1.0  0.1206
  H  H163  1  0.330200  0.145000  0.210500  1.0  0.1141
  H  H164  1  0.411600  0.144800  0.258000  1.0  0.0858
  H  H165  1  0.425400  0.220400  0.350800  1.0  0.1031
  H  H166  1  0.489700  0.282400  0.350900  1.0  0.1066
  H  H167  1  0.628900  0.199200  0.350700  1.0  0.1071
  H  H168  1  0.566700  0.137200  0.350400  1.0  0.1059
  H  H169  1  0.432700  0.056700  0.278700  1.0  0.092
  H  H170  1  0.481100  0.990400  0.258700  1.0  0.1057
  H  H171  1  0.580800  0.999900  0.377100  1.0  0.1221
  H  H172  1  0.533300  0.066700  0.396300  1.0  0.0991
  H  H173  1  0.396600  0.046900  0.416100  1.0  0.1013
  H  H174  1  0.359700  0.037500  0.491400  1.0  0.1104
  H  H175  1  0.387600  0.166900  0.520900  1.0  0.1218
  H  H176  1  0.424700  0.178700  0.443600  1.0  0.1068
  H  H177  1  0.025000  0.179900  0.609500  1.0  0.1016
  H  H178  1  0.074800  0.246300  0.625400  1.0  0.1107
  H  H179  1  0.991800  0.255400  0.751000  1.0  0.103
  H  H180  1  0.942300  0.189300  0.735100  1.0  0.0755
  H  H181  1  0.934300  0.087900  0.753800  1.0  0.0991
  H  H182  1  0.865200  0.084700  0.815500  1.0  0.1032
  H  H183  1  0.741600  0.141600  0.730200  1.0  0.1109
  H  H184  1  0.810700  0.144800  0.668400  1.0  0.1179
  H  H185  1  0.872000  0.057200  0.610000  1.0  0.1055
  H  H186  1  0.830800  0.048800  0.534400  1.0  0.1129
  H  H187  1  0.886900  0.174300  0.499400  1.0  0.1109
  H  H188  1  0.928100  0.182700  0.575000  1.0  0.1034
  H  H189  1  0.931500  0.024000  0.661100  1.0  0.1019
  H  H190  1  0.996700  0.965000  0.654000  1.0  0.103
  H  H191  1  0.133400  0.051700  0.661400  1.0  0.1062
  H  H192  1  0.067000  0.111100  0.668200  1.0  0.0967
  H  H193  1  0.310300  0.382700  0.870500  1.0  0.0982
  H  H194  1  0.226500  0.382800  0.823300  1.0  0.1206
  H  H195  1  0.330200  0.355000  0.710500  1.0  0.114
  H  H196  1  0.411600  0.355200  0.758000  1.0  0.0859
  H  H197  1  0.425400  0.279600  0.850800  1.0  0.1034
  H  H198  1  0.489700  0.217600  0.850900  1.0  0.1069
  H  H199  1  0.628900  0.300800  0.850700  1.0  0.1072
  H  H200  1  0.566700  0.362800  0.850400  1.0  0.0984
  H  H201  1  0.432700  0.443300  0.778700  1.0  0.092
  H  H202  1  0.481100  0.509600  0.758700  1.0  0.106
  H  H203  1  0.580800  0.500100  0.877100  1.0  0.1219
  H  H204  1  0.533300  0.433300  0.896300  1.0  0.0993
  H  H205  1  0.396600  0.453100  0.916100  1.0  0.102
  H  H206  1  0.359700  0.462500  0.991400  1.0  0.1109
  H  H207  1  0.387600  0.333100  0.020900  1.0  0.1218
  H  H208  1  0.424700  0.321300  0.943600  1.0  0.1069
  H  H209  1  0.525000  0.820100  0.890500  1.0  0.1002
  H  H210  1  0.574800  0.753700  0.874600  1.0  0.1109
  H  H211  1  0.491800  0.744600  0.749000  1.0  0.103
  H  H212  1  0.442300  0.810700  0.764900  1.0  0.0764
  H  H213  1  0.434300  0.912100  0.746200  1.0  0.099
  H  H214  1  0.365200  0.915300  0.684500  1.0  0.1023
  H  H215  1  0.241600  0.858400  0.769800  1.0  0.111
  H  H216  1  0.310700  0.855200  0.831600  1.0  0.1184
  H  H217  1  0.372000  0.942800  0.890000  1.0  0.1062
  H  H218  1  0.330800  0.951200  0.965600  1.0  0.1129
  H  H219  1  0.386900  0.825700  0.000600  1.0  0.1101
  H  H220  1  0.428100  0.817300  0.925000  1.0  0.1023
  H  H221  1  0.431500  0.976000  0.838900  1.0  0.1018
  H  H222  1  0.496700  0.035000  0.846000  1.0  0.103
  H  H223  1  0.633400  0.948300  0.838600  1.0  0.1061
  H  H224  1  0.567000  0.888900  0.831800  1.0  0.0963
  H  H225  1  0.810300  0.617300  0.629500  1.0  0.0988
  H  H226  1  0.726500  0.617200  0.676700  1.0  0.1209
  H  H227  1  0.830200  0.645000  0.789500  1.0  0.1147
  H  H228  1  0.911600  0.644800  0.742000  1.0  0.0861
  H  H229  1  0.925400  0.720400  0.649200  1.0  0.1032
  H  H230  1  0.989700  0.782400  0.649100  1.0  0.1067
  H  H231  1  0.128900  0.699200  0.649300  1.0  0.1073
  H  H232  1  0.066700  0.637200  0.649600  1.0  0.0986
  H  H233  1  0.932700  0.556700  0.721300  1.0  0.0915
  H  H234  1  0.981100  0.490400  0.741300  1.0  0.1057
  H  H235  1  0.080800  0.499900  0.622900  1.0  0.1217
  H  H236  1  0.033300  0.566700  0.603700  1.0  0.0993
  H  H237  1  0.896600  0.546900  0.583900  1.0  0.101
  H  H238  1  0.859700  0.537500  0.508600  1.0  0.1105
  H  H239  1  0.887600  0.666900  0.479100  1.0  0.122
  H  H240  1  0.924700  0.678700  0.556400  1.0  0.1065
  H  H241  1  0.975000  0.820100  0.390500  1.0  0.1011
  H  H242  1  0.925200  0.753700  0.374600  1.0  0.1107
  H  H243  1  0.008200  0.744600  0.249000  1.0  0.1034
  H  H244  1  0.057700  0.810700  0.264900  1.0  0.0767
  H  H245  1  0.065700  0.912100  0.246200  1.0  0.0993
  H  H246  1  0.134800  0.915300  0.184500  1.0  0.1029
  H  H247  1  0.258400  0.858400  0.269800  1.0  0.1109
  H  H248  1  0.189300  0.855200  0.331600  1.0  0.1176
  H  H249  1  0.128000  0.942800  0.390000  1.0  0.1063
  H  H250  1  0.169200  0.951200  0.465600  1.0  0.1128
  H  H251  1  0.113100  0.825700  0.500600  1.0  0.1103
  H  H252  1  0.071900  0.817300  0.425000  1.0  0.1014
  H  H253  1  0.068500  0.976000  0.338900  1.0  0.1022
  H  H254  1  0.003300  0.035000  0.346000  1.0  0.1024
  H  H255  1  0.866600  0.948300  0.338600  1.0  0.1059
  H  H256  1  0.933000  0.888900  0.331800  1.0  0.0966
  H  H257  1  0.689700  0.617300  0.129500  1.0  0.0984
  H  H258  1  0.773500  0.617200  0.176700  1.0  0.1213
  H  H259  1  0.669800  0.645000  0.289500  1.0  0.1147
  H  H260  1  0.588400  0.644800  0.242000  1.0  0.0864
  H  H261  1  0.574600  0.720400  0.149200  1.0  0.1031
  H  H262  1  0.510300  0.782400  0.149100  1.0  0.1068
  H  H263  1  0.371100  0.699200  0.149300  1.0  0.1072
  H  H264  1  0.433300  0.637200  0.149600  1.0  0.0988
  H  H265  1  0.567300  0.556700  0.221300  1.0  0.0917
  H  H266  1  0.518900  0.490400  0.241300  1.0  0.1057
  H  H267  1  0.419200  0.499900  0.122900  1.0  0.1218
  H  H268  1  0.466700  0.566700  0.103700  1.0  0.0993
  H  H269  1  0.603400  0.546900  0.083900  1.0  0.1008
  H  H270  1  0.640300  0.537500  0.008600  1.0  0.111
  H  H271  1  0.612400  0.666900  0.979100  1.0  0.1218
  H  H272  1  0.575300  0.678700  0.056400  1.0  0.1067
  H  H273  1  0.475000  0.179900  0.109500  1.0  0.1012
  H  H274  1  0.425200  0.246300  0.125400  1.0  0.1106
  H  H275  1  0.508200  0.255400  0.251000  1.0  0.1035
  H  H276  1  0.557700  0.189300  0.235100  1.0  0.0752
  H  H277  1  0.565700  0.087900  0.253800  1.0  0.0991
  H  H278  1  0.634800  0.084700  0.315500  1.0  0.1029
  H  H279  1  0.758400  0.141600  0.230200  1.0  0.1116
  H  H280  1  0.689300  0.144800  0.168400  1.0  0.1181
  H  H281  1  0.628000  0.057200  0.110000  1.0  0.1056
  H  H282  1  0.669200  0.048800  0.034400  1.0  0.1132
  H  H283  1  0.613100  0.174300  0.999400  1.0  0.1111
  H  H284  1  0.571900  0.182700  0.075000  1.0  0.1029
  H  H285  1  0.568500  0.024000  0.161100  1.0  0.1016
  H  H286  1  0.503300  0.965000  0.154000  1.0  0.1033
  H  H287  1  0.366600  0.051700  0.161400  1.0  0.1057
  H  H288  1  0.433000  0.111100  0.168200  1.0  0.0966
  H  H289  1  0.189700  0.382700  0.370500  1.0  0.0974
  H  H290  1  0.273500  0.382800  0.323300  1.0  0.1207
  H  H291  1  0.169800  0.355000  0.210500  1.0  0.1141
  H  H292  1  0.088400  0.355200  0.258000  1.0  0.0858
  H  H293  1  0.074600  0.279600  0.350800  1.0  0.1036
  H  H294  1  0.010300  0.217600  0.350900  1.0  0.1071
  H  H295  1  0.871100  0.300800  0.350700  1.0  0.1071
  H  H296  1  0.933300  0.362800  0.350400  1.0  0.0983
  H  H297  1  0.067300  0.443300  0.278700  1.0  0.0919
  H  H298  1  0.018900  0.509600  0.258700  1.0  0.1059
  H  H299  1  0.919200  0.500100  0.377100  1.0  0.1221
  H  H300  1  0.966700  0.433300  0.396300  1.0  0.0996
  H  H301  1  0.103400  0.453100  0.416100  1.0  0.1019
  H  H302  1  0.140300  0.462500  0.491400  1.0  0.111
  H  H303  1  0.112400  0.333100  0.520900  1.0  0.1217
  H  H304  1  0.075300  0.321300  0.443600  1.0  0.1071
  C  C305  1  0.522330  0.323250  0.671280  1.0  -0.2741
  C  C306  1  0.482200  0.304730  0.638550  1.0  -0.0724
  C  C307  1  0.453200  0.264950  0.647600  1.0  -0.0425
  C  C308  1  0.464400  0.241090  0.688760  1.0  -0.144
  C  C309  1  0.502000  0.259510  0.721530  1.0  -0.1333
  C  C310  1  0.530700  0.299290  0.712190  1.0  -0.0369
  C  C311  1  0.435100  0.196890  0.697700  1.0  0.7521
  C  C312  1  0.621000  0.383380  0.705290  1.0  -0.3515
  C  C313  1  0.604800  0.401200  0.749000  1.0  -0.0321
  C  C314  1  0.645900  0.403100  0.785660  1.0  -0.0807
  C  C315  1  0.703100  0.387200  0.778640  1.0  -0.1531
  C  C316  1  0.719300  0.369300  0.735000  1.0  -0.04
  C  C317  1  0.678300  0.367400  0.698280  1.0  -0.0334
  C  C318  1  0.746000  0.390200  0.819000  1.0  0.6846
  C  C319  1  0.596050  0.379270  0.599590  1.0  -0.2741
  C  C320  1  0.625000  0.419060  0.587530  1.0  -0.0565
  C  C321  1  0.649500  0.424040  0.542630  1.0  -0.0567
  C  C322  1  0.645100  0.389230  0.509790  1.0  -0.1331
  C  C323  1  0.616100  0.349440  0.521840  1.0  -0.0463
  C  C324  1  0.591600  0.344460  0.566740  1.0  -0.0377
  C  C325  1  0.670900  0.394800  0.461100  1.0  0.7205
  C  C326  1  0.507260  0.425890  0.662730  1.0  -0.1902
  C  C327  1  0.527200  0.470070  0.660260  1.0  -0.0688
  C  C328  1  0.488400  0.505120  0.656610  1.0  -0.0774
  C  C329  1  0.427500  0.498260  0.656600  1.0  -0.1609
  C  C330  1  0.407920  0.454250  0.660890  1.0  -0.0736
  C  C331  1  0.447600  0.418750  0.664460  1.0  -0.0554
  C  C332  1  0.385800  0.536010  0.649900  1.0  0.7155
  C  C333  1  0.129180  0.129250  0.819410  1.0  -0.239
  C  C334  1  0.185500  0.122330  0.837440  1.0  -0.0124
  C  C335  1  0.235600  0.122410  0.809720  1.0  -0.1155
  C  C336  1  0.229510  0.130260  0.761640  1.0  -0.1296
  C  C337  1  0.174100  0.138770  0.743360  1.0  -0.1403
  C  C338  1  0.126000  0.138430  0.771620  1.0  -0.0684
  C  C339  1  0.284600  0.129660  0.731870  1.0  0.6875
  C  C340  1  0.011870  0.171580  0.852600  1.0  -0.2924
  C  C341  1  0.033070  0.215380  0.851560  1.0  -0.0457
  C  C342  1  0.994600  0.252660  0.851600  1.0  -0.1103
  C  C343  1  0.934920  0.246310  0.852580  1.0  -0.1327
  C  C344  1  0.912780  0.203620  0.851450  1.0  -0.0594
  C  C345  1  0.949900  0.166650  0.851350  1.0  -0.042
  C  C346  1  0.891800  0.286300  0.855940  1.0  0.6938
  C  C347  1  0.022020  0.069220  0.840340  1.0  -0.2948
  C  C348  1  0.036990  0.045390  0.798760  1.0  -0.0262
  C  C349  1  0.008440  0.005990  0.786850  1.0  -0.0282
  C  C350  1  0.964630  0.989290  0.815910  1.0  -0.1146
  C  C351  1  0.949140  0.011620  0.856940  1.0  -0.1187
  C  C352  1  0.977840  0.051170  0.868180  1.0  -0.0611
  C  C353  1  0.934690  0.945990  0.802490  1.0  0.7337
  C  C354  1  0.086800  0.114590  0.920770  1.0  -0.2845
  C  C355  1  0.105600  0.072190  0.936820  1.0  -0.0675
  C  C356  1  0.127300  0.066500  0.981710  1.0  -0.0587
  C  C357  1  0.130400  0.100400  0.011670  1.0  -0.1557
  C  C358  1  0.110900  0.142700  0.998890  1.0  -0.0548
  C  C359  1  0.088900  0.149600  0.952730  1.0  -0.0364
  C  C360  1  0.153200  0.095800  0.062800  1.0  0.6811
  C  C361  1  0.022330  0.676750  0.828720  1.0  -0.2753
  C  C362  1  0.982200  0.695270  0.861450  1.0  -0.0743
  C  C363  1  0.953200  0.735050  0.852400  1.0  -0.0445
  C  C364  1  0.964400  0.758910  0.811240  1.0  -0.1425
  C  C365  1  0.002000  0.740490  0.778470  1.0  -0.1339
  C  C366  1  0.030700  0.700710  0.787810  1.0  -0.036
  C  C367  1  0.935100  0.803110  0.802300  1.0  0.7517
  C  C368  1  0.121000  0.616620  0.794710  1.0  -0.3512
  C  C369  1  0.104800  0.598800  0.751000  1.0  -0.0317
  C  C370  1  0.145900  0.596900  0.714340  1.0  -0.082
  C  C371  1  0.203100  0.612800  0.721360  1.0  -0.1521
  C  C372  1  0.219300  0.630700  0.765000  1.0  -0.0397
  C  C373  1  0.178300  0.632600  0.801720  1.0  -0.0326
  C  C374  1  0.246000  0.609800  0.681000  1.0  0.6846
  C  C375  1  0.096050  0.620730  0.900410  1.0  -0.2727
  C  C376  1  0.125000  0.580940  0.912470  1.0  -0.0565
  C  C377  1  0.149500  0.575960  0.957370  1.0  -0.0583
  C  C378  1  0.145100  0.610770  0.990210  1.0  -0.1334
  C  C379  1  0.116100  0.650560  0.978160  1.0  -0.0463
  C  C380  1  0.091600  0.655540  0.933260  1.0  -0.0401
  C  C381  1  0.170900  0.605200  0.038900  1.0  0.7209
  C  C382  1  0.007260  0.574110  0.837270  1.0  -0.1915
  C  C383  1  0.027200  0.529930  0.839740  1.0  -0.0697
  C  C384  1  0.988400  0.494880  0.843390  1.0  -0.0805
  C  C385  1  0.927500  0.501740  0.843400  1.0  -0.1616
  C  C386  1  0.907920  0.545750  0.839110  1.0  -0.0736
  C  C387  1  0.947600  0.581250  0.835540  1.0  -0.0579
  C  C388  1  0.885800  0.463990  0.850100  1.0  0.7163
  C  C389  1  0.629180  0.870750  0.680590  1.0  -0.2393
  C  C390  1  0.685500  0.877670  0.662560  1.0  -0.0115
  C  C391  1  0.735600  0.877590  0.690280  1.0  -0.1166
  C  C392  1  0.729510  0.869740  0.738360  1.0  -0.1295
  C  C393  1  0.674100  0.861230  0.756640  1.0  -0.1389
  C  C394  1  0.626000  0.861570  0.728380  1.0  -0.0682
  C  C395  1  0.784600  0.870340  0.768130  1.0  0.6881
  C  C396  1  0.511870  0.828420  0.647400  1.0  -0.2917
  C  C397  1  0.533070  0.784620  0.648440  1.0  -0.0445
  C  C398  1  0.494600  0.747340  0.648400  1.0  -0.1119
  C  C399  1  0.434920  0.753690  0.647420  1.0  -0.1331
  C  C400  1  0.412780  0.796380  0.648550  1.0  -0.0595
  C  C401  1  0.449900  0.833350  0.648650  1.0  -0.0386
  C  C402  1  0.391800  0.713700  0.644060  1.0  0.694
  C  C403  1  0.522020  0.930780  0.659660  1.0  -0.2964
  C  C404  1  0.536990  0.954610  0.701240  1.0  -0.026
  C  C405  1  0.508440  0.994010  0.713150  1.0  -0.0272
  C  C406  1  0.464630  0.010710  0.684090  1.0  -0.1167
  C  C407  1  0.449140  0.988380  0.643060  1.0  -0.1202
  C  C408  1  0.477840  0.948830  0.631820  1.0  -0.0612
  C  C409  1  0.434690  0.054010  0.697510  1.0  0.7343
  C  C410  1  0.586800  0.885410  0.579230  1.0  -0.2847
  C  C411  1  0.605600  0.927810  0.563180  1.0  -0.0664
  C  C412  1  0.627300  0.933500  0.518290  1.0  -0.0557
  C  C413  1  0.630400  0.899600  0.488330  1.0  -0.1556
  C  C414  1  0.610900  0.857300  0.501110  1.0  -0.0565
  C  C415  1  0.588900  0.850400  0.547270  1.0  -0.035
  C  C416  1  0.653200  0.904200  0.437200  1.0  0.679
  C  C417  1  0.477670  0.676750  0.328720  1.0  -0.2737
  C  C418  1  0.517800  0.695270  0.361450  1.0  -0.0727
  C  C419  1  0.546800  0.735050  0.352400  1.0  -0.0441
  C  C420  1  0.535600  0.758910  0.311240  1.0  -0.1418
  C  C421  1  0.498000  0.740490  0.278470  1.0  -0.1339
  C  C422  1  0.469300  0.700710  0.287810  1.0  -0.037
  C  C423  1  0.564900  0.803110  0.302300  1.0  0.7514
  C  C424  1  0.379000  0.616620  0.294710  1.0  -0.3503
  C  C425  1  0.395200  0.598800  0.251000  1.0  -0.033
  C  C426  1  0.354100  0.596900  0.214340  1.0  -0.0801
  C  C427  1  0.296900  0.612800  0.221360  1.0  -0.1529
  C  C428  1  0.280700  0.630700  0.265000  1.0  -0.0438
  C  C429  1  0.321700  0.632600  0.301720  1.0  -0.0316
  C  C430  1  0.254000  0.609800  0.181000  1.0  0.685
  C  C431  1  0.403950  0.620730  0.400410  1.0  -0.2719
  C  C432  1  0.375000  0.580940  0.412470  1.0  -0.0572
  C  C433  1  0.350500  0.575960  0.457370  1.0  -0.0574
  C  C434  1  0.354900  0.610770  0.490210  1.0  -0.1329
  C  C435  1  0.383900  0.650560  0.478160  1.0  -0.0463
  C  C436  1  0.408400  0.655540  0.433260  1.0  -0.0395
  C  C437  1  0.329100  0.605200  0.538900  1.0  0.7196
  C  C438  1  0.492740  0.574110  0.337270  1.0  -0.191
  C  C439  1  0.472800  0.529930  0.339740  1.0  -0.0702
  C  C440  1  0.511600  0.494880  0.343390  1.0  -0.0775
  C  C441  1  0.572500  0.501740  0.343400  1.0  -0.1609
  C  C442  1  0.592080  0.545750  0.339110  1.0  -0.0743
  C  C443  1  0.552400  0.581250  0.335540  1.0  -0.0574
  C  C444  1  0.614200  0.463990  0.350100  1.0  0.7162
  C  C445  1  0.870820  0.870750  0.180590  1.0  -0.2405
  C  C446  1  0.814500  0.877670  0.162560  1.0  -0.0114
  C  C447  1  0.764400  0.877590  0.190280  1.0  -0.1175
  C  C448  1  0.770490  0.869740  0.238360  1.0  -0.1297
  C  C449  1  0.825900  0.861230  0.256640  1.0  -0.1399
  C  C450  1  0.874000  0.861570  0.228380  1.0  -0.0693
  C  C451  1  0.715400  0.870340  0.268130  1.0  0.6876
  C  C452  1  0.988130  0.828420  0.147400  1.0  -0.2923
  C  C453  1  0.966930  0.784620  0.148440  1.0  -0.0441
  C  C454  1  0.005400  0.747340  0.148400  1.0  -0.1106
  C  C455  1  0.065080  0.753690  0.147420  1.0  -0.1319
  C  C456  1  0.087220  0.796380  0.148550  1.0  -0.0594
  C  C457  1  0.050100  0.833350  0.148650  1.0  -0.0392
  C  C458  1  0.108200  0.713700  0.144060  1.0  0.6936
  C  C459  1  0.977980  0.930780  0.159660  1.0  -0.2981
  C  C460  1  0.963010  0.954610  0.201240  1.0  -0.0262
  C  C461  1  0.991560  0.994010  0.213150  1.0  -0.027
  C  C462  1  0.035370  0.010710  0.184090  1.0  -0.1153
  C  C463  1  0.050860  0.988380  0.143060  1.0  -0.1207
  C  C464  1  0.022160  0.948830  0.131820  1.0  -0.0615
  C  C465  1  0.065310  0.054010  0.197510  1.0  0.7339
  C  C466  1  0.913200  0.885410  0.079230  1.0  -0.2843
  C  C467  1  0.894400  0.927810  0.063180  1.0  -0.0663
  C  C468  1  0.872700  0.933500  0.018290  1.0  -0.0557
  C  C469  1  0.869600  0.899600  0.988330  1.0  -0.1565
  C  C470  1  0.889100  0.857300  0.001110  1.0  -0.0564
  C  C471  1  0.911100  0.850400  0.047270  1.0  -0.0348
  C  C472  1  0.846800  0.904200  0.937200  1.0  0.6779
  C  C473  1  0.977670  0.323250  0.171280  1.0  -0.2735
  C  C474  1  0.017800  0.304730  0.138550  1.0  -0.0729
  C  C475  1  0.046800  0.264950  0.147600  1.0  -0.0444
  C  C476  1  0.035600  0.241090  0.188760  1.0  -0.1435
  C  C477  1  0.998000  0.259510  0.221530  1.0  -0.1326
  C  C478  1  0.969300  0.299290  0.212190  1.0  -0.0361
  C  C479  1  0.064900  0.196890  0.197700  1.0  0.7519
  C  C480  1  0.879000  0.383380  0.205290  1.0  -0.3522
  C  C481  1  0.895200  0.401200  0.249000  1.0  -0.0335
  C  C482  1  0.854100  0.403100  0.285660  1.0  -0.0784
  C  C483  1  0.796900  0.387200  0.278640  1.0  -0.1522
  C  C484  1  0.780700  0.369300  0.235000  1.0  -0.0419
  C  C485  1  0.821700  0.367400  0.198280  1.0  -0.0312
  C  C486  1  0.754000  0.390200  0.319000  1.0  0.6843
  C  C487  1  0.903950  0.379270  0.099590  1.0  -0.2731
  C  C488  1  0.875000  0.419060  0.087530  1.0  -0.0566
  C  C489  1  0.850500  0.424040  0.042630  1.0  -0.0573
  C  C490  1  0.854900  0.389230  0.009790  1.0  -0.1334
  C  C491  1  0.883900  0.349440  0.021840  1.0  -0.0468
  C  C492  1  0.908400  0.344460  0.066740  1.0  -0.038
  C  C493  1  0.829100  0.394800  0.961100  1.0  0.7197
  C  C494  1  0.992740  0.425890  0.162730  1.0  -0.1905
  C  C495  1  0.972800  0.470070  0.160260  1.0  -0.07
  C  C496  1  0.011600  0.505120  0.156610  1.0  -0.077
  C  C497  1  0.072500  0.498260  0.156600  1.0  -0.1603
  C  C498  1  0.092080  0.454250  0.160890  1.0  -0.0734
  C  C499  1  0.052400  0.418750  0.164460  1.0  -0.0559
  C  C500  1  0.114200  0.536010  0.149900  1.0  0.716
  C  C501  1  0.370820  0.129250  0.319410  1.0  -0.2396
  C  C502  1  0.314500  0.122330  0.337440  1.0  -0.0123
  C  C503  1  0.264400  0.122410  0.309720  1.0  -0.117
  C  C504  1  0.270490  0.130260  0.261640  1.0  -0.1306
  C  C505  1  0.325900  0.138770  0.243360  1.0  -0.14
  C  C506  1  0.374000  0.138430  0.271620  1.0  -0.0691
  C  C507  1  0.215400  0.129660  0.231870  1.0  0.687
  C  C508  1  0.488130  0.171580  0.352600  1.0  -0.2924
  C  C509  1  0.466930  0.215380  0.351560  1.0  -0.0453
  C  C510  1  0.505400  0.252660  0.351600  1.0  -0.1107
  C  C511  1  0.565080  0.246310  0.352580  1.0  -0.1333
  C  C512  1  0.587220  0.203620  0.351450  1.0  -0.0595
  C  C513  1  0.550100  0.166650  0.351350  1.0  -0.0416
  C  C514  1  0.608200  0.286300  0.355940  1.0  0.694
  C  C515  1  0.477980  0.069220  0.340340  1.0  -0.2968
  C  C516  1  0.463010  0.045390  0.298760  1.0  -0.0245
  C  C517  1  0.491560  0.005990  0.286850  1.0  -0.0272
  C  C518  1  0.535370  0.989290  0.315910  1.0  -0.1133
  C  C519  1  0.550860  0.011620  0.356940  1.0  -0.1197
  C  C520  1  0.522160  0.051170  0.368180  1.0  -0.061
  C  C521  1  0.565310  0.945990  0.302490  1.0  0.7333
  C  C522  1  0.413200  0.114590  0.420770  1.0  -0.2846
  C  C523  1  0.394400  0.072190  0.436820  1.0  -0.0668
  C  C524  1  0.372700  0.066500  0.481710  1.0  -0.0575
  C  C525  1  0.369600  0.100400  0.511670  1.0  -0.1565
  C  C526  1  0.389100  0.142700  0.498890  1.0  -0.0553
  C  C527  1  0.411100  0.149600  0.452730  1.0  -0.0355
  C  C528  1  0.346800  0.095800  0.562800  1.0  0.6787
  C  C529  1  0.977670  0.176750  0.671280  1.0  -0.2738
  C  C530  1  0.017800  0.195270  0.638550  1.0  -0.0734
  C  C531  1  0.046800  0.235050  0.647600  1.0  -0.0442
  C  C532  1  0.035600  0.258910  0.688760  1.0  -0.142
  C  C533  1  0.998000  0.240490  0.721530  1.0  -0.1336
  C  C534  1  0.969300  0.200710  0.712190  1.0  -0.0367
  C  C535  1  0.064900  0.303110  0.697700  1.0  0.7516
  C  C536  1  0.879000  0.116620  0.705290  1.0  -0.3524
  C  C537  1  0.895200  0.098800  0.749000  1.0  -0.033
  C  C538  1  0.854100  0.096900  0.785660  1.0  -0.0791
  C  C539  1  0.796900  0.112800  0.778640  1.0  -0.1521
  C  C540  1  0.780700  0.130700  0.735000  1.0  -0.0429
  C  C541  1  0.821700  0.132600  0.698280  1.0  -0.0307
  C  C542  1  0.754000  0.109800  0.819000  1.0  0.6843
  C  C543  1  0.903950  0.120730  0.599590  1.0  -0.2728
  C  C544  1  0.875000  0.080940  0.587530  1.0  -0.057
  C  C545  1  0.850500  0.075960  0.542630  1.0  -0.0575
  C  C546  1  0.854900  0.110770  0.509790  1.0  -0.1333
  C  C547  1  0.883900  0.150560  0.521840  1.0  -0.0475
  C  C548  1  0.908400  0.155540  0.566740  1.0  -0.0393
  C  C549  1  0.829100  0.105200  0.461100  1.0  0.7195
  C  C550  1  0.992740  0.074110  0.662730  1.0  -0.1896
  C  C551  1  0.972800  0.029930  0.660260  1.0  -0.0691
  C  C552  1  0.011600  0.994880  0.656610  1.0  -0.0776
  C  C553  1  0.072500  0.001740  0.656600  1.0  -0.1611
  C  C554  1  0.092080  0.045750  0.660890  1.0  -0.0736
  C  C555  1  0.052400  0.081250  0.664460  1.0  -0.0559
  C  C556  1  0.114200  0.963990  0.649900  1.0  0.7162
  C  C557  1  0.370820  0.370750  0.819410  1.0  -0.2391
  C  C558  1  0.314500  0.377670  0.837440  1.0  -0.0124
  C  C559  1  0.264400  0.377590  0.809720  1.0  -0.1174
  C  C560  1  0.270490  0.369740  0.761640  1.0  -0.1307
  C  C561  1  0.325900  0.361230  0.743360  1.0  -0.1405
  C  C562  1  0.374000  0.361570  0.771620  1.0  -0.0692
  C  C563  1  0.215400  0.370340  0.731870  1.0  0.6867
  C  C564  1  0.488130  0.328420  0.852600  1.0  -0.2916
  C  C565  1  0.466930  0.284620  0.851560  1.0  -0.0425
  C  C566  1  0.505400  0.247340  0.851600  1.0  -0.1095
  C  C567  1  0.565080  0.253690  0.852580  1.0  -0.1318
  C  C568  1  0.587220  0.296380  0.851450  1.0  -0.0643
  C  C569  1  0.550100  0.333333  0.851350  1.0  -0.0437
  C  C570  1  0.608200  0.213700  0.855940  1.0  0.694
  C  C571  1  0.477980  0.430780  0.840340  1.0  -0.2978
  C  C572  1  0.463010  0.454610  0.798760  1.0  -0.0264
  C  C573  1  0.491560  0.494010  0.786850  1.0  -0.0269
  C  C574  1  0.535370  0.510710  0.815910  1.0  -0.115
  C  C575  1  0.550860  0.488380  0.856940  1.0  -0.1193
  C  C576  1  0.522160  0.448830  0.868180  1.0  -0.0607
  C  C577  1  0.565310  0.554010  0.802490  1.0  0.734
  C  C578  1  0.413200  0.385410  0.920770  1.0  -0.2846
  C  C579  1  0.394400  0.427810  0.936820  1.0  -0.0668
  C  C580  1  0.372700  0.433500  0.981710  1.0  -0.0562
  C  C581  1  0.369600  0.399600  0.011670  1.0  -0.1566
  C  C582  1  0.389100  0.357300  0.998890  1.0  -0.0561
  C  C583  1  0.411100  0.350400  0.952730  1.0  -0.0354
  C  C584  1  0.346800  0.404200  0.062800  1.0  0.6787
  C  C585  1  0.477670  0.823250  0.828720  1.0  -0.2731
  C  C586  1  0.517800  0.804730  0.861450  1.0  -0.0729
  C  C587  1  0.546800  0.764950  0.852400  1.0  -0.044
  C  C588  1  0.535600  0.741090  0.811240  1.0  -0.1426
  C  C589  1  0.498000  0.759510  0.778470  1.0  -0.1338
  C  C590  1  0.469300  0.799290  0.787810  1.0  -0.036
  C  C591  1  0.564900  0.696890  0.802300  1.0  0.7518
  C  C592  1  0.379000  0.883380  0.794710  1.0  -0.3503
  C  C593  1  0.395200  0.901200  0.751000  1.0  -0.0334
  C  C594  1  0.354100  0.903100  0.714340  1.0  -0.0795
  C  C595  1  0.296900  0.887200  0.721360  1.0  -0.1531
  C  C596  1  0.280700  0.869300  0.765000  1.0  -0.0426
  C  C597  1  0.321700  0.867400  0.801720  1.0  -0.031
  C  C598  1  0.254000  0.890200  0.681000  1.0  0.685
  C  C599  1  0.403950  0.879270  0.900410  1.0  -0.272
  C  C600  1  0.375000  0.919060  0.912470  1.0  -0.057
  C  C601  1  0.350500  0.924040  0.957370  1.0  -0.0569
  C  C602  1  0.354900  0.889230  0.990210  1.0  -0.1329
  C  C603  1  0.383900  0.849440  0.978160  1.0  -0.0465
  C  C604  1  0.408400  0.844460  0.933260  1.0  -0.0385
  C  C605  1  0.329100  0.894800  0.038900  1.0  0.7195
  C  C606  1  0.492740  0.925890  0.837270  1.0  -0.1909
  C  C607  1  0.472800  0.970070  0.839740  1.0  -0.0714
  C  C608  1  0.511600  0.005120  0.843390  1.0  -0.0775
  C  C609  1  0.572500  0.998260  0.843400  1.0  -0.1612
  C  C610  1  0.592080  0.954250  0.839110  1.0  -0.0745
  C  C611  1  0.552400  0.918750  0.835540  1.0  -0.0576
  C  C612  1  0.614200  0.036010  0.850100  1.0  0.7162
  C  C613  1  0.870820  0.629250  0.680590  1.0  -0.2406
  C  C614  1  0.814500  0.622330  0.662560  1.0  -0.0116
  C  C615  1  0.764400  0.622410  0.690280  1.0  -0.1173
  C  C616  1  0.770490  0.630260  0.738360  1.0  -0.1296
  C  C617  1  0.825900  0.638770  0.756640  1.0  -0.1405
  C  C618  1  0.874000  0.638430  0.728380  1.0  -0.0697
  C  C619  1  0.715400  0.629660  0.768130  1.0  0.6877
  C  C620  1  0.988130  0.671580  0.647400  1.0  -0.2929
  C  C621  1  0.966930  0.715380  0.648440  1.0  -0.0455
  C  C622  1  0.005400  0.752660  0.648400  1.0  -0.1105
  C  C623  1  0.065080  0.746310  0.647420  1.0  -0.1326
  C  C624  1  0.087220  0.703620  0.648550  1.0  -0.0648
  C  C625  1  0.050100  0.666667  0.648650  1.0  -0.0425
  C  C626  1  0.108200  0.786300  0.644060  1.0  0.6936
  C  C627  1  0.977980  0.569220  0.659660  1.0  -0.2968
  C  C628  1  0.963010  0.545390  0.701240  1.0  -0.0246
  C  C629  1  0.991560  0.505990  0.713150  1.0  -0.0267
  C  C630  1  0.035370  0.489290  0.684090  1.0  -0.114
  C  C631  1  0.050860  0.511620  0.643060  1.0  -0.1215
  C  C632  1  0.022160  0.551170  0.631820  1.0  -0.0616
  C  C633  1  0.065310  0.445990  0.697510  1.0  0.7334
  C  C634  1  0.913200  0.614590  0.579230  1.0  -0.2839
  C  C635  1  0.894400  0.572190  0.563180  1.0  -0.0661
  C  C636  1  0.872700  0.566500  0.518290  1.0  -0.0575
  C  C637  1  0.869600  0.600400  0.488330  1.0  -0.1566
  C  C638  1  0.889100  0.642700  0.501110  1.0  -0.0563
  C  C639  1  0.911100  0.649600  0.547270  1.0  -0.0346
  C  C640  1  0.846800  0.595800  0.437200  1.0  0.6778
  C  C641  1  0.022330  0.823250  0.328720  1.0  -0.274
  C  C642  1  0.982200  0.804730  0.361450  1.0  -0.0745
  C  C643  1  0.953200  0.764950  0.352400  1.0  -0.0435
  C  C644  1  0.964400  0.741090  0.311240  1.0  -0.1429
  C  C645  1  0.002000  0.759510  0.278470  1.0  -0.1344
  C  C646  1  0.030700  0.799290  0.287810  1.0  -0.0364
  C  C647  1  0.935100  0.696890  0.302300  1.0  0.7519
  C  C648  1  0.121000  0.883380  0.294710  1.0  -0.3511
  C  C649  1  0.104800  0.901200  0.251000  1.0  -0.0324
  C  C650  1  0.145900  0.903100  0.214340  1.0  -0.0812
  C  C651  1  0.203100  0.887200  0.221360  1.0  -0.1523
  C  C652  1  0.219300  0.869300  0.265000  1.0  -0.0402
  C  C653  1  0.178300  0.867400  0.301720  1.0  -0.0316
  C  C654  1  0.246000  0.890200  0.181000  1.0  0.6846
  C  C655  1  0.096050  0.879270  0.400410  1.0  -0.2728
  C  C656  1  0.125000  0.919060  0.412470  1.0  -0.0565
  C  C657  1  0.149500  0.924040  0.457370  1.0  -0.0562
  C  C658  1  0.145100  0.889230  0.490210  1.0  -0.1333
  C  C659  1  0.116100  0.849440  0.478160  1.0  -0.0463
  C  C660  1  0.091600  0.844460  0.433260  1.0  -0.0388
  C  C661  1  0.170900  0.894800  0.538900  1.0  0.7208
  C  C662  1  0.007260  0.925890  0.337270  1.0  -0.1911
  C  C663  1  0.027200  0.970070  0.339740  1.0  -0.0705
  C  C664  1  0.988400  0.005120  0.343390  1.0  -0.0776
  C  C665  1  0.927500  0.998260  0.343400  1.0  -0.1612
  C  C666  1  0.907920  0.954250  0.339110  1.0  -0.0739
  C  C667  1  0.947600  0.918750  0.335540  1.0  -0.0575
  C  C668  1  0.885800  0.036010  0.350100  1.0  0.7156
  C  C669  1  0.629180  0.629250  0.180590  1.0  -0.2391
  C  C670  1  0.685500  0.622330  0.162560  1.0  -0.0115
  C  C671  1  0.735600  0.622410  0.190280  1.0  -0.1166
  C  C672  1  0.729510  0.630260  0.238360  1.0  -0.1296
  C  C673  1  0.674100  0.638770  0.256640  1.0  -0.1398
  C  C674  1  0.626000  0.638430  0.228380  1.0  -0.0686
  C  C675  1  0.784600  0.629660  0.268130  1.0  0.6883
  C  C676  1  0.511870  0.671580  0.147400  1.0  -0.2928
  C  C677  1  0.533070  0.715380  0.148440  1.0  -0.0449
  C  C678  1  0.494600  0.752660  0.148400  1.0  -0.1108
  C  C679  1  0.434920  0.746310  0.147420  1.0  -0.1322
  C  C680  1  0.412780  0.703620  0.148550  1.0  -0.065
  C  C681  1  0.449900  0.666667  0.148650  1.0  -0.0419
  C  C682  1  0.391800  0.786300  0.144060  1.0  0.6935
  C  C683  1  0.522020  0.569220  0.159660  1.0  -0.2945
  C  C684  1  0.536990  0.545390  0.201240  1.0  -0.0261
  C  C685  1  0.508440  0.505990  0.213150  1.0  -0.0276
  C  C686  1  0.464630  0.489290  0.184090  1.0  -0.1152
  C  C687  1  0.449140  0.511620  0.143060  1.0  -0.1202
  C  C688  1  0.477840  0.551170  0.131820  1.0  -0.0612
  C  C689  1  0.434690  0.445990  0.197510  1.0  0.7337
  C  C690  1  0.586800  0.614590  0.079230  1.0  -0.2844
  C  C691  1  0.605600  0.572190  0.063180  1.0  -0.0666
  C  C692  1  0.627300  0.566500  0.018290  1.0  -0.0586
  C  C693  1  0.630400  0.600400  0.988330  1.0  -0.1557
  C  C694  1  0.610900  0.642700  0.001110  1.0  -0.0558
  C  C695  1  0.588900  0.649600  0.047270  1.0  -0.0353
  C  C696  1  0.653200  0.595800  0.937200  1.0  0.6789
  C  C697  1  0.522330  0.176750  0.171280  1.0  -0.2753
  C  C698  1  0.482200  0.195270  0.138550  1.0  -0.0729
  C  C699  1  0.453200  0.235050  0.147600  1.0  -0.0427
  C  C700  1  0.464400  0.258910  0.188760  1.0  -0.1427
  C  C701  1  0.502000  0.240490  0.221530  1.0  -0.1335
  C  C702  1  0.530700  0.200710  0.212190  1.0  -0.0364
  C  C703  1  0.435100  0.303110  0.197700  1.0  0.7518
  C  C704  1  0.621000  0.116620  0.205290  1.0  -0.3517
  C  C705  1  0.604800  0.098800  0.249000  1.0  -0.0313
  C  C706  1  0.645900  0.096900  0.285660  1.0  -0.0814
  C  C707  1  0.703100  0.112800  0.278640  1.0  -0.153
  C  C708  1  0.719300  0.130700  0.235000  1.0  -0.0393
  C  C709  1  0.678300  0.132600  0.198280  1.0  -0.0336
  C  C710  1  0.746000  0.109800  0.319000  1.0  0.6846
  C  C711  1  0.596050  0.120730  0.099590  1.0  -0.2739
  C  C712  1  0.625000  0.080940  0.087530  1.0  -0.0569
  C  C713  1  0.649500  0.075960  0.042630  1.0  -0.0583
  C  C714  1  0.645100  0.110770  0.009790  1.0  -0.133
  C  C715  1  0.616100  0.150560  0.021840  1.0  -0.0474
  C  C716  1  0.591600  0.155540  0.066740  1.0  -0.0393
  C  C717  1  0.670900  0.105200  0.961100  1.0  0.7204
  C  C718  1  0.507260  0.074110  0.162730  1.0  -0.1899
  C  C719  1  0.527200  0.029930  0.160260  1.0  -0.069
  C  C720  1  0.488400  0.994880  0.156610  1.0  -0.081
  C  C721  1  0.427500  0.001740  0.156600  1.0  -0.1628
  C  C722  1  0.407920  0.045750  0.160890  1.0  -0.0739
  C  C723  1  0.447600  0.081250  0.164460  1.0  -0.0558
  C  C724  1  0.385800  0.963990  0.149900  1.0  0.7163
  C  C725  1  0.129180  0.370750  0.319410  1.0  -0.2389
  C  C726  1  0.185500  0.377670  0.337440  1.0  -0.0126
  C  C727  1  0.235600  0.377590  0.309720  1.0  -0.1156
  C  C728  1  0.229510  0.369740  0.261640  1.0  -0.1296
  C  C729  1  0.174100  0.361230  0.243360  1.0  -0.1404
  C  C730  1  0.126000  0.361570  0.271620  1.0  -0.0684
  C  C731  1  0.284600  0.370340  0.231870  1.0  0.6871
  C  C732  1  0.011870  0.328420  0.352600  1.0  -0.2912
  C  C733  1  0.033070  0.284620  0.351560  1.0  -0.0439
  C  C734  1  0.994600  0.247340  0.351600  1.0  -0.1101
  C  C735  1  0.934920  0.253690  0.352580  1.0  -0.1324
  C  C736  1  0.912780  0.296380  0.351450  1.0  -0.0635
  C  C737  1  0.949900  0.333333  0.351350  1.0  -0.0446
  C  C738  1  0.891800  0.213700  0.355940  1.0  0.6942
  C  C739  1  0.022020  0.430780  0.340340  1.0  -0.2964
  C  C740  1  0.036990  0.454610  0.298760  1.0  -0.0261
  C  C741  1  0.008440  0.494010  0.286850  1.0  -0.0268
  C  C742  1  0.964630  0.510710  0.315910  1.0  -0.1164
  C  C743  1  0.949140  0.488380  0.356940  1.0  -0.1199
  C  C744  1  0.977840  0.448830  0.368180  1.0  -0.0611
  C  C745  1  0.934690  0.554010  0.302490  1.0  0.7344
  C  C746  1  0.086800  0.385410  0.420770  1.0  -0.2845
  C  C747  1  0.105600  0.427810  0.436820  1.0  -0.0671
  C  C748  1  0.127300  0.433500  0.481710  1.0  -0.056
  C  C749  1  0.130400  0.399600  0.511670  1.0  -0.1557
  C  C750  1  0.110900  0.357300  0.498890  1.0  -0.056
  C  C751  1  0.088900  0.350400  0.452730  1.0  -0.0356
  C  C752  1  0.153200  0.404200  0.562800  1.0  0.681
  O  O753  1  0.403960  0.181420  0.665540  1.0  -0.6162
  O  O754  1  0.443820  0.178720  0.736950  1.0  -0.6465
  O  O755  1  0.729700  0.410000  0.856480  1.0  -0.6384
  O  O756  1  0.794600  0.370300  0.813000  1.0  -0.5688
  O  O757  1  0.691400  0.433600  0.451800  1.0  -0.6369
  O  O758  1  0.658700  0.365200  0.430700  1.0  -0.5909
  O  O759  1  0.405750  0.575590  0.649540  1.0  -0.5889
  O  O760  1  0.332220  0.527570  0.645870  1.0  -0.6341
  O  O761  1  0.332700  0.125980  0.751540  1.0  -0.6769
  O  O762  1  0.278090  0.131000  0.687030  1.0  -0.5873
  O  O763  1  0.914990  0.325140  0.849320  1.0  -0.591
  O  O764  1  0.840030  0.280890  0.865090  1.0  -0.4464
  O  O765  1  0.943190  0.930370  0.761990  1.0  -0.6191
  O  O766  1  0.901430  0.929130  0.833990  1.0  -0.6165
  O  O767  1  0.168400  0.054800  0.073900  1.0  -0.4699
  O  O768  1  0.149800  0.128930  0.089260  1.0  -0.5804
  O  O769  1  0.903960  0.818580  0.834460  1.0  -0.618
  O  O770  1  0.943820  0.821280  0.763050  1.0  -0.6452
  O  O771  1  0.229700  0.590000  0.643520  1.0  -0.6371
  O  O772  1  0.294600  0.629700  0.687000  1.0  -0.5685
  O  O773  1  0.191400  0.566400  0.048200  1.0  -0.6371
  O  O774  1  0.158700  0.634800  0.069300  1.0  -0.5909
  O  O775  1  0.905750  0.424410  0.850460  1.0  -0.5892
  O  O776  1  0.832220  0.472430  0.854130  1.0  -0.6348
  O  O777  1  0.832700  0.874020  0.748460  1.0  -0.6769
  O  O778  1  0.778090  0.869000  0.812970  1.0  -0.5882
  O  O779  1  0.414990  0.674860  0.650680  1.0  -0.5894
  O  O780  1  0.340030  0.719110  0.634910  1.0  -0.4473
  O  O781  1  0.443190  0.069630  0.738010  1.0  -0.6216
  O  O782  1  0.401430  0.070870  0.666010  1.0  -0.6158
  O  O783  1  0.668400  0.945200  0.426100  1.0  -0.4706
  O  O784  1  0.649800  0.871070  0.410740  1.0  -0.581
  O  O785  1  0.596040  0.818580  0.334460  1.0  -0.6185
  O  O786  1  0.556180  0.821280  0.263050  1.0  -0.6459
  O  O787  1  0.270300  0.590000  0.143520  1.0  -0.6376
  O  O788  1  0.205400  0.629700  0.187000  1.0  -0.5677
  O  O789  1  0.308600  0.566400  0.548200  1.0  -0.6372
  O  O790  1  0.341300  0.634800  0.569300  1.0  -0.5919
  O  O791  1  0.594250  0.424410  0.350460  1.0  -0.5888
  O  O792  1  0.667780  0.472430  0.354130  1.0  -0.6351
  O  O793  1  0.667300  0.874020  0.248460  1.0  -0.6772
  O  O794  1  0.721910  0.869000  0.312970  1.0  -0.5867
  O  O795  1  0.085010  0.674860  0.150680  1.0  -0.5894
  O  O796  1  0.159970  0.719110  0.134910  1.0  -0.4447
  O  O797  1  0.056810  0.069630  0.238010  1.0  -0.6215
  O  O798  1  0.098570  0.070870  0.166010  1.0  -0.6155
  O  O799  1  0.831600  0.945200  0.926100  1.0  -0.473
  O  O800  1  0.850200  0.871070  0.910740  1.0  -0.5818
  O  O801  1  0.096040  0.181420  0.165540  1.0  -0.6171
  O  O802  1  0.056180  0.178720  0.236950  1.0  -0.6468
  O  O803  1  0.770300  0.410000  0.356480  1.0  -0.6385
  O  O804  1  0.705400  0.370300  0.313000  1.0  -0.5681
  O  O805  1  0.808600  0.433600  0.951800  1.0  -0.6371
  O  O806  1  0.841300  0.365200  0.930700  1.0  -0.5916
  O  O807  1  0.094250  0.575590  0.149540  1.0  -0.5887
  O  O808  1  0.167780  0.527570  0.145870  1.0  -0.6346
  O  O809  1  0.167300  0.125980  0.251540  1.0  -0.6771
  O  O810  1  0.221910  0.131000  0.187030  1.0  -0.5877
  O  O811  1  0.585010  0.325140  0.349320  1.0  -0.5912
  O  O812  1  0.659970  0.280890  0.365090  1.0  -0.4443
  O  O813  1  0.556810  0.930370  0.261990  1.0  -0.6197
  O  O814  1  0.598570  0.929130  0.333990  1.0  -0.6157
  O  O815  1  0.331600  0.054800  0.573900  1.0  -0.4703
  O  O816  1  0.350200  0.128930  0.589260  1.0  -0.5816
  O  O817  1  0.096040  0.318580  0.665540  1.0  -0.6171
  O  O818  1  0.056180  0.321280  0.736950  1.0  -0.6465
  O  O819  1  0.770300  0.090000  0.856480  1.0  -0.6385
  O  O820  1  0.705400  0.129700  0.813000  1.0  -0.5674
  O  O821  1  0.808600  0.066400  0.451800  1.0  -0.6373
  O  O822  1  0.841300  0.134800  0.430700  1.0  -0.5919
  O  O823  1  0.094250  0.924410  0.649540  1.0  -0.5887
  O  O824  1  0.167780  0.972430  0.645870  1.0  -0.6348
  O  O825  1  0.167300  0.374020  0.751540  1.0  -0.6772
  O  O826  1  0.221910  0.369000  0.687030  1.0  -0.5882
  O  O827  1  0.585010  0.174860  0.849320  1.0  -0.5901
  O  O828  1  0.659970  0.219110  0.865090  1.0  -0.4444
  O  O829  1  0.556810  0.569630  0.761990  1.0  -0.619
  O  O830  1  0.598570  0.570870  0.833990  1.0  -0.6165
  O  O831  1  0.331600  0.445200  0.073900  1.0  -0.4726
  O  O832  1  0.350200  0.371070  0.089260  1.0  -0.5821
  O  O833  1  0.596040  0.681420  0.834460  1.0  -0.6187
  O  O834  1  0.556180  0.678720  0.763050  1.0  -0.6461
  O  O835  1  0.270300  0.910000  0.643520  1.0  -0.6379
  O  O836  1  0.205400  0.870300  0.687000  1.0  -0.5682
  O  O837  1  0.308600  0.933600  0.048200  1.0  -0.6371
  O  O838  1  0.341300  0.865200  0.069300  1.0  -0.5912
  O  O839  1  0.594250  0.075590  0.850460  1.0  -0.5887
  O  O840  1  0.667780  0.027570  0.854130  1.0  -0.6349
  O  O841  1  0.667300  0.625980  0.748460  1.0  -0.6774
  O  O842  1  0.721910  0.631000  0.812970  1.0  -0.5862
  O  O843  1  0.085010  0.825140  0.650680  1.0  -0.5911
  O  O844  1  0.159970  0.780890  0.634910  1.0  -0.445
  O  O845  1  0.056810  0.430370  0.738010  1.0  -0.6216
  O  O846  1  0.098570  0.429130  0.666010  1.0  -0.6154
  O  O847  1  0.831600  0.554800  0.426100  1.0  -0.4702
  O  O848  1  0.850200  0.628930  0.410740  1.0  -0.5814
  O  O849  1  0.903960  0.681420  0.334460  1.0  -0.6178
  O  O850  1  0.943820  0.678720  0.263050  1.0  -0.6451
  O  O851  1  0.229700  0.910000  0.143520  1.0  -0.6372
  O  O852  1  0.294600  0.870300  0.187000  1.0  -0.5689
  O  O853  1  0.191400  0.933600  0.548200  1.0  -0.6371
  O  O854  1  0.158700  0.865200  0.569300  1.0  -0.5912
  O  O855  1  0.905750  0.075590  0.350460  1.0  -0.589
  O  O856  1  0.832220  0.027570  0.354130  1.0  -0.6346
  O  O857  1  0.832700  0.625980  0.248460  1.0  -0.6768
  O  O858  1  0.778090  0.631000  0.312970  1.0  -0.5876
  O  O859  1  0.414990  0.825140  0.150680  1.0  -0.5907
  O  O860  1  0.340030  0.780890  0.134910  1.0  -0.4472
  O  O861  1  0.443190  0.430370  0.238010  1.0  -0.6214
  O  O862  1  0.401430  0.429130  0.166010  1.0  -0.6159
  O  O863  1  0.668400  0.554800  0.926100  1.0  -0.4693
  O  O864  1  0.649800  0.628930  0.910740  1.0  -0.5803
  O  O865  1  0.403960  0.318580  0.165540  1.0  -0.6164
  O  O866  1  0.443820  0.321280  0.236950  1.0  -0.6464
  O  O867  1  0.729700  0.090000  0.356480  1.0  -0.6383
  O  O868  1  0.794600  0.129700  0.313000  1.0  -0.5683
  O  O869  1  0.691400  0.066400  0.951800  1.0  -0.6371
  O  O870  1  0.658700  0.134800  0.930700  1.0  -0.5913
  O  O871  1  0.405750  0.924410  0.149540  1.0  -0.589
  O  O872  1  0.332220  0.972430  0.145870  1.0  -0.6345
  O  O873  1  0.332700  0.374020  0.251540  1.0  -0.6769
  O  O874  1  0.278090  0.369000  0.187030  1.0  -0.5878
  O  O875  1  0.914990  0.174860  0.349320  1.0  -0.5898
  O  O876  1  0.840030  0.219110  0.365090  1.0  -0.4469
  O  O877  1  0.943190  0.569630  0.261990  1.0  -0.6187
  O  O878  1  0.901430  0.570870  0.333990  1.0  -0.6171
  O  O879  1  0.168400  0.445200  0.573900  1.0  -0.4706
  O  O880  1  0.149800  0.371070  0.589260  1.0  -0.5813
