# generated using pymatgen
data_Zr3H33(C39O8)2
_symmetry_space_group_name_H-M   'P 1'
_cell_length_a   38.12770000
_cell_length_b   38.12770000
_cell_length_c   38.12770000
_cell_angle_alpha   109.47100000
_cell_angle_beta   109.47100000
_cell_angle_gamma   109.47100000
_symmetry_Int_Tables_number   1
_chemical_formula_structural   Zr3H33(C39O8)2
_chemical_formula_sum   'Zr24 H264 C624 O128'
_cell_volume   42668.11730766
_cell_formula_units_Z   8
loop_
 _symmetry_equiv_pos_site_id
 _symmetry_equiv_pos_as_xyz
  1  'x, y, z'
loop_
 _atom_site_type_symbol
 _atom_site_label
 _atom_site_symmetry_multiplicity
 _atom_site_fract_x
 _atom_site_fract_y
 _atom_site_fract_z
 _atom_site_occupancy
 _atom_site_charge
  Zr  Zr1  1  0.994930  0.941260  0.441210  1.0  2.02
  Zr  Zr2  1  0.441210  0.994930  0.941260  1.0  2.0226
  Zr  Zr3  1  0.053670  0.499950  0.058740  1.0  2.0255
  Zr  Zr4  1  0.499950  0.446280  0.441210  1.0  2.0248
  Zr  Zr5  1  0.500050  0.553720  0.558790  1.0  2.0196
  Zr  Zr6  1  0.946330  0.005070  0.446280  1.0  2.022
  Zr  Zr7  1  0.441210  0.499950  0.446280  1.0  2.0268
  Zr  Zr8  1  0.058740  0.053670  0.499950  1.0  2.0172
  Zr  Zr9  1  0.946330  0.500050  0.941260  1.0  2.0254
  Zr  Zr10  1  0.553720  0.558790  0.500050  1.0  2.0199
  Zr  Zr11  1  0.558790  0.500050  0.553720  1.0  2.0254
  Zr  Zr12  1  0.941260  0.441210  0.994930  1.0  2.0249
  Zr  Zr13  1  0.500050  0.941260  0.946330  1.0  2.0228
  Zr  Zr14  1  0.994930  0.553720  0.053670  1.0  2.0206
  Zr  Zr15  1  0.446280  0.441210  0.499950  1.0  2.025
  Zr  Zr16  1  0.058740  0.558790  0.005070  1.0  2.019
  Zr  Zr17  1  0.558790  0.005070  0.058740  1.0  2.0254
  Zr  Zr18  1  0.053670  0.994930  0.553720  1.0  2.0228
  Zr  Zr19  1  0.499950  0.058740  0.053670  1.0  2.0174
  Zr  Zr20  1  0.446280  0.946330  0.005070  1.0  2.0239
  Zr  Zr21  1  0.553720  0.053670  0.994930  1.0  2.0199
  Zr  Zr22  1  0.941260  0.946330  0.500050  1.0  2.0231
  Zr  Zr23  1  0.005070  0.446280  0.946330  1.0  2.0223
  Zr  Zr24  1  0.005070  0.058740  0.558790  1.0  2.017
  H  H25  1  0.919500  0.830100  0.597600  1.0  0.1209
  H  H26  1  0.166600  0.776600  0.117800  1.0  0.1205
  H  H27  1  0.824200  0.724200  0.049000  1.0  0.0999
  H  H28  1  0.453700  0.324800  0.604100  1.0  0.0966
  H  H29  1  0.080500  0.678100  0.910600  1.0  0.1222
  H  H30  1  0.175800  0.275800  0.951000  1.0  0.0995
  H  H31  1  0.202400  0.638200  0.083200  1.0  0.1108
  H  H32  1  0.435800  0.555000  0.638200  1.0  0.1106
  H  H33  1  0.579100  0.910100  0.178400  1.0  0.1159
  H  H34  1  0.437800  0.306800  0.363600  1.0  0.0936
  H  H35  1  0.636400  0.943200  0.074200  1.0  0.0933
  H  H36  1  0.049500  0.623900  0.193200  1.0  0.1048
  H  H37  1  0.128900  0.453700  0.849600  1.0  0.0973
  H  H38  1  0.678100  0.910600  0.080500  1.0  0.1209
  H  H39  1  0.547800  0.735500  0.338100  1.0  0.1073
  H  H40  1  0.338100  0.547800  0.735500  1.0  0.1066
  H  H41  1  0.049000  0.324800  0.224800  1.0  0.0993
  H  H42  1  0.338100  0.602600  0.790300  1.0  0.1075
  H  H43  1  0.100000  0.824200  0.775200  1.0  0.1007
  H  H44  1  0.089900  0.669000  0.268300  1.0  0.1173
  H  H45  1  0.724200  0.900000  0.675200  1.0  0.1004
  H  H46  1  0.951000  0.675200  0.775200  1.0  0.0989
  H  H47  1  0.321900  0.089400  0.919500  1.0  0.1208
  H  H48  1  0.249800  0.148500  0.898700  1.0  0.1103
  H  H49  1  0.262900  0.600700  0.863600  1.0  0.1066
  H  H50  1  0.562200  0.693200  0.636400  1.0  0.0937
  H  H51  1  0.604100  0.279300  0.150400  1.0  0.0963
  H  H52  1  0.187700  0.452200  0.790300  1.0  0.1073
  H  H53  1  0.946400  0.077600  0.375400  1.0  0.0991
  H  H54  1  0.279300  0.675200  0.128900  1.0  0.0968
  H  H55  1  0.361800  0.916800  0.797600  1.0  0.1096
  H  H56  1  0.623900  0.193200  0.049500  1.0  0.1061
  H  H57  1  0.048800  0.882200  0.658800  1.0  0.1209
  H  H58  1  0.776600  0.610000  0.658800  1.0  0.1208
  H  H59  1  0.775200  0.100000  0.824200  1.0  0.0998
  H  H60  1  0.187700  0.397400  0.735500  1.0  0.1066
  H  H61  1  0.735500  0.338100  0.547800  1.0  0.1076
  H  H62  1  0.833400  0.223400  0.882200  1.0  0.1203
  H  H63  1  0.131200  0.702200  0.077600  1.0  0.0995
  H  H64  1  0.910600  0.232500  0.830100  1.0  0.1206
  H  H65  1  0.790300  0.338100  0.602600  1.0  0.1085
  H  H66  1  0.083200  0.445000  0.880800  1.0  0.1096
  H  H67  1  0.797600  0.880800  0.435800  1.0  0.1102
  H  H68  1  0.579100  0.400700  0.669000  1.0  0.117
  H  H69  1  0.767500  0.678100  0.597600  1.0  0.1219
  H  H70  1  0.868800  0.297800  0.922400  1.0  0.0992
  H  H71  1  0.275800  0.951000  0.175800  1.0  0.0998
  H  H72  1  0.390000  0.166600  0.048800  1.0  0.12
  H  H73  1  0.341200  0.951200  0.117800  1.0  0.1212
  H  H74  1  0.101300  0.249800  0.351100  1.0  0.1104
  H  H75  1  0.083200  0.202400  0.638200  1.0  0.1103
  H  H76  1  0.624600  0.053600  0.922400  1.0  0.1
  H  H77  1  0.661900  0.397400  0.209700  1.0  0.1076
  H  H78  1  0.623900  0.574400  0.430700  1.0  0.107
  H  H79  1  0.324800  0.604100  0.453700  1.0  0.0974
  H  H80  1  0.399300  0.662200  0.262900  1.0  0.1064
  H  H81  1  0.849600  0.128900  0.453700  1.0  0.0973
  H  H82  1  0.420900  0.089900  0.821600  1.0  0.1158
  H  H83  1  0.547800  0.209700  0.812300  1.0  0.1076
  H  H84  1  0.824200  0.775200  0.100000  1.0  0.1008
  H  H85  1  0.597600  0.767500  0.678100  1.0  0.1212
  H  H86  1  0.916800  0.555000  0.119200  1.0  0.1104
  H  H87  1  0.950500  0.376100  0.806800  1.0  0.106
  H  H88  1  0.148500  0.898700  0.249800  1.0  0.1108
  H  H89  1  0.297800  0.429000  0.375400  1.0  0.0985
  H  H90  1  0.430700  0.623900  0.574400  1.0  0.1069
  H  H91  1  0.331000  0.420900  0.599300  1.0  0.1174
  H  H92  1  0.750200  0.648900  0.898700  1.0  0.1103
  H  H93  1  0.735500  0.187700  0.397400  1.0  0.1061
  H  H94  1  0.661900  0.452200  0.264500  1.0  0.107
  H  H95  1  0.658800  0.048800  0.882200  1.0  0.1223
  H  H96  1  0.830100  0.597600  0.919500  1.0  0.1202
  H  H97  1  0.452200  0.790300  0.187700  1.0  0.1075
  H  H98  1  0.080500  0.169900  0.402400  1.0  0.1211
  H  H99  1  0.223400  0.390000  0.341200  1.0  0.1209
  H  H100  1  0.880800  0.435800  0.797600  1.0  0.1102
  H  H101  1  0.119200  0.564200  0.202400  1.0  0.1101
  H  H102  1  0.678100  0.597600  0.767500  1.0  0.1206
  H  H103  1  0.089900  0.821600  0.420900  1.0  0.1158
  H  H104  1  0.943200  0.306800  0.869000  1.0  0.0934
  H  H105  1  0.602600  0.264500  0.812300  1.0  0.1068
  H  H106  1  0.361800  0.564200  0.445000  1.0  0.109
  H  H107  1  0.324800  0.871100  0.720700  1.0  0.097
  H  H108  1  0.224800  0.049000  0.324800  1.0  0.0999
  H  H109  1  0.119200  0.916800  0.555000  1.0  0.1094
  H  H110  1  0.731700  0.910100  0.331000  1.0  0.1171
  H  H111  1  0.077600  0.131200  0.702200  1.0  0.0989
  H  H112  1  0.675200  0.395900  0.546300  1.0  0.0974
  H  H113  1  0.429000  0.131200  0.053600  1.0  0.1003
  H  H114  1  0.946400  0.571000  0.868800  1.0  0.0998
  H  H115  1  0.262900  0.399300  0.662200  1.0  0.1056
  H  H116  1  0.638200  0.435800  0.555000  1.0  0.1095
  H  H117  1  0.922400  0.624600  0.053600  1.0  0.0999
  H  H118  1  0.882200  0.833400  0.223400  1.0  0.1205
  H  H119  1  0.675200  0.724200  0.900000  1.0  0.1013
  H  H120  1  0.546300  0.150400  0.871100  1.0  0.0983
  H  H121  1  0.562200  0.925800  0.869000  1.0  0.093
  H  H122  1  0.851500  0.101300  0.750200  1.0  0.1112
  H  H123  1  0.675200  0.128900  0.279300  1.0  0.0958
  H  H124  1  0.702200  0.571000  0.624600  1.0  0.0989
  H  H125  1  0.951200  0.610000  0.833400  1.0  0.1195
  H  H126  1  0.053600  0.429000  0.131200  1.0  0.0996
  H  H127  1  0.074200  0.131000  0.437800  1.0  0.0924
  H  H128  1  0.397400  0.735500  0.187700  1.0  0.1072
  H  H129  1  0.731700  0.400700  0.821600  1.0  0.116
  H  H130  1  0.821600  0.731700  0.400700  1.0  0.117
  H  H131  1  0.574400  0.950500  0.143700  1.0  0.106
  H  H132  1  0.776600  0.117800  0.166600  1.0  0.1207
  H  H133  1  0.863600  0.262900  0.600700  1.0  0.1054
  H  H134  1  0.790300  0.187700  0.452200  1.0  0.1069
  H  H135  1  0.306800  0.363600  0.437800  1.0  0.0944
  H  H136  1  0.143700  0.574400  0.950500  1.0  0.1066
  H  H137  1  0.604100  0.453700  0.324800  1.0  0.0977
  H  H138  1  0.400700  0.821600  0.731700  1.0  0.1169
  H  H139  1  0.232500  0.321900  0.402400  1.0  0.1217
  H  H140  1  0.268300  0.599300  0.178400  1.0  0.1169
  H  H141  1  0.445000  0.880800  0.083200  1.0  0.1099
  H  H142  1  0.209700  0.812300  0.547800  1.0  0.1078
  H  H143  1  0.453700  0.849600  0.128900  1.0  0.098
  H  H144  1  0.400700  0.669000  0.579100  1.0  0.1167
  H  H145  1  0.049500  0.856300  0.425600  1.0  0.1068
  H  H146  1  0.341200  0.223400  0.390000  1.0  0.1209
  H  H147  1  0.223400  0.882200  0.833400  1.0  0.1204
  H  H148  1  0.648900  0.898700  0.750200  1.0  0.1105
  H  H149  1  0.922400  0.868800  0.297800  1.0  0.0987
  H  H150  1  0.600700  0.337800  0.737100  1.0  0.1062
  H  H151  1  0.376100  0.425600  0.569300  1.0  0.1066
  H  H152  1  0.702200  0.077600  0.131200  1.0  0.0991
  H  H153  1  0.636400  0.562200  0.693200  1.0  0.0928
  H  H154  1  0.916800  0.797600  0.361800  1.0  0.1106
  H  H155  1  0.869000  0.943200  0.306800  1.0  0.0933
  H  H156  1  0.363600  0.056800  0.925800  1.0  0.0938
  H  H157  1  0.117800  0.166600  0.776600  1.0  0.1204
  H  H158  1  0.599300  0.178400  0.268300  1.0  0.117
  H  H159  1  0.425600  0.569300  0.376100  1.0  0.1065
  H  H160  1  0.224800  0.900000  0.175800  1.0  0.0997
  H  H161  1  0.429000  0.375400  0.297800  1.0  0.098
  H  H162  1  0.925800  0.869000  0.562200  1.0  0.0927
  H  H163  1  0.264500  0.812300  0.602600  1.0  0.1072
  H  H164  1  0.193200  0.049500  0.623900  1.0  0.1066
  H  H165  1  0.169900  0.089400  0.767500  1.0  0.1207
  H  H166  1  0.856300  0.425600  0.049500  1.0  0.1065
  H  H167  1  0.849600  0.395900  0.720700  1.0  0.0964
  H  H168  1  0.150400  0.871100  0.546300  1.0  0.0975
  H  H169  1  0.720700  0.324800  0.871100  1.0  0.0968
  H  H170  1  0.321900  0.402400  0.232500  1.0  0.1208
  H  H171  1  0.056800  0.693200  0.131000  1.0  0.0934
  H  H172  1  0.610000  0.833400  0.951200  1.0  0.1202
  H  H173  1  0.775200  0.951000  0.675200  1.0  0.1003
  H  H174  1  0.599300  0.331000  0.420900  1.0  0.1161
  H  H175  1  0.910600  0.080500  0.678100  1.0  0.1221
  H  H176  1  0.150400  0.604100  0.279300  1.0  0.0962
  H  H177  1  0.919500  0.321900  0.089400  1.0  0.1213
  H  H178  1  0.951200  0.117800  0.341200  1.0  0.1211
  H  H179  1  0.910100  0.331000  0.731700  1.0  0.1181
  H  H180  1  0.856300  0.806800  0.430700  1.0  0.1058
  H  H181  1  0.131000  0.437800  0.074200  1.0  0.0931
  H  H182  1  0.693200  0.636400  0.562200  1.0  0.0943
  H  H183  1  0.571000  0.868800  0.946400  1.0  0.0998
  H  H184  1  0.331000  0.731700  0.910100  1.0  0.1179
  H  H185  1  0.395900  0.720700  0.849600  1.0  0.0965
  H  H186  1  0.131200  0.053600  0.429000  1.0  0.0992
  H  H187  1  0.546300  0.675200  0.395900  1.0  0.0971
  H  H188  1  0.898700  0.750200  0.648900  1.0  0.1095
  H  H189  1  0.720700  0.849600  0.395900  1.0  0.0972
  H  H190  1  0.574400  0.430700  0.623900  1.0  0.1061
  H  H191  1  0.053600  0.922400  0.624600  1.0  0.0993
  H  H192  1  0.430700  0.856300  0.806800  1.0  0.1051
  H  H193  1  0.900000  0.675200  0.724200  1.0  0.1011
  H  H194  1  0.264500  0.661900  0.452200  1.0  0.1065
  H  H195  1  0.435800  0.797600  0.880800  1.0  0.1104
  H  H196  1  0.555000  0.119200  0.916800  1.0  0.11
  H  H197  1  0.425600  0.049500  0.856300  1.0  0.1067
  H  H198  1  0.925800  0.363600  0.056800  1.0  0.0925
  H  H199  1  0.767500  0.169900  0.089400  1.0  0.1202
  H  H200  1  0.402400  0.232500  0.321900  1.0  0.1214
  H  H201  1  0.202400  0.119200  0.564200  1.0  0.1102
  H  H202  1  0.624600  0.702200  0.571000  1.0  0.0997
  H  H203  1  0.750200  0.851500  0.101300  1.0  0.1111
  H  H204  1  0.249800  0.351100  0.101300  1.0  0.111
  H  H205  1  0.610000  0.658800  0.776600  1.0  0.1207
  H  H206  1  0.297800  0.922400  0.868800  1.0  0.0982
  H  H207  1  0.564200  0.445000  0.361800  1.0  0.1101
  H  H208  1  0.658800  0.776600  0.610000  1.0  0.1211
  H  H209  1  0.397400  0.209700  0.661900  1.0  0.1085
  H  H210  1  0.402400  0.080500  0.169900  1.0  0.1209
  H  H211  1  0.812300  0.547800  0.209700  1.0  0.107
  H  H212  1  0.830100  0.910600  0.232500  1.0  0.1202
  H  H213  1  0.048800  0.390000  0.166600  1.0  0.12
  H  H214  1  0.166600  0.048800  0.390000  1.0  0.1209
  H  H215  1  0.675200  0.775200  0.951000  1.0  0.1004
  H  H216  1  0.871100  0.720700  0.324800  1.0  0.0965
  H  H217  1  0.337800  0.737100  0.600700  1.0  0.1056
  H  H218  1  0.074200  0.636400  0.943200  1.0  0.0921
  H  H219  1  0.101300  0.750200  0.851500  1.0  0.1099
  H  H220  1  0.602600  0.790300  0.338100  1.0  0.1085
  H  H221  1  0.669000  0.268300  0.089900  1.0  0.1177
  H  H222  1  0.900000  0.175800  0.224800  1.0  0.1006
  H  H223  1  0.395900  0.546300  0.675200  1.0  0.0978
  H  H224  1  0.193200  0.569300  0.143700  1.0  0.1065
  H  H225  1  0.420900  0.599300  0.331000  1.0  0.1166
  H  H226  1  0.445000  0.361800  0.564200  1.0  0.1094
  H  H227  1  0.175800  0.224800  0.900000  1.0  0.1018
  H  H228  1  0.178400  0.268300  0.599300  1.0  0.1166
  H  H229  1  0.232500  0.830100  0.910600  1.0  0.1198
  H  H230  1  0.275800  0.100000  0.324800  1.0  0.1008
  H  H231  1  0.351100  0.101300  0.249800  1.0  0.1111
  H  H232  1  0.806800  0.950500  0.376100  1.0  0.1061
  H  H233  1  0.880800  0.083200  0.445000  1.0  0.1092
  H  H234  1  0.693200  0.131000  0.056800  1.0  0.0943
  H  H235  1  0.049000  0.824200  0.724200  1.0  0.0996
  H  H236  1  0.724200  0.049000  0.824200  1.0  0.0993
  H  H237  1  0.737100  0.399300  0.136400  1.0  0.1059
  H  H238  1  0.209700  0.661900  0.397400  1.0  0.1072
  H  H239  1  0.950500  0.143700  0.574400  1.0  0.1067
  H  H240  1  0.669000  0.579100  0.400700  1.0  0.1171
  H  H241  1  0.100000  0.324800  0.275800  1.0  0.0999
  H  H242  1  0.564200  0.202400  0.119200  1.0  0.1101
  H  H243  1  0.136400  0.737100  0.399300  1.0  0.105
  H  H244  1  0.871100  0.546300  0.150400  1.0  0.097
  H  H245  1  0.910100  0.178400  0.579100  1.0  0.1154
  H  H246  1  0.806800  0.430700  0.856300  1.0  0.1059
  H  H247  1  0.143700  0.193200  0.569300  1.0  0.1061
  H  H248  1  0.089400  0.919500  0.321900  1.0  0.1216
  H  H249  1  0.390000  0.341200  0.223400  1.0  0.1208
  H  H250  1  0.882200  0.658800  0.048800  1.0  0.1213
  H  H251  1  0.555000  0.638200  0.435800  1.0  0.1095
  H  H252  1  0.324800  0.224800  0.049000  1.0  0.1005
  H  H253  1  0.363600  0.437800  0.306800  1.0  0.093
  H  H254  1  0.898700  0.249800  0.148500  1.0  0.1094
  H  H255  1  0.131000  0.056800  0.693200  1.0  0.0933
  H  H256  1  0.600700  0.863600  0.262900  1.0  0.106
  H  H257  1  0.056800  0.925800  0.363600  1.0  0.0933
  H  H258  1  0.375400  0.946400  0.077600  1.0  0.0998
  H  H259  1  0.943200  0.074200  0.636400  1.0  0.0934
  H  H260  1  0.638200  0.083200  0.202400  1.0  0.1101
  H  H261  1  0.089400  0.767500  0.169900  1.0  0.12
  H  H262  1  0.452200  0.264500  0.661900  1.0  0.1073
  H  H263  1  0.821600  0.420900  0.089900  1.0  0.1164
  H  H264  1  0.868800  0.946400  0.571000  1.0  0.0988
  H  H265  1  0.268300  0.089900  0.669000  1.0  0.1175
  H  H266  1  0.597600  0.919500  0.830100  1.0  0.1211
  H  H267  1  0.569300  0.143700  0.193200  1.0  0.1053
  H  H268  1  0.437800  0.074200  0.131000  1.0  0.0934
  H  H269  1  0.077600  0.375400  0.946400  1.0  0.0987
  H  H270  1  0.571000  0.624600  0.702200  1.0  0.098
  H  H271  1  0.737100  0.600700  0.337800  1.0  0.1063
  H  H272  1  0.376100  0.806800  0.950500  1.0  0.1061
  H  H273  1  0.117800  0.341200  0.951200  1.0  0.1206
  H  H274  1  0.306800  0.869000  0.943200  1.0  0.0948
  H  H275  1  0.128900  0.279300  0.675200  1.0  0.0962
  H  H276  1  0.797600  0.361800  0.916800  1.0  0.1106
  H  H277  1  0.951000  0.175800  0.275800  1.0  0.0997
  H  H278  1  0.662200  0.262900  0.399300  1.0  0.1053
  H  H279  1  0.169900  0.402400  0.080500  1.0  0.1202
  H  H280  1  0.869000  0.562200  0.925800  1.0  0.0932
  H  H281  1  0.569300  0.376100  0.425600  1.0  0.1065
  H  H282  1  0.833400  0.951200  0.610000  1.0  0.1199
  H  H283  1  0.375400  0.297800  0.429000  1.0  0.0997
  H  H284  1  0.324800  0.275800  0.100000  1.0  0.1014
  H  H285  1  0.399300  0.136400  0.737100  1.0  0.1064
  H  H286  1  0.178400  0.579100  0.910100  1.0  0.116
  H  H287  1  0.279300  0.150400  0.604100  1.0  0.0971
  H  H288  1  0.812300  0.602600  0.264500  1.0  0.107
  C  C289  1  0.146870  0.368110  0.016780  1.0  0.0096
  C  C290  1  0.483600  0.641850  0.363150  1.0  0.2139
  C  C291  1  0.234600  0.502910  0.794510  1.0  0.017
  C  C292  1  0.764510  0.463200  0.173290  1.0  0.1117
  C  C293  1  0.662140  0.182900  0.325240  1.0  -0.0445
  C  C294  1  0.160960  0.254890  0.608930  1.0  -0.1389
  C  C295  1  0.193890  0.264600  0.959290  1.0  -0.0946
  C  C296  1  0.363150  0.721300  0.879550  1.0  0.2177
  C  C297  1  0.619060  0.715530  0.592810  1.0  -0.0229
  C  C298  1  0.920040  0.493990  0.062290  1.0  0.7153
  C  C299  1  0.856560  0.240490  0.880130  1.0  -0.146
  C  C300  1  0.089870  0.989940  0.399470  1.0  -0.1151
  C  C301  1  0.120450  0.636850  0.278700  1.0  0.2185
  C  C302  1  0.668020  0.863160  0.694740  1.0  -0.1074
  C  C303  1  0.877280  0.973750  0.592810  1.0  -0.0209
  C  C304  1  0.536800  0.301310  0.710090  1.0  0.1108
  C  C305  1  0.559910  0.794510  0.291600  1.0  0.0165
  C  C306  1  0.143440  0.759510  0.119870  1.0  -0.1442
  C  C307  1  0.174190  0.826120  0.846870  1.0  -0.094
  C  C308  1  0.368490  0.078790  0.951080  1.0  -0.0397
  C  C309  1  0.989940  0.399470  0.089870  1.0  -0.114
  C  C310  1  0.979250  0.826120  0.651930  1.0  -0.0968
  C  C311  1  0.608930  0.354040  0.447970  1.0  -0.1396
  C  C312  1  0.590470  0.989940  0.900070  1.0  -0.1095
  C  C313  1  0.723300  0.719740  0.939840  1.0  0.1549
  C  C314  1  0.407190  0.380940  0.284470  1.0  -0.0202
  C  C315  1  0.779900  0.783460  0.060160  1.0  0.1547
  C  C316  1  0.417410  0.048920  0.127710  1.0  -0.0358
  C  C317  1  0.301310  0.710090  0.536800  1.0  0.1106
  C  C318  1  0.710300  0.631510  0.582590  1.0  -0.0385
  C  C319  1  0.138040  0.210050  0.589010  1.0  -0.0704
  C  C320  1  0.343820  0.396760  0.245580  1.0  -0.1512
  C  C321  1  0.527250  0.630490  0.415360  1.0  -0.0705
  C  C322  1  0.463200  0.698690  0.289910  1.0  0.1102
  C  C323  1  0.737200  0.420900  0.158100  1.0  -0.1137
  C  C324  1  0.983220  0.351330  0.130090  1.0  0.011
  C  C325  1  0.783460  0.003560  0.723300  1.0  0.149
  C  C326  1  0.708400  0.440090  0.205490  1.0  0.0155
  C  C327  1  0.478290  0.869450  0.130840  1.0  -0.1305
  C  C328  1  0.857750  0.937710  0.431700  1.0  0.7175
  C  C329  1  0.099930  0.089870  0.690400  1.0  -0.1166
  C  C330  1  0.015300  0.749400  0.764700  1.0  0.2082
  C  C331  1  0.103240  0.472750  0.888110  1.0  -0.0732
  C  C332  1  0.026720  0.195140  0.331980  1.0  -0.0842
  C  C333  1  0.111890  0.584640  0.215130  1.0  -0.0712
  C  C334  1  0.331980  0.026720  0.195140  1.0  -0.0859
  C  C335  1  0.631510  0.582590  0.710300  1.0  -0.0358
  C  C336  1  0.158250  0.516400  0.879550  1.0  0.2183
  C  C337  1  0.901760  0.245580  0.848820  1.0  -0.1508
  C  C338  1  0.608930  0.160960  0.254890  1.0  -0.1394
  C  C339  1  0.493990  0.573950  0.431700  1.0  0.7138
  C  C340  1  0.130840  0.261390  0.652550  1.0  -0.1293
  C  C341  1  0.549030  0.410990  0.621040  1.0  -0.0689
  C  C342  1  0.431970  0.356870  0.425060  1.0  0.7026
  C  C343  1  0.410990  0.621040  0.549030  1.0  -0.0706
  C  C344  1  0.723530  0.814920  0.036650  1.0  -0.0159
  C  C345  1  0.584640  0.472750  0.369510  1.0  -0.0733
  C  C346  1  0.093930  0.645960  0.254890  1.0  -0.1401
  C  C347  1  0.877280  0.284470  0.903530  1.0  -0.0226
  C  C348  1  0.079960  0.142250  0.573950  1.0  0.7148
  C  C349  1  0.903530  0.619060  0.026250  1.0  -0.0197
  C  C350  1  0.910130  0.010060  0.600530  1.0  -0.116
  C  C351  1  0.070710  0.305310  0.264600  1.0  -0.0964
  C  C352  1  0.182900  0.325240  0.662140  1.0  -0.0449
  C  C353  1  0.579100  0.841900  0.262800  1.0  -0.1114
  C  C354  1  0.026250  0.407190  0.122720  1.0  -0.0198
  C  C355  1  0.107140  0.190320  0.597640  1.0  -0.105
  C  C356  1  0.672680  0.846870  0.020750  1.0  -0.131
  C  C357  1  0.784870  0.369510  0.896760  1.0  -0.0698
  C  C358  1  0.216540  0.996440  0.276700  1.0  0.1492
  C  C359  1  0.759510  0.616070  0.639640  1.0  -0.1441
  C  C360  1  0.391070  0.839040  0.745110  1.0  -0.1386
  C  C361  1  0.146870  0.130090  0.778760  1.0  0.0131
  C  C362  1  0.325240  0.662140  0.182900  1.0  -0.0466
  C  C363  1  0.516400  0.879550  0.158250  1.0  0.2184
  C  C364  1  0.378960  0.789950  0.927990  1.0  -0.0713
  C  C365  1  0.536800  0.826710  0.235490  1.0  0.1119
  C  C366  1  0.391160  0.521710  0.652550  1.0  -0.1317
  C  C367  1  0.979250  0.327320  0.153130  1.0  -0.1274
  C  C368  1  0.221240  0.853130  0.869910  1.0  0.0122
  C  C369  1  0.906070  0.160960  0.552030  1.0  -0.141
  C  C370  1  0.927990  0.378960  0.789950  1.0  -0.0694
  C  C371  1  0.920040  0.857750  0.426050  1.0  0.7151
  C  C372  1  0.083180  0.892860  0.490500  1.0  -0.1066
  C  C373  1  0.356870  0.924900  0.931810  1.0  0.6962
  C  C374  1  0.526440  0.842840  0.207000  1.0  0.0591
  C  C375  1  0.253340  0.793660  0.573000  1.0  0.0466
  C  C376  1  0.723530  0.686880  0.908610  1.0  -0.0241
  C  C377  1  0.721300  0.879550  0.363150  1.0  0.2146
  C  C378  1  0.973750  0.096470  0.380940  1.0  -0.0192
  C  C379  1  0.520760  0.337860  0.663100  1.0  -0.048
  C  C380  1  0.336900  0.479240  0.662140  1.0  -0.0443
  C  C381  1  0.254890  0.093930  0.645960  1.0  -0.1384
  C  C382  1  0.778760  0.146870  0.130090  1.0  0.0151
  C  C383  1  0.738610  0.869450  0.391160  1.0  -0.1301
  C  C384  1  0.079800  0.249400  0.329200  1.0  -0.175
  C  C385  1  0.750600  0.830400  0.079800  1.0  -0.1788
  C  C386  1  0.579100  0.316300  0.737200  1.0  -0.1185
  C  C387  1  0.793660  0.573000  0.253340  1.0  0.0444
  C  C388  1  0.234600  0.040710  0.305310  1.0  -0.095
  C  C389  1  0.364160  0.157160  0.683600  1.0  0.0585
  C  C390  1  0.215130  0.630490  0.103240  1.0  -0.0704
  C  C391  1  0.900070  0.590470  0.989940  1.0  -0.1075
  C  C392  1  0.415360  0.784870  0.888110  1.0  -0.0719
  C  C393  1  0.630490  0.415360  0.527250  1.0  -0.0707
  C  C394  1  0.734100  0.984700  0.749400  1.0  0.2122
  C  C395  1  0.173880  0.348070  0.020750  1.0  -0.0961
  C  C396  1  0.036650  0.723530  0.814920  1.0  -0.015
  C  C397  1  0.683700  0.262800  0.420900  1.0  -0.1153
  C  C398  1  0.568300  0.142250  0.062290  1.0  0.715
  C  C399  1  0.686880  0.963350  0.778270  1.0  -0.0171
  C  C400  1  0.427000  0.746660  0.206340  1.0  0.0461
  C  C401  1  0.407320  0.490500  0.597640  1.0  -0.1106
  C  C402  1  0.168420  0.973280  0.305260  1.0  -0.1085
  C  C403  1  0.853130  0.631890  0.983220  1.0  0.0082
  C  C404  1  0.920200  0.249400  0.169600  1.0  -0.1679
  C  C405  1  0.540320  0.220660  0.793660  1.0  0.0446
  C  C406  1  0.857660  0.182900  0.520760  1.0  -0.0462
  C  C407  1  0.023570  0.383930  0.143440  1.0  -0.1435
  C  C408  1  0.127710  0.078790  0.710300  1.0  -0.0365
  C  C409  1  0.869450  0.391160  0.738610  1.0  -0.1299
  C  C410  1  0.794510  0.291600  0.559910  1.0  0.0173
  C  C411  1  0.234600  0.929290  0.193890  1.0  -0.0958
  C  C412  1  0.668020  0.973280  0.804860  1.0  -0.0835
  C  C413  1  0.814920  0.091390  0.778270  1.0  -0.0183
  C  C414  1  0.719740  0.996440  0.779900  1.0  0.1523
  C  C415  1  0.316300  0.737200  0.579100  1.0  -0.1122
  C  C416  1  0.268310  0.765400  0.559910  1.0  0.0188
  C  C417  1  0.408780  0.698690  0.235490  1.0  0.1067
  C  C418  1  0.396760  0.052940  0.151180  1.0  -0.1532
  C  C419  1  0.363150  0.483600  0.641850  1.0  0.2169
  C  C420  1  0.383930  0.143440  0.023570  1.0  -0.1461
  C  C421  1  0.806110  0.735400  0.040710  1.0  -0.0951
  C  C422  1  0.262800  0.420900  0.683700  1.0  -0.1194
  C  C423  1  0.590470  0.690400  0.600530  1.0  -0.1125
  C  C424  1  0.026250  0.903530  0.619060  1.0  -0.0189
  C  C425  1  0.817100  0.674760  0.337860  1.0  -0.0459
  C  C426  1  0.846870  0.020750  0.672680  1.0  -0.1296
  C  C427  1  0.291600  0.497090  0.731690  1.0  0.0182
  C  C428  1  0.245580  0.848820  0.901760  1.0  -0.1527
  C  C429  1  0.264600  0.959290  0.193890  1.0  -0.096
  C  C430  1  0.402360  0.592680  0.509500  1.0  -0.1085
  C  C431  1  0.552030  0.906070  0.160960  1.0  -0.1369
  C  C432  1  0.825810  0.173880  0.153130  1.0  -0.0944
  C  C433  1  0.305260  0.331980  0.136840  1.0  -0.1095
  C  C434  1  0.900070  0.910130  0.309600  1.0  -0.1125
  C  C435  1  0.869910  0.016780  0.648670  1.0  0.0132
  C  C436  1  0.016780  0.648670  0.869910  1.0  0.0133
  C  C437  1  0.420900  0.683700  0.262800  1.0  -0.1095
  C  C438  1  0.826120  0.846870  0.174190  1.0  -0.0945
  C  C439  1  0.173290  0.710090  0.408780  1.0  0.1067
  C  C440  1  0.291600  0.559910  0.794510  1.0  0.0172
  C  C441  1  0.516150  0.252350  0.736200  1.0  0.0159
  C  C442  1  0.122720  0.715530  0.096470  1.0  -0.0223
  C  C443  1  0.010060  0.099930  0.409530  1.0  -0.1069
  C  C444  1  0.809680  0.402360  0.892860  1.0  -0.1068
  C  C445  1  0.190320  0.597640  0.107140  1.0  -0.108
  C  C446  1  0.924900  0.931810  0.356870  1.0  0.6947
  C  C447  1  0.015300  0.250600  0.265900  1.0  0.2118
  C  C448  1  0.391160  0.738610  0.869450  1.0  -0.1302
  C  C449  1  0.901760  0.052940  0.656180  1.0  -0.1527
  C  C450  1  0.068190  0.993090  0.425060  1.0  0.7034
  C  C451  1  0.062290  0.920040  0.493990  1.0  0.7168
  C  C452  1  0.656180  0.901760  0.052940  1.0  -0.1496
  C  C453  1  0.289910  0.591220  0.826710  1.0  0.1079
  C  C454  1  0.830400  0.079800  0.750600  1.0  -0.1798
  C  C455  1  0.521710  0.652550  0.391160  1.0  -0.1301
  C  C456  1  0.603240  0.947060  0.848820  1.0  -0.1538
  C  C457  1  0.616070  0.856560  0.976430  1.0  -0.1479
  C  C458  1  0.931810  0.006910  0.574940  1.0  0.7017
  C  C459  1  0.337860  0.817100  0.674760  1.0  -0.0455
  C  C460  1  0.826710  0.289910  0.591220  1.0  0.1056
  C  C461  1  0.369510  0.896760  0.784870  1.0  -0.0723
  C  C462  1  0.245580  0.343820  0.396760  1.0  -0.1525
  C  C463  1  0.856560  0.976430  0.616070  1.0  -0.1482
  C  C464  1  0.410990  0.861960  0.789950  1.0  -0.0705
  C  C465  1  0.573950  0.431700  0.493990  1.0  0.7169
  C  C466  1  0.483600  0.120450  0.841750  1.0  0.215
  C  C467  1  0.415360  0.527250  0.630490  1.0  -0.0697
  C  C468  1  0.592810  0.877280  0.973750  1.0  -0.021
  C  C469  1  0.694690  0.765400  0.959290  1.0  -0.0943
  C  C470  1  0.348070  0.174190  0.327320  1.0  -0.1259
  C  C471  1  0.630490  0.103240  0.215130  1.0  -0.0708
  C  C472  1  0.060160  0.779900  0.783460  1.0  0.1534
  C  C473  1  0.369510  0.584640  0.472750  1.0  -0.0722
  C  C474  1  0.319440  0.793000  0.635840  1.0  0.0556
  C  C475  1  0.916820  0.407320  0.809680  1.0  -0.1066
  C  C476  1  0.473560  0.680560  0.316400  1.0  0.0576
  C  C477  1  0.879550  0.158250  0.516400  1.0  0.2168
  C  C478  1  0.347450  0.608840  0.478290  1.0  -0.1294
  C  C479  1  0.478290  0.347450  0.608840  1.0  -0.1312
  C  C480  1  0.253340  0.680340  0.459680  1.0  0.0436
  C  C481  1  0.048920  0.631510  0.921210  1.0  -0.0368
  C  C482  1  0.839040  0.745110  0.391070  1.0  -0.1386
  C  C483  1  0.643130  0.075100  0.068190  1.0  0.6963
  C  C484  1  0.789950  0.927990  0.378960  1.0  -0.072
  C  C485  1  0.160960  0.552030  0.906070  1.0  -0.1401
  C  C486  1  0.417410  0.289700  0.368490  1.0  -0.0382
  C  C487  1  0.153130  0.979250  0.327320  1.0  -0.1321
  C  C488  1  0.670800  0.920200  0.750600  1.0  -0.1701
  C  C489  1  0.735400  0.929290  0.694690  1.0  -0.0985
  C  C490  1  0.254890  0.608930  0.160960  1.0  -0.1374
  C  C491  1  0.463200  0.173290  0.764510  1.0  0.111
  C  C492  1  0.749400  0.734100  0.984700  1.0  0.2121
  C  C493  1  0.262800  0.579100  0.841900  1.0  -0.1154
  C  C494  1  0.963350  0.276470  0.185080  1.0  -0.0144
  C  C495  1  0.316400  0.473560  0.680560  1.0  0.0565
  C  C496  1  0.473560  0.157160  0.793000  1.0  0.0596
  C  C497  1  0.075100  0.431970  0.006910  1.0  0.6791
  C  C498  1  0.568300  0.506010  0.426050  1.0  0.7144
  C  C499  1  0.793000  0.635840  0.319440  1.0  0.0581
  C  C500  1  0.639640  0.759510  0.616070  1.0  -0.1458
  C  C501  1  0.869450  0.130840  0.478290  1.0  -0.1275
  C  C502  1  0.759510  0.119870  0.143440  1.0  -0.1439
  C  C503  1  0.509500  0.916820  0.107140  1.0  -0.1103
  C  C504  1  0.329200  0.079800  0.249400  1.0  -0.1782
  C  C505  1  0.674760  0.337860  0.817100  1.0  -0.0467
  C  C506  1  0.853130  0.869910  0.221240  1.0  0.0142
  C  C507  1  0.207000  0.526440  0.842840  1.0  0.0578
  C  C508  1  0.142250  0.573950  0.079960  1.0  0.7159
  C  C509  1  0.263800  0.483850  0.747650  1.0  0.0162
  C  C510  1  0.764510  0.591220  0.301310  1.0  0.1064
  C  C511  1  0.947060  0.343820  0.098240  1.0  -0.1527
  C  C512  1  0.735400  0.040710  0.806110  1.0  -0.097
  C  C513  1  0.380940  0.284470  0.407190  1.0  -0.0227
  C  C514  1  0.220100  0.280260  0.003560  1.0  0.1519
  C  C515  1  0.502910  0.268310  0.708400  1.0  0.0186
  C  C516  1  0.249400  0.169600  0.920200  1.0  -0.1783
  C  C517  1  0.621040  0.210050  0.072010  1.0  -0.0706
  C  C518  1  0.872290  0.921210  0.289700  1.0  -0.0386
  C  C519  1  0.068190  0.643130  0.075100  1.0  0.6943
  C  C520  1  0.809680  0.916820  0.407320  1.0  -0.1062
  C  C521  1  0.327320  0.153130  0.979250  1.0  -0.1296
  C  C522  1  0.158250  0.278700  0.641850  1.0  0.218
  C  C523  1  0.356870  0.425060  0.431970  1.0  0.7039
  C  C524  1  0.804860  0.831580  0.136840  1.0  -0.0888
  C  C525  1  0.399470  0.409530  0.309600  1.0  -0.115
  C  C526  1  0.479240  0.662140  0.336900  1.0  -0.0448
  C  C527  1  0.426050  0.920040  0.857750  1.0  0.714
  C  C528  1  0.221240  0.351330  0.368110  1.0  0.0156
  C  C529  1  0.407320  0.809680  0.916820  1.0  -0.1064
  C  C530  1  0.597640  0.407320  0.490500  1.0  -0.1072
  C  C531  1  0.509500  0.402360  0.592680  1.0  -0.1089
  C  C532  1  0.130090  0.778760  0.146870  1.0  0.0147
  C  C533  1  0.825810  0.672680  0.651930  1.0  -0.1288
  C  C534  1  0.249400  0.329200  0.079800  1.0  -0.1815
  C  C535  1  0.651930  0.825810  0.672680  1.0  -0.1256
  C  C536  1  0.779340  0.319660  0.573000  1.0  0.0449
  C  C537  1  0.694690  0.735400  0.929290  1.0  -0.0968
  C  C538  1  0.597640  0.107140  0.190320  1.0  -0.1086
  C  C539  1  0.036650  0.221730  0.313120  1.0  -0.0178
  C  C540  1  0.736200  0.516150  0.252350  1.0  0.0153
  C  C541  1  0.778270  0.814920  0.091390  1.0  -0.0198
  C  C542  1  0.020750  0.672680  0.846870  1.0  -0.1275
  C  C543  1  0.450970  0.072010  0.861960  1.0  -0.0691
  C  C544  1  0.409530  0.309600  0.399470  1.0  -0.1131
  C  C545  1  0.778760  0.648670  0.631890  1.0  0.0171
  C  C546  1  0.048920  0.127710  0.417410  1.0  -0.0365
  C  C547  1  0.151180  0.098240  0.754420  1.0  -0.1496
  C  C548  1  0.641850  0.158250  0.278700  1.0  0.2153
  C  C549  1  0.973280  0.305260  0.168420  1.0  -0.109
  C  C550  1  0.276470  0.313120  0.091390  1.0  -0.0238
  C  C551  1  0.107140  0.509500  0.916820  1.0  -0.1092
  C  C552  1  0.319440  0.683600  0.526440  1.0  0.0561
  C  C553  1  0.459680  0.779340  0.206340  1.0  0.0476
  C  C554  1  0.348070  0.020750  0.173880  1.0  -0.0977
  C  C555  1  0.289700  0.368490  0.417410  1.0  -0.038
  C  C556  1  0.784870  0.888110  0.415360  1.0  -0.07
  C  C557  1  0.690400  0.600530  0.590470  1.0  -0.1154
  C  C558  1  0.060160  0.276700  0.280260  1.0  0.1545
  C  C559  1  0.584640  0.215130  0.111890  1.0  -0.0729
  C  C560  1  0.368110  0.016780  0.146870  1.0  0.0091
  C  C561  1  0.493990  0.062290  0.920040  1.0  0.7145
  C  C562  1  0.608840  0.478290  0.347450  1.0  -0.1327
  C  C563  1  0.927990  0.138040  0.549030  1.0  -0.0705
  C  C564  1  0.749400  0.764700  0.015300  1.0  0.2078
  C  C565  1  0.358150  0.841750  0.721300  1.0  0.2165
  C  C566  1  0.103240  0.215130  0.630490  1.0  -0.0727
  C  C567  1  0.006910  0.075100  0.431970  1.0  0.6757
  C  C568  1  0.210050  0.589010  0.138040  1.0  -0.0723
  C  C569  1  0.710090  0.536800  0.301310  1.0  0.111
  C  C570  1  0.863160  0.195140  0.168420  1.0  -0.0895
  C  C571  1  0.143440  0.023570  0.383930  1.0  -0.1476
  C  C572  1  0.831580  0.136840  0.804860  1.0  -0.0874
  C  C573  1  0.111890  0.896760  0.527250  1.0  -0.0708
  C  C574  1  0.976430  0.119870  0.360360  1.0  -0.1444
  C  C575  1  0.951080  0.368490  0.078790  1.0  -0.0367
  C  C576  1  0.589010  0.138040  0.210050  1.0  -0.0696
  C  C577  1  0.738610  0.347450  0.869160  1.0  -0.1322
  C  C578  1  0.939840  0.723300  0.719740  1.0  0.1541
  C  C579  1  0.765400  0.959290  0.694690  1.0  -0.0946
  C  C580  1  0.497090  0.731690  0.291600  1.0  0.0187
  C  C581  1  0.896760  0.784870  0.369510  1.0  -0.0723
  C  C582  1  0.574940  0.568030  0.643130  1.0  0.7016
  C  C583  1  0.863160  0.694740  0.668020  1.0  -0.1123
  C  C584  1  0.848820  0.901760  0.245580  1.0  -0.151
  C  C585  1  0.754420  0.151180  0.098240  1.0  -0.1509
  C  C586  1  0.765400  0.070710  0.806110  1.0  -0.0949
  C  C587  1  0.173880  0.153130  0.825810  1.0  -0.0945
  C  C588  1  0.573000  0.779340  0.319660  1.0  0.0445
  C  C589  1  0.040710  0.806110  0.735400  1.0  -0.0983
  C  C590  1  0.651930  0.979250  0.826120  1.0  -0.098
  C  C591  1  0.127710  0.417410  0.048920  1.0  -0.0393
  C  C592  1  0.841750  0.721300  0.358150  1.0  0.2172
  C  C593  1  0.603240  0.754420  0.656180  1.0  -0.1542
  C  C594  1  0.142340  0.817100  0.479240  1.0  -0.0445
  C  C595  1  0.425060  0.068190  0.993090  1.0  0.7041
  C  C596  1  0.399470  0.089870  0.989940  1.0  -0.1129
  C  C597  1  0.636850  0.516400  0.358150  1.0  0.2154
  C  C598  1  0.973280  0.804860  0.668020  1.0  -0.0846
  C  C599  1  0.888110  0.103240  0.472750  1.0  -0.0718
  C  C600  1  0.648670  0.631890  0.778760  1.0  0.015
  C  C601  1  0.892860  0.490500  0.083180  1.0  -0.1087
  C  C602  1  0.420900  0.158100  0.737200  1.0  -0.1076
  C  C603  1  0.006910  0.574940  0.931810  1.0  0.7008
  C  C604  1  0.708400  0.502910  0.268310  1.0  0.0187
  C  C605  1  0.973750  0.592810  0.877280  1.0  -0.0207
  C  C606  1  0.520760  0.857660  0.182900  1.0  -0.045
  C  C607  1  0.663100  0.520760  0.337860  1.0  -0.0461
  C  C608  1  0.715530  0.592810  0.619060  1.0  -0.022
  C  C609  1  0.680560  0.207000  0.364160  1.0  0.0565
  C  C610  1  0.407190  0.122720  0.026250  1.0  -0.0201
  C  C611  1  0.526440  0.319440  0.683600  1.0  0.0587
  C  C612  1  0.479240  0.142340  0.817100  1.0  -0.0449
  C  C613  1  0.079800  0.750600  0.830400  1.0  -0.178
  C  C614  1  0.552030  0.391070  0.645960  1.0  -0.1381
  C  C615  1  0.261390  0.652550  0.130840  1.0  -0.1306
  C  C616  1  0.683600  0.364160  0.157160  1.0  0.0603
  C  C617  1  0.746660  0.206340  0.427000  1.0  0.047
  C  C618  1  0.409530  0.010060  0.099930  1.0  -0.1106
  C  C619  1  0.098240  0.754420  0.151180  1.0  -0.1526
  C  C620  1  0.062290  0.568300  0.142250  1.0  0.7145
  C  C621  1  0.497090  0.205490  0.765400  1.0  0.0169
  C  C622  1  0.098240  0.947060  0.343820  1.0  -0.1534
  C  C623  1  0.793000  0.473560  0.157160  1.0  0.0573
  C  C624  1  0.559910  0.268310  0.765400  1.0  0.0171
  C  C625  1  0.937710  0.431700  0.857750  1.0  0.7137
  C  C626  1  0.185080  0.908610  0.221730  1.0  -0.0186
  C  C627  1  0.459680  0.253340  0.680340  1.0  0.046
  C  C628  1  0.963350  0.778270  0.686880  1.0  -0.0171
  C  C629  1  0.731690  0.291600  0.497090  1.0  0.0179
  C  C630  1  0.426050  0.568300  0.506010  1.0  0.7172
  C  C631  1  0.663100  0.325240  0.142340  1.0  -0.0474
  C  C632  1  0.276700  0.280260  0.060160  1.0  0.1558
  C  C633  1  0.721300  0.358150  0.841750  1.0  0.2157
  C  C634  1  0.016780  0.146870  0.368110  1.0  0.0084
  C  C635  1  0.120450  0.841750  0.483600  1.0  0.2181
  C  C636  1  0.589010  0.378960  0.450970  1.0  -0.0702
  C  C637  1  0.568030  0.643130  0.574940  1.0  0.7015
  C  C638  1  0.391070  0.645960  0.552030  1.0  -0.1397
  C  C639  1  0.368110  0.221240  0.351330  1.0  0.0182
  C  C640  1  0.276700  0.216540  0.996440  1.0  0.1473
  C  C641  1  0.869160  0.738610  0.347450  1.0  -0.1305
  C  C642  1  0.040710  0.305310  0.234600  1.0  -0.0957
  C  C643  1  0.674760  0.857660  0.336900  1.0  -0.0453
  C  C644  1  0.221730  0.185080  0.908610  1.0  -0.0208
  C  C645  1  0.680340  0.459680  0.253340  1.0  0.0502
  C  C646  1  0.023570  0.880130  0.639640  1.0  -0.1448
  C  C647  1  0.190320  0.083180  0.592680  1.0  -0.1075
  C  C648  1  0.234600  0.440090  0.731690  1.0  0.0173
  C  C649  1  0.631510  0.921210  0.048920  1.0  -0.0403
  C  C650  1  0.662140  0.336900  0.479240  1.0  -0.0447
  C  C651  1  0.896760  0.527250  0.111890  1.0  -0.0694
  C  C652  1  0.380940  0.973750  0.096470  1.0  -0.0213
  C  C653  1  0.072010  0.861960  0.450970  1.0  -0.0711
  C  C654  1  0.402360  0.892860  0.809680  1.0  -0.1057
  C  C655  1  0.205490  0.765400  0.497090  1.0  0.0163
  C  C656  1  0.641850  0.363150  0.483600  1.0  0.2167
  C  C657  1  0.119870  0.143440  0.759510  1.0  -0.1455
  C  C658  1  0.937710  0.079960  0.506010  1.0  0.7166
  C  C659  1  0.631890  0.983220  0.853130  1.0  0.0104
  C  C660  1  0.608840  0.261390  0.130550  1.0  -0.1303
  C  C661  1  0.839040  0.447970  0.093930  1.0  -0.1401
  C  C662  1  0.122720  0.026250  0.407190  1.0  -0.0225
  C  C663  1  0.929290  0.193890  0.234600  1.0  -0.098
  C  C664  1  0.861960  0.789950  0.410990  1.0  -0.0712
  C  C665  1  0.078790  0.710300  0.127710  1.0  -0.0392
  C  C666  1  0.506010  0.426050  0.568300  1.0  0.7154
  C  C667  1  0.506010  0.937710  0.079960  1.0  0.7156
  C  C668  1  0.916820  0.107140  0.509500  1.0  -0.1076
  C  C669  1  0.447970  0.093930  0.839040  1.0  -0.1369
  C  C670  1  0.268310  0.708400  0.502910  1.0  0.0176
  C  C671  1  0.130550  0.869160  0.521710  1.0  -0.1268
  C  C672  1  0.325240  0.142340  0.663100  1.0  -0.0445
  C  C673  1  0.842840  0.207000  0.526440  1.0  0.0593
  C  C674  1  0.195140  0.168420  0.863160  1.0  -0.0897
  C  C675  1  0.806110  0.765400  0.070710  1.0  -0.0962
  C  C676  1  0.804860  0.668020  0.973280  1.0  -0.0814
  C  C677  1  0.984700  0.749400  0.734100  1.0  0.2123
  C  C678  1  0.793660  0.540320  0.220660  1.0  0.0464
  C  C679  1  0.888110  0.415360  0.784870  1.0  -0.0729
  C  C680  1  0.003560  0.220100  0.280260  1.0  0.1534
  C  C681  1  0.168420  0.863160  0.195140  1.0  -0.0874
  C  C682  1  0.910130  0.309600  0.900070  1.0  -0.1112
  C  C683  1  0.327320  0.348070  0.174190  1.0  -0.129
  C  C684  1  0.440090  0.731690  0.234600  1.0  0.0179
  C  C685  1  0.841900  0.262800  0.579100  1.0  -0.1118
  C  C686  1  0.746660  0.319660  0.540320  1.0  0.044
  C  C687  1  0.210050  0.072010  0.621040  1.0  -0.0724
  C  C688  1  0.903530  0.877280  0.284470  1.0  -0.0195
  C  C689  1  0.220100  0.216540  0.939840  1.0  0.1533
  C  C690  1  0.892860  0.809680  0.402360  1.0  -0.1058
  C  C691  1  0.656180  0.603240  0.754420  1.0  -0.1474
  C  C692  1  0.680560  0.316400  0.473560  1.0  0.0557
  C  C693  1  0.765400  0.559910  0.268310  1.0  0.0181
  C  C694  1  0.078790  0.951080  0.368490  1.0  -0.0386
  C  C695  1  0.408780  0.173290  0.710090  1.0  0.1079
  C  C696  1  0.284470  0.407190  0.380940  1.0  -0.0224
  C  C697  1  0.169600  0.920200  0.249400  1.0  -0.18
  C  C698  1  0.880130  0.639640  0.023570  1.0  -0.1467
  C  C699  1  0.173290  0.764510  0.463200  1.0  0.113
  C  C700  1  0.817100  0.479240  0.142340  1.0  -0.0489
  C  C701  1  0.906070  0.354040  0.745110  1.0  -0.14
  C  C702  1  0.857750  0.426050  0.920040  1.0  0.717
  C  C703  1  0.347450  0.869160  0.738610  1.0  -0.1297
  C  C704  1  0.360360  0.240490  0.383930  1.0  -0.146
  C  C705  1  0.573000  0.253340  0.793660  1.0  0.0524
  C  C706  1  0.003560  0.723300  0.783460  1.0  0.1498
  C  C707  1  0.639640  0.023570  0.880130  1.0  -0.1471
  C  C708  1  0.364160  0.680560  0.207000  1.0  0.0552
  C  C709  1  0.130550  0.608840  0.261390  1.0  -0.1266
  C  C710  1  0.921210  0.289700  0.872290  1.0  -0.0382
  C  C711  1  0.951080  0.872290  0.582590  1.0  -0.0357
  C  C712  1  0.686880  0.908610  0.723530  1.0  -0.0227
  C  C713  1  0.220050  0.736200  0.483850  1.0  0.0171
  C  C714  1  0.737200  0.579100  0.316300  1.0  -0.1133
  C  C715  1  0.026720  0.694740  0.831580  1.0  -0.1076
  C  C716  1  0.924900  0.568030  0.993090  1.0  0.6785
  C  C717  1  0.636850  0.278700  0.120450  1.0  0.2172
  C  C718  1  0.516400  0.358150  0.636850  1.0  0.2146
  C  C719  1  0.250600  0.235300  0.984700  1.0  0.2083
  C  C720  1  0.142250  0.062290  0.568300  1.0  0.7162
  C  C721  1  0.764700  0.015300  0.749400  1.0  0.208
  C  C722  1  0.861960  0.450970  0.072010  1.0  -0.0708
  C  C723  1  0.215130  0.111890  0.584640  1.0  -0.0703
  C  C724  1  0.592680  0.509500  0.402360  1.0  -0.1089
  C  C725  1  0.235300  0.984700  0.250600  1.0  0.2068
  C  C726  1  0.591220  0.826710  0.289910  1.0  0.1082
  C  C727  1  0.280260  0.003560  0.220100  1.0  0.1532
  C  C728  1  0.996440  0.779900  0.719740  1.0  0.1542
  C  C729  1  0.313120  0.091390  0.276470  1.0  -0.0226
  C  C730  1  0.789950  0.410990  0.861960  1.0  -0.0713
  C  C731  1  0.592810  0.619060  0.715530  1.0  -0.0193
  C  C732  1  0.284470  0.903530  0.877280  1.0  -0.0213
  C  C733  1  0.600530  0.910130  0.010060  1.0  -0.1135
  C  C734  1  0.540320  0.746660  0.319660  1.0  0.0427
  C  C735  1  0.783460  0.060160  0.779900  1.0  0.1539
  C  C736  1  0.153130  0.825810  0.173880  1.0  -0.0971
  C  C737  1  0.814920  0.036650  0.723530  1.0  -0.0154
  C  C738  1  0.582590  0.951080  0.872290  1.0  -0.0389
  C  C739  1  0.908610  0.221730  0.185080  1.0  -0.0195
  C  C740  1  0.195140  0.331980  0.026720  1.0  -0.0817
  C  C741  1  0.976430  0.616070  0.856560  1.0  -0.1438
  C  C742  1  0.070710  0.806110  0.765400  1.0  -0.0976
  C  C743  1  0.490500  0.597640  0.407320  1.0  -0.1079
  C  C744  1  0.316400  0.635840  0.842840  1.0  0.0605
  C  C745  1  0.959290  0.694690  0.765400  1.0  -0.095
  C  C746  1  0.996440  0.276700  0.216540  1.0  0.1502
  C  C747  1  0.846870  0.174190  0.826120  1.0  -0.0966
  C  C748  1  0.020750  0.173880  0.348070  1.0  -0.0967
  C  C749  1  0.360360  0.976430  0.119870  1.0  -0.1477
  C  C750  1  0.351330  0.130090  0.983220  1.0  0.0127
  C  C751  1  0.472750  0.369510  0.584640  1.0  -0.0711
  C  C752  1  0.698690  0.289910  0.463200  1.0  0.1119
  C  C753  1  0.645960  0.254890  0.093930  1.0  -0.1384
  C  C754  1  0.984700  0.250600  0.235300  1.0  0.2082
  C  C755  1  0.396760  0.245580  0.343820  1.0  -0.152
  C  C756  1  0.119870  0.360360  0.976430  1.0  -0.1468
  C  C757  1  0.652550  0.391160  0.521710  1.0  -0.1274
  C  C758  1  0.736200  0.483850  0.220050  1.0  0.0171
  C  C759  1  0.694740  0.831580  0.026720  1.0  -0.1078
  C  C760  1  0.075100  0.068190  0.643130  1.0  0.6954
  C  C761  1  0.280260  0.060160  0.276700  1.0  0.1558
  C  C762  1  0.319660  0.573000  0.779340  1.0  0.044
  C  C763  1  0.568030  0.993090  0.924900  1.0  0.6766
  C  C764  1  0.857660  0.336900  0.674760  1.0  -0.0482
  C  C765  1  0.616070  0.639640  0.759510  1.0  -0.1447
  C  C766  1  0.750600  0.670800  0.920200  1.0  -0.1756
  C  C767  1  0.130840  0.478290  0.869450  1.0  -0.1324
  C  C768  1  0.425060  0.431970  0.356870  1.0  0.7014
  C  C769  1  0.549030  0.927990  0.138040  1.0  -0.0693
  C  C770  1  0.383930  0.360360  0.240490  1.0  -0.1448
  C  C771  1  0.440090  0.205490  0.708400  1.0  0.017
  C  C772  1  0.765400  0.497090  0.205490  1.0  0.0163
  C  C773  1  0.157160  0.793000  0.473560  1.0  0.0583
  C  C774  1  0.635840  0.842840  0.316400  1.0  0.0588
  C  C775  1  0.157160  0.683600  0.364160  1.0  0.0595
  C  C776  1  0.483850  0.747650  0.263800  1.0  0.0154
  C  C777  1  0.447970  0.608930  0.354040  1.0  -0.1387
  C  C778  1  0.207000  0.364160  0.680560  1.0  0.0582
  C  C779  1  0.582590  0.710300  0.631510  1.0  -0.0391
  C  C780  1  0.206340  0.459680  0.779340  1.0  0.0469
  C  C781  1  0.869160  0.521710  0.130550  1.0  -0.1321
  C  C782  1  0.826120  0.651930  0.979250  1.0  -0.0966
  C  C783  1  0.754420  0.656180  0.603240  1.0  -0.1512
  C  C784  1  0.731690  0.234600  0.440090  1.0  0.0189
  C  C785  1  0.831580  0.026720  0.694740  1.0  -0.1091
  C  C786  1  0.592680  0.190320  0.083180  1.0  -0.1046
  C  C787  1  0.289910  0.463200  0.698690  1.0  0.1102
  C  C788  1  0.619060  0.026250  0.903530  1.0  -0.0226
  C  C789  1  0.240490  0.383930  0.360360  1.0  -0.1444
  C  C790  1  0.779900  0.719740  0.996440  1.0  0.1522
  C  C791  1  0.264600  0.070710  0.305310  1.0  -0.0957
  C  C792  1  0.305310  0.234600  0.040710  1.0  -0.0959
  C  C793  1  0.351330  0.368110  0.221240  1.0  0.0156
  C  C794  1  0.221730  0.313120  0.036650  1.0  -0.0173
  C  C795  1  0.869910  0.221240  0.853130  1.0  0.0152
  C  C796  1  0.158100  0.737200  0.420900  1.0  -0.1076
  C  C797  1  0.216540  0.939840  0.220100  1.0  0.1542
  C  C798  1  0.089870  0.690400  0.099930  1.0  -0.1109
  C  C799  1  0.521710  0.130550  0.869160  1.0  -0.1314
  C  C800  1  0.182900  0.520760  0.857660  1.0  -0.0456
  C  C801  1  0.136840  0.804860  0.831580  1.0  -0.088
  C  C802  1  0.289700  0.872290  0.921210  1.0  -0.0376
  C  C803  1  0.354040  0.447970  0.608930  1.0  -0.1399
  C  C804  1  0.250600  0.265900  0.015300  1.0  0.212
  C  C805  1  0.358150  0.636850  0.516400  1.0  0.2137
  C  C806  1  0.842840  0.316400  0.635840  1.0  0.0582
  C  C807  1  0.336900  0.674760  0.857660  1.0  -0.0459
  C  C808  1  0.779950  0.263800  0.516150  1.0  0.0173
  C  C809  1  0.621040  0.549030  0.410990  1.0  -0.0712
  C  C810  1  0.931810  0.356870  0.924900  1.0  0.6948
  C  C811  1  0.939840  0.220100  0.216540  1.0  0.1521
  C  C812  1  0.645960  0.552030  0.391070  1.0  -0.1384
  C  C813  1  0.983220  0.853130  0.631890  1.0  0.0075
  C  C814  1  0.309600  0.900070  0.910130  1.0  -0.1115
  C  C815  1  0.205490  0.708400  0.440090  1.0  0.0175
  C  C816  1  0.680340  0.427000  0.220660  1.0  0.0505
  C  C817  1  0.091390  0.276470  0.313120  1.0  -0.0224
  C  C818  1  0.431700  0.493990  0.573950  1.0  0.7144
  C  C819  1  0.343820  0.098240  0.947060  1.0  -0.1502
  C  C820  1  0.947060  0.848820  0.603240  1.0  -0.1505
  C  C821  1  0.252350  0.736200  0.516150  1.0  0.0157
  C  C822  1  0.331980  0.136840  0.305260  1.0  -0.1071
  C  C823  1  0.848820  0.603240  0.947060  1.0  -0.151
  C  C824  1  0.174190  0.327320  0.348070  1.0  -0.1277
  C  C825  1  0.921210  0.048920  0.631510  1.0  -0.0362
  C  C826  1  0.683600  0.526440  0.319440  1.0  0.0561
  C  C827  1  0.240490  0.880130  0.856560  1.0  -0.1441
  C  C828  1  0.431700  0.857750  0.937710  1.0  0.7153
  C  C829  1  0.929290  0.694690  0.735400  1.0  -0.0974
  C  C830  1  0.920200  0.750600  0.670800  1.0  -0.1792
  C  C831  1  0.879550  0.363150  0.721300  1.0  0.2163
  C  C832  1  0.826710  0.235490  0.536800  1.0  0.1121
  C  C833  1  0.989940  0.900070  0.590470  1.0  -0.1099
  C  C834  1  0.193890  0.234600  0.929290  1.0  -0.0975
  C  C835  1  0.591220  0.301310  0.764510  1.0  0.1071
  C  C836  1  0.301310  0.764510  0.591220  1.0  0.1051
  C  C837  1  0.052940  0.656180  0.901760  1.0  -0.1508
  C  C838  1  0.872290  0.582590  0.951080  1.0  -0.0389
  C  C839  1  0.648670  0.869910  0.016780  1.0  0.0153
  C  C840  1  0.010060  0.600530  0.910130  1.0  -0.1115
  C  C841  1  0.220660  0.680340  0.427000  1.0  0.0455
  C  C842  1  0.690400  0.099930  0.089870  1.0  -0.1131
  C  C843  1  0.745110  0.906070  0.354040  1.0  -0.1378
  C  C844  1  0.305310  0.264600  0.070710  1.0  -0.0959
  C  C845  1  0.778270  0.686880  0.963350  1.0  -0.0176
  C  C846  1  0.235490  0.408780  0.698690  1.0  0.1051
  C  C847  1  0.472750  0.888110  0.103240  1.0  -0.0715
  C  C848  1  0.719740  0.939840  0.723300  1.0  0.1536
  C  C849  1  0.600530  0.590470  0.690400  1.0  -0.1183
  C  C850  1  0.278700  0.641850  0.158250  1.0  0.2173
  C  C851  1  0.091390  0.778270  0.814920  1.0  -0.0186
  C  C852  1  0.235490  0.536800  0.826710  1.0  0.1123
  C  C853  1  0.993090  0.425060  0.068190  1.0  0.7019
  C  C854  1  0.278700  0.120450  0.636850  1.0  0.2157
  C  C855  1  0.337860  0.663100  0.520760  1.0  -0.0492
  C  C856  1  0.261390  0.130550  0.608840  1.0  -0.1316
  C  C857  1  0.908610  0.723530  0.686880  1.0  -0.0236
  C  C858  1  0.099930  0.409530  0.010060  1.0  -0.1084
  C  C859  1  0.490500  0.083180  0.892860  1.0  -0.1082
  C  C860  1  0.206340  0.427000  0.746660  1.0  0.0498
  C  C861  1  0.151180  0.396760  0.052940  1.0  -0.1505
  C  C862  1  0.185080  0.963350  0.276470  1.0  -0.016
  C  C863  1  0.483850  0.220050  0.736200  1.0  0.0175
  C  C864  1  0.698690  0.235490  0.408780  1.0  0.1058
  C  C865  1  0.138040  0.549030  0.927990  1.0  -0.072
  C  C866  1  0.635840  0.319440  0.793000  1.0  0.0568
  C  C867  1  0.309600  0.399470  0.409530  1.0  -0.1133
  C  C868  1  0.652550  0.130840  0.261390  1.0  -0.1283
  C  C869  1  0.130090  0.983220  0.351330  1.0  0.0138
  C  C870  1  0.096470  0.380940  0.973750  1.0  -0.0199
  C  C871  1  0.672680  0.651930  0.825810  1.0  -0.1256
  C  C872  1  0.841750  0.483600  0.120450  1.0  0.2162
  C  C873  1  0.096470  0.122720  0.715530  1.0  -0.0194
  C  C874  1  0.747650  0.263800  0.483850  1.0  0.0155
  C  C875  1  0.263800  0.516150  0.779950  1.0  0.0172
  C  C876  1  0.710090  0.408780  0.173290  1.0  0.1064
  C  C877  1  0.715530  0.096470  0.122720  1.0  -0.0215
  C  C878  1  0.368490  0.417410  0.289700  1.0  -0.0371
  C  C879  1  0.083180  0.592680  0.190320  1.0  -0.1108
  C  C880  1  0.305260  0.168420  0.973280  1.0  -0.1048
  C  C881  1  0.631890  0.778760  0.648670  1.0  0.0181
  C  C882  1  0.710300  0.127710  0.078790  1.0  -0.0371
  C  C883  1  0.220660  0.793660  0.540320  1.0  0.0459
  C  C884  1  0.431970  0.006910  0.075100  1.0  0.6761
  C  C885  1  0.959290  0.193890  0.264600  1.0  -0.0965
  C  C886  1  0.745110  0.391070  0.839040  1.0  -0.1383
  C  C887  1  0.993090  0.924900  0.568030  1.0  0.6767
  C  C888  1  0.093930  0.839040  0.447970  1.0  -0.1392
  C  C889  1  0.052940  0.151180  0.396760  1.0  -0.148
  C  C890  1  0.574940  0.931810  0.006910  1.0  0.7048
  C  C891  1  0.427000  0.220660  0.680340  1.0  0.0457
  C  C892  1  0.723300  0.783460  0.003560  1.0  0.1479
  C  C893  1  0.643130  0.574940  0.568030  1.0  0.7036
  C  C894  1  0.072010  0.621040  0.210050  1.0  -0.0691
  C  C895  1  0.794510  0.234600  0.502910  1.0  0.0161
  C  C896  1  0.136840  0.305260  0.331980  1.0  -0.1096
  C  C897  1  0.880130  0.856560  0.240490  1.0  -0.1465
  C  C898  1  0.502910  0.794510  0.234600  1.0  0.0164
  C  C899  1  0.527250  0.111890  0.896760  1.0  -0.0702
  C  C900  1  0.276470  0.185080  0.963350  1.0  -0.0162
  C  C901  1  0.079960  0.506010  0.937710  1.0  0.7149
  C  C902  1  0.779340  0.206340  0.459680  1.0  0.0463
  C  C903  1  0.142340  0.663100  0.325240  1.0  -0.0447
  C  C904  1  0.354040  0.745110  0.906070  1.0  -0.1392
  C  C905  1  0.450970  0.589010  0.378960  1.0  -0.0704
  C  C906  1  0.265900  0.015300  0.250600  1.0  0.2127
  C  C907  1  0.573950  0.079960  0.142250  1.0  0.7147
  C  C908  1  0.516150  0.779950  0.263800  1.0  0.0177
  C  C909  1  0.378960  0.450970  0.589010  1.0  -0.07
  C  C910  1  0.694740  0.668020  0.863160  1.0  -0.1117
  C  C911  1  0.313120  0.036650  0.221730  1.0  -0.0158
  C  C912  1  0.319660  0.540320  0.746660  1.0  0.0445
  O  O913  1  0.000000  0.000000  0.444660  1.0  -0.9655
  O  O914  1  0.457770  0.531400  0.583930  1.0  -0.6373
  O  O915  1  0.531400  0.073630  0.947470  1.0  -0.6355
  O  O916  1  0.947330  0.004840  0.502490  1.0  -0.9525
  O  O917  1  0.942490  0.947330  0.444840  1.0  -0.9436
  O  O918  1  0.626700  0.050150  0.080230  1.0  -0.6542
  O  O919  1  0.622720  0.080730  0.038230  1.0  -0.6398
  O  O920  1  0.454230  0.576690  0.541640  1.0  -0.6351
  O  O921  1  0.458010  0.377280  0.415510  1.0  -0.6399
  O  O922  1  0.458360  0.545770  0.423310  1.0  -0.6351
  O  O923  1  0.057510  0.052670  0.555160  1.0  -0.944
  O  O924  1  0.626700  0.546470  0.576550  1.0  -0.6547
  O  O925  1  0.373300  0.453530  0.423450  1.0  -0.6551
  O  O926  1  0.995160  0.942490  0.497650  1.0  -0.9439
  O  O927  1  0.926370  0.457770  0.873840  1.0  -0.6354
  O  O928  1  0.030080  0.453530  0.080230  1.0  -0.654
  O  O929  1  0.576690  0.122460  0.035050  1.0  -0.6325
  O  O930  1  0.415510  0.458010  0.377280  1.0  -0.6419
  O  O931  1  0.497510  0.052670  0.995160  1.0  -0.9546
  O  O932  1  0.555160  0.057510  0.052670  1.0  -0.9431
  O  O933  1  0.122460  0.545770  0.087410  1.0  -0.6358
  O  O934  1  0.873840  0.926370  0.457770  1.0  -0.6346
  O  O935  1  0.453530  0.423450  0.373300  1.0  -0.653
  O  O936  1  0.050150  0.423450  0.969920  1.0  -0.6517
  O  O937  1  0.444840  0.497510  0.502350  1.0  -0.9487
  O  O938  1  0.057510  0.502350  0.004840  1.0  -0.9441
  O  O939  1  0.961770  0.042500  0.584490  1.0  -0.6437
  O  O940  1  0.035050  0.912590  0.458360  1.0  -0.6335
  O  O941  1  0.444840  0.942490  0.947330  1.0  -0.943
  O  O942  1  0.969920  0.546470  0.919770  1.0  -0.653
  O  O943  1  0.042500  0.584490  0.961770  1.0  -0.6414
  O  O944  1  0.423310  0.877540  0.964950  1.0  -0.6336
  O  O945  1  0.873840  0.416070  0.947470  1.0  -0.6349
  O  O946  1  0.458010  0.042500  0.080730  1.0  -0.6442
  O  O947  1  0.545770  0.423310  0.458360  1.0  -0.6336
  O  O948  1  0.052670  0.995160  0.497510  1.0  -0.9554
  O  O949  1  0.080230  0.030080  0.453530  1.0  -0.6528
  O  O950  1  0.947470  0.531400  0.073630  1.0  -0.6376
  O  O951  1  0.546470  0.919770  0.969920  1.0  -0.6507
  O  O952  1  0.122460  0.035050  0.576690  1.0  -0.6362
  O  O953  1  0.541990  0.622720  0.584490  1.0  -0.6406
  O  O954  1  0.000000  0.444660  0.000000  1.0  -0.9667
  O  O955  1  0.468600  0.416070  0.542230  1.0  -0.6357
  O  O956  1  0.576690  0.541640  0.454230  1.0  -0.6366
  O  O957  1  0.584490  0.961770  0.042500  1.0  -0.6425
  O  O958  1  0.000000  0.000000  0.555340  1.0  -0.965
  O  O959  1  0.423310  0.458360  0.545770  1.0  -0.6374
  O  O960  1  0.087410  0.122460  0.545770  1.0  -0.6322
  O  O961  1  0.497510  0.502350  0.444840  1.0  -0.9505
  O  O962  1  0.942490  0.497650  0.995160  1.0  -0.9404
  O  O963  1  0.416070  0.947470  0.873840  1.0  -0.6355
  O  O964  1  0.919270  0.541990  0.957500  1.0  -0.6425
  O  O965  1  0.126160  0.583930  0.052530  1.0  -0.635
  O  O966  1  0.912590  0.877540  0.454230  1.0  -0.6328
  O  O967  1  0.961770  0.377280  0.919270  1.0  -0.6405
  O  O968  1  0.576550  0.030080  0.949850  1.0  -0.6531
  O  O969  1  0.531400  0.583930  0.457770  1.0  -0.6356
  O  O970  1  0.583930  0.052530  0.126160  1.0  -0.6367
  O  O971  1  0.444660  0.000000  0.000000  1.0  -0.9634
  O  O972  1  0.080730  0.458010  0.042500  1.0  -0.6415
  O  O973  1  0.497650  0.555160  0.502490  1.0  -0.9525
  O  O974  1  0.052530  0.126160  0.583930  1.0  -0.6334
  O  O975  1  0.926370  0.052530  0.468600  1.0  -0.6359
  O  O976  1  0.546470  0.576550  0.626700  1.0  -0.6533
  O  O977  1  0.038230  0.622720  0.080730  1.0  -0.6404
  O  O978  1  0.912590  0.458360  0.035050  1.0  -0.638
  O  O979  1  0.919770  0.969920  0.546470  1.0  -0.6546
  O  O980  1  0.416070  0.542230  0.468600  1.0  -0.6361
  O  O981  1  0.458360  0.035050  0.912590  1.0  -0.6343
  O  O982  1  0.073630  0.542230  0.126160  1.0  -0.6365
  O  O983  1  0.423450  0.969920  0.050150  1.0  -0.6553
  O  O984  1  0.947470  0.873840  0.416070  1.0  -0.6353
  O  O985  1  0.004840  0.057510  0.502350  1.0  -0.9433
  O  O986  1  0.969920  0.050150  0.423450  1.0  -0.6529
  O  O987  1  0.877540  0.964950  0.423310  1.0  -0.6367
  O  O988  1  0.423450  0.373300  0.453530  1.0  -0.6515
  O  O989  1  0.502350  0.444840  0.497510  1.0  -0.9529
  O  O990  1  0.126160  0.073630  0.542230  1.0  -0.6345
  O  O991  1  0.004840  0.502490  0.947330  1.0  -0.9542
  O  O992  1  0.957500  0.919270  0.541990  1.0  -0.6406
  O  O993  1  0.949850  0.919770  0.373300  1.0  -0.6529
  O  O994  1  0.964950  0.087410  0.541640  1.0  -0.6357
  O  O995  1  0.468600  0.926370  0.052530  1.0  -0.6363
  O  O996  1  0.555160  0.502490  0.497650  1.0  -0.9525
  O  O997  1  0.444660  0.444660  0.444660  1.0  -0.9667
  O  O998  1  0.038230  0.957500  0.415510  1.0  -0.6427
  O  O999  1  0.000000  0.555340  0.000000  1.0  -0.967
  O  O1000  1  0.947330  0.444840  0.942490  1.0  -0.9431
  O  O1001  1  0.497650  0.995160  0.942490  1.0  -0.9417
  O  O1002  1  0.877540  0.454230  0.912590  1.0  -0.6363
  O  O1003  1  0.584490  0.541990  0.622720  1.0  -0.6429
  O  O1004  1  0.457770  0.873840  0.926370  1.0  -0.6347
  O  O1005  1  0.622720  0.584490  0.541990  1.0  -0.6406
  O  O1006  1  0.502490  0.497650  0.555160  1.0  -0.9516
  O  O1007  1  0.545770  0.087410  0.122460  1.0  -0.6359
  O  O1008  1  0.080230  0.626700  0.050150  1.0  -0.6513
  O  O1009  1  0.919770  0.373300  0.949850  1.0  -0.651
  O  O1010  1  0.576550  0.626700  0.546470  1.0  -0.6513
  O  O1011  1  0.542230  0.126160  0.073630  1.0  -0.6333
  O  O1012  1  0.035050  0.576690  0.122460  1.0  -0.6348
  O  O1013  1  0.583930  0.457770  0.531400  1.0  -0.6349
  O  O1014  1  0.541990  0.957500  0.919270  1.0  -0.643
  O  O1015  1  0.502350  0.004840  0.057510  1.0  -0.9432
  O  O1016  1  0.050150  0.080230  0.626700  1.0  -0.6524
  O  O1017  1  0.373300  0.949850  0.919770  1.0  -0.654
  O  O1018  1  0.415510  0.038230  0.957500  1.0  -0.6437
  O  O1019  1  0.030080  0.949850  0.576550  1.0  -0.6538
  O  O1020  1  0.555340  0.000000  0.000000  1.0  -0.9666
  O  O1021  1  0.052670  0.555160  0.057510  1.0  -0.943
  O  O1022  1  0.502490  0.947330  0.004840  1.0  -0.9564
  O  O1023  1  0.453530  0.080230  0.030080  1.0  -0.6529
  O  O1024  1  0.541640  0.454230  0.576690  1.0  -0.6365
  O  O1025  1  0.377280  0.415510  0.458010  1.0  -0.6412
  O  O1026  1  0.964950  0.423310  0.877540  1.0  -0.6351
  O  O1027  1  0.377280  0.919270  0.961770  1.0  -0.6407
  O  O1028  1  0.087410  0.541640  0.964950  1.0  -0.6369
  O  O1029  1  0.949850  0.576550  0.030080  1.0  -0.6531
  O  O1030  1  0.080730  0.038230  0.622720  1.0  -0.6422
  O  O1031  1  0.052530  0.468600  0.926370  1.0  -0.6366
  O  O1032  1  0.542230  0.468600  0.416070  1.0  -0.6358
  O  O1033  1  0.957500  0.415510  0.038230  1.0  -0.6426
  O  O1034  1  0.919270  0.961770  0.377280  1.0  -0.6423
  O  O1035  1  0.995160  0.497510  0.052670  1.0  -0.9556
  O  O1036  1  0.454230  0.912590  0.877540  1.0  -0.6353
  O  O1037  1  0.073630  0.947470  0.531400  1.0  -0.6355
  O  O1038  1  0.042500  0.080730  0.458010  1.0  -0.6404
  O  O1039  1  0.555340  0.555340  0.555340  1.0  -0.9662
  O  O1040  1  0.541640  0.964950  0.087410  1.0  -0.6359
