# generated using pymatgen
data_Dy4H104C112O17
_symmetry_space_group_name_H-M   'P 1'
_cell_length_a   34.83700000
_cell_length_b   34.83700000
_cell_length_c   34.83700000
_cell_angle_alpha   60.00000000
_cell_angle_beta   60.00000000
_cell_angle_gamma   60.00000000
_symmetry_Int_Tables_number   1
_chemical_formula_structural   Dy4H104C112O17
_chemical_formula_sum   'Dy24 H624 C672 O102'
_cell_volume   29895.59818908
_cell_formula_units_Z   6
loop_
 _symmetry_equiv_pos_site_id
 _symmetry_equiv_pos_as_xyz
  1  'x, y, z'
loop_
 _atom_site_type_symbol
 _atom_site_label
 _atom_site_symmetry_multiplicity
 _atom_site_fract_x
 _atom_site_fract_y
 _atom_site_fract_z
 _atom_site_occupancy
 _atom_site_charge
  Dy  Dy1  1  0.522760  0.058580  0.941420  1.0  2.2533
  Dy  Dy2  1  0.058580  0.522760  0.477240  1.0  2.253
  Dy  Dy3  1  0.941420  0.477240  0.522760  1.0  2.2543
  Dy  Dy4  1  0.477240  0.941420  0.058580  1.0  2.2546
  Dy  Dy5  1  0.522760  0.941420  0.477240  1.0  2.2428
  Dy  Dy6  1  0.058580  0.477240  0.941420  1.0  2.2419
  Dy  Dy7  1  0.941420  0.522760  0.058580  1.0  2.2469
  Dy  Dy8  1  0.477240  0.058580  0.522760  1.0  2.2481
  Dy  Dy9  1  0.522760  0.477240  0.058580  1.0  2.2467
  Dy  Dy10  1  0.058580  0.941420  0.522760  1.0  2.2489
  Dy  Dy11  1  0.941420  0.058580  0.477240  1.0  2.2452
  Dy  Dy12  1  0.477240  0.522760  0.941420  1.0  2.2432
  Dy  Dy13  1  0.441420  0.977240  0.558580  1.0  2.2543
  Dy  Dy14  1  0.977240  0.441420  0.022760  1.0  2.2546
  Dy  Dy15  1  0.022760  0.558580  0.977240  1.0  2.2531
  Dy  Dy16  1  0.558580  0.022760  0.441420  1.0  2.2533
  Dy  Dy17  1  0.558580  0.977240  0.022760  1.0  2.2474
  Dy  Dy18  1  0.022760  0.441420  0.558580  1.0  2.2481
  Dy  Dy19  1  0.977240  0.558580  0.441420  1.0  2.2423
  Dy  Dy20  1  0.441420  0.022760  0.977240  1.0  2.2412
  Dy  Dy21  1  0.022760  0.977240  0.441420  1.0  2.2431
  Dy  Dy22  1  0.558580  0.441420  0.977240  1.0  2.2458
  Dy  Dy23  1  0.441420  0.558580  0.022760  1.0  2.2485
  Dy  Dy24  1  0.977240  0.022760  0.558580  1.0  2.2469
  H  H25  1  0.541700  0.052300  0.074700  1.0  0.1132
  H  H26  1  0.554900  0.201900  0.009900  1.0  0.1203
  H  H27  1  0.550300  0.173100  0.965700  1.0  0.0919
  H  H28  1  0.593300  0.010100  0.170100  1.0  0.0908
  H  H29  1  0.589000  0.008400  0.127400  1.0  0.0881
  H  H30  1  0.638400  0.056400  0.073200  1.0  0.1077
  H  H31  1  0.665200  0.007400  0.105000  1.0  0.1151
  H  H32  1  0.644600  0.054400  0.116800  1.0  0.1096
  H  H33  1  0.499500  0.043300  0.159100  1.0  0.0787
  H  H34  1  0.503200  0.044600  0.202400  1.0  0.0873
  H  H35  1  0.457600  0.123000  0.187400  1.0  0.1074
  H  H36  1  0.430500  0.096300  0.188700  1.0  0.1165
  H  H37  1  0.458600  0.126400  0.139400  1.0  0.1078
  H  H38  1  0.052300  0.541700  0.331300  1.0  0.1132
  H  H39  1  0.201900  0.554900  0.233300  1.0  0.12
  H  H40  1  0.173100  0.550300  0.310900  1.0  0.0944
  H  H41  1  0.010100  0.593300  0.226500  1.0  0.0909
  H  H42  1  0.008400  0.589000  0.275200  1.0  0.0851
  H  H43  1  0.056400  0.638400  0.232000  1.0  0.1064
  H  H44  1  0.007400  0.665200  0.222400  1.0  0.1156
  H  H45  1  0.054400  0.644600  0.184200  1.0  0.1117
  H  H46  1  0.043300  0.499500  0.298100  1.0  0.0784
  H  H47  1  0.044600  0.503200  0.249800  1.0  0.0879
  H  H48  1  0.123000  0.457600  0.232000  1.0  0.1085
  H  H49  1  0.096300  0.430500  0.284500  1.0  0.1154
  H  H50  1  0.126400  0.458600  0.275600  1.0  0.1089
  H  H51  1  0.074700  0.331300  0.541700  1.0  0.1135
  H  H52  1  0.009900  0.233300  0.554900  1.0  0.1201
  H  H53  1  0.965700  0.310900  0.550300  1.0  0.0919
  H  H54  1  0.170100  0.226500  0.593300  1.0  0.0893
  H  H55  1  0.127400  0.275200  0.589000  1.0  0.0815
  H  H56  1  0.073200  0.232000  0.638400  1.0  0.1076
  H  H57  1  0.105000  0.222400  0.665200  1.0  0.1136
  H  H58  1  0.116800  0.184200  0.644600  1.0  0.1102
  H  H59  1  0.159100  0.298100  0.499500  1.0  0.0774
  H  H60  1  0.202400  0.249800  0.503200  1.0  0.088
  H  H61  1  0.187400  0.232000  0.457600  1.0  0.1081
  H  H62  1  0.188700  0.284500  0.430500  1.0  0.1158
  H  H63  1  0.139400  0.275600  0.458600  1.0  0.1055
  H  H64  1  0.331300  0.074700  0.052300  1.0  0.1135
  H  H65  1  0.233300  0.009900  0.201900  1.0  0.1187
  H  H66  1  0.310900  0.965700  0.173100  1.0  0.0914
  H  H67  1  0.226500  0.170100  0.010100  1.0  0.0887
  H  H68  1  0.275200  0.127400  0.008400  1.0  0.0789
  H  H69  1  0.232000  0.073200  0.056400  1.0  0.1079
  H  H70  1  0.222400  0.105000  0.007400  1.0  0.1153
  H  H71  1  0.184200  0.116800  0.054400  1.0  0.1076
  H  H72  1  0.298100  0.159100  0.043300  1.0  0.0826
  H  H73  1  0.249800  0.202400  0.044600  1.0  0.0878
  H  H74  1  0.232000  0.187400  0.123000  1.0  0.1056
  H  H75  1  0.284500  0.188700  0.096300  1.0  0.1149
  H  H76  1  0.275600  0.139400  0.126400  1.0  0.1084
  H  H77  1  0.541700  0.074700  0.331300  1.0  0.1136
  H  H78  1  0.554900  0.009900  0.233300  1.0  0.1182
  H  H79  1  0.550300  0.965700  0.310900  1.0  0.0919
  H  H80  1  0.593300  0.170100  0.226500  1.0  0.0887
  H  H81  1  0.589000  0.127400  0.275200  1.0  0.0845
  H  H82  1  0.638400  0.073200  0.232000  1.0  0.107
  H  H83  1  0.665200  0.105000  0.222400  1.0  0.1137
  H  H84  1  0.644600  0.116800  0.184200  1.0  0.1109
  H  H85  1  0.499500  0.159100  0.298100  1.0  0.08
  H  H86  1  0.503200  0.202400  0.249800  1.0  0.0883
  H  H87  1  0.457600  0.187400  0.232000  1.0  0.1058
  H  H88  1  0.430500  0.188700  0.284500  1.0  0.1154
  H  H89  1  0.458600  0.139400  0.275600  1.0  0.1074
  H  H90  1  0.052300  0.331300  0.074700  1.0  0.1136
  H  H91  1  0.201900  0.233300  0.009900  1.0  0.1227
  H  H92  1  0.173100  0.310900  0.965700  1.0  0.0917
  H  H93  1  0.010100  0.226500  0.170100  1.0  0.0882
  H  H94  1  0.008400  0.275200  0.127400  1.0  0.0839
  H  H95  1  0.056400  0.232000  0.073200  1.0  0.1061
  H  H96  1  0.007400  0.222400  0.105000  1.0  0.1113
  H  H97  1  0.054400  0.184200  0.116800  1.0  0.1099
  H  H98  1  0.043300  0.298100  0.159100  1.0  0.0783
  H  H99  1  0.044600  0.249800  0.202400  1.0  0.0885
  H  H100  1  0.123000  0.232000  0.187400  1.0  0.1078
  H  H101  1  0.096300  0.284500  0.188700  1.0  0.1156
  H  H102  1  0.126400  0.275600  0.139400  1.0  0.1107
  H  H103  1  0.074700  0.541700  0.052300  1.0  0.1141
  H  H104  1  0.009900  0.554900  0.201900  1.0  0.1214
  H  H105  1  0.965700  0.550300  0.173100  1.0  0.0939
  H  H106  1  0.170100  0.593300  0.010100  1.0  0.0898
  H  H107  1  0.127400  0.589000  0.008400  1.0  0.0848
  H  H108  1  0.073200  0.638400  0.056400  1.0  0.1061
  H  H109  1  0.105000  0.665200  0.007400  1.0  0.1142
  H  H110  1  0.116800  0.644600  0.054400  1.0  0.111
  H  H111  1  0.159100  0.499500  0.043300  1.0  0.0788
  H  H112  1  0.202400  0.503200  0.044600  1.0  0.0879
  H  H113  1  0.187400  0.457600  0.123000  1.0  0.1082
  H  H114  1  0.188700  0.430500  0.096300  1.0  0.1137
  H  H115  1  0.139400  0.458600  0.126400  1.0  0.1092
  H  H116  1  0.331300  0.052300  0.541700  1.0  0.1133
  H  H117  1  0.233300  0.201900  0.554900  1.0  0.12
  H  H118  1  0.310900  0.173100  0.550300  1.0  0.0919
  H  H119  1  0.226500  0.010100  0.593300  1.0  0.0882
  H  H120  1  0.275200  0.008400  0.589000  1.0  0.0846
  H  H121  1  0.232000  0.056400  0.638400  1.0  0.1078
  H  H122  1  0.222400  0.007400  0.665200  1.0  0.1139
  H  H123  1  0.184200  0.054400  0.644600  1.0  0.1105
  H  H124  1  0.298100  0.043300  0.499500  1.0  0.081
  H  H125  1  0.249800  0.044600  0.503200  1.0  0.0884
  H  H126  1  0.232000  0.123000  0.457600  1.0  0.1065
  H  H127  1  0.284500  0.096300  0.430500  1.0  0.1175
  H  H128  1  0.275600  0.126400  0.458600  1.0  0.1087
  H  H129  1  0.541700  0.331300  0.052300  1.0  0.1148
  H  H130  1  0.554900  0.233300  0.201900  1.0  0.1191
  H  H131  1  0.550300  0.310900  0.173100  1.0  0.0924
  H  H132  1  0.593300  0.226500  0.010100  1.0  0.0889
  H  H133  1  0.589000  0.275200  0.008400  1.0  0.0836
  H  H134  1  0.638400  0.232000  0.056400  1.0  0.1076
  H  H135  1  0.665200  0.222400  0.007400  1.0  0.1149
  H  H136  1  0.644600  0.184200  0.054400  1.0  0.1083
  H  H137  1  0.499500  0.298100  0.043300  1.0  0.0767
  H  H138  1  0.503200  0.249800  0.044600  1.0  0.0876
  H  H139  1  0.457600  0.232000  0.123000  1.0  0.1072
  H  H140  1  0.430500  0.284500  0.096300  1.0  0.1158
  H  H141  1  0.458600  0.275600  0.126400  1.0  0.1078
  H  H142  1  0.052300  0.074700  0.541700  1.0  0.1127
  H  H143  1  0.201900  0.009900  0.554900  1.0  0.1189
  H  H144  1  0.173100  0.965700  0.550300  1.0  0.0916
  H  H145  1  0.010100  0.170100  0.593300  1.0  0.0882
  H  H146  1  0.008400  0.127400  0.589000  1.0  0.0856
  H  H147  1  0.056400  0.073200  0.638400  1.0  0.107
  H  H148  1  0.007400  0.105000  0.665200  1.0  0.1122
  H  H149  1  0.054400  0.116800  0.644600  1.0  0.1133
  H  H150  1  0.043300  0.159100  0.499500  1.0  0.08
  H  H151  1  0.044600  0.202400  0.503200  1.0  0.0899
  H  H152  1  0.123000  0.187400  0.457600  1.0  0.1073
  H  H153  1  0.096300  0.188700  0.430500  1.0  0.1181
  H  H154  1  0.126400  0.139400  0.458600  1.0  0.1084
  H  H155  1  0.074700  0.052300  0.331300  1.0  0.1137
  H  H156  1  0.009900  0.201900  0.233300  1.0  0.1191
  H  H157  1  0.965700  0.173100  0.310900  1.0  0.0914
  H  H158  1  0.170100  0.010100  0.226500  1.0  0.0858
  H  H159  1  0.127400  0.008400  0.275200  1.0  0.0863
  H  H160  1  0.073200  0.056400  0.232000  1.0  0.1061
  H  H161  1  0.105000  0.007400  0.222400  1.0  0.1126
  H  H162  1  0.116800  0.054400  0.184200  1.0  0.1113
  H  H163  1  0.159100  0.043300  0.298100  1.0  0.0801
  H  H164  1  0.202400  0.044600  0.249800  1.0  0.0889
  H  H165  1  0.187400  0.123000  0.232000  1.0  0.1067
  H  H166  1  0.188700  0.096300  0.284500  1.0  0.1163
  H  H167  1  0.139400  0.126400  0.275600  1.0  0.1085
  H  H168  1  0.331300  0.541700  0.074700  1.0  0.1141
  H  H169  1  0.233300  0.554900  0.009900  1.0  0.1201
  H  H170  1  0.310900  0.550300  0.965700  1.0  0.0947
  H  H171  1  0.226500  0.593300  0.170100  1.0  0.0909
  H  H172  1  0.275200  0.589000  0.127400  1.0  0.0868
  H  H173  1  0.232000  0.638400  0.073200  1.0  0.1076
  H  H174  1  0.222400  0.665200  0.105000  1.0  0.1142
  H  H175  1  0.184200  0.644600  0.116800  1.0  0.1099
  H  H176  1  0.298100  0.499500  0.159100  1.0  0.0805
  H  H177  1  0.249800  0.503200  0.202400  1.0  0.0878
  H  H178  1  0.232000  0.457600  0.187400  1.0  0.1076
  H  H179  1  0.284500  0.430500  0.188700  1.0  0.1149
  H  H180  1  0.275600  0.458600  0.139400  1.0  0.1078
  H  H181  1  0.447700  0.958300  0.425300  1.0  0.1131
  H  H182  1  0.298100  0.945100  0.490100  1.0  0.1201
  H  H183  1  0.326900  0.949700  0.534300  1.0  0.0942
  H  H184  1  0.489900  0.906700  0.329900  1.0  0.0895
  H  H185  1  0.491600  0.911000  0.372600  1.0  0.0866
  H  H186  1  0.443600  0.861600  0.426800  1.0  0.1077
  H  H187  1  0.492600  0.834800  0.395000  1.0  0.1134
  H  H188  1  0.445600  0.855400  0.383200  1.0  0.1116
  H  H189  1  0.456700  0.000500  0.340900  1.0  0.0781
  H  H190  1  0.455400  0.996800  0.297600  1.0  0.0879
  H  H191  1  0.377000  0.042400  0.312600  1.0  0.108
  H  H192  1  0.403700  0.069500  0.311300  1.0  0.1152
  H  H193  1  0.373600  0.041400  0.360600  1.0  0.1091
  H  H194  1  0.958300  0.447700  0.168700  1.0  0.1135
  H  H195  1  0.945100  0.298100  0.266700  1.0  0.1214
  H  H196  1  0.949700  0.326900  0.189100  1.0  0.0917
  H  H197  1  0.906700  0.489900  0.273500  1.0  0.0894
  H  H198  1  0.911000  0.491600  0.224800  1.0  0.0903
  H  H199  1  0.861600  0.443600  0.268000  1.0  0.1065
  H  H200  1  0.834800  0.492600  0.277600  1.0  0.1155
  H  H201  1  0.855400  0.445600  0.315800  1.0  0.1101
  H  H202  1  0.000500  0.456700  0.201900  1.0  0.0795
  H  H203  1  0.996800  0.455400  0.250200  1.0  0.0877
  H  H204  1  0.042400  0.377000  0.268000  1.0  0.1077
  H  H205  1  0.069500  0.403700  0.215500  1.0  0.118
  H  H206  1  0.041400  0.373600  0.224400  1.0  0.1085
  H  H207  1  0.168700  0.425300  0.958300  1.0  0.1133
  H  H208  1  0.266700  0.490100  0.945100  1.0  0.1209
  H  H209  1  0.189100  0.534300  0.949700  1.0  0.0921
  H  H210  1  0.273500  0.329900  0.906700  1.0  0.0876
  H  H211  1  0.224800  0.372600  0.911000  1.0  0.0772
  H  H212  1  0.268000  0.426800  0.861600  1.0  0.1095
  H  H213  1  0.277600  0.395000  0.834800  1.0  0.1138
  H  H214  1  0.315800  0.383200  0.855400  1.0  0.1125
  H  H215  1  0.201900  0.340900  0.000500  1.0  0.0807
  H  H216  1  0.250200  0.297600  0.996800  1.0  0.0889
  H  H217  1  0.268000  0.312600  0.042400  1.0  0.1078
  H  H218  1  0.215500  0.311300  0.069500  1.0  0.1158
  H  H219  1  0.224400  0.360600  0.041400  1.0  0.109
  H  H220  1  0.425300  0.168700  0.447700  1.0  0.113
  H  H221  1  0.490100  0.266700  0.298100  1.0  0.1178
  H  H222  1  0.534300  0.189100  0.326900  1.0  0.0912
  H  H223  1  0.329900  0.273500  0.489900  1.0  0.0878
  H  H224  1  0.372600  0.224800  0.491600  1.0  0.0807
  H  H225  1  0.426800  0.268000  0.443600  1.0  0.106
  H  H226  1  0.395000  0.277600  0.492600  1.0  0.1136
  H  H227  1  0.383200  0.315800  0.445600  1.0  0.1102
  H  H228  1  0.340900  0.201900  0.456700  1.0  0.0765
  H  H229  1  0.297600  0.250200  0.455400  1.0  0.0872
  H  H230  1  0.312600  0.268000  0.377000  1.0  0.1066
  H  H231  1  0.311300  0.215500  0.403700  1.0  0.115
  H  H232  1  0.360600  0.224400  0.373600  1.0  0.1058
  H  H233  1  0.425300  0.958300  0.168700  1.0  0.1138
  H  H234  1  0.490100  0.945100  0.266700  1.0  0.1194
  H  H235  1  0.534300  0.949700  0.189100  1.0  0.0924
  H  H236  1  0.329900  0.906700  0.273500  1.0  0.0886
  H  H237  1  0.372600  0.911000  0.224800  1.0  0.0846
  H  H238  1  0.426800  0.861600  0.268000  1.0  0.1029
  H  H239  1  0.395000  0.834800  0.277600  1.0  0.1127
  H  H240  1  0.383200  0.855400  0.315800  1.0  0.1089
  H  H241  1  0.340900  0.000500  0.201900  1.0  0.0804
  H  H242  1  0.297600  0.996800  0.250200  1.0  0.0878
  H  H243  1  0.312600  0.042400  0.268000  1.0  0.1076
  H  H244  1  0.311300  0.069500  0.215500  1.0  0.1166
  H  H245  1  0.360600  0.041400  0.224400  1.0  0.1098
  H  H246  1  0.168700  0.447700  0.425300  1.0  0.1137
  H  H247  1  0.266700  0.298100  0.490100  1.0  0.1191
  H  H248  1  0.189100  0.326900  0.534300  1.0  0.092
  H  H249  1  0.273500  0.489900  0.329900  1.0  0.0874
  H  H250  1  0.224800  0.491600  0.372600  1.0  0.0838
  H  H251  1  0.268000  0.443600  0.426800  1.0  0.1081
  H  H252  1  0.277600  0.492600  0.395000  1.0  0.1139
  H  H253  1  0.315800  0.445600  0.383200  1.0  0.1089
  H  H254  1  0.201900  0.456700  0.340900  1.0  0.0813
  H  H255  1  0.250200  0.455400  0.297600  1.0  0.0885
  H  H256  1  0.268000  0.377000  0.312600  1.0  0.1061
  H  H257  1  0.215500  0.403700  0.311300  1.0  0.1155
  H  H258  1  0.224400  0.373600  0.360600  1.0  0.1086
  H  H259  1  0.958300  0.425300  0.447700  1.0  0.1126
  H  H260  1  0.945100  0.490100  0.298100  1.0  0.1216
  H  H261  1  0.949700  0.534300  0.326900  1.0  0.0907
  H  H262  1  0.906700  0.329900  0.489900  1.0  0.0883
  H  H263  1  0.911000  0.372600  0.491600  1.0  0.0861
  H  H264  1  0.861600  0.426800  0.443600  1.0  0.1075
  H  H265  1  0.834800  0.395000  0.492600  1.0  0.1104
  H  H266  1  0.855400  0.383200  0.445600  1.0  0.1092
  H  H267  1  0.000500  0.340900  0.456700  1.0  0.0801
  H  H268  1  0.996800  0.297600  0.455400  1.0  0.0896
  H  H269  1  0.042400  0.312600  0.377000  1.0  0.1069
  H  H270  1  0.069500  0.311300  0.403700  1.0  0.1156
  H  H271  1  0.041400  0.360600  0.373600  1.0  0.1077
  H  H272  1  0.447700  0.168700  0.958300  1.0  0.1133
  H  H273  1  0.298100  0.266700  0.945100  1.0  0.1226
  H  H274  1  0.326900  0.189100  0.949700  1.0  0.0924
  H  H275  1  0.489900  0.273500  0.906700  1.0  0.0891
  H  H276  1  0.491600  0.224800  0.911000  1.0  0.0825
  H  H277  1  0.443600  0.268000  0.861600  1.0  0.1102
  H  H278  1  0.492600  0.277600  0.834800  1.0  0.1143
  H  H279  1  0.445600  0.315800  0.855400  1.0  0.1118
  H  H280  1  0.456700  0.201900  0.000500  1.0  0.076
  H  H281  1  0.455400  0.250200  0.996800  1.0  0.0878
  H  H282  1  0.377000  0.268000  0.042400  1.0  0.1071
  H  H283  1  0.403700  0.215500  0.069500  1.0  0.1173
  H  H284  1  0.373600  0.224400  0.041400  1.0  0.1111
  H  H285  1  0.168700  0.958300  0.447700  1.0  0.1143
  H  H286  1  0.266700  0.945100  0.298100  1.0  0.1198
  H  H287  1  0.189100  0.949700  0.326900  1.0  0.0936
  H  H288  1  0.273500  0.906700  0.489900  1.0  0.0902
  H  H289  1  0.224800  0.911000  0.491600  1.0  0.0872
  H  H290  1  0.268000  0.861600  0.443600  1.0  0.1074
  H  H291  1  0.277600  0.834800  0.492600  1.0  0.113
  H  H292  1  0.315800  0.855400  0.445600  1.0  0.0994
  H  H293  1  0.201900  0.000500  0.456700  1.0  0.0794
  H  H294  1  0.250200  0.996800  0.455400  1.0  0.0877
  H  H295  1  0.268000  0.042400  0.377000  1.0  0.1055
  H  H296  1  0.215500  0.069500  0.403700  1.0  0.1157
  H  H297  1  0.224400  0.041400  0.373600  1.0  0.1082
  H  H298  1  0.425300  0.447700  0.958300  1.0  0.1131
  H  H299  1  0.490100  0.298100  0.945100  1.0  0.1168
  H  H300  1  0.534300  0.326900  0.949700  1.0  0.091
  H  H301  1  0.329900  0.489900  0.906700  1.0  0.0874
  H  H302  1  0.372600  0.491600  0.911000  1.0  0.0862
  H  H303  1  0.426800  0.443600  0.861600  1.0  0.1103
  H  H304  1  0.395000  0.492600  0.834800  1.0  0.1149
  H  H305  1  0.383200  0.445600  0.855400  1.0  0.1143
  H  H306  1  0.340900  0.456700  0.000500  1.0  0.0796
  H  H307  1  0.297600  0.455400  0.996800  1.0  0.0906
  H  H308  1  0.312600  0.377000  0.042400  1.0  0.1078
  H  H309  1  0.311300  0.403700  0.069500  1.0  0.1172
  H  H310  1  0.360600  0.373600  0.041400  1.0  0.1098
  H  H311  1  0.447700  0.425300  0.168700  1.0  0.1122
  H  H312  1  0.298100  0.490100  0.266700  1.0  0.1176
  H  H313  1  0.326900  0.534300  0.189100  1.0  0.0921
  H  H314  1  0.489900  0.329900  0.273500  1.0  0.089
  H  H315  1  0.491600  0.372600  0.224800  1.0  0.0847
  H  H316  1  0.443600  0.426800  0.268000  1.0  0.1075
  H  H317  1  0.492600  0.395000  0.277600  1.0  0.1124
  H  H318  1  0.445600  0.383200  0.315800  1.0  0.1135
  H  H319  1  0.456700  0.340900  0.201900  1.0  0.08
  H  H320  1  0.455400  0.297600  0.250200  1.0  0.0896
  H  H321  1  0.377000  0.312600  0.268000  1.0  0.105
  H  H322  1  0.403700  0.311300  0.215500  1.0  0.117
  H  H323  1  0.373600  0.360600  0.224400  1.0  0.1084
  H  H324  1  0.958300  0.168700  0.425300  1.0  0.1146
  H  H325  1  0.945100  0.266700  0.490100  1.0  0.1192
  H  H326  1  0.949700  0.189100  0.534300  1.0  0.0933
  H  H327  1  0.906700  0.273500  0.329900  1.0  0.089
  H  H328  1  0.911000  0.224800  0.372600  1.0  0.082
  H  H329  1  0.861600  0.268000  0.426800  1.0  0.1078
  H  H330  1  0.834800  0.277600  0.395000  1.0  0.1101
  H  H331  1  0.855400  0.315800  0.383200  1.0  0.1101
  H  H332  1  0.000500  0.201900  0.340900  1.0  0.0751
  H  H333  1  0.996800  0.250200  0.297600  1.0  0.0869
  H  H334  1  0.042400  0.268000  0.312600  1.0  0.1057
  H  H335  1  0.069500  0.215500  0.311300  1.0  0.1151
  H  H336  1  0.041400  0.224400  0.360600  1.0  0.1081
  H  H337  1  0.458300  0.947700  0.925300  1.0  0.1133
  H  H338  1  0.445100  0.798100  0.990100  1.0  0.1215
  H  H339  1  0.449700  0.826900  0.034300  1.0  0.093
  H  H340  1  0.406700  0.989900  0.829900  1.0  0.0888
  H  H341  1  0.411000  0.991600  0.872600  1.0  0.0884
  H  H342  1  0.361600  0.943600  0.926800  1.0  0.1072
  H  H343  1  0.334800  0.992600  0.895000  1.0  0.1153
  H  H344  1  0.355400  0.945600  0.883200  1.0  0.1104
  H  H345  1  0.500500  0.956700  0.840900  1.0  0.0792
  H  H346  1  0.496800  0.955400  0.797600  1.0  0.088
  H  H347  1  0.542400  0.877000  0.812600  1.0  0.1075
  H  H348  1  0.569500  0.903700  0.811300  1.0  0.1175
  H  H349  1  0.541400  0.873600  0.860600  1.0  0.1091
  H  H350  1  0.947700  0.458300  0.668700  1.0  0.1132
  H  H351  1  0.798100  0.445100  0.766700  1.0  0.1196
  H  H352  1  0.826900  0.449700  0.689100  1.0  0.0928
  H  H353  1  0.989900  0.406700  0.773500  1.0  0.0908
  H  H354  1  0.991600  0.411000  0.724800  1.0  0.0873
  H  H355  1  0.943600  0.361600  0.768000  1.0  0.1064
  H  H356  1  0.992600  0.334800  0.777600  1.0  0.1135
  H  H357  1  0.945600  0.355400  0.815800  1.0  0.1111
  H  H358  1  0.956700  0.500500  0.701900  1.0  0.0787
  H  H359  1  0.955400  0.496800  0.750200  1.0  0.0873
  H  H360  1  0.877000  0.542400  0.768000  1.0  0.1084
  H  H361  1  0.903700  0.569500  0.715500  1.0  0.1155
  H  H362  1  0.873600  0.541400  0.724400  1.0  0.1082
  H  H363  1  0.925300  0.668700  0.458300  1.0  0.1131
  H  H364  1  0.990100  0.766700  0.445100  1.0  0.1181
  H  H365  1  0.034300  0.689100  0.449700  1.0  0.0903
  H  H366  1  0.829900  0.773500  0.406700  1.0  0.0876
  H  H367  1  0.872600  0.724800  0.411000  1.0  0.0805
  H  H368  1  0.926800  0.768000  0.361600  1.0  0.1111
  H  H369  1  0.895000  0.777600  0.334800  1.0  0.1146
  H  H370  1  0.883200  0.815800  0.355400  1.0  0.1115
  H  H371  1  0.840900  0.701900  0.500500  1.0  0.0764
  H  H372  1  0.797600  0.750200  0.496800  1.0  0.0874
  H  H373  1  0.812600  0.768000  0.542400  1.0  0.1084
  H  H374  1  0.811300  0.715500  0.569500  1.0  0.1169
  H  H375  1  0.860600  0.724400  0.541400  1.0  0.1084
  H  H376  1  0.668700  0.925300  0.947700  1.0  0.113
  H  H377  1  0.766700  0.990100  0.798100  1.0  0.1202
  H  H378  1  0.689100  0.034300  0.826900  1.0  0.0924
  H  H379  1  0.773500  0.829900  0.989900  1.0  0.0897
  H  H380  1  0.724800  0.872600  0.991600  1.0  0.0771
  H  H381  1  0.768000  0.926800  0.943600  1.0  0.1071
  H  H382  1  0.777600  0.895000  0.992600  1.0  0.1147
  H  H383  1  0.815800  0.883200  0.945600  1.0  0.1092
  H  H384  1  0.701900  0.840900  0.956700  1.0  0.0804
  H  H385  1  0.750200  0.797600  0.955400  1.0  0.089
  H  H386  1  0.768000  0.812600  0.877000  1.0  0.105
  H  H387  1  0.715500  0.811300  0.903700  1.0  0.1138
  H  H388  1  0.724400  0.860600  0.873600  1.0  0.1074
  H  H389  1  0.458300  0.925300  0.668700  1.0  0.1136
  H  H390  1  0.445100  0.990100  0.766700  1.0  0.1212
  H  H391  1  0.449700  0.034300  0.689100  1.0  0.0912
  H  H392  1  0.406700  0.829900  0.773500  1.0  0.0872
  H  H393  1  0.411000  0.872600  0.724800  1.0  0.0867
  H  H394  1  0.361600  0.926800  0.768000  1.0  0.1078
  H  H395  1  0.334800  0.895000  0.777600  1.0  0.1092
  H  H396  1  0.355400  0.883200  0.815800  1.0  0.1091
  H  H397  1  0.500500  0.840900  0.701900  1.0  0.0813
  H  H398  1  0.496800  0.797600  0.750200  1.0  0.0889
  H  H399  1  0.542400  0.812600  0.768000  1.0  0.1057
  H  H400  1  0.569500  0.811300  0.715500  1.0  0.1155
  H  H401  1  0.541400  0.860600  0.724400  1.0  0.1081
  H  H402  1  0.947700  0.668700  0.925300  1.0  0.1137
  H  H403  1  0.798100  0.766700  0.990100  1.0  0.1188
  H  H404  1  0.826900  0.689100  0.034300  1.0  0.0918
  H  H405  1  0.989900  0.773500  0.829900  1.0  0.0887
  H  H406  1  0.991600  0.724800  0.872600  1.0  0.0825
  H  H407  1  0.943600  0.768000  0.926800  1.0  0.1094
  H  H408  1  0.992600  0.777600  0.895000  1.0  0.1133
  H  H409  1  0.945600  0.815800  0.883200  1.0  0.1099
  H  H410  1  0.956700  0.701900  0.840900  1.0  0.0769
  H  H411  1  0.955400  0.750200  0.797600  1.0  0.0878
  H  H412  1  0.877000  0.768000  0.812600  1.0  0.1062
  H  H413  1  0.903700  0.715500  0.811300  1.0  0.1169
  H  H414  1  0.873600  0.724400  0.860600  1.0  0.108
  H  H415  1  0.925300  0.458300  0.947700  1.0  0.1136
  H  H416  1  0.990100  0.445100  0.798100  1.0  0.1191
  H  H417  1  0.034300  0.449700  0.826900  1.0  0.0926
  H  H418  1  0.829900  0.406700  0.989900  1.0  0.0893
  H  H419  1  0.872600  0.411000  0.991600  1.0  0.086
  H  H420  1  0.926800  0.361600  0.943600  1.0  0.1027
  H  H421  1  0.895000  0.334800  0.992600  1.0  0.1136
  H  H422  1  0.883200  0.355400  0.945600  1.0  0.11
  H  H423  1  0.840900  0.500500  0.956700  1.0  0.0791
  H  H424  1  0.797600  0.496800  0.955400  1.0  0.0879
  H  H425  1  0.812600  0.542400  0.877000  1.0  0.1081
  H  H426  1  0.811300  0.569500  0.903700  1.0  0.1155
  H  H427  1  0.860600  0.541400  0.873600  1.0  0.1095
  H  H428  1  0.668700  0.947700  0.458300  1.0  0.1135
  H  H429  1  0.766700  0.798100  0.445100  1.0  0.1225
  H  H430  1  0.689100  0.826900  0.449700  1.0  0.092
  H  H431  1  0.773500  0.989900  0.406700  1.0  0.0882
  H  H432  1  0.724800  0.991600  0.411000  1.0  0.085
  H  H433  1  0.768000  0.943600  0.361600  1.0  0.108
  H  H434  1  0.777600  0.992600  0.334800  1.0  0.1163
  H  H435  1  0.815800  0.945600  0.355400  1.0  0.1131
  H  H436  1  0.701900  0.956700  0.500500  1.0  0.0811
  H  H437  1  0.750200  0.955400  0.496800  1.0  0.0882
  H  H438  1  0.768000  0.877000  0.542400  1.0  0.109
  H  H439  1  0.715500  0.903700  0.569500  1.0  0.1169
  H  H440  1  0.724400  0.873600  0.541400  1.0  0.1097
  H  H441  1  0.458300  0.668700  0.947700  1.0  0.1146
  H  H442  1  0.445100  0.766700  0.798100  1.0  0.1198
  H  H443  1  0.449700  0.689100  0.826900  1.0  0.0927
  H  H444  1  0.406700  0.773500  0.989900  1.0  0.0883
  H  H445  1  0.411000  0.724800  0.991600  1.0  0.0823
  H  H446  1  0.361600  0.768000  0.943600  1.0  0.1078
  H  H447  1  0.334800  0.777600  0.992600  1.0  0.1121
  H  H448  1  0.355400  0.815800  0.945600  1.0  0.1099
  H  H449  1  0.500500  0.701900  0.956700  1.0  0.0755
  H  H450  1  0.496800  0.750200  0.955400  1.0  0.0868
  H  H451  1  0.542400  0.768000  0.877000  1.0  0.1063
  H  H452  1  0.569500  0.715500  0.903700  1.0  0.115
  H  H453  1  0.541400  0.724400  0.873600  1.0  0.1084
  H  H454  1  0.947700  0.925300  0.458300  1.0  0.1124
  H  H455  1  0.798100  0.990100  0.445100  1.0  0.118
  H  H456  1  0.826900  0.034300  0.449700  1.0  0.0923
  H  H457  1  0.989900  0.829900  0.406700  1.0  0.0884
  H  H458  1  0.991600  0.872600  0.411000  1.0  0.0842
  H  H459  1  0.943600  0.926800  0.361600  1.0  0.1092
  H  H460  1  0.992600  0.895000  0.334800  1.0  0.1139
  H  H461  1  0.945600  0.883200  0.355400  1.0  0.1144
  H  H462  1  0.956700  0.840900  0.500500  1.0  0.0794
  H  H463  1  0.955400  0.797600  0.496800  1.0  0.0902
  H  H464  1  0.877000  0.812600  0.542400  1.0  0.1074
  H  H465  1  0.903700  0.811300  0.569500  1.0  0.117
  H  H466  1  0.873600  0.860600  0.541400  1.0  0.1097
  H  H467  1  0.925300  0.947700  0.668700  1.0  0.1131
  H  H468  1  0.990100  0.798100  0.766700  1.0  0.1177
  H  H469  1  0.034300  0.826900  0.689100  1.0  0.091
  H  H470  1  0.829900  0.989900  0.773500  1.0  0.0864
  H  H471  1  0.872600  0.991600  0.724800  1.0  0.0871
  H  H472  1  0.926800  0.943600  0.768000  1.0  0.1062
  H  H473  1  0.895000  0.992600  0.777600  1.0  0.1147
  H  H474  1  0.883200  0.945600  0.815800  1.0  0.113
  H  H475  1  0.840900  0.956700  0.701900  1.0  0.0802
  H  H476  1  0.797600  0.955400  0.750200  1.0  0.0897
  H  H477  1  0.812600  0.877000  0.768000  1.0  0.1062
  H  H478  1  0.811300  0.903700  0.715500  1.0  0.1157
  H  H479  1  0.860600  0.873600  0.724400  1.0  0.1069
  H  H480  1  0.668700  0.458300  0.925300  1.0  0.1143
  H  H481  1  0.766700  0.445100  0.990100  1.0  0.1187
  H  H482  1  0.689100  0.449700  0.034300  1.0  0.0944
  H  H483  1  0.773500  0.406700  0.829900  1.0  0.088
  H  H484  1  0.724800  0.411000  0.872600  1.0  0.087
  H  H485  1  0.768000  0.361600  0.926800  1.0  0.108
  H  H486  1  0.777600  0.334800  0.895000  1.0  0.1127
  H  H487  1  0.815800  0.355400  0.883200  1.0  0.0994
  H  H488  1  0.701900  0.500500  0.840900  1.0  0.0792
  H  H489  1  0.750200  0.496800  0.797600  1.0  0.0879
  H  H490  1  0.768000  0.542400  0.812600  1.0  0.105
  H  H491  1  0.715500  0.569500  0.811300  1.0  0.1165
  H  H492  1  0.724400  0.541400  0.860600  1.0  0.1087
  H  H493  1  0.552300  0.041700  0.574700  1.0  0.1132
  H  H494  1  0.701900  0.054900  0.509900  1.0  0.1201
  H  H495  1  0.673100  0.050300  0.465700  1.0  0.0945
  H  H496  1  0.510100  0.093300  0.670100  1.0  0.0916
  H  H497  1  0.508400  0.089000  0.627400  1.0  0.0871
  H  H498  1  0.556400  0.138400  0.573200  1.0  0.1067
  H  H499  1  0.507400  0.165200  0.605000  1.0  0.1141
  H  H500  1  0.554400  0.144600  0.616800  1.0  0.111
  H  H501  1  0.543300  0.999500  0.659100  1.0  0.078
  H  H502  1  0.544600  0.003200  0.702400  1.0  0.088
  H  H503  1  0.623000  0.957600  0.687400  1.0  0.1091
  H  H504  1  0.596300  0.930500  0.688700  1.0  0.1156
  H  H505  1  0.626400  0.958600  0.639400  1.0  0.1077
  H  H506  1  0.041700  0.552300  0.831300  1.0  0.1135
  H  H507  1  0.054900  0.701900  0.733300  1.0  0.1199
  H  H508  1  0.050300  0.673100  0.810900  1.0  0.0922
  H  H509  1  0.093300  0.510100  0.726500  1.0  0.0896
  H  H510  1  0.089000  0.508400  0.775200  1.0  0.0876
  H  H511  1  0.138400  0.556400  0.732000  1.0  0.107
  H  H512  1  0.165200  0.507400  0.722400  1.0  0.1154
  H  H513  1  0.144600  0.554400  0.684200  1.0  0.1111
  H  H514  1  0.999500  0.543300  0.798100  1.0  0.0791
  H  H515  1  0.003200  0.544600  0.749800  1.0  0.0872
  H  H516  1  0.957600  0.623000  0.732000  1.0  0.1069
  H  H517  1  0.930500  0.596300  0.784500  1.0  0.117
  H  H518  1  0.958600  0.626400  0.775600  1.0  0.1084
  H  H519  1  0.831300  0.574700  0.041700  1.0  0.1133
  H  H520  1  0.733300  0.509900  0.054900  1.0  0.1188
  H  H521  1  0.810900  0.465700  0.050300  1.0  0.0927
  H  H522  1  0.726500  0.670100  0.093300  1.0  0.089
  H  H523  1  0.775200  0.627400  0.089000  1.0  0.077
  H  H524  1  0.732000  0.573200  0.138400  1.0  0.1057
  H  H525  1  0.722400  0.605000  0.165200  1.0  0.1134
  H  H526  1  0.684200  0.616800  0.144600  1.0  0.1102
  H  H527  1  0.798100  0.659100  0.999500  1.0  0.0824
  H  H528  1  0.749800  0.702400  0.003200  1.0  0.0877
  H  H529  1  0.732000  0.687400  0.957600  1.0  0.1044
  H  H530  1  0.784500  0.688700  0.930500  1.0  0.1155
  H  H531  1  0.775600  0.639400  0.958600  1.0  0.1069
  H  H532  1  0.574700  0.831300  0.552300  1.0  0.1138
  H  H533  1  0.509900  0.733300  0.701900  1.0  0.1192
  H  H534  1  0.465700  0.810900  0.673100  1.0  0.0908
  H  H535  1  0.670100  0.726500  0.510100  1.0  0.0868
  H  H536  1  0.627400  0.775200  0.508400  1.0  0.0833
  H  H537  1  0.573200  0.732000  0.556400  1.0  0.1062
  H  H538  1  0.605000  0.722400  0.507400  1.0  0.114
  H  H539  1  0.616800  0.684200  0.554400  1.0  0.1098
  H  H540  1  0.659100  0.798100  0.543300  1.0  0.0776
  H  H541  1  0.702400  0.749800  0.544600  1.0  0.088
  H  H542  1  0.687400  0.732000  0.623000  1.0  0.1083
  H  H543  1  0.688700  0.784500  0.596300  1.0  0.1159
  H  H544  1  0.639400  0.775600  0.626400  1.0  0.1073
  H  H545  1  0.574700  0.041700  0.831300  1.0  0.1136
  H  H546  1  0.509900  0.054900  0.733300  1.0  0.1222
  H  H547  1  0.465700  0.050300  0.810900  1.0  0.0932
  H  H548  1  0.670100  0.093300  0.726500  1.0  0.0891
  H  H549  1  0.627400  0.089000  0.775200  1.0  0.0841
  H  H550  1  0.573200  0.138400  0.732000  1.0  0.1061
  H  H551  1  0.605000  0.165200  0.722400  1.0  0.1146
  H  H552  1  0.616800  0.144600  0.684200  1.0  0.1113
  H  H553  1  0.659100  0.999500  0.798100  1.0  0.0788
  H  H554  1  0.702400  0.003200  0.749800  1.0  0.0882
  H  H555  1  0.687400  0.957600  0.732000  1.0  0.1076
  H  H556  1  0.688700  0.930500  0.784500  1.0  0.1147
  H  H557  1  0.639400  0.958600  0.775600  1.0  0.109
  H  H558  1  0.831300  0.552300  0.574700  1.0  0.1129
  H  H559  1  0.733300  0.701900  0.509900  1.0  0.1226
  H  H560  1  0.810900  0.673100  0.465700  1.0  0.0922
  H  H561  1  0.726500  0.510100  0.670100  1.0  0.088
  H  H562  1  0.775200  0.508400  0.627400  1.0  0.0829
  H  H563  1  0.732000  0.556400  0.573200  1.0  0.1061
  H  H564  1  0.722400  0.507400  0.605000  1.0  0.1119
  H  H565  1  0.684200  0.554400  0.616800  1.0  0.1081
  H  H566  1  0.798100  0.543300  0.659100  1.0  0.0803
  H  H567  1  0.749800  0.544600  0.702400  1.0  0.0885
  H  H568  1  0.732000  0.623000  0.687400  1.0  0.1065
  H  H569  1  0.784500  0.596300  0.688700  1.0  0.1156
  H  H570  1  0.775600  0.626400  0.639400  1.0  0.1087
  H  H571  1  0.041700  0.574700  0.552300  1.0  0.1138
  H  H572  1  0.054900  0.509900  0.701900  1.0  0.1184
  H  H573  1  0.050300  0.465700  0.673100  1.0  0.0917
  H  H574  1  0.093300  0.670100  0.510100  1.0  0.0889
  H  H575  1  0.089000  0.627400  0.508400  1.0  0.0847
  H  H576  1  0.138400  0.573200  0.556400  1.0  0.1071
  H  H577  1  0.165200  0.605000  0.507400  1.0  0.1139
  H  H578  1  0.144600  0.616800  0.554400  1.0  0.109
  H  H579  1  0.999500  0.659100  0.543300  1.0  0.0812
  H  H580  1  0.003200  0.702400  0.544600  1.0  0.0884
  H  H581  1  0.957600  0.687400  0.623000  1.0  0.1059
  H  H582  1  0.930500  0.688700  0.596300  1.0  0.1161
  H  H583  1  0.958600  0.639400  0.626400  1.0  0.1079
  H  H584  1  0.552300  0.831300  0.041700  1.0  0.1136
  H  H585  1  0.701900  0.733300  0.054900  1.0  0.1198
  H  H586  1  0.673100  0.810900  0.050300  1.0  0.0911
  H  H587  1  0.510100  0.726500  0.093300  1.0  0.0881
  H  H588  1  0.508400  0.775200  0.089000  1.0  0.0835
  H  H589  1  0.556400  0.732000  0.138400  1.0  0.1076
  H  H590  1  0.507400  0.722400  0.165200  1.0  0.1122
  H  H591  1  0.554400  0.684200  0.144600  1.0  0.1101
  H  H592  1  0.543300  0.798100  0.999500  1.0  0.0786
  H  H593  1  0.544600  0.749800  0.003200  1.0  0.0888
  H  H594  1  0.623000  0.732000  0.957600  1.0  0.1077
  H  H595  1  0.596300  0.784500  0.930500  1.0  0.1171
  H  H596  1  0.626400  0.775600  0.958600  1.0  0.1121
  H  H597  1  0.831300  0.041700  0.552300  1.0  0.1145
  H  H598  1  0.733300  0.054900  0.701900  1.0  0.1199
  H  H599  1  0.810900  0.050300  0.673100  1.0  0.094
  H  H600  1  0.726500  0.093300  0.510100  1.0  0.0916
  H  H601  1  0.775200  0.089000  0.508400  1.0  0.0874
  H  H602  1  0.732000  0.138400  0.556400  1.0  0.1066
  H  H603  1  0.722400  0.165200  0.507400  1.0  0.1144
  H  H604  1  0.684200  0.144600  0.554400  1.0  0.1098
  H  H605  1  0.798100  0.999500  0.543300  1.0  0.0803
  H  H606  1  0.749800  0.003200  0.544600  1.0  0.0876
  H  H607  1  0.732000  0.957600  0.623000  1.0  0.1078
  H  H608  1  0.784500  0.930500  0.596300  1.0  0.1138
  H  H609  1  0.775600  0.958600  0.626400  1.0  0.1093
  H  H610  1  0.574700  0.552300  0.041700  1.0  0.1127
  H  H611  1  0.509900  0.701900  0.054900  1.0  0.1196
  H  H612  1  0.465700  0.673100  0.050300  1.0  0.0915
  H  H613  1  0.670100  0.510100  0.093300  1.0  0.0879
  H  H614  1  0.627400  0.508400  0.089000  1.0  0.086
  H  H615  1  0.573200  0.556400  0.138400  1.0  0.108
  H  H616  1  0.605000  0.507400  0.165200  1.0  0.1128
  H  H617  1  0.616800  0.554400  0.144600  1.0  0.1135
  H  H618  1  0.659100  0.543300  0.999500  1.0  0.0796
  H  H619  1  0.702400  0.544600  0.003200  1.0  0.0884
  H  H620  1  0.687400  0.623000  0.957600  1.0  0.1088
  H  H621  1  0.688700  0.596300  0.930500  1.0  0.117
  H  H622  1  0.639400  0.626400  0.958600  1.0  0.1078
  H  H623  1  0.552300  0.574700  0.831300  1.0  0.1135
  H  H624  1  0.701900  0.509900  0.733300  1.0  0.1174
  H  H625  1  0.673100  0.465700  0.810900  1.0  0.0911
  H  H626  1  0.510100  0.670100  0.726500  1.0  0.0889
  H  H627  1  0.508400  0.627400  0.775200  1.0  0.0847
  H  H628  1  0.556400  0.573200  0.732000  1.0  0.1076
  H  H629  1  0.507400  0.605000  0.722400  1.0  0.1108
  H  H630  1  0.554400  0.616800  0.684200  1.0  0.1109
  H  H631  1  0.543300  0.659100  0.798100  1.0  0.0801
  H  H632  1  0.544600  0.702400  0.749800  1.0  0.09
  H  H633  1  0.623000  0.687400  0.732000  1.0  0.1053
  H  H634  1  0.596300  0.688700  0.784500  1.0  0.1163
  H  H635  1  0.626400  0.639400  0.775600  1.0  0.1089
  H  H636  1  0.041700  0.831300  0.574700  1.0  0.1145
  H  H637  1  0.054900  0.733300  0.509900  1.0  0.119
  H  H638  1  0.050300  0.810900  0.465700  1.0  0.093
  H  H639  1  0.093300  0.726500  0.670100  1.0  0.0896
  H  H640  1  0.089000  0.775200  0.627400  1.0  0.0832
  H  H641  1  0.138400  0.732000  0.573200  1.0  0.1086
  H  H642  1  0.165200  0.722400  0.605000  1.0  0.1134
  H  H643  1  0.144600  0.684200  0.616800  1.0  0.1082
  H  H644  1  0.999500  0.798100  0.659100  1.0  0.0768
  H  H645  1  0.003200  0.749800  0.702400  1.0  0.0872
  H  H646  1  0.957600  0.732000  0.687400  1.0  0.1072
  H  H647  1  0.930500  0.784500  0.688700  1.0  0.1153
  H  H648  1  0.958600  0.775600  0.639400  1.0  0.1069
  C  C649  1  0.539630  0.094190  0.987230  1.0  0.6692
  C  C650  1  0.545080  0.110600  0.015540  1.0  -0.1491
  C  C651  1  0.544490  0.082450  0.061610  1.0  -0.1439
  C  C652  1  0.548160  0.099560  0.088140  1.0  0.0409
  C  C653  1  0.551580  0.144480  0.069640  1.0  -0.0309
  C  C654  1  0.552340  0.171600  0.023380  1.0  -0.125
  C  C655  1  0.549390  0.154310  0.997210  1.0  -0.045
  C  C656  1  0.549040  0.073480  0.137680  1.0  0.0501
  C  C657  1  0.552420  0.109620  0.147140  1.0  -0.0865
  C  C658  1  0.553230  0.151550  0.107430  1.0  -0.0958
  C  C659  1  0.592380  0.028100  0.137620  1.0  -0.186
  C  C660  1  0.639420  0.037380  0.105240  1.0  -0.331
  C  C661  1  0.502060  0.063060  0.169960  1.0  -0.1743
  C  C662  1  0.458360  0.105980  0.171440  1.0  -0.3165
  C  C663  1  0.094190  0.539630  0.378950  1.0  0.6663
  C  C664  1  0.110600  0.545080  0.328780  1.0  -0.1515
  C  C665  1  0.082450  0.544490  0.311450  1.0  -0.1435
  C  C666  1  0.099560  0.548160  0.264140  1.0  0.0405
  C  C667  1  0.144480  0.551580  0.234300  1.0  -0.0312
  C  C668  1  0.171600  0.552340  0.252680  1.0  -0.1267
  C  C669  1  0.154310  0.549390  0.299090  1.0  -0.0426
  C  C670  1  0.073480  0.549040  0.239800  1.0  0.0507
  C  C671  1  0.109620  0.552420  0.190820  1.0  -0.0864
  C  C672  1  0.151550  0.553230  0.187790  1.0  -0.0964
  C  C673  1  0.028100  0.592380  0.241900  1.0  -0.188
  C  C674  1  0.037380  0.639420  0.217960  1.0  -0.3294
  C  C675  1  0.063060  0.502060  0.264920  1.0  -0.1716
  C  C676  1  0.105980  0.458360  0.264220  1.0  -0.315
  C  C677  1  0.987230  0.378950  0.539630  1.0  0.6663
  C  C678  1  0.015540  0.328780  0.545080  1.0  -0.1504
  C  C679  1  0.061610  0.311450  0.544490  1.0  -0.1439
  C  C680  1  0.088140  0.264140  0.548160  1.0  0.0398
  C  C681  1  0.069640  0.234300  0.551580  1.0  -0.0314
  C  C682  1  0.023380  0.252680  0.552340  1.0  -0.1263
  C  C683  1  0.997210  0.299090  0.549390  1.0  -0.0467
  C  C684  1  0.137680  0.239800  0.549040  1.0  0.0516
  C  C685  1  0.147140  0.190820  0.552420  1.0  -0.0842
  C  C686  1  0.107430  0.187790  0.553230  1.0  -0.0952
  C  C687  1  0.137620  0.241900  0.592380  1.0  -0.1898
  C  C688  1  0.105240  0.217960  0.639420  1.0  -0.3336
  C  C689  1  0.169960  0.264920  0.502060  1.0  -0.1746
  C  C690  1  0.171440  0.264220  0.458360  1.0  -0.3136
  C  C691  1  0.378950  0.987230  0.094190  1.0  0.6638
  C  C692  1  0.328780  0.015540  0.110600  1.0  -0.1509
  C  C693  1  0.311450  0.061610  0.082450  1.0  -0.1471
  C  C694  1  0.264140  0.088140  0.099560  1.0  0.0396
  C  C695  1  0.234300  0.069640  0.144480  1.0  -0.0327
  C  C696  1  0.252680  0.023380  0.171600  1.0  -0.124
  C  C697  1  0.299090  0.997210  0.154310  1.0  -0.046
  C  C698  1  0.239800  0.137680  0.073480  1.0  0.0505
  C  C699  1  0.190820  0.147140  0.109620  1.0  -0.0843
  C  C700  1  0.187790  0.107430  0.151550  1.0  -0.0957
  C  C701  1  0.241900  0.137620  0.028100  1.0  -0.1875
  C  C702  1  0.217960  0.105240  0.037380  1.0  -0.3331
  C  C703  1  0.264920  0.169960  0.063060  1.0  -0.1735
  C  C704  1  0.264220  0.171440  0.105980  1.0  -0.3147
  C  C705  1  0.539630  0.987230  0.378950  1.0  0.6696
  C  C706  1  0.545080  0.015540  0.328780  1.0  -0.1494
  C  C707  1  0.544490  0.061610  0.311450  1.0  -0.1461
  C  C708  1  0.548160  0.088140  0.264140  1.0  0.0406
  C  C709  1  0.551580  0.069640  0.234300  1.0  -0.0317
  C  C710  1  0.552340  0.023380  0.252680  1.0  -0.1253
  C  C711  1  0.549390  0.997210  0.299090  1.0  -0.0455
  C  C712  1  0.549040  0.137680  0.239800  1.0  0.0503
  C  C713  1  0.552420  0.147140  0.190820  1.0  -0.0884
  C  C714  1  0.553230  0.107430  0.187790  1.0  -0.0948
  C  C715  1  0.592380  0.137620  0.241900  1.0  -0.1942
  C  C716  1  0.639420  0.105240  0.217960  1.0  -0.3323
  C  C717  1  0.502060  0.169960  0.264920  1.0  -0.1738
  C  C718  1  0.458360  0.171440  0.264220  1.0  -0.3166
  C  C719  1  0.094190  0.378950  0.987230  1.0  0.6647
  C  C720  1  0.110600  0.328780  0.015540  1.0  -0.1473
  C  C721  1  0.082450  0.311450  0.061610  1.0  -0.1451
  C  C722  1  0.099560  0.264140  0.088140  1.0  0.0404
  C  C723  1  0.144480  0.234300  0.069640  1.0  -0.034
  C  C724  1  0.171600  0.252680  0.023380  1.0  -0.1254
  C  C725  1  0.154310  0.299090  0.997210  1.0  -0.0491
  C  C726  1  0.073480  0.239800  0.137680  1.0  0.0504
  C  C727  1  0.109620  0.190820  0.147140  1.0  -0.0851
  C  C728  1  0.151550  0.187790  0.107430  1.0  -0.0951
  C  C729  1  0.028100  0.241900  0.137620  1.0  -0.1902
  C  C730  1  0.037380  0.217960  0.105240  1.0  -0.3323
  C  C731  1  0.063060  0.264920  0.169960  1.0  -0.1724
  C  C732  1  0.105980  0.264220  0.171440  1.0  -0.3151
  C  C733  1  0.987230  0.539630  0.094190  1.0  0.665
  C  C734  1  0.015540  0.545080  0.110600  1.0  -0.1494
  C  C735  1  0.061610  0.544490  0.082450  1.0  -0.1453
  C  C736  1  0.088140  0.548160  0.099560  1.0  0.0381
  C  C737  1  0.069640  0.551580  0.144480  1.0  -0.0322
  C  C738  1  0.023380  0.552340  0.171600  1.0  -0.1253
  C  C739  1  0.997210  0.549390  0.154310  1.0  -0.0447
  C  C740  1  0.137680  0.549040  0.073480  1.0  0.05
  C  C741  1  0.147140  0.552420  0.109620  1.0  -0.0889
  C  C742  1  0.107430  0.553230  0.151550  1.0  -0.096
  C  C743  1  0.137620  0.592380  0.028100  1.0  -0.1925
  C  C744  1  0.105240  0.639420  0.037380  1.0  -0.3307
  C  C745  1  0.169960  0.502060  0.063060  1.0  -0.175
  C  C746  1  0.171440  0.458360  0.105980  1.0  -0.313
  C  C747  1  0.378950  0.094190  0.539630  1.0  0.6636
  C  C748  1  0.328780  0.110600  0.545080  1.0  -0.1498
  C  C749  1  0.311450  0.082450  0.544490  1.0  -0.1463
  C  C750  1  0.264140  0.099560  0.548160  1.0  0.0374
  C  C751  1  0.234300  0.144480  0.551580  1.0  -0.0326
  C  C752  1  0.252680  0.171600  0.552340  1.0  -0.1273
  C  C753  1  0.299090  0.154310  0.549390  1.0  -0.0467
  C  C754  1  0.239800  0.073480  0.549040  1.0  0.052
  C  C755  1  0.190820  0.109620  0.552420  1.0  -0.0838
  C  C756  1  0.187790  0.151550  0.553230  1.0  -0.0959
  C  C757  1  0.241900  0.028100  0.592380  1.0  -0.1888
  C  C758  1  0.217960  0.037380  0.639420  1.0  -0.3314
  C  C759  1  0.264920  0.063060  0.502060  1.0  -0.1758
  C  C760  1  0.264220  0.105980  0.458360  1.0  -0.3158
  C  C761  1  0.539630  0.378950  0.094190  1.0  0.6682
  C  C762  1  0.545080  0.328780  0.110600  1.0  -0.1497
  C  C763  1  0.544490  0.311450  0.082450  1.0  -0.1477
  C  C764  1  0.548160  0.264140  0.099560  1.0  0.0377
  C  C765  1  0.551580  0.234300  0.144480  1.0  -0.0315
  C  C766  1  0.552340  0.252680  0.171600  1.0  -0.1259
  C  C767  1  0.549390  0.299090  0.154310  1.0  -0.0481
  C  C768  1  0.549040  0.239800  0.073480  1.0  0.0502
  C  C769  1  0.552420  0.190820  0.109620  1.0  -0.0852
  C  C770  1  0.553230  0.187790  0.151550  1.0  -0.0955
  C  C771  1  0.592380  0.241900  0.028100  1.0  -0.1939
  C  C772  1  0.639420  0.217960  0.037380  1.0  -0.3308
  C  C773  1  0.502060  0.264920  0.063060  1.0  -0.1754
  C  C774  1  0.458360  0.264220  0.105980  1.0  -0.3168
  C  C775  1  0.094190  0.987230  0.539630  1.0  0.668
  C  C776  1  0.110600  0.015540  0.545080  1.0  -0.1507
  C  C777  1  0.082450  0.061610  0.544490  1.0  -0.1475
  C  C778  1  0.099560  0.088140  0.548160  1.0  0.0387
  C  C779  1  0.144480  0.069640  0.551580  1.0  -0.0325
  C  C780  1  0.171600  0.023380  0.552340  1.0  -0.1238
  C  C781  1  0.154310  0.997210  0.549390  1.0  -0.046
  C  C782  1  0.073480  0.137680  0.549040  1.0  0.0497
  C  C783  1  0.109620  0.147140  0.552420  1.0  -0.0876
  C  C784  1  0.151550  0.107430  0.553230  1.0  -0.0962
  C  C785  1  0.028100  0.137620  0.592380  1.0  -0.1907
  C  C786  1  0.037380  0.105240  0.639420  1.0  -0.333
  C  C787  1  0.063060  0.169960  0.502060  1.0  -0.174
  C  C788  1  0.105980  0.171440  0.458360  1.0  -0.3169
  C  C789  1  0.987230  0.094190  0.378950  1.0  0.6645
  C  C790  1  0.015540  0.110600  0.328780  1.0  -0.1522
  C  C791  1  0.061610  0.082450  0.311450  1.0  -0.1431
  C  C792  1  0.088140  0.099560  0.264140  1.0  0.0386
  C  C793  1  0.069640  0.144480  0.234300  1.0  -0.0309
  C  C794  1  0.023380  0.171600  0.252680  1.0  -0.1254
  C  C795  1  0.997210  0.154310  0.299090  1.0  -0.047
  C  C796  1  0.137680  0.073480  0.239800  1.0  0.0497
  C  C797  1  0.147140  0.109620  0.190820  1.0  -0.087
  C  C798  1  0.107430  0.151550  0.187790  1.0  -0.096
  C  C799  1  0.137620  0.028100  0.241900  1.0  -0.1904
  C  C800  1  0.105240  0.037380  0.217960  1.0  -0.3351
  C  C801  1  0.169960  0.063060  0.264920  1.0  -0.1729
  C  C802  1  0.171440  0.105980  0.264220  1.0  -0.3165
  C  C803  1  0.378950  0.539630  0.987230  1.0  0.666
  C  C804  1  0.328780  0.545080  0.015540  1.0  -0.151
  C  C805  1  0.311450  0.544490  0.061610  1.0  -0.1461
  C  C806  1  0.264140  0.548160  0.088140  1.0  0.0386
  C  C807  1  0.234300  0.551580  0.069640  1.0  -0.0325
  C  C808  1  0.252680  0.552340  0.023380  1.0  -0.1247
  C  C809  1  0.299090  0.549390  0.997210  1.0  -0.0464
  C  C810  1  0.239800  0.549040  0.137680  1.0  0.0506
  C  C811  1  0.190820  0.552420  0.147140  1.0  -0.0877
  C  C812  1  0.187790  0.553230  0.107430  1.0  -0.0962
  C  C813  1  0.241900  0.592380  0.137620  1.0  -0.1944
  C  C814  1  0.217960  0.639420  0.105240  1.0  -0.3285
  C  C815  1  0.264920  0.502060  0.169960  1.0  -0.1778
  C  C816  1  0.264220  0.458360  0.171440  1.0  -0.3138
  C  C817  1  0.405810  0.960370  0.512770  1.0  0.6665
  C  C818  1  0.389400  0.954920  0.484460  1.0  -0.1501
  C  C819  1  0.417550  0.955510  0.438390  1.0  -0.143
  C  C820  1  0.400440  0.951840  0.411860  1.0  0.0404
  C  C821  1  0.355520  0.948420  0.430360  1.0  -0.0321
  C  C822  1  0.328400  0.947660  0.476620  1.0  -0.1234
  C  C823  1  0.345690  0.950610  0.502790  1.0  -0.043
  C  C824  1  0.426520  0.950960  0.362320  1.0  0.0508
  C  C825  1  0.390380  0.947580  0.352860  1.0  -0.0867
  C  C826  1  0.348450  0.946770  0.392570  1.0  -0.0966
  C  C827  1  0.471900  0.907620  0.362380  1.0  -0.1885
  C  C828  1  0.462620  0.860580  0.394760  1.0  -0.3309
  C  C829  1  0.436940  0.997940  0.330040  1.0  -0.1704
  C  C830  1  0.394020  0.041640  0.328560  1.0  -0.3118
  C  C831  1  0.960370  0.405810  0.121050  1.0  0.6688
  C  C832  1  0.954920  0.389400  0.171220  1.0  -0.1484
  C  C833  1  0.955510  0.417550  0.188550  1.0  -0.1441
  C  C834  1  0.951840  0.400440  0.235860  1.0  0.0403
  C  C835  1  0.948420  0.355520  0.265700  1.0  -0.0313
  C  C836  1  0.947660  0.328400  0.247320  1.0  -0.1251
  C  C837  1  0.950610  0.345690  0.200910  1.0  -0.0468
  C  C838  1  0.950960  0.426520  0.260200  1.0  0.0497
  C  C839  1  0.947580  0.390380  0.309180  1.0  -0.0869
  C  C840  1  0.946770  0.348450  0.312210  1.0  -0.0965
  C  C841  1  0.907620  0.471900  0.258100  1.0  -0.1887
  C  C842  1  0.860580  0.462620  0.282040  1.0  -0.3305
  C  C843  1  0.997940  0.436940  0.235080  1.0  -0.1732
  C  C844  1  0.041640  0.394020  0.235780  1.0  -0.3171
  C  C845  1  0.121050  0.512770  0.960370  1.0  0.6641
  C  C846  1  0.171220  0.484460  0.954920  1.0  -0.1503
  C  C847  1  0.188550  0.438390  0.955510  1.0  -0.146
  C  C848  1  0.235860  0.411860  0.951840  1.0  0.042
  C  C849  1  0.265700  0.430360  0.948420  1.0  -0.0317
  C  C850  1  0.247320  0.476620  0.947660  1.0  -0.1245
  C  C851  1  0.200910  0.502790  0.950610  1.0  -0.0441
  C  C852  1  0.260200  0.362320  0.950960  1.0  0.0511
  C  C853  1  0.309180  0.352860  0.947580  1.0  -0.0861
  C  C854  1  0.312210  0.392570  0.946770  1.0  -0.0959
  C  C855  1  0.258100  0.362380  0.907620  1.0  -0.1869
  C  C856  1  0.282040  0.394760  0.860580  1.0  -0.3324
  C  C857  1  0.235080  0.330040  0.997940  1.0  -0.1744
  C  C858  1  0.235780  0.328560  0.041640  1.0  -0.3167
  C  C859  1  0.512770  0.121050  0.405810  1.0  0.6676
  C  C860  1  0.484460  0.171220  0.389400  1.0  -0.1503
  C  C861  1  0.438390  0.188550  0.417550  1.0  -0.1439
  C  C862  1  0.411860  0.235860  0.400440  1.0  0.0391
  C  C863  1  0.430360  0.265700  0.355520  1.0  -0.0307
  C  C864  1  0.476620  0.247320  0.328400  1.0  -0.1254
  C  C865  1  0.502790  0.200910  0.345690  1.0  -0.045
  C  C866  1  0.362320  0.260200  0.426520  1.0  0.0522
  C  C867  1  0.352860  0.309180  0.390380  1.0  -0.0833
  C  C868  1  0.392570  0.312210  0.348450  1.0  -0.0951
  C  C869  1  0.362380  0.258100  0.471900  1.0  -0.1906
  C  C870  1  0.394760  0.282040  0.462620  1.0  -0.3326
  C  C871  1  0.330040  0.235080  0.436940  1.0  -0.1751
  C  C872  1  0.328560  0.235780  0.394020  1.0  -0.3143
  C  C873  1  0.512770  0.960370  0.121050  1.0  0.6653
  C  C874  1  0.484460  0.954920  0.171220  1.0  -0.1475
  C  C875  1  0.438390  0.955510  0.188550  1.0  -0.1459
  C  C876  1  0.411860  0.951840  0.235860  1.0  0.0377
  C  C877  1  0.430360  0.948420  0.265700  1.0  -0.0321
  C  C878  1  0.476620  0.947660  0.247320  1.0  -0.1242
  C  C879  1  0.502790  0.950610  0.200910  1.0  -0.0452
  C  C880  1  0.362320  0.950960  0.260200  1.0  0.0507
  C  C881  1  0.352860  0.947580  0.309180  1.0  -0.0877
  C  C882  1  0.392570  0.946770  0.312210  1.0  -0.0954
  C  C883  1  0.362380  0.907620  0.258100  1.0  -0.1893
  C  C884  1  0.394760  0.860580  0.282040  1.0  -0.3319
  C  C885  1  0.330040  0.997940  0.235080  1.0  -0.1761
  C  C886  1  0.328560  0.041640  0.235780  1.0  -0.3118
  C  C887  1  0.121050  0.405810  0.512770  1.0  0.6623
  C  C888  1  0.171220  0.389400  0.484460  1.0  -0.1523
  C  C889  1  0.188550  0.417550  0.438390  1.0  -0.1477
  C  C890  1  0.235860  0.400440  0.411860  1.0  0.0365
  C  C891  1  0.265700  0.355520  0.430360  1.0  -0.0341
  C  C892  1  0.247320  0.328400  0.476620  1.0  -0.1282
  C  C893  1  0.200910  0.345690  0.502790  1.0  -0.049
  C  C894  1  0.260200  0.426520  0.362320  1.0  0.0514
  C  C895  1  0.309180  0.390380  0.352860  1.0  -0.0857
  C  C896  1  0.312210  0.348450  0.392570  1.0  -0.0958
  C  C897  1  0.258100  0.471900  0.362380  1.0  -0.1955
  C  C898  1  0.282040  0.462620  0.394760  1.0  -0.3307
  C  C899  1  0.235080  0.436940  0.330040  1.0  -0.1756
  C  C900  1  0.235780  0.394020  0.328560  1.0  -0.3174
  C  C901  1  0.960370  0.512770  0.405810  1.0  0.6678
  C  C902  1  0.954920  0.484460  0.389400  1.0  -0.1491
  C  C903  1  0.955510  0.438390  0.417550  1.0  -0.1449
  C  C904  1  0.951840  0.411860  0.400440  1.0  0.0431
  C  C905  1  0.948420  0.430360  0.355520  1.0  -0.032
  C  C906  1  0.947660  0.476620  0.328400  1.0  -0.1273
  C  C907  1  0.950610  0.502790  0.345690  1.0  -0.0435
  C  C908  1  0.950960  0.362320  0.426520  1.0  0.0503
  C  C909  1  0.947580  0.352860  0.390380  1.0  -0.0872
  C  C910  1  0.946770  0.392570  0.348450  1.0  -0.0952
  C  C911  1  0.907620  0.362380  0.471900  1.0  -0.1939
  C  C912  1  0.860580  0.394760  0.462620  1.0  -0.3327
  C  C913  1  0.997940  0.330040  0.436940  1.0  -0.1733
  C  C914  1  0.041640  0.328560  0.394020  1.0  -0.3164
  C  C915  1  0.405810  0.121050  0.960370  1.0  0.6646
  C  C916  1  0.389400  0.171220  0.954920  1.0  -0.15
  C  C917  1  0.417550  0.188550  0.955510  1.0  -0.1447
  C  C918  1  0.400440  0.235860  0.951840  1.0  0.0396
  C  C919  1  0.355520  0.265700  0.948420  1.0  -0.033
  C  C920  1  0.328400  0.247320  0.947660  1.0  -0.125
  C  C921  1  0.345690  0.200910  0.950610  1.0  -0.0465
  C  C922  1  0.426520  0.260200  0.950960  1.0  0.0514
  C  C923  1  0.390380  0.309180  0.947580  1.0  -0.0835
  C  C924  1  0.348450  0.312210  0.946770  1.0  -0.0959
  C  C925  1  0.471900  0.258100  0.907620  1.0  -0.1931
  C  C926  1  0.462620  0.282040  0.860580  1.0  -0.3327
  C  C927  1  0.436940  0.235080  0.997940  1.0  -0.1734
  C  C928  1  0.394020  0.235780  0.041640  1.0  -0.3181
  C  C929  1  0.121050  0.960370  0.405810  1.0  0.665
  C  C930  1  0.171220  0.954920  0.389400  1.0  -0.1504
  C  C931  1  0.188550  0.955510  0.417550  1.0  -0.1448
  C  C932  1  0.235860  0.951840  0.400440  1.0  0.0374
  C  C933  1  0.265700  0.948420  0.355520  1.0  -0.0329
  C  C934  1  0.247320  0.947660  0.328400  1.0  -0.1249
  C  C935  1  0.200910  0.950610  0.345690  1.0  -0.0461
  C  C936  1  0.260200  0.950960  0.426520  1.0  0.0496
  C  C937  1  0.309180  0.947580  0.390380  1.0  -0.0878
  C  C938  1  0.312210  0.946770  0.348450  1.0  -0.0962
  C  C939  1  0.258100  0.907620  0.471900  1.0  -0.1899
  C  C940  1  0.282040  0.860580  0.462620  1.0  -0.3291
  C  C941  1  0.235080  0.997940  0.436940  1.0  -0.1778
  C  C942  1  0.235780  0.041640  0.394020  1.0  -0.3119
  C  C943  1  0.512770  0.405810  0.960370  1.0  0.6663
  C  C944  1  0.484460  0.389400  0.954920  1.0  -0.1519
  C  C945  1  0.438390  0.417550  0.955510  1.0  -0.1462
  C  C946  1  0.411860  0.400440  0.951840  1.0  0.0383
  C  C947  1  0.430360  0.355520  0.948420  1.0  -0.0304
  C  C948  1  0.476620  0.328400  0.947660  1.0  -0.1249
  C  C949  1  0.502790  0.345690  0.950610  1.0  -0.0456
  C  C950  1  0.362320  0.426520  0.950960  1.0  0.0508
  C  C951  1  0.352860  0.390380  0.947580  1.0  -0.0873
  C  C952  1  0.392570  0.348450  0.946770  1.0  -0.0955
  C  C953  1  0.362380  0.471900  0.907620  1.0  -0.192
  C  C954  1  0.394760  0.462620  0.860580  1.0  -0.3342
  C  C955  1  0.330040  0.436940  0.997940  1.0  -0.1727
  C  C956  1  0.328560  0.394020  0.041640  1.0  -0.3177
  C  C957  1  0.405810  0.512770  0.121050  1.0  0.6683
  C  C958  1  0.389400  0.484460  0.171220  1.0  -0.1492
  C  C959  1  0.417550  0.438390  0.188550  1.0  -0.1468
  C  C960  1  0.400440  0.411860  0.235860  1.0  0.0409
  C  C961  1  0.355520  0.430360  0.265700  1.0  -0.0317
  C  C962  1  0.328400  0.476620  0.247320  1.0  -0.125
  C  C963  1  0.345690  0.502790  0.200910  1.0  -0.0456
  C  C964  1  0.426520  0.362320  0.260200  1.0  0.0507
  C  C965  1  0.390380  0.352860  0.309180  1.0  -0.087
  C  C966  1  0.348450  0.392570  0.312210  1.0  -0.0963
  C  C967  1  0.471900  0.362380  0.258100  1.0  -0.1927
  C  C968  1  0.462620  0.394760  0.282040  1.0  -0.334
  C  C969  1  0.436940  0.330040  0.235080  1.0  -0.1735
  C  C970  1  0.394020  0.328560  0.235780  1.0  -0.3185
  C  C971  1  0.960370  0.121050  0.512770  1.0  0.6669
  C  C972  1  0.954920  0.171220  0.484460  1.0  -0.15
  C  C973  1  0.955510  0.188550  0.438390  1.0  -0.1471
  C  C974  1  0.951840  0.235860  0.411860  1.0  0.0383
  C  C975  1  0.948420  0.265700  0.430360  1.0  -0.0318
  C  C976  1  0.947660  0.247320  0.476620  1.0  -0.1243
  C  C977  1  0.950610  0.200910  0.502790  1.0  -0.0481
  C  C978  1  0.950960  0.260200  0.362320  1.0  0.0499
  C  C979  1  0.947580  0.309180  0.352860  1.0  -0.0835
  C  C980  1  0.946770  0.312210  0.392570  1.0  -0.0957
  C  C981  1  0.907620  0.258100  0.362380  1.0  -0.1906
  C  C982  1  0.860580  0.282040  0.394760  1.0  -0.3312
  C  C983  1  0.997940  0.235080  0.330040  1.0  -0.1755
  C  C984  1  0.041640  0.235780  0.328560  1.0  -0.3158
  C  C985  1  0.460370  0.905810  0.012770  1.0  0.6675
  C  C986  1  0.454920  0.889400  0.984460  1.0  -0.1513
  C  C987  1  0.455510  0.917550  0.938390  1.0  -0.1427
  C  C988  1  0.451840  0.900440  0.911860  1.0  0.0412
  C  C989  1  0.448420  0.855520  0.930360  1.0  -0.0319
  C  C990  1  0.447660  0.828400  0.976620  1.0  -0.1245
  C  C991  1  0.450610  0.845690  0.002790  1.0  -0.0469
  C  C992  1  0.450960  0.926520  0.862320  1.0  0.05
  C  C993  1  0.447580  0.890380  0.852860  1.0  -0.0856
  C  C994  1  0.446770  0.848450  0.892570  1.0  -0.0961
  C  C995  1  0.407620  0.971900  0.862380  1.0  -0.1891
  C  C996  1  0.360580  0.962620  0.894760  1.0  -0.3303
  C  C997  1  0.497940  0.936940  0.830040  1.0  -0.1731
  C  C998  1  0.541640  0.894020  0.828560  1.0  -0.3177
  C  C999  1  0.905810  0.460370  0.621050  1.0  0.6664
  C  C1000  1  0.889400  0.454920  0.671220  1.0  -0.1486
  C  C1001  1  0.917550  0.455510  0.688550  1.0  -0.1444
  C  C1002  1  0.900440  0.451840  0.735860  1.0  0.0387
  C  C1003  1  0.855520  0.448420  0.765700  1.0  -0.032
  C  C1004  1  0.828400  0.447660  0.747320  1.0  -0.1251
  C  C1005  1  0.845690  0.450610  0.700910  1.0  -0.0436
  C  C1006  1  0.926520  0.450960  0.760200  1.0  0.0508
  C  C1007  1  0.890380  0.447580  0.809180  1.0  -0.0877
  C  C1008  1  0.848450  0.446770  0.812210  1.0  -0.0968
  C  C1009  1  0.971900  0.407620  0.758100  1.0  -0.1886
  C  C1010  1  0.962620  0.360580  0.782040  1.0  -0.3307
  C  C1011  1  0.936940  0.497940  0.735080  1.0  -0.1708
  C  C1012  1  0.894020  0.541640  0.735780  1.0  -0.3113
  C  C1013  1  0.012770  0.621050  0.460370  1.0  0.6675
  C  C1014  1  0.984460  0.671220  0.454920  1.0  -0.1504
  C  C1015  1  0.938390  0.688550  0.455510  1.0  -0.1449
  C  C1016  1  0.911860  0.735860  0.451840  1.0  0.0382
  C  C1017  1  0.930360  0.765700  0.448420  1.0  -0.0316
  C  C1018  1  0.976620  0.747320  0.447660  1.0  -0.1238
  C  C1019  1  0.002790  0.700910  0.450610  1.0  -0.0442
  C  C1020  1  0.862320  0.760200  0.450960  1.0  0.0509
  C  C1021  1  0.852860  0.809180  0.447580  1.0  -0.0832
  C  C1022  1  0.892570  0.812210  0.446770  1.0  -0.0957
  C  C1023  1  0.862380  0.758100  0.407620  1.0  -0.1889
  C  C1024  1  0.894760  0.782040  0.360580  1.0  -0.3332
  C  C1025  1  0.830040  0.735080  0.497940  1.0  -0.1732
  C  C1026  1  0.828560  0.735780  0.541640  1.0  -0.3162
  C  C1027  1  0.621050  0.012770  0.905810  1.0  0.6633
  C  C1028  1  0.671220  0.984460  0.889400  1.0  -0.1515
  C  C1029  1  0.688550  0.938390  0.917550  1.0  -0.1453
  C  C1030  1  0.735860  0.911860  0.900440  1.0  0.0422
  C  C1031  1  0.765700  0.930360  0.855520  1.0  -0.0311
  C  C1032  1  0.747320  0.976620  0.828400  1.0  -0.1267
  C  C1033  1  0.700910  0.002790  0.845690  1.0  -0.0447
  C  C1034  1  0.760200  0.862320  0.926520  1.0  0.0524
  C  C1035  1  0.809180  0.852860  0.890380  1.0  -0.0862
  C  C1036  1  0.812210  0.892570  0.848450  1.0  -0.0953
  C  C1037  1  0.758100  0.862380  0.971900  1.0  -0.1886
  C  C1038  1  0.782040  0.894760  0.962620  1.0  -0.333
  C  C1039  1  0.735080  0.830040  0.936940  1.0  -0.176
  C  C1040  1  0.735780  0.828560  0.894020  1.0  -0.3141
  C  C1041  1  0.460370  0.012770  0.621050  1.0  0.6682
  C  C1042  1  0.454920  0.984460  0.671220  1.0  -0.1476
  C  C1043  1  0.455510  0.938390  0.688550  1.0  -0.1468
  C  C1044  1  0.451840  0.911860  0.735860  1.0  0.0423
  C  C1045  1  0.448420  0.930360  0.765700  1.0  -0.0322
  C  C1046  1  0.447660  0.976620  0.747320  1.0  -0.1277
  C  C1047  1  0.450610  0.002790  0.700910  1.0  -0.043
  C  C1048  1  0.450960  0.862320  0.760200  1.0  0.0495
  C  C1049  1  0.447580  0.852860  0.809180  1.0  -0.0868
  C  C1050  1  0.446770  0.892570  0.812210  1.0  -0.0952
  C  C1051  1  0.407620  0.862380  0.758100  1.0  -0.1921
  C  C1052  1  0.360580  0.894760  0.782040  1.0  -0.3332
  C  C1053  1  0.497940  0.830040  0.735080  1.0  -0.1733
  C  C1054  1  0.541640  0.828560  0.735780  1.0  -0.3155
  C  C1055  1  0.905810  0.621050  0.012770  1.0  0.6655
  C  C1056  1  0.889400  0.671220  0.984460  1.0  -0.1483
  C  C1057  1  0.917550  0.688550  0.938390  1.0  -0.1446
  C  C1058  1  0.900440  0.735860  0.911860  1.0  0.0375
  C  C1059  1  0.855520  0.765700  0.930360  1.0  -0.033
  C  C1060  1  0.828400  0.747320  0.976620  1.0  -0.1243
  C  C1061  1  0.845690  0.700910  0.002790  1.0  -0.0463
  C  C1062  1  0.926520  0.760200  0.862320  1.0  0.0523
  C  C1063  1  0.890380  0.809180  0.852860  1.0  -0.083
  C  C1064  1  0.848450  0.812210  0.892570  1.0  -0.0962
  C  C1065  1  0.971900  0.758100  0.862380  1.0  -0.1925
  C  C1066  1  0.962620  0.782040  0.894760  1.0  -0.3317
  C  C1067  1  0.936940  0.735080  0.830040  1.0  -0.1741
  C  C1068  1  0.894020  0.735780  0.828560  1.0  -0.3176
  C  C1069  1  0.012770  0.460370  0.905810  1.0  0.6661
  C  C1070  1  0.984460  0.454920  0.889400  1.0  -0.1495
  C  C1071  1  0.938390  0.455510  0.917550  1.0  -0.1455
  C  C1072  1  0.911860  0.451840  0.900440  1.0  0.0386
  C  C1073  1  0.930360  0.448420  0.855520  1.0  -0.0317
  C  C1074  1  0.976620  0.447660  0.828400  1.0  -0.1237
  C  C1075  1  0.002790  0.450610  0.845690  1.0  -0.0461
  C  C1076  1  0.862320  0.450960  0.926520  1.0  0.0514
  C  C1077  1  0.852860  0.447580  0.890380  1.0  -0.0883
  C  C1078  1  0.892570  0.446770  0.848450  1.0  -0.0953
  C  C1079  1  0.862380  0.407620  0.971900  1.0  -0.1913
  C  C1080  1  0.894760  0.360580  0.962620  1.0  -0.3304
  C  C1081  1  0.830040  0.497940  0.936940  1.0  -0.1755
  C  C1082  1  0.828560  0.541640  0.894020  1.0  -0.3124
  C  C1083  1  0.621050  0.905810  0.460370  1.0  0.6625
  C  C1084  1  0.671220  0.889400  0.454920  1.0  -0.1498
  C  C1085  1  0.688550  0.917550  0.455510  1.0  -0.1484
  C  C1086  1  0.735860  0.900440  0.451840  1.0  0.0387
  C  C1087  1  0.765700  0.855520  0.448420  1.0  -0.0341
  C  C1088  1  0.747320  0.828400  0.447660  1.0  -0.1274
  C  C1089  1  0.700910  0.845690  0.450610  1.0  -0.0495
  C  C1090  1  0.760200  0.926520  0.450960  1.0  0.0507
  C  C1091  1  0.809180  0.890380  0.447580  1.0  -0.0861
  C  C1092  1  0.812210  0.848450  0.446770  1.0  -0.0954
  C  C1093  1  0.758100  0.971900  0.407620  1.0  -0.1931
  C  C1094  1  0.782040  0.962620  0.360580  1.0  -0.3319
  C  C1095  1  0.735080  0.936940  0.497940  1.0  -0.1747
  C  C1096  1  0.735780  0.894020  0.541640  1.0  -0.3174
  C  C1097  1  0.460370  0.621050  0.905810  1.0  0.6671
  C  C1098  1  0.454920  0.671220  0.889400  1.0  -0.15
  C  C1099  1  0.455510  0.688550  0.917550  1.0  -0.1467
  C  C1100  1  0.451840  0.735860  0.900440  1.0  0.0387
  C  C1101  1  0.448420  0.765700  0.855520  1.0  -0.0319
  C  C1102  1  0.447660  0.747320  0.828400  1.0  -0.125
  C  C1103  1  0.450610  0.700910  0.845690  1.0  -0.0475
  C  C1104  1  0.450960  0.760200  0.926520  1.0  0.0501
  C  C1105  1  0.447580  0.809180  0.890380  1.0  -0.0836
  C  C1106  1  0.446770  0.812210  0.848450  1.0  -0.0967
  C  C1107  1  0.407620  0.758100  0.971900  1.0  -0.192
  C  C1108  1  0.360580  0.782040  0.962620  1.0  -0.3308
  C  C1109  1  0.497940  0.735080  0.936940  1.0  -0.177
  C  C1110  1  0.541640  0.735780  0.894020  1.0  -0.3162
  C  C1111  1  0.905810  0.012770  0.460370  1.0  0.6683
  C  C1112  1  0.889400  0.984460  0.454920  1.0  -0.1494
  C  C1113  1  0.917550  0.938390  0.455510  1.0  -0.1468
  C  C1114  1  0.900440  0.911860  0.451840  1.0  0.0415
  C  C1115  1  0.855520  0.930360  0.448420  1.0  -0.0317
  C  C1116  1  0.828400  0.976620  0.447660  1.0  -0.1242
  C  C1117  1  0.845690  0.002790  0.450610  1.0  -0.0436
  C  C1118  1  0.926520  0.862320  0.450960  1.0  0.0506
  C  C1119  1  0.890380  0.852860  0.447580  1.0  -0.0866
  C  C1120  1  0.848450  0.892570  0.446770  1.0  -0.0956
  C  C1121  1  0.971900  0.862380  0.407620  1.0  -0.1929
  C  C1122  1  0.962620  0.894760  0.360580  1.0  -0.3346
  C  C1123  1  0.936940  0.830040  0.497940  1.0  -0.1729
  C  C1124  1  0.894020  0.828560  0.541640  1.0  -0.3191
  C  C1125  1  0.012770  0.905810  0.621050  1.0  0.6665
  C  C1126  1  0.984460  0.889400  0.671220  1.0  -0.1514
  C  C1127  1  0.938390  0.917550  0.688550  1.0  -0.1466
  C  C1128  1  0.911860  0.900440  0.735860  1.0  0.0381
  C  C1129  1  0.930360  0.855520  0.765700  1.0  -0.0306
  C  C1130  1  0.976620  0.828400  0.747320  1.0  -0.1262
  C  C1131  1  0.002790  0.845690  0.700910  1.0  -0.0472
  C  C1132  1  0.862320  0.926520  0.760200  1.0  0.0508
  C  C1133  1  0.852860  0.890380  0.809180  1.0  -0.0877
  C  C1134  1  0.892570  0.848450  0.812210  1.0  -0.0962
  C  C1135  1  0.862380  0.971900  0.758100  1.0  -0.1937
  C  C1136  1  0.894760  0.962620  0.782040  1.0  -0.3331
  C  C1137  1  0.830040  0.936940  0.735080  1.0  -0.1738
  C  C1138  1  0.828560  0.894020  0.735780  1.0  -0.3165
  C  C1139  1  0.621050  0.460370  0.012770  1.0  0.6651
  C  C1140  1  0.671220  0.454920  0.984460  1.0  -0.1505
  C  C1141  1  0.688550  0.455510  0.938390  1.0  -0.1454
  C  C1142  1  0.735860  0.451840  0.911860  1.0  0.0368
  C  C1143  1  0.765700  0.448420  0.930360  1.0  -0.0328
  C  C1144  1  0.747320  0.447660  0.976620  1.0  -0.1247
  C  C1145  1  0.700910  0.450610  0.002790  1.0  -0.0475
  C  C1146  1  0.760200  0.450960  0.862320  1.0  0.0493
  C  C1147  1  0.809180  0.447580  0.852860  1.0  -0.0878
  C  C1148  1  0.812210  0.446770  0.892570  1.0  -0.0955
  C  C1149  1  0.758100  0.407620  0.862380  1.0  -0.1881
  C  C1150  1  0.782040  0.360580  0.894760  1.0  -0.3296
  C  C1151  1  0.735080  0.497940  0.830040  1.0  -0.1763
  C  C1152  1  0.735780  0.541640  0.828560  1.0  -0.3121
  C  C1153  1  0.594190  0.039630  0.487230  1.0  0.6674
  C  C1154  1  0.610600  0.045080  0.515540  1.0  -0.1483
  C  C1155  1  0.582450  0.044490  0.561610  1.0  -0.1444
  C  C1156  1  0.599560  0.048160  0.588140  1.0  0.0402
  C  C1157  1  0.644480  0.051580  0.569640  1.0  -0.0314
  C  C1158  1  0.671600  0.052340  0.523380  1.0  -0.1262
  C  C1159  1  0.654310  0.049390  0.497210  1.0  -0.0425
  C  C1160  1  0.573480  0.049040  0.637680  1.0  0.0506
  C  C1161  1  0.609620  0.052420  0.647140  1.0  -0.0878
  C  C1162  1  0.651550  0.053230  0.607430  1.0  -0.0967
  C  C1163  1  0.528100  0.092380  0.637620  1.0  -0.1881
  C  C1164  1  0.537380  0.139420  0.605240  1.0  -0.329
  C  C1165  1  0.563060  0.002060  0.669960  1.0  -0.1716
  C  C1166  1  0.605980  0.958360  0.671440  1.0  -0.3144
  C  C1167  1  0.039630  0.594190  0.878950  1.0  0.6696
  C  C1168  1  0.045080  0.610600  0.828780  1.0  -0.1513
  C  C1169  1  0.044490  0.582450  0.811450  1.0  -0.1427
  C  C1170  1  0.048160  0.599560  0.764140  1.0  0.0421
  C  C1171  1  0.051580  0.644480  0.734300  1.0  -0.0306
  C  C1172  1  0.052340  0.671600  0.752680  1.0  -0.1243
  C  C1173  1  0.049390  0.654310  0.799090  1.0  -0.0443
  C  C1174  1  0.049040  0.573480  0.739800  1.0  0.0501
  C  C1175  1  0.052420  0.609620  0.690820  1.0  -0.0854
  C  C1176  1  0.053230  0.651550  0.687790  1.0  -0.0957
  C  C1177  1  0.092380  0.528100  0.741900  1.0  -0.186
  C  C1178  1  0.139420  0.537380  0.717960  1.0  -0.3311
  C  C1179  1  0.002060  0.563060  0.764920  1.0  -0.1743
  C  C1180  1  0.958360  0.605980  0.764220  1.0  -0.3171
  C  C1181  1  0.878950  0.487230  0.039630  1.0  0.6639
  C  C1182  1  0.828780  0.515540  0.045080  1.0  -0.1511
  C  C1183  1  0.811450  0.561610  0.044490  1.0  -0.1458
  C  C1184  1  0.764140  0.588140  0.048160  1.0  0.0402
  C  C1185  1  0.734300  0.569640  0.051580  1.0  -0.0315
  C  C1186  1  0.752680  0.523380  0.052340  1.0  -0.124
  C  C1187  1  0.799090  0.497210  0.049390  1.0  -0.0456
  C  C1188  1  0.739800  0.637680  0.049040  1.0  0.0519
  C  C1189  1  0.690820  0.647140  0.052420  1.0  -0.0845
  C  C1190  1  0.687790  0.607430  0.053230  1.0  -0.0951
  C  C1191  1  0.741900  0.637620  0.092380  1.0  -0.187
  C  C1192  1  0.717960  0.605240  0.139420  1.0  -0.3325
  C  C1193  1  0.764920  0.669960  0.002060  1.0  -0.1758
  C  C1194  1  0.764220  0.671440  0.958360  1.0  -0.3137
  C  C1195  1  0.487230  0.878950  0.594190  1.0  0.6666
  C  C1196  1  0.515540  0.828780  0.610600  1.0  -0.1488
  C  C1197  1  0.561610  0.811450  0.582450  1.0  -0.1447
  C  C1198  1  0.588140  0.764140  0.599560  1.0  0.0396
  C  C1199  1  0.569640  0.734300  0.644480  1.0  -0.0315
  C  C1200  1  0.523380  0.752680  0.671600  1.0  -0.1244
  C  C1201  1  0.497210  0.799090  0.654310  1.0  -0.0463
  C  C1202  1  0.637680  0.739800  0.573480  1.0  0.0503
  C  C1203  1  0.647140  0.690820  0.609620  1.0  -0.0838
  C  C1204  1  0.607430  0.687790  0.651550  1.0  -0.0961
  C  C1205  1  0.637620  0.741900  0.528100  1.0  -0.189
  C  C1206  1  0.605240  0.717960  0.537380  1.0  -0.3341
  C  C1207  1  0.669960  0.764920  0.563060  1.0  -0.1726
  C  C1208  1  0.671440  0.764220  0.605980  1.0  -0.3151
  C  C1209  1  0.487230  0.039630  0.878950  1.0  0.6647
  C  C1210  1  0.515540  0.045080  0.828780  1.0  -0.1503
  C  C1211  1  0.561610  0.044490  0.811450  1.0  -0.1448
  C  C1212  1  0.588140  0.048160  0.764140  1.0  0.039
  C  C1213  1  0.569640  0.051580  0.734300  1.0  -0.0321
  C  C1214  1  0.523380  0.052340  0.752680  1.0  -0.1245
  C  C1215  1  0.497210  0.049390  0.799090  1.0  -0.0452
  C  C1216  1  0.637680  0.049040  0.739800  1.0  0.051
  C  C1217  1  0.647140  0.052420  0.690820  1.0  -0.0891
  C  C1218  1  0.607430  0.053230  0.687790  1.0  -0.096
  C  C1219  1  0.637620  0.092380  0.741900  1.0  -0.1961
  C  C1220  1  0.605240  0.139420  0.717960  1.0  -0.3302
  C  C1221  1  0.669960  0.002060  0.764920  1.0  -0.1747
  C  C1222  1  0.671440  0.958360  0.764220  1.0  -0.3139
  C  C1223  1  0.878950  0.594190  0.487230  1.0  0.6624
  C  C1224  1  0.828780  0.610600  0.515540  1.0  -0.15
  C  C1225  1  0.811450  0.582450  0.561610  1.0  -0.1459
  C  C1226  1  0.764140  0.599560  0.588140  1.0  0.0394
  C  C1227  1  0.734300  0.644480  0.569640  1.0  -0.0331
  C  C1228  1  0.752680  0.671600  0.523380  1.0  -0.1269
  C  C1229  1  0.799090  0.654310  0.497210  1.0  -0.0478
  C  C1230  1  0.739800  0.573480  0.637680  1.0  0.0513
  C  C1231  1  0.690820  0.609620  0.647140  1.0  -0.0844
  C  C1232  1  0.687790  0.651550  0.607430  1.0  -0.0952
  C  C1233  1  0.741900  0.528100  0.637620  1.0  -0.1903
  C  C1234  1  0.717960  0.537380  0.605240  1.0  -0.3327
  C  C1235  1  0.764920  0.563060  0.669960  1.0  -0.1744
  C  C1236  1  0.764220  0.605980  0.671440  1.0  -0.3149
  C  C1237  1  0.039630  0.487230  0.594190  1.0  0.6684
  C  C1238  1  0.045080  0.515540  0.610600  1.0  -0.1481
  C  C1239  1  0.044490  0.561610  0.582450  1.0  -0.1465
  C  C1240  1  0.048160  0.588140  0.599560  1.0  0.0397
  C  C1241  1  0.051580  0.569640  0.644480  1.0  -0.0322
  C  C1242  1  0.052340  0.523380  0.671600  1.0  -0.1261
  C  C1243  1  0.049390  0.497210  0.654310  1.0  -0.0446
  C  C1244  1  0.049040  0.637680  0.573480  1.0  0.0495
  C  C1245  1  0.052420  0.647140  0.609620  1.0  -0.0883
  C  C1246  1  0.053230  0.607430  0.651550  1.0  -0.0951
  C  C1247  1  0.092380  0.637620  0.528100  1.0  -0.1946
  C  C1248  1  0.139420  0.605240  0.537380  1.0  -0.334
  C  C1249  1  0.002060  0.669960  0.563060  1.0  -0.1747
  C  C1250  1  0.958360  0.671440  0.605980  1.0  -0.3166
  C  C1251  1  0.594190  0.878950  0.039630  1.0  0.6647
  C  C1252  1  0.610600  0.828780  0.045080  1.0  -0.1508
  C  C1253  1  0.582450  0.811450  0.044490  1.0  -0.1448
  C  C1254  1  0.599560  0.764140  0.048160  1.0  0.0377
  C  C1255  1  0.644480  0.734300  0.051580  1.0  -0.033
  C  C1256  1  0.671600  0.752680  0.052340  1.0  -0.1261
  C  C1257  1  0.654310  0.799090  0.049390  1.0  -0.0489
  C  C1258  1  0.573480  0.739800  0.049040  1.0  0.051
  C  C1259  1  0.609620  0.690820  0.052420  1.0  -0.0848
  C  C1260  1  0.651550  0.687790  0.053230  1.0  -0.0959
  C  C1261  1  0.528100  0.741900  0.092380  1.0  -0.1905
  C  C1262  1  0.537380  0.717960  0.139420  1.0  -0.3302
  C  C1263  1  0.563060  0.764920  0.002060  1.0  -0.174
  C  C1264  1  0.605980  0.764220  0.958360  1.0  -0.3158
  C  C1265  1  0.878950  0.039630  0.594190  1.0  0.6662
  C  C1266  1  0.828780  0.045080  0.610600  1.0  -0.1507
  C  C1267  1  0.811450  0.044490  0.582450  1.0  -0.1468
  C  C1268  1  0.764140  0.048160  0.599560  1.0  0.0364
  C  C1269  1  0.734300  0.051580  0.644480  1.0  -0.0321
  C  C1270  1  0.752680  0.052340  0.671600  1.0  -0.1248
  C  C1271  1  0.799090  0.049390  0.654310  1.0  -0.047
  C  C1272  1  0.739800  0.049040  0.573480  1.0  0.0505
  C  C1273  1  0.690820  0.052420  0.609620  1.0  -0.0875
  C  C1274  1  0.687790  0.053230  0.651550  1.0  -0.0954
  C  C1275  1  0.741900  0.092380  0.528100  1.0  -0.1923
  C  C1276  1  0.717960  0.139420  0.537380  1.0  -0.3284
  C  C1277  1  0.764920  0.002060  0.563060  1.0  -0.1765
  C  C1278  1  0.764220  0.958360  0.605980  1.0  -0.3133
  C  C1279  1  0.487230  0.594190  0.039630  1.0  0.6654
  C  C1280  1  0.515540  0.610600  0.045080  1.0  -0.1533
  C  C1281  1  0.561610  0.582450  0.044490  1.0  -0.1436
  C  C1282  1  0.588140  0.599560  0.048160  1.0  0.0383
  C  C1283  1  0.569640  0.644480  0.051580  1.0  -0.0308
  C  C1284  1  0.523380  0.671600  0.052340  1.0  -0.1253
  C  C1285  1  0.497210  0.654310  0.049390  1.0  -0.0473
  C  C1286  1  0.637680  0.573480  0.049040  1.0  0.0499
  C  C1287  1  0.647140  0.609620  0.052420  1.0  -0.087
  C  C1288  1  0.607430  0.651550  0.053230  1.0  -0.0967
  C  C1289  1  0.637620  0.528100  0.092380  1.0  -0.189
  C  C1290  1  0.605240  0.537380  0.139420  1.0  -0.3342
  C  C1291  1  0.669960  0.563060  0.002060  1.0  -0.1748
  C  C1292  1  0.671440  0.605980  0.958360  1.0  -0.3166
  C  C1293  1  0.594190  0.487230  0.878950  1.0  0.6669
  C  C1294  1  0.610600  0.515540  0.828780  1.0  -0.15
  C  C1295  1  0.582450  0.561610  0.811450  1.0  -0.1471
  C  C1296  1  0.599560  0.588140  0.764140  1.0  0.039
  C  C1297  1  0.644480  0.569640  0.734300  1.0  -0.0323
  C  C1298  1  0.671600  0.523380  0.752680  1.0  -0.1243
  C  C1299  1  0.654310  0.497210  0.799090  1.0  -0.0455
  C  C1300  1  0.573480  0.637680  0.739800  1.0  0.0495
  C  C1301  1  0.609620  0.647140  0.690820  1.0  -0.0874
  C  C1302  1  0.651550  0.607430  0.687790  1.0  -0.096
  C  C1303  1  0.528100  0.637620  0.741900  1.0  -0.1901
  C  C1304  1  0.537380  0.605240  0.717960  1.0  -0.3343
  C  C1305  1  0.563060  0.669960  0.764920  1.0  -0.1729
  C  C1306  1  0.605980  0.671440  0.764220  1.0  -0.3159
  C  C1307  1  0.039630  0.878950  0.487230  1.0  0.6676
  C  C1308  1  0.045080  0.828780  0.515540  1.0  -0.1498
  C  C1309  1  0.044490  0.811450  0.561610  1.0  -0.1471
  C  C1310  1  0.048160  0.764140  0.588140  1.0  0.0399
  C  C1311  1  0.051580  0.734300  0.569640  1.0  -0.0319
  C  C1312  1  0.052340  0.752680  0.523380  1.0  -0.125
  C  C1313  1  0.049390  0.799090  0.497210  1.0  -0.0477
  C  C1314  1  0.049040  0.739800  0.637680  1.0  0.0502
  C  C1315  1  0.052420  0.690820  0.647140  1.0  -0.0853
  C  C1316  1  0.053230  0.687790  0.607430  1.0  -0.0961
  C  C1317  1  0.092380  0.741900  0.637620  1.0  -0.1932
  C  C1318  1  0.139420  0.717960  0.605240  1.0  -0.3315
  C  C1319  1  0.002060  0.764920  0.669960  1.0  -0.1753
  C  C1320  1  0.958360  0.764220  0.671440  1.0  -0.3162
  O  O1321  1  0.534440  0.053060  0.006700  1.0  -0.724
  O  O1322  1  0.535580  0.119160  0.948520  1.0  -0.6806
  O  O1323  1  0.053060  0.534440  0.405800  1.0  -0.7226
  O  O1324  1  0.119160  0.535580  0.396740  1.0  -0.6757
  O  O1325  1  0.006700  0.405800  0.534440  1.0  -0.7225
  O  O1326  1  0.948520  0.396740  0.535580  1.0  -0.6754
  O  O1327  1  0.405800  0.006700  0.053060  1.0  -0.7212
  O  O1328  1  0.396740  0.948520  0.119160  1.0  -0.6696
  O  O1329  1  0.534440  0.006700  0.405800  1.0  -0.7258
  O  O1330  1  0.535580  0.948520  0.396740  1.0  -0.6733
  O  O1331  1  0.053060  0.405800  0.006700  1.0  -0.7235
  O  O1332  1  0.119160  0.396740  0.948520  1.0  -0.6771
  O  O1333  1  0.006700  0.534440  0.053060  1.0  -0.7252
  O  O1334  1  0.948520  0.535580  0.119160  1.0  -0.6792
  O  O1335  1  0.405800  0.053060  0.534440  1.0  -0.7219
  O  O1336  1  0.396740  0.119160  0.535580  1.0  -0.6763
  O  O1337  1  0.534440  0.405800  0.053060  1.0  -0.727
  O  O1338  1  0.535580  0.396740  0.119160  1.0  -0.6773
  O  O1339  1  0.053060  0.006700  0.534440  1.0  -0.7229
  O  O1340  1  0.119160  0.948520  0.535580  1.0  -0.6734
  O  O1341  1  0.006700  0.053060  0.405800  1.0  -0.7235
  O  O1342  1  0.948520  0.119160  0.396740  1.0  -0.6748
  O  O1343  1  0.405800  0.534440  0.006700  1.0  -0.7231
  O  O1344  1  0.396740  0.535580  0.948520  1.0  -0.679
  O  O1345  1  0.446940  0.965560  0.493300  1.0  -0.7221
  O  O1346  1  0.380840  0.964420  0.551480  1.0  -0.6779
  O  O1347  1  0.965560  0.446940  0.094200  1.0  -0.7245
  O  O1348  1  0.964420  0.380840  0.103260  1.0  -0.6811
  O  O1349  1  0.094200  0.493300  0.965560  1.0  -0.7249
  O  O1350  1  0.103260  0.551480  0.964420  1.0  -0.6694
  O  O1351  1  0.493300  0.094200  0.446940  1.0  -0.7253
  O  O1352  1  0.551480  0.103260  0.380840  1.0  -0.6759
  O  O1353  1  0.493300  0.965560  0.094200  1.0  -0.7274
  O  O1354  1  0.551480  0.964420  0.103260  1.0  -0.6795
  O  O1355  1  0.094200  0.446940  0.493300  1.0  -0.7239
  O  O1356  1  0.103260  0.380840  0.551480  1.0  -0.6757
  O  O1357  1  0.965560  0.493300  0.446940  1.0  -0.7266
  O  O1358  1  0.964420  0.551480  0.380840  1.0  -0.6726
  O  O1359  1  0.446940  0.094200  0.965560  1.0  -0.724
  O  O1360  1  0.380840  0.103260  0.964420  1.0  -0.6758
  O  O1361  1  0.094200  0.965560  0.446940  1.0  -0.7254
  O  O1362  1  0.103260  0.964420  0.380840  1.0  -0.677
  O  O1363  1  0.493300  0.446940  0.965560  1.0  -0.7248
  O  O1364  1  0.551480  0.380840  0.964420  1.0  -0.6743
  O  O1365  1  0.446940  0.493300  0.094200  1.0  -0.7236
  O  O1366  1  0.380840  0.551480  0.103260  1.0  -0.6726
  O  O1367  1  0.965560  0.094200  0.493300  1.0  -0.729
  O  O1368  1  0.964420  0.103260  0.551480  1.0  -0.6769
  O  O1369  1  0.465560  0.946940  0.993300  1.0  -0.723
  O  O1370  1  0.464420  0.880840  0.051480  1.0  -0.6784
  O  O1371  1  0.946940  0.465560  0.594200  1.0  -0.7209
  O  O1372  1  0.880840  0.464420  0.603260  1.0  -0.6772
  O  O1373  1  0.993300  0.594200  0.465560  1.0  -0.7246
  O  O1374  1  0.051480  0.603260  0.464420  1.0  -0.6752
  O  O1375  1  0.594200  0.993300  0.946940  1.0  -0.7225
  O  O1376  1  0.603260  0.051480  0.880840  1.0  -0.6696
  O  O1377  1  0.465560  0.993300  0.594200  1.0  -0.7269
  O  O1378  1  0.464420  0.051480  0.603260  1.0  -0.6726
  O  O1379  1  0.946940  0.594200  0.993300  1.0  -0.7229
  O  O1380  1  0.880840  0.603260  0.051480  1.0  -0.6754
  O  O1381  1  0.993300  0.465560  0.946940  1.0  -0.7252
  O  O1382  1  0.051480  0.464420  0.880840  1.0  -0.6792
  O  O1383  1  0.594200  0.946940  0.465560  1.0  -0.7229
  O  O1384  1  0.603260  0.880840  0.464420  1.0  -0.6765
  O  O1385  1  0.465560  0.594200  0.946940  1.0  -0.726
  O  O1386  1  0.464420  0.603260  0.880840  1.0  -0.6795
  O  O1387  1  0.946940  0.993300  0.465560  1.0  -0.7217
  O  O1388  1  0.880840  0.051480  0.464420  1.0  -0.6722
  O  O1389  1  0.993300  0.946940  0.594200  1.0  -0.7243
  O  O1390  1  0.051480  0.880840  0.603260  1.0  -0.6745
  O  O1391  1  0.594200  0.465560  0.993300  1.0  -0.7261
  O  O1392  1  0.603260  0.464420  0.051480  1.0  -0.6774
  O  O1393  1  0.553060  0.034440  0.506700  1.0  -0.724
  O  O1394  1  0.619160  0.035580  0.448520  1.0  -0.6781
  O  O1395  1  0.034440  0.553060  0.905800  1.0  -0.7251
  O  O1396  1  0.035580  0.619160  0.896740  1.0  -0.6793
  O  O1397  1  0.905800  0.506700  0.034440  1.0  -0.7216
  O  O1398  1  0.896740  0.448520  0.035580  1.0  -0.6706
  O  O1399  1  0.506700  0.905800  0.553060  1.0  -0.7247
  O  O1400  1  0.448520  0.896740  0.619160  1.0  -0.6745
  O  O1401  1  0.506700  0.034440  0.905800  1.0  -0.7252
  O  O1402  1  0.448520  0.035580  0.896740  1.0  -0.6792
  O  O1403  1  0.905800  0.553060  0.506700  1.0  -0.7232
  O  O1404  1  0.896740  0.619160  0.448520  1.0  -0.677
  O  O1405  1  0.034440  0.506700  0.553060  1.0  -0.7276
  O  O1406  1  0.035580  0.448520  0.619160  1.0  -0.6734
  O  O1407  1  0.553060  0.905800  0.034440  1.0  -0.7249
  O  O1408  1  0.619160  0.896740  0.035580  1.0  -0.6752
  O  O1409  1  0.905800  0.034440  0.553060  1.0  -0.7264
  O  O1410  1  0.896740  0.035580  0.619160  1.0  -0.6752
  O  O1411  1  0.506700  0.553060  0.034440  1.0  -0.7254
  O  O1412  1  0.448520  0.619160  0.035580  1.0  -0.675
  O  O1413  1  0.553060  0.506700  0.905800  1.0  -0.7234
  O  O1414  1  0.619160  0.448520  0.896740  1.0  -0.673
  O  O1415  1  0.034440  0.905800  0.506700  1.0  -0.7269
  O  O1416  1  0.035580  0.896740  0.448520  1.0  -0.6783
  O  O1417  1  0.500000  0.000000  0.000000  1.0  -0.9258
  O  O1418  1  0.000000  0.500000  0.500000  1.0  -0.9258
  O  O1419  1  0.500000  0.000000  0.500000  1.0  -0.9258
  O  O1420  1  0.000000  0.500000  0.000000  1.0  -0.9258
  O  O1421  1  0.500000  0.500000  0.000000  1.0  -0.9258
  O  O1422  1  0.000000  0.000000  0.500000  1.0  -0.9258
