# generated using pymatgen
data_Cd2H38C33N11O6
_symmetry_space_group_name_H-M   'P 1'
_cell_length_a   17.96930000
_cell_length_b   17.96930000
_cell_length_c   30.18940000
_cell_angle_alpha   90.00000000
_cell_angle_beta   90.00000000
_cell_angle_gamma   90.00000000
_symmetry_Int_Tables_number   1
_chemical_formula_structural   Cd2H38C33N11O6
_chemical_formula_sum   'Cd16 H304 C264 N88 O48'
_cell_volume   9748.02872833
_cell_formula_units_Z   8
loop_
 _symmetry_equiv_pos_site_id
 _symmetry_equiv_pos_as_xyz
  1  'x, y, z'
loop_
 _atom_site_type_symbol
 _atom_site_label
 _atom_site_symmetry_multiplicity
 _atom_site_fract_x
 _atom_site_fract_y
 _atom_site_fract_z
 _atom_site_occupancy
 _atom_site_charge
  Cd  Cd1  1  0.680970  0.168200  0.312510  1.0  0.7907
  Cd  Cd2  1  0.850470  0.672940  0.318370  1.0  0.8448
  Cd  Cd3  1  0.319030  0.831800  0.812510  1.0  0.7971
  Cd  Cd4  1  0.149530  0.327060  0.818370  1.0  0.8444
  Cd  Cd5  1  0.331800  0.180970  0.562510  1.0  0.7872
  Cd  Cd6  1  0.827060  0.350470  0.568370  1.0  0.8404
  Cd  Cd7  1  0.668200  0.819030  0.062510  1.0  0.7834
  Cd  Cd8  1  0.172940  0.649530  0.068370  1.0  0.8422
  Cd  Cd9  1  0.819030  0.668200  0.937500  1.0  0.793
  Cd  Cd10  1  0.649530  0.172940  0.931630  1.0  0.8438
  Cd  Cd11  1  0.180970  0.331800  0.437500  1.0  0.7943
  Cd  Cd12  1  0.350470  0.827060  0.431630  1.0  0.8444
  Cd  Cd13  1  0.168200  0.680970  0.687490  1.0  0.7824
  Cd  Cd14  1  0.672940  0.850470  0.681630  1.0  0.8411
  Cd  Cd15  1  0.831800  0.319030  0.187490  1.0  0.7846
  Cd  Cd16  1  0.327060  0.149530  0.181630  1.0  0.8415
  H  H17  1  0.033200  0.891900  0.313800  1.0  0.1015
  H  H18  1  0.815800  0.941700  0.311800  1.0  0.085
  H  H19  1  0.752300  0.669100  0.114600  1.0  0.0757
  H  H20  1  0.703500  0.622000  0.147400  1.0  0.0707
  H  H21  1  0.631200  0.990700  0.322000  1.0  0.0878
  H  H22  1  0.432100  0.027400  0.273700  1.0  0.1174
  H  H23  1  0.870400  0.610700  0.084700  1.0  0.0721
  H  H24  1  0.895600  0.578500  0.130500  1.0  0.049
  H  H25  1  0.967200  0.105500  0.310200  1.0  0.0999
  H  H26  1  0.998600  0.614300  0.070800  1.0  0.0851
  H  H27  1  0.613400  0.693600  0.238200  1.0  0.0667
  H  H28  1  0.662700  0.742200  0.269700  1.0  0.0774
  H  H29  1  0.883200  0.456900  0.098000  1.0  0.0656
  H  H30  1  0.875700  0.497300  0.052200  1.0  0.0789
  H  H31  1  0.497000  0.144800  0.279400  1.0  0.0842
  H  H32  1  0.781700  0.520000  0.139500  1.0  0.061
  H  H33  1  0.756500  0.545600  0.092200  1.0  0.0712
  H  H34  1  0.921600  0.746800  0.223000  1.0  0.0769
  H  H35  1  0.899400  0.772600  0.413000  1.0  0.0927
  H  H36  1  0.875500  0.730900  0.148100  1.0  0.1249
  H  H37  1  0.140800  0.452000  0.078300  1.0  0.0974
  H  H38  1  0.866100  0.739200  0.489000  1.0  0.1226
  H  H39  1  0.619000  0.867700  0.286800  1.0  0.0651
  H  H40  1  0.574600  0.887800  0.243900  1.0  0.0667
  H  H41  1  0.754700  0.608200  0.228900  1.0  0.0841
  H  H42  1  0.518000  0.881600  0.328900  1.0  0.0763
  H  H43  1  0.466600  0.889200  0.287200  1.0  0.0535
  H  H44  1  0.542700  0.757500  0.290700  1.0  0.0598
  H  H45  1  0.518100  0.776300  0.242100  1.0  0.0533
  H  H46  1  0.017100  0.397600  0.082600  1.0  0.1189
  H  H47  1  0.774500  0.597400  0.406000  1.0  0.0874
  H  H48  1  0.751100  0.837900  0.230900  1.0  0.1184
  H  H49  1  0.590900  0.753000  0.156900  1.0  0.0893
  H  H50  1  0.770100  0.876700  0.154300  1.0  0.0894
  H  H51  1  0.686300  0.642600  0.540600  1.0  0.0655
  H  H52  1  0.738100  0.709700  0.528100  1.0  0.0658
  H  H53  1  0.801800  0.597700  0.518400  1.0  0.0768
  H  H54  1  0.741400  0.572500  0.484000  1.0  0.0775
  H  H55  1  0.966800  0.108100  0.813800  1.0  0.1011
  H  H56  1  0.184200  0.058300  0.811800  1.0  0.0854
  H  H57  1  0.247700  0.330900  0.614600  1.0  0.0748
  H  H58  1  0.296500  0.378000  0.647400  1.0  0.0719
  H  H59  1  0.368800  0.009300  0.822000  1.0  0.0871
  H  H60  1  0.567900  0.972600  0.773700  1.0  0.1176
  H  H61  1  0.129600  0.389300  0.584700  1.0  0.0714
  H  H62  1  0.104400  0.421500  0.630500  1.0  0.0496
  H  H63  1  0.032800  0.894500  0.810200  1.0  0.1003
  H  H64  1  0.001400  0.385700  0.570800  1.0  0.086
  H  H65  1  0.386600  0.306400  0.738200  1.0  0.0661
  H  H66  1  0.337300  0.257800  0.769700  1.0  0.0772
  H  H67  1  0.116800  0.543100  0.598000  1.0  0.0645
  H  H68  1  0.124300  0.502700  0.552200  1.0  0.079
  H  H69  1  0.503000  0.855200  0.779400  1.0  0.0841
  H  H70  1  0.218300  0.480000  0.639500  1.0  0.0587
  H  H71  1  0.243500  0.454400  0.592200  1.0  0.0711
  H  H72  1  0.078400  0.253200  0.723000  1.0  0.0766
  H  H73  1  0.100600  0.227400  0.913000  1.0  0.0932
  H  H74  1  0.124500  0.269100  0.648100  1.0  0.1247
  H  H75  1  0.859200  0.548000  0.578300  1.0  0.0944
  H  H76  1  0.133900  0.260800  0.989000  1.0  0.1223
  H  H77  1  0.381000  0.132300  0.786800  1.0  0.0662
  H  H78  1  0.425400  0.112200  0.743900  1.0  0.0667
  H  H79  1  0.245300  0.391800  0.728900  1.0  0.0843
  H  H80  1  0.482000  0.118400  0.828900  1.0  0.0756
  H  H81  1  0.533400  0.110800  0.787200  1.0  0.0545
  H  H82  1  0.457300  0.242500  0.790700  1.0  0.0581
  H  H83  1  0.481900  0.223700  0.742100  1.0  0.0542
  H  H84  1  0.982900  0.602400  0.582600  1.0  0.1184
  H  H85  1  0.225500  0.402600  0.906000  1.0  0.0886
  H  H86  1  0.248900  0.162100  0.730900  1.0  0.1186
  H  H87  1  0.409100  0.247000  0.656900  1.0  0.09
  H  H88  1  0.229900  0.123300  0.654300  1.0  0.0889
  H  H89  1  0.313700  0.357400  0.040600  1.0  0.0647
  H  H90  1  0.261900  0.290300  0.028100  1.0  0.066
  H  H91  1  0.198200  0.402300  0.018400  1.0  0.076
  H  H92  1  0.258600  0.427500  0.984000  1.0  0.0771
  H  H93  1  0.608100  0.533200  0.563800  1.0  0.1015
  H  H94  1  0.558300  0.315800  0.561800  1.0  0.0854
  H  H95  1  0.830900  0.252300  0.364600  1.0  0.0771
  H  H96  1  0.878000  0.203500  0.397400  1.0  0.0737
  H  H97  1  0.509300  0.131200  0.572000  1.0  0.0878
  H  H98  1  0.472600  0.932100  0.523700  1.0  0.1154
  H  H99  1  0.889300  0.370400  0.334700  1.0  0.0736
  H  H100  1  0.921500  0.395600  0.380500  1.0  0.0494
  H  H101  1  0.394500  0.467200  0.560200  1.0  0.0991
  H  H102  1  0.885700  0.498600  0.320800  1.0  0.0887
  H  H103  1  0.806400  0.113400  0.488200  1.0  0.0617
  H  H104  1  0.757800  0.162700  0.519700  1.0  0.0791
  H  H105  1  0.043100  0.383200  0.348000  1.0  0.0639
  H  H106  1  0.002700  0.375700  0.302200  1.0  0.0783
  H  H107  1  0.355200  0.997000  0.529400  1.0  0.0828
  H  H108  1  0.980000  0.281700  0.389500  1.0  0.0589
  H  H109  1  0.954400  0.256500  0.342200  1.0  0.0687
  H  H110  1  0.753200  0.421600  0.473000  1.0  0.0774
  H  H111  1  0.727400  0.399400  0.663000  1.0  0.091
  H  H112  1  0.769100  0.375500  0.398100  1.0  0.124
  H  H113  1  0.048000  0.640800  0.328300  1.0  0.0978
  H  H114  1  0.760800  0.366100  0.739000  1.0  0.1218
  H  H115  1  0.632300  0.119000  0.536800  1.0  0.0639
  H  H116  1  0.612200  0.074600  0.493900  1.0  0.0672
  H  H117  1  0.891800  0.254700  0.478900  1.0  0.084
  H  H118  1  0.618400  0.018000  0.578900  1.0  0.0768
  H  H119  1  0.610800  0.966600  0.537200  1.0  0.0567
  H  H120  1  0.742500  0.042700  0.540700  1.0  0.0616
  H  H121  1  0.723700  0.018100  0.492100  1.0  0.0555
  H  H122  1  0.102400  0.517100  0.332600  1.0  0.1177
  H  H123  1  0.902600  0.274500  0.656000  1.0  0.0876
  H  H124  1  0.662100  0.251100  0.480900  1.0  0.1189
  H  H125  1  0.747000  0.090900  0.406900  1.0  0.0902
  H  H126  1  0.623300  0.270100  0.404300  1.0  0.0899
  H  H127  1  0.857400  0.186300  0.790600  1.0  0.0651
  H  H128  1  0.790300  0.238100  0.778100  1.0  0.0675
  H  H129  1  0.902300  0.301800  0.768400  1.0  0.0763
  H  H130  1  0.927500  0.241400  0.734000  1.0  0.0762
  H  H131  1  0.391900  0.466800  0.063800  1.0  0.1011
  H  H132  1  0.441700  0.684200  0.061800  1.0  0.0851
  H  H133  1  0.169100  0.747700  0.864600  1.0  0.0774
  H  H134  1  0.122000  0.796500  0.897400  1.0  0.0719
  H  H135  1  0.490700  0.868800  0.072000  1.0  0.0875
  H  H136  1  0.527400  0.067900  0.023700  1.0  0.1155
  H  H137  1  0.110700  0.629600  0.834700  1.0  0.0705
  H  H138  1  0.078500  0.604400  0.880500  1.0  0.0502
  H  H139  1  0.605500  0.532800  0.060200  1.0  0.1007
  H  H140  1  0.114300  0.501400  0.820800  1.0  0.0868
  H  H141  1  0.193600  0.886600  0.988200  1.0  0.0669
  H  H142  1  0.242200  0.837300  0.019700  1.0  0.0799
  H  H143  1  0.956900  0.616800  0.848000  1.0  0.0639
  H  H144  1  0.997300  0.624300  0.802200  1.0  0.0783
  H  H145  1  0.644800  0.003000  0.029400  1.0  0.0833
  H  H146  1  0.020000  0.718300  0.889500  1.0  0.0584
  H  H147  1  0.045600  0.743500  0.842200  1.0  0.0698
  H  H148  1  0.246800  0.578400  0.973000  1.0  0.077
  H  H149  1  0.272600  0.600600  0.163000  1.0  0.0912
  H  H150  1  0.230900  0.624500  0.898100  1.0  0.1249
  H  H151  1  0.952000  0.359200  0.828300  1.0  0.0963
  H  H152  1  0.239200  0.633900  0.239000  1.0  0.122
  H  H153  1  0.367700  0.881000  0.036800  1.0  0.0636
  H  H154  1  0.387800  0.925400  0.993900  1.0  0.0683
  H  H155  1  0.108200  0.745300  0.978900  1.0  0.0843
  H  H156  1  0.381600  0.982000  0.078900  1.0  0.0773
  H  H157  1  0.389200  0.033400  0.037200  1.0  0.0563
  H  H158  1  0.257500  0.957300  0.040700  1.0  0.0607
  H  H159  1  0.276300  0.981900  0.992100  1.0  0.0535
  H  H160  1  0.897600  0.482900  0.832600  1.0  0.1177
  H  H161  1  0.097400  0.725500  0.156000  1.0  0.0875
  H  H162  1  0.337900  0.748900  0.980900  1.0  0.1188
  H  H163  1  0.253000  0.909100  0.906900  1.0  0.0913
  H  H164  1  0.376700  0.729900  0.904300  1.0  0.0894
  H  H165  1  0.142600  0.813700  0.290600  1.0  0.0649
  H  H166  1  0.209700  0.761900  0.278100  1.0  0.0666
  H  H167  1  0.097700  0.698200  0.268400  1.0  0.0768
  H  H168  1  0.072500  0.758600  0.234000  1.0  0.0747
  H  H169  1  0.466800  0.391900  0.936200  1.0  0.1008
  H  H170  1  0.684200  0.441700  0.938200  1.0  0.0854
  H  H171  1  0.747700  0.169100  0.135400  1.0  0.0739
  H  H172  1  0.796500  0.122000  0.102600  1.0  0.0716
  H  H173  1  0.868800  0.490700  0.928000  1.0  0.0873
  H  H174  1  0.067900  0.527400  0.976300  1.0  0.1178
  H  H175  1  0.629600  0.110700  0.165300  1.0  0.0704
  H  H176  1  0.604400  0.078500  0.119500  1.0  0.0496
  H  H177  1  0.532800  0.605500  0.939800  1.0  0.1004
  H  H178  1  0.501400  0.114300  0.179200  1.0  0.0854
  H  H179  1  0.886600  0.193600  0.011800  1.0  0.0679
  H  H180  1  0.837300  0.242200  0.980300  1.0  0.0763
  H  H181  1  0.616800  0.956900  0.152000  1.0  0.0653
  H  H182  1  0.624300  0.997300  0.197800  1.0  0.0783
  H  H183  1  0.003000  0.644800  0.970600  1.0  0.0839
  H  H184  1  0.718300  0.020000  0.110500  1.0  0.0596
  H  H185  1  0.743500  0.045600  0.157800  1.0  0.0702
  H  H186  1  0.578400  0.246800  0.027000  1.0  0.0766
  H  H187  1  0.600600  0.272600  0.837000  1.0  0.0934
  H  H188  1  0.624500  0.230900  0.101900  1.0  0.1241
  H  H189  1  0.359200  0.952000  0.171700  1.0  0.0966
  H  H190  1  0.633900  0.239200  0.761000  1.0  0.1234
  H  H191  1  0.881000  0.367700  0.963200  1.0  0.0657
  H  H192  1  0.925400  0.387800  0.006100  1.0  0.0663
  H  H193  1  0.745300  0.108200  0.021100  1.0  0.0844
  H  H194  1  0.982000  0.381600  0.921100  1.0  0.0762
  H  H195  1  0.033400  0.389200  0.962800  1.0  0.0549
  H  H196  1  0.957300  0.257500  0.959300  1.0  0.0593
  H  H197  1  0.981900  0.276300  0.007900  1.0  0.0541
  H  H198  1  0.482900  0.897600  0.167400  1.0  0.1185
  H  H199  1  0.725500  0.097400  0.844000  1.0  0.0883
  H  H200  1  0.748900  0.337900  0.019100  1.0  0.1181
  H  H201  1  0.909100  0.253000  0.093100  1.0  0.09
  H  H202  1  0.729900  0.376700  0.095700  1.0  0.0891
  H  H203  1  0.813700  0.142600  0.709400  1.0  0.0643
  H  H204  1  0.761900  0.209700  0.721900  1.0  0.0687
  H  H205  1  0.698200  0.097700  0.731600  1.0  0.0769
  H  H206  1  0.758600  0.072500  0.766000  1.0  0.0775
  H  H207  1  0.533200  0.608100  0.436200  1.0  0.1015
  H  H208  1  0.315800  0.558300  0.438200  1.0  0.0849
  H  H209  1  0.252300  0.830900  0.635400  1.0  0.0757
  H  H210  1  0.203500  0.878000  0.602600  1.0  0.071
  H  H211  1  0.131200  0.509300  0.428000  1.0  0.088
  H  H212  1  0.932100  0.472600  0.476300  1.0  0.1179
  H  H213  1  0.370400  0.889300  0.665300  1.0  0.073
  H  H214  1  0.395600  0.921500  0.619500  1.0  0.0488
  H  H215  1  0.467200  0.394500  0.439800  1.0  0.1005
  H  H216  1  0.498600  0.885700  0.679200  1.0  0.0858
  H  H217  1  0.113400  0.806400  0.511800  1.0  0.0663
  H  H218  1  0.162700  0.757800  0.480300  1.0  0.0765
  H  H219  1  0.383200  0.043100  0.652000  1.0  0.0651
  H  H220  1  0.375700  0.002700  0.697800  1.0  0.0784
  H  H221  1  0.997000  0.355200  0.470600  1.0  0.0838
  H  H222  1  0.281700  0.980000  0.610500  1.0  0.0594
  H  H223  1  0.256500  0.954400  0.657800  1.0  0.071
  H  H224  1  0.421600  0.753200  0.527000  1.0  0.0767
  H  H225  1  0.399400  0.727400  0.337000  1.0  0.0926
  H  H226  1  0.375500  0.769100  0.601900  1.0  0.1238
  H  H227  1  0.640800  0.048000  0.671700  1.0  0.095
  H  H228  1  0.366100  0.760800  0.261000  1.0  0.1236
  H  H229  1  0.119000  0.632300  0.463200  1.0  0.0648
  H  H230  1  0.074600  0.612200  0.506100  1.0  0.0662
  H  H231  1  0.254700  0.891800  0.521100  1.0  0.0845
  H  H232  1  0.018000  0.618400  0.421100  1.0  0.0764
  H  H233  1  0.966600  0.610800  0.462800  1.0  0.0536
  H  H234  1  0.042700  0.742500  0.459300  1.0  0.0586
  H  H235  1  0.018100  0.723700  0.507900  1.0  0.0528
  H  H236  1  0.517100  0.102400  0.667400  1.0  0.1181
  H  H237  1  0.274500  0.902600  0.344000  1.0  0.0888
  H  H238  1  0.251100  0.662100  0.519100  1.0  0.1182
  H  H239  1  0.090900  0.747000  0.593100  1.0  0.0898
  H  H240  1  0.270100  0.623300  0.595700  1.0  0.0889
  H  H241  1  0.186300  0.857400  0.209400  1.0  0.0648
  H  H242  1  0.238100  0.790300  0.221900  1.0  0.0674
  H  H243  1  0.301800  0.902300  0.231600  1.0  0.0768
  H  H244  1  0.241400  0.927500  0.266000  1.0  0.077
  H  H245  1  0.891900  0.033200  0.686200  1.0  0.1016
  H  H246  1  0.941700  0.815800  0.688200  1.0  0.0857
  H  H247  1  0.669100  0.752300  0.885400  1.0  0.076
  H  H248  1  0.622000  0.703500  0.852600  1.0  0.0727
  H  H249  1  0.990700  0.631200  0.678000  1.0  0.0886
  H  H250  1  0.027400  0.432100  0.726300  1.0  0.1155
  H  H251  1  0.610700  0.870400  0.915300  1.0  0.0712
  H  H252  1  0.578500  0.895600  0.869500  1.0  0.0498
  H  H253  1  0.105500  0.967200  0.689800  1.0  0.101
  H  H254  1  0.614300  0.998600  0.929200  1.0  0.0865
  H  H255  1  0.693600  0.613400  0.761800  1.0  0.0673
  H  H256  1  0.742200  0.662700  0.730300  1.0  0.0786
  H  H257  1  0.456900  0.883200  0.902000  1.0  0.0635
  H  H258  1  0.497300  0.875700  0.947800  1.0  0.0773
  H  H259  1  0.144800  0.497000  0.720600  1.0  0.0828
  H  H260  1  0.520000  0.781700  0.860500  1.0  0.0586
  H  H261  1  0.545600  0.756500  0.907800  1.0  0.0689
  H  H262  1  0.746800  0.921600  0.777000  1.0  0.0768
  H  H263  1  0.772600  0.899400  0.587000  1.0  0.0909
  H  H264  1  0.730900  0.875500  0.851900  1.0  0.1235
  H  H265  1  0.452000  0.140800  0.921700  1.0  0.0983
  H  H266  1  0.739200  0.866100  0.511000  1.0  0.1232
  H  H267  1  0.867700  0.619000  0.713200  1.0  0.0656
  H  H268  1  0.887800  0.574600  0.756100  1.0  0.0674
  H  H269  1  0.608200  0.754700  0.771100  1.0  0.0833
  H  H270  1  0.881600  0.518000  0.671100  1.0  0.077
  H  H271  1  0.889200  0.466600  0.712800  1.0  0.0546
  H  H272  1  0.757500  0.542700  0.709300  1.0  0.0603
  H  H273  1  0.776300  0.518100  0.757900  1.0  0.056
  H  H274  1  0.397600  0.017100  0.917400  1.0  0.1174
  H  H275  1  0.597400  0.774500  0.594000  1.0  0.0886
  H  H276  1  0.837900  0.751100  0.769100  1.0  0.119
  H  H277  1  0.753000  0.590900  0.843100  1.0  0.0908
  H  H278  1  0.876700  0.770100  0.845700  1.0  0.0899
  H  H279  1  0.642600  0.686300  0.459400  1.0  0.0647
  H  H280  1  0.709700  0.738100  0.471900  1.0  0.0695
  H  H281  1  0.597700  0.801800  0.481600  1.0  0.0773
  H  H282  1  0.572500  0.741400  0.516000  1.0  0.0742
  H  H283  1  0.108100  0.966800  0.186200  1.0  0.1008
  H  H284  1  0.058300  0.184200  0.188200  1.0  0.0853
  H  H285  1  0.330900  0.247700  0.385400  1.0  0.0763
  H  H286  1  0.378000  0.296500  0.352600  1.0  0.0712
  H  H287  1  0.009300  0.368800  0.178000  1.0  0.0878
  H  H288  1  0.972600  0.567900  0.226300  1.0  0.1156
  H  H289  1  0.389300  0.129600  0.415300  1.0  0.0721
  H  H290  1  0.421500  0.104400  0.369500  1.0  0.0501
  H  H291  1  0.894500  0.032800  0.189800  1.0  0.0997
  H  H292  1  0.385700  0.001400  0.429200  1.0  0.0888
  H  H293  1  0.306400  0.386600  0.261800  1.0  0.0626
  H  H294  1  0.257800  0.337300  0.230300  1.0  0.0792
  H  H295  1  0.543100  0.116800  0.402000  1.0  0.0643
  H  H296  1  0.502700  0.124300  0.447800  1.0  0.0777
  H  H297  1  0.855200  0.503000  0.220600  1.0  0.0821
  H  H298  1  0.480000  0.218300  0.360500  1.0  0.0578
  H  H299  1  0.454400  0.243500  0.407800  1.0  0.0682
  H  H300  1  0.253200  0.078400  0.277000  1.0  0.0766
  H  H301  1  0.227400  0.100600  0.087000  1.0  0.091
  H  H302  1  0.269100  0.124500  0.351900  1.0  0.1241
  H  H303  1  0.548000  0.859200  0.421700  1.0  0.0959
  H  H304  1  0.260800  0.133900  0.011000  1.0  0.1222
  H  H305  1  0.132300  0.381000  0.213200  1.0  0.0617
  H  H306  1  0.112200  0.425400  0.256100  1.0  0.0669
  H  H307  1  0.391800  0.245300  0.271100  1.0  0.0845
  H  H308  1  0.118400  0.482000  0.171100  1.0  0.077
  H  H309  1  0.110800  0.533400  0.212800  1.0  0.0566
  H  H310  1  0.242500  0.457300  0.209300  1.0  0.0619
  H  H311  1  0.223700  0.481900  0.257900  1.0  0.053
  H  H312  1  0.602400  0.982900  0.417400  1.0  0.1177
  H  H313  1  0.402600  0.225500  0.094000  1.0  0.0886
  H  H314  1  0.162100  0.248900  0.269100  1.0  0.1188
  H  H315  1  0.247000  0.409100  0.343100  1.0  0.0908
  H  H316  1  0.123300  0.229900  0.345700  1.0  0.0894
  H  H317  1  0.357400  0.313700  0.959400  1.0  0.0645
  H  H318  1  0.290300  0.261900  0.971900  1.0  0.0684
  H  H319  1  0.402300  0.198200  0.981600  1.0  0.0772
  H  H320  1  0.427500  0.258600  0.016000  1.0  0.076
  C  C321  1  0.881800  0.032300  0.311430  1.0  -0.1597
  C  C322  1  0.994900  0.926700  0.313710  1.0  -0.0537
  C  C323  1  0.010400  0.001900  0.313530  1.0  -0.0543
  C  C324  1  0.920900  0.903900  0.313790  1.0  -0.1587
  C  C325  1  0.865300  0.956900  0.312290  1.0  0.0023
  C  C326  1  0.754000  0.631100  0.137460  1.0  -0.0403
  C  C327  1  0.819900  0.089700  0.310730  1.0  0.6656
  C  C328  1  0.589700  0.015000  0.310670  1.0  0.1319
  C  C329  1  0.480200  0.034400  0.284190  1.0  -0.1511
  C  C330  1  0.866100  0.568200  0.104320  1.0  -0.157
  C  C331  1  0.955200  0.055200  0.311480  1.0  -0.102
  C  C332  1  0.018900  0.566900  0.073370  1.0  0.1098
  C  C333  1  0.903200  0.821300  0.315470  1.0  0.6666
  C  C334  1  0.625900  0.744300  0.246270  1.0  -0.0439
  C  C335  1  0.897000  0.501200  0.081610  1.0  0.0165
  C  C336  1  0.516400  0.098700  0.287380  1.0  0.0352
  C  C337  1  0.785700  0.559700  0.117830  1.0  -0.1251
  C  C338  1  0.881900  0.716600  0.214840  1.0  0.0325
  C  C339  1  0.870200  0.732200  0.421200  1.0  0.0047
  C  C340  1  0.856900  0.707900  0.173380  1.0  -0.1804
  C  C341  1  0.096200  0.478300  0.077260  1.0  -0.002
  C  C342  1  0.852300  0.714200  0.463350  1.0  -0.1672
  C  C343  1  0.571100  0.862500  0.272200  1.0  -0.1442
  C  C344  1  0.790800  0.640700  0.218320  1.0  0.1282
  C  C345  1  0.515700  0.900200  0.298800  1.0  0.0017
  C  C346  1  0.558100  0.781600  0.263470  1.0  -0.1278
  C  C347  1  0.028200  0.447900  0.079950  1.0  -0.1648
  C  C348  1  0.802600  0.636600  0.417200  1.0  0.1254
  C  C349  1  0.721500  0.825400  0.206730  1.0  -0.1763
  C  C350  1  0.633400  0.778700  0.165500  1.0  0.1112
  C  C351  1  0.731700  0.846500  0.164360  1.0  0.0125
  C  C352  1  0.712200  0.667000  0.516910  1.0  -0.1144
  C  C353  1  0.767400  0.615300  0.496000  1.0  -0.0132
  C  C354  1  0.118200  0.967700  0.811430  1.0  -0.1603
  C  C355  1  0.005100  0.073300  0.813710  1.0  -0.0563
  C  C356  1  0.989600  0.998100  0.813530  1.0  -0.0533
  C  C357  1  0.079100  0.096100  0.813790  1.0  -0.1584
  C  C358  1  0.134700  0.043100  0.812290  1.0  0.0044
  C  C359  1  0.246000  0.368900  0.637460  1.0  -0.0388
  C  C360  1  0.180100  0.910300  0.810730  1.0  0.6664
  C  C361  1  0.410300  0.985000  0.810670  1.0  0.1316
  C  C362  1  0.519800  0.965600  0.784190  1.0  -0.1518
  C  C363  1  0.133900  0.431800  0.604320  1.0  -0.158
  C  C364  1  0.044800  0.944800  0.811480  1.0  -0.1006
  C  C365  1  0.981100  0.433100  0.573370  1.0  0.1094
  C  C366  1  0.096800  0.178700  0.815470  1.0  0.6677
  C  C367  1  0.374100  0.255700  0.746270  1.0  -0.0475
  C  C368  1  0.103000  0.498800  0.581610  1.0  0.0174
  C  C369  1  0.483600  0.901300  0.787380  1.0  0.035
  C  C370  1  0.214300  0.440300  0.617830  1.0  -0.1247
  C  C371  1  0.118100  0.283400  0.714840  1.0  0.0323
  C  C372  1  0.129800  0.267800  0.921200  1.0  0.0047
  C  C373  1  0.143100  0.292100  0.673380  1.0  -0.1801
  C  C374  1  0.903800  0.521700  0.577260  1.0  -0.005
  C  C375  1  0.147700  0.285800  0.963350  1.0  -0.1664
  C  C376  1  0.428900  0.137500  0.772200  1.0  -0.1448
  C  C377  1  0.209200  0.359300  0.718320  1.0  0.1276
  C  C378  1  0.484300  0.099800  0.798800  1.0  0.0021
  C  C379  1  0.441900  0.218400  0.763470  1.0  -0.1305
  C  C380  1  0.971800  0.552100  0.579950  1.0  -0.1649
  C  C381  1  0.197400  0.363400  0.917200  1.0  0.1235
  C  C382  1  0.278500  0.174600  0.706730  1.0  -0.1762
  C  C383  1  0.366600  0.221300  0.665500  1.0  0.1113
  C  C384  1  0.268300  0.153500  0.664360  1.0  0.0114
  C  C385  1  0.287800  0.333000  0.016910  1.0  -0.1166
  C  C386  1  0.232600  0.384700  0.996000  1.0  -0.0142
  C  C387  1  0.467700  0.381800  0.561430  1.0  -0.1585
  C  C388  1  0.573300  0.494900  0.563710  1.0  -0.0537
  C  C389  1  0.498100  0.510400  0.563530  1.0  -0.0529
  C  C390  1  0.596100  0.420900  0.563790  1.0  -0.1567
  C  C391  1  0.543100  0.365300  0.562290  1.0  0.0062
  C  C392  1  0.868900  0.254000  0.387460  1.0  -0.0445
  C  C393  1  0.410300  0.319900  0.560730  1.0  0.6662
  C  C394  1  0.485000  0.089700  0.560670  1.0  0.1322
  C  C395  1  0.465600  0.980200  0.534190  1.0  -0.1539
  C  C396  1  0.931800  0.366100  0.354320  1.0  -0.1562
  C  C397  1  0.444800  0.455200  0.561480  1.0  -0.0991
  C  C398  1  0.933100  0.518900  0.323370  1.0  0.1092
  C  C399  1  0.678700  0.403200  0.565470  1.0  0.6656
  C  C400  1  0.755700  0.125900  0.496270  1.0  -0.0365
  C  C401  1  0.998800  0.397000  0.331610  1.0  0.0163
  C  C402  1  0.401300  0.016400  0.537380  1.0  0.0347
  C  C403  1  0.940300  0.285700  0.367830  1.0  -0.1178
  C  C404  1  0.783400  0.381900  0.464840  1.0  0.0307
  C  C405  1  0.767800  0.370200  0.671200  1.0  0.0049
  C  C406  1  0.792100  0.356900  0.423380  1.0  -0.1797
  C  C407  1  0.021700  0.596200  0.327260  1.0  -0.0025
  C  C408  1  0.785800  0.352300  0.713350  1.0  -0.1704
  C  C409  1  0.637500  0.071100  0.522200  1.0  -0.1453
  C  C410  1  0.859300  0.290800  0.468320  1.0  0.1274
  C  C411  1  0.599800  0.015700  0.548800  1.0  0.0006
  C  C412  1  0.718400  0.058100  0.513470  1.0  -0.1324
  C  C413  1  0.052100  0.528200  0.329950  1.0  -0.1638
  C  C414  1  0.863400  0.302600  0.667200  1.0  0.125
  C  C415  1  0.674600  0.221500  0.456730  1.0  -0.1772
  C  C416  1  0.721300  0.133400  0.415500  1.0  0.1104
  C  C417  1  0.653500  0.231700  0.414360  1.0  0.012
  C  C418  1  0.833000  0.212200  0.766910  1.0  -0.1157
  C  C419  1  0.884700  0.267400  0.746000  1.0  -0.0103
  C  C420  1  0.532300  0.618200  0.061430  1.0  -0.1583
  C  C421  1  0.426700  0.505100  0.063710  1.0  -0.0561
  C  C422  1  0.501900  0.489600  0.063530  1.0  -0.0519
  C  C423  1  0.403900  0.579100  0.063790  1.0  -0.1572
  C  C424  1  0.456900  0.634700  0.062290  1.0  0.0049
  C  C425  1  0.131100  0.746000  0.887460  1.0  -0.0443
  C  C426  1  0.589700  0.680100  0.060730  1.0  0.6674
  C  C427  1  0.515000  0.910300  0.060670  1.0  0.1335
  C  C428  1  0.534400  0.019800  0.034190  1.0  -0.1536
  C  C429  1  0.068200  0.633900  0.854320  1.0  -0.1538
  C  C430  1  0.555200  0.544800  0.061480  1.0  -0.099
  C  C431  1  0.066900  0.481100  0.823370  1.0  0.1122
  C  C432  1  0.321300  0.596800  0.065470  1.0  0.6635
  C  C433  1  0.244300  0.874100  0.996270  1.0  -0.0383
  C  C434  1  0.001200  0.603000  0.831610  1.0  0.0174
  C  C435  1  0.598700  0.983600  0.037380  1.0  0.0348
  C  C436  1  0.059700  0.714300  0.867830  1.0  -0.1177
  C  C437  1  0.216600  0.618100  0.964840  1.0  0.0303
  C  C438  1  0.232200  0.629800  0.171200  1.0  0.0077
  C  C439  1  0.207900  0.643100  0.923380  1.0  -0.1792
  C  C440  1  0.978300  0.403800  0.827260  1.0  -0.0039
  C  C441  1  0.214200  0.647700  0.213350  1.0  -0.1677
  C  C442  1  0.362500  0.928900  0.022200  1.0  -0.1463
  C  C443  1  0.140700  0.709200  0.968320  1.0  0.1277
  C  C444  1  0.400200  0.984300  0.048800  1.0  0.0007
  C  C445  1  0.281600  0.941900  0.013470  1.0  -0.1344
  C  C446  1  0.947900  0.471800  0.829950  1.0  -0.1646
  C  C447  1  0.136600  0.697400  0.167200  1.0  0.1256
  C  C448  1  0.325400  0.778500  0.956730  1.0  -0.175
  C  C449  1  0.278700  0.866600  0.915500  1.0  0.112
  C  C450  1  0.346500  0.768300  0.914360  1.0  0.0113
  C  C451  1  0.167000  0.787800  0.266910  1.0  -0.114
  C  C452  1  0.115300  0.732600  0.246000  1.0  -0.0118
  C  C453  1  0.618200  0.532300  0.938570  1.0  -0.1594
  C  C454  1  0.505100  0.426700  0.936290  1.0  -0.0554
  C  C455  1  0.489600  0.501900  0.936470  1.0  -0.0536
  C  C456  1  0.579100  0.403900  0.936210  1.0  -0.1587
  C  C457  1  0.634700  0.456900  0.937710  1.0  0.0043
  C  C458  1  0.746000  0.131100  0.112540  1.0  -0.0387
  C  C459  1  0.680100  0.589700  0.939270  1.0  0.6666
  C  C460  1  0.910300  0.515000  0.939330  1.0  0.1323
  C  C461  1  0.019800  0.534400  0.965810  1.0  -0.1523
  C  C462  1  0.633900  0.068200  0.145680  1.0  -0.1569
  C  C463  1  0.544800  0.555200  0.938520  1.0  -0.1039
  C  C464  1  0.481100  0.066900  0.176630  1.0  0.1094
  C  C465  1  0.596800  0.321300  0.934530  1.0  0.6668
  C  C466  1  0.874100  0.244300  0.003730  1.0  -0.0463
  C  C467  1  0.603000  0.001200  0.168390  1.0  0.0157
  C  C468  1  0.983600  0.598700  0.962620  1.0  0.0355
  C  C469  1  0.714300  0.059700  0.132170  1.0  -0.1253
  C  C470  1  0.618100  0.216600  0.035160  1.0  0.0318
  C  C471  1  0.629800  0.232200  0.828800  1.0  0.0038
  C  C472  1  0.643100  0.207900  0.076620  1.0  -0.1806
  C  C473  1  0.403800  0.978300  0.172740  1.0  -0.0045
  C  C474  1  0.647700  0.214200  0.786650  1.0  -0.1671
  C  C475  1  0.928900  0.362500  0.977800  1.0  -0.1451
  C  C476  1  0.709200  0.140700  0.031680  1.0  0.1261
  C  C477  1  0.984300  0.400200  0.951200  1.0  0.0036
  C  C478  1  0.941900  0.281600  0.986530  1.0  -0.1286
  C  C479  1  0.471800  0.947900  0.170050  1.0  -0.1651
  C  C480  1  0.697400  0.136600  0.832800  1.0  0.1265
  C  C481  1  0.778500  0.325400  0.043270  1.0  -0.177
  C  C482  1  0.866600  0.278700  0.084500  1.0  0.1113
  C  C483  1  0.768300  0.346500  0.085640  1.0  0.0108
  C  C484  1  0.787800  0.167000  0.733090  1.0  -0.1141
  C  C485  1  0.732600  0.115300  0.754000  1.0  -0.0138
  C  C486  1  0.381800  0.467700  0.438570  1.0  -0.1593
  C  C487  1  0.494900  0.573300  0.436290  1.0  -0.0545
  C  C488  1  0.510400  0.498100  0.436470  1.0  -0.0562
  C  C489  1  0.420900  0.596100  0.436210  1.0  -0.1578
  C  C490  1  0.365300  0.543100  0.437710  1.0  0.002
  C  C491  1  0.254000  0.868900  0.612540  1.0  -0.0409
  C  C492  1  0.319900  0.410300  0.439270  1.0  0.6646
  C  C493  1  0.089700  0.485000  0.439330  1.0  0.1314
  C  C494  1  0.980200  0.465600  0.465810  1.0  -0.1511
  C  C495  1  0.366100  0.931800  0.645680  1.0  -0.1581
  C  C496  1  0.455200  0.444800  0.438520  1.0  -0.0989
  C  C497  1  0.518900  0.933100  0.676630  1.0  0.1104
  C  C498  1  0.403200  0.678700  0.434530  1.0  0.6667
  C  C499  1  0.125900  0.755700  0.503730  1.0  -0.0474
  C  C500  1  0.397000  0.998800  0.668390  1.0  0.0155
  C  C501  1  0.016400  0.401300  0.462620  1.0  0.0364
  C  C502  1  0.285700  0.940300  0.632170  1.0  -0.1246
  C  C503  1  0.381900  0.783400  0.535160  1.0  0.031
  C  C504  1  0.370200  0.767800  0.328800  1.0  0.0047
  C  C505  1  0.356900  0.792100  0.576620  1.0  -0.1796
  C  C506  1  0.596200  0.021700  0.672740  1.0  -0.0035
  C  C507  1  0.352300  0.785800  0.286650  1.0  -0.1669
  C  C508  1  0.071100  0.637500  0.477800  1.0  -0.145
  C  C509  1  0.290800  0.859300  0.531680  1.0  0.1268
  C  C510  1  0.015700  0.599800  0.451200  1.0  0.0018
  C  C511  1  0.058100  0.718400  0.486530  1.0  -0.1312
  C  C512  1  0.528200  0.052100  0.670050  1.0  -0.165
  C  C513  1  0.302600  0.863400  0.332800  1.0  0.1248
  C  C514  1  0.221500  0.674600  0.543270  1.0  -0.1764
  C  C515  1  0.133400  0.721300  0.584500  1.0  0.1111
  C  C516  1  0.231700  0.653500  0.585640  1.0  0.012
  C  C517  1  0.212200  0.833000  0.233090  1.0  -0.1136
  C  C518  1  0.267400  0.884700  0.254000  1.0  -0.0143
  C  C519  1  0.032300  0.881800  0.688570  1.0  -0.1579
  C  C520  1  0.926700  0.994900  0.686290  1.0  -0.0549
  C  C521  1  0.001900  0.010400  0.686470  1.0  -0.0528
  C  C522  1  0.903900  0.920900  0.686210  1.0  -0.1571
  C  C523  1  0.956900  0.865300  0.687710  1.0  0.0053
  C  C524  1  0.631100  0.754000  0.862540  1.0  -0.045
  C  C525  1  0.089700  0.819900  0.689270  1.0  0.6674
  C  C526  1  0.015000  0.589700  0.689330  1.0  0.1325
  C  C527  1  0.034400  0.480200  0.715810  1.0  -0.1541
  C  C528  1  0.568200  0.866100  0.895680  1.0  -0.1543
  C  C529  1  0.055200  0.955200  0.688520  1.0  -0.0993
  C  C530  1  0.566900  0.018900  0.926630  1.0  0.1121
  C  C531  1  0.821300  0.903200  0.684530  1.0  0.6634
  C  C532  1  0.744300  0.625900  0.753730  1.0  -0.0393
  C  C533  1  0.501200  0.897000  0.918390  1.0  0.0163
  C  C534  1  0.098700  0.516400  0.712620  1.0  0.0362
  C  C535  1  0.559700  0.785700  0.882170  1.0  -0.1185
  C  C536  1  0.716600  0.881900  0.785160  1.0  0.03
  C  C537  1  0.732200  0.870200  0.578800  1.0  0.0083
  C  C538  1  0.707900  0.856900  0.826620  1.0  -0.1799
  C  C539  1  0.478300  0.096200  0.922740  1.0  -0.0047
  C  C540  1  0.714200  0.852300  0.536650  1.0  -0.1681
  C  C541  1  0.862500  0.571100  0.727800  1.0  -0.1468
  C  C542  1  0.640700  0.790800  0.781680  1.0  0.1275
  C  C543  1  0.900200  0.515700  0.701200  1.0  0.0014
  C  C544  1  0.781600  0.558100  0.736530  1.0  -0.1336
  C  C545  1  0.447900  0.028200  0.920050  1.0  -0.1639
  C  C546  1  0.636600  0.802600  0.582800  1.0  0.1272
  C  C547  1  0.825400  0.721500  0.793270  1.0  -0.176
  C  C548  1  0.778700  0.633400  0.834500  1.0  0.1118
  C  C549  1  0.846500  0.731700  0.835640  1.0  0.0109
  C  C550  1  0.667000  0.712200  0.483090  1.0  -0.1124
  C  C551  1  0.615300  0.767400  0.504000  1.0  -0.0123
  C  C552  1  0.967700  0.118200  0.188570  1.0  -0.1568
  C  C553  1  0.073300  0.005100  0.186290  1.0  -0.0548
  C  C554  1  0.998100  0.989600  0.186470  1.0  -0.0548
  C  C555  1  0.096100  0.079100  0.186210  1.0  -0.1561
  C  C556  1  0.043100  0.134700  0.187710  1.0  0.0046
  C  C557  1  0.368900  0.246000  0.362540  1.0  -0.0442
  C  C558  1  0.910300  0.180100  0.189270  1.0  0.6653
  C  C559  1  0.985000  0.410300  0.189330  1.0  0.1335
  C  C560  1  0.965600  0.519800  0.215810  1.0  -0.1531
  C  C561  1  0.431800  0.133900  0.395680  1.0  -0.1565
  C  C562  1  0.944800  0.044800  0.188520  1.0  -0.098
  C  C563  1  0.433100  0.981100  0.426630  1.0  0.1094
  C  C564  1  0.178700  0.096800  0.184530  1.0  0.6646
  C  C565  1  0.255700  0.374100  0.253730  1.0  -0.0384
  C  C566  1  0.498800  0.103000  0.418390  1.0  0.014
  C  C567  1  0.901300  0.483600  0.212620  1.0  0.0349
  C  C568  1  0.440300  0.214300  0.382170  1.0  -0.1171
  C  C569  1  0.283400  0.118100  0.285160  1.0  0.03
  C  C570  1  0.267800  0.129800  0.078800  1.0  0.006
  C  C571  1  0.292100  0.143100  0.326620  1.0  -0.1791
  C  C572  1  0.521700  0.903800  0.422740  1.0  -0.0039
  C  C573  1  0.285800  0.147700  0.036650  1.0  -0.1698
  C  C574  1  0.137500  0.428900  0.227800  1.0  -0.1458
  C  C575  1  0.359300  0.209200  0.281680  1.0  0.126
  C  C576  1  0.099800  0.484300  0.201200  1.0  0.0019
  C  C577  1  0.218400  0.441900  0.236530  1.0  -0.1334
  C  C578  1  0.552100  0.971800  0.420050  1.0  -0.1647
  C  C579  1  0.363400  0.197400  0.082800  1.0  0.1277
  C  C580  1  0.174600  0.278500  0.293270  1.0  -0.1769
  C  C581  1  0.221300  0.366600  0.334500  1.0  0.1105
  C  C582  1  0.153500  0.268300  0.335640  1.0  0.0122
  C  C583  1  0.333000  0.287800  0.983090  1.0  -0.1144
  C  C584  1  0.384700  0.232600  0.004000  1.0  -0.0114
  N  N585  1  0.978600  0.505000  0.078090  1.0  0.0401
  N  N586  1  0.798900  0.658800  0.175270  1.0  0.0236
  N  N587  1  0.090470  0.552800  0.072770  1.0  -0.409
  N  N588  1  0.840100  0.674420  0.243540  1.0  -0.4133
  N  N589  1  0.839500  0.682800  0.392920  1.0  -0.3502
  N  N590  1  0.526800  0.981400  0.299170  1.0  0.037
  N  N591  1  0.585600  0.087470  0.303880  1.0  -0.408
  N  N592  1  0.809600  0.651700  0.460390  1.0  0.0349
  N  N593  1  0.088500  0.026500  0.314750  1.0  0.5792
  N  N594  1  0.659200  0.782200  0.207120  1.0  0.0287
  N  N595  1  0.676920  0.816850  0.138420  1.0  -0.3937
  N  N596  1  0.021400  0.495000  0.578090  1.0  0.0396
  N  N597  1  0.201100  0.341200  0.675270  1.0  0.024
  N  N598  1  0.909530  0.447200  0.572770  1.0  -0.4099
  N  N599  1  0.159900  0.325580  0.743540  1.0  -0.4127
  N  N600  1  0.160500  0.317200  0.892920  1.0  -0.3507
  N  N601  1  0.473200  0.018600  0.799170  1.0  0.0372
  N  N602  1  0.414400  0.912530  0.803880  1.0  -0.4104
  N  N603  1  0.190400  0.348300  0.960390  1.0  0.0344
  N  N604  1  0.911500  0.973500  0.814750  1.0  0.5799
  N  N605  1  0.340800  0.217800  0.707120  1.0  0.0292
  N  N606  1  0.323080  0.183150  0.638420  1.0  -0.3946
  N  N607  1  0.995000  0.478600  0.328090  1.0  0.0392
  N  N608  1  0.841200  0.298900  0.425270  1.0  0.0239
  N  N609  1  0.947200  0.590470  0.322770  1.0  -0.4112
  N  N610  1  0.825580  0.340100  0.493540  1.0  -0.4116
  N  N611  1  0.817200  0.339500  0.642920  1.0  -0.3508
  N  N612  1  0.518600  0.026800  0.549170  1.0  0.0366
  N  N613  1  0.412530  0.085600  0.553880  1.0  -0.41
  N  N614  1  0.848300  0.309600  0.710390  1.0  0.0344
  N  N615  1  0.473500  0.588500  0.564750  1.0  0.5777
  N  N616  1  0.717800  0.159200  0.457120  1.0  0.0291
  N  N617  1  0.683150  0.176920  0.388420  1.0  -0.3932
  N  N618  1  0.005000  0.521400  0.828090  1.0  0.04
  N  N619  1  0.158800  0.701100  0.925270  1.0  0.0248
  N  N620  1  0.052800  0.409530  0.822770  1.0  -0.4092
  N  N621  1  0.174420  0.659900  0.993540  1.0  -0.412
  N  N622  1  0.182800  0.660500  0.142920  1.0  -0.3509
  N  N623  1  0.481400  0.973200  0.049170  1.0  0.0376
  N  N624  1  0.587470  0.914400  0.053880  1.0  -0.4057
  N  N625  1  0.151700  0.690400  0.210390  1.0  0.0323
  N  N626  1  0.526500  0.411500  0.064750  1.0  0.578
  N  N627  1  0.282200  0.840800  0.957120  1.0  0.0284
  N  N628  1  0.316850  0.823080  0.888420  1.0  -0.3925
  N  N629  1  0.521400  0.005000  0.171910  1.0  0.0388
  N  N630  1  0.701100  0.158800  0.074730  1.0  0.024
  N  N631  1  0.409530  0.052800  0.177230  1.0  -0.4101
  N  N632  1  0.659900  0.174420  0.006460  1.0  -0.4109
  N  N633  1  0.660500  0.182800  0.857080  1.0  -0.3521
  N  N634  1  0.973200  0.481400  0.950830  1.0  0.0368
  N  N635  1  0.914400  0.587470  0.946120  1.0  -0.4115
  N  N636  1  0.690400  0.151700  0.789610  1.0  0.0344
  N  N637  1  0.411500  0.526500  0.935250  1.0  0.5751
  N  N638  1  0.840800  0.282200  0.042880  1.0  0.0282
  N  N639  1  0.823080  0.316850  0.111580  1.0  -0.3957
  N  N640  1  0.478600  0.995000  0.671910  1.0  0.0405
  N  N641  1  0.298900  0.841200  0.574730  1.0  0.0232
  N  N642  1  0.590470  0.947200  0.677230  1.0  -0.4075
  N  N643  1  0.340100  0.825580  0.506460  1.0  -0.4109
  N  N644  1  0.339500  0.817200  0.357080  1.0  -0.3516
  N  N645  1  0.026800  0.518600  0.450830  1.0  0.0374
  N  N646  1  0.085600  0.412530  0.446120  1.0  -0.4053
  N  N647  1  0.309600  0.848300  0.289610  1.0  0.0358
  N  N648  1  0.588500  0.473500  0.435250  1.0  0.5721
  N  N649  1  0.159200  0.717800  0.542880  1.0  0.0288
  N  N650  1  0.176920  0.683150  0.611580  1.0  -0.3953
  N  N651  1  0.505000  0.978600  0.921910  1.0  0.0396
  N  N652  1  0.658800  0.798900  0.824730  1.0  0.0242
  N  N653  1  0.552800  0.090470  0.927230  1.0  -0.4093
  N  N654  1  0.674420  0.840100  0.756460  1.0  -0.4098
  N  N655  1  0.682800  0.839500  0.607080  1.0  -0.3507
  N  N656  1  0.981400  0.526800  0.700830  1.0  0.0373
  N  N657  1  0.087470  0.585600  0.696120  1.0  -0.4075
  N  N658  1  0.651700  0.809600  0.539610  1.0  0.0331
  N  N659  1  0.026500  0.088500  0.685250  1.0  0.572
  N  N660  1  0.782200  0.659200  0.792880  1.0  0.0285
  N  N661  1  0.816850  0.676920  0.861580  1.0  -0.3933
  N  N662  1  0.495000  0.021400  0.421910  1.0  0.0393
  N  N663  1  0.341200  0.201100  0.324730  1.0  0.024
  N  N664  1  0.447200  0.909530  0.427230  1.0  -0.4112
  N  N665  1  0.325580  0.159900  0.256460  1.0  -0.4107
  N  N666  1  0.317200  0.160500  0.107080  1.0  -0.3522
  N  N667  1  0.018600  0.473200  0.200830  1.0  0.0367
  N  N668  1  0.912530  0.414400  0.196120  1.0  -0.4093
  N  N669  1  0.348300  0.190400  0.039610  1.0  0.0336
  N  N670  1  0.973500  0.911500  0.185250  1.0  0.5709
  N  N671  1  0.217800  0.340800  0.292880  1.0  0.0288
  N  N672  1  0.183150  0.323080  0.361580  1.0  -0.3947
  O  O673  1  0.834960  0.803560  0.313970  1.0  -0.6413
  O  O674  1  0.754900  0.064700  0.315760  1.0  -0.5875
  O  O675  1  0.954600  0.776200  0.318260  1.0  -0.614
  O  O676  1  0.835400  0.155500  0.305340  1.0  -0.6149
  O  O677  1  0.137300  0.980600  0.315500  1.0  -0.4816
  O  O678  1  0.101300  0.092200  0.315200  1.0  -0.4736
  O  O679  1  0.165040  0.196440  0.813970  1.0  -0.6443
  O  O680  1  0.245100  0.935300  0.815760  1.0  -0.589
  O  O681  1  0.045400  0.223800  0.818260  1.0  -0.6131
  O  O682  1  0.164600  0.844500  0.805340  1.0  -0.6144
  O  O683  1  0.862700  0.019400  0.815500  1.0  -0.4806
  O  O684  1  0.898700  0.907800  0.815200  1.0  -0.4745
  O  O685  1  0.696440  0.334960  0.563970  1.0  -0.6413
  O  O686  1  0.435300  0.254900  0.565760  1.0  -0.5873
  O  O687  1  0.723800  0.454600  0.568260  1.0  -0.6143
  O  O688  1  0.344500  0.335400  0.555340  1.0  -0.6151
  O  O689  1  0.519400  0.637300  0.565500  1.0  -0.4802
  O  O690  1  0.407800  0.601300  0.565200  1.0  -0.4746
  O  O691  1  0.303560  0.665040  0.063970  1.0  -0.6405
  O  O692  1  0.564700  0.745100  0.065760  1.0  -0.5878
  O  O693  1  0.276200  0.545400  0.068260  1.0  -0.6148
  O  O694  1  0.655500  0.664600  0.055340  1.0  -0.6128
  O  O695  1  0.480600  0.362700  0.065500  1.0  -0.48
  O  O696  1  0.592200  0.398700  0.065200  1.0  -0.4746
  O  O697  1  0.665040  0.303560  0.936030  1.0  -0.6435
  O  O698  1  0.745100  0.564700  0.934240  1.0  -0.5891
  O  O699  1  0.545400  0.276200  0.931740  1.0  -0.6128
  O  O700  1  0.664600  0.655500  0.944660  1.0  -0.6136
  O  O701  1  0.362700  0.480600  0.934500  1.0  -0.4819
  O  O702  1  0.398700  0.592200  0.934800  1.0  -0.474
  O  O703  1  0.334960  0.696440  0.436030  1.0  -0.6415
  O  O704  1  0.254900  0.435300  0.434240  1.0  -0.5875
  O  O705  1  0.454600  0.723800  0.431740  1.0  -0.613
  O  O706  1  0.335400  0.344500  0.444660  1.0  -0.614
  O  O707  1  0.637300  0.519400  0.434500  1.0  -0.4836
  O  O708  1  0.601300  0.407800  0.434800  1.0  -0.4744
  O  O709  1  0.803560  0.834960  0.686030  1.0  -0.6421
  O  O710  1  0.064700  0.754900  0.684240  1.0  -0.5878
  O  O711  1  0.776200  0.954600  0.681740  1.0  -0.6137
  O  O712  1  0.155500  0.835400  0.694660  1.0  -0.6117
  O  O713  1  0.980600  0.137300  0.684500  1.0  -0.4806
  O  O714  1  0.092200  0.101300  0.684800  1.0  -0.4746
  O  O715  1  0.196440  0.165040  0.186030  1.0  -0.64
  O  O716  1  0.935300  0.245100  0.184240  1.0  -0.5877
  O  O717  1  0.223800  0.045400  0.181740  1.0  -0.6138
  O  O718  1  0.844500  0.164600  0.194660  1.0  -0.6145
  O  O719  1  0.019400  0.862700  0.184500  1.0  -0.4822
  O  O720  1  0.907800  0.898700  0.184800  1.0  -0.4743
