# generated using pymatgen
data_Co2H36C53(NO)8
_symmetry_space_group_name_H-M   'P 1'
_cell_length_a   40.57500000
_cell_length_b   14.37470000
_cell_length_c   20.15600000
_cell_angle_alpha   90.00000000
_cell_angle_beta   108.05800000
_cell_angle_gamma   90.00000000
_symmetry_Int_Tables_number   1
_chemical_formula_structural   Co2H36C53(NO)8
_chemical_formula_sum   'Co16 H288 C424 N64 O64'
_cell_volume   11176.99102438
_cell_formula_units_Z   8
loop_
 _symmetry_equiv_pos_site_id
 _symmetry_equiv_pos_as_xyz
  1  'x, y, z'
loop_
 _atom_site_type_symbol
 _atom_site_label
 _atom_site_symmetry_multiplicity
 _atom_site_fract_x
 _atom_site_fract_y
 _atom_site_fract_z
 _atom_site_occupancy
 _atom_site_charge
  Co  Co1  1  0.416480  0.465310  0.879100  1.0  0.9503
  Co  Co2  1  0.778850  0.654380  0.671450  1.0  0.926
  Co  Co3  1  0.916480  0.965310  0.879100  1.0  0.9503
  Co  Co4  1  0.278850  0.154380  0.671450  1.0  0.926
  Co  Co5  1  0.583520  0.465310  0.620900  1.0  0.9534
  Co  Co6  1  0.221150  0.654380  0.828550  1.0  0.927
  Co  Co7  1  0.083520  0.965310  0.620900  1.0  0.9534
  Co  Co8  1  0.721150  0.154380  0.828550  1.0  0.927
  Co  Co9  1  0.583520  0.534690  0.120900  1.0  0.9533
  Co  Co10  1  0.221150  0.345620  0.328550  1.0  0.9279
  Co  Co11  1  0.083520  0.034690  0.120900  1.0  0.9533
  Co  Co12  1  0.721150  0.845620  0.328550  1.0  0.9279
  Co  Co13  1  0.416480  0.534690  0.379100  1.0  0.9501
  Co  Co14  1  0.778850  0.345620  0.171450  1.0  0.9263
  Co  Co15  1  0.916480  0.034690  0.379100  1.0  0.9501
  Co  Co16  1  0.278850  0.845620  0.171450  1.0  0.9263
  H  H17  1  0.421400  0.492100  0.630400  1.0  0.1133
  H  H18  1  0.335000  0.576100  0.484300  1.0  0.1056
  H  H19  1  0.306200  0.581100  0.566900  1.0  0.1086
  H  H20  1  0.334700  0.537000  0.681100  1.0  0.0995
  H  H21  1  0.473200  0.575000  0.830700  1.0  0.1021
  H  H22  1  0.469500  0.778400  0.959600  1.0  0.1365
  H  H23  1  0.428900  0.658000  0.966700  1.0  0.113
  H  H24  1  0.529500  0.622400  0.842600  1.0  0.1285
  H  H25  1  0.575700  0.695900  0.819800  1.0  0.0966
  H  H26  1  0.542900  0.940700  0.869900  1.0  0.112
  H  H27  1  0.496300  0.868000  0.890600  1.0  0.121
  H  H28  1  0.582700  0.296900  0.713400  1.0  0.0945
  H  H29  1  0.552800  0.130700  0.550300  1.0  0.1417
  H  H30  1  0.551400  0.292000  0.509800  1.0  0.0944
  H  H31  1  0.623700  0.149800  0.751600  1.0  0.128
  H  H32  1  0.635100  0.026100  0.829000  1.0  0.1024
  H  H33  1  0.539800  0.927500  0.737800  1.0  0.0971
  H  H34  1  0.528900  0.048800  0.657900  1.0  0.1292
  H  H35  1  0.728000  0.758900  0.735500  1.0  0.1071
  H  H36  1  0.707800  0.528300  0.626400  1.0  0.1022
  H  H37  1  0.657200  0.564000  0.662800  1.0  0.1282
  H  H38  1  0.701300  0.764900  0.830300  1.0  0.1285
  H  H39  1  0.666400  0.844100  0.882200  1.0  0.1056
  H  H40  1  0.583400  0.781300  0.720600  1.0  0.0993
  H  H41  1  0.618400  0.705700  0.667200  1.0  0.1209
  H  H42  1  0.675300  0.812600  0.172200  1.0  0.1171
  H  H43  1  0.695200  0.050900  0.270500  1.0  0.106
  H  H44  1  0.663000  0.085000  0.149000  1.0  0.1385
  H  H45  1  0.653200  0.788900  0.062300  1.0  0.1335
  H  H46  1  0.628200  0.767000  0.944700  1.0  0.0985
  H  H47  1  0.607800  0.037500  0.918400  1.0  0.1102
  H  H48  1  0.631900  0.060100  0.037300  1.0  0.1268
  H  H49  1  0.749700  0.645400  0.452300  1.0  0.1083
  H  H50  1  0.740800  0.463800  0.298800  1.0  0.0848
  H  H51  1  0.761500  0.347900  0.376600  1.0  0.1233
  H  H52  1  0.776100  0.378500  0.496900  1.0  0.1146
  H  H53  1  0.921400  0.992100  0.630400  1.0  0.1133
  H  H54  1  0.835000  0.076100  0.484300  1.0  0.1056
  H  H55  1  0.806200  0.081100  0.566900  1.0  0.1086
  H  H56  1  0.834700  0.037000  0.681100  1.0  0.0995
  H  H57  1  0.973200  0.075000  0.830700  1.0  0.1021
  H  H58  1  0.969500  0.278400  0.959600  1.0  0.1367
  H  H59  1  0.928900  0.158000  0.966700  1.0  0.113
  H  H60  1  0.029500  0.122400  0.842600  1.0  0.1285
  H  H61  1  0.075700  0.195900  0.819800  1.0  0.0966
  H  H62  1  0.042900  0.440700  0.869900  1.0  0.112
  H  H63  1  0.996300  0.368000  0.890600  1.0  0.121
  H  H64  1  0.082700  0.796900  0.713400  1.0  0.0945
  H  H65  1  0.052800  0.630700  0.550300  1.0  0.1417
  H  H66  1  0.051400  0.792000  0.509800  1.0  0.0944
  H  H67  1  0.123700  0.649800  0.751600  1.0  0.128
  H  H68  1  0.135100  0.526100  0.829000  1.0  0.1024
  H  H69  1  0.039800  0.427500  0.737800  1.0  0.0971
  H  H70  1  0.028900  0.548800  0.657900  1.0  0.1292
  H  H71  1  0.228000  0.258900  0.735500  1.0  0.1071
  H  H72  1  0.207800  0.028300  0.626400  1.0  0.1022
  H  H73  1  0.157200  0.064000  0.662800  1.0  0.1282
  H  H74  1  0.201300  0.264900  0.830300  1.0  0.1285
  H  H75  1  0.166400  0.344100  0.882200  1.0  0.1056
  H  H76  1  0.083400  0.281300  0.720600  1.0  0.0992
  H  H77  1  0.118400  0.205700  0.667200  1.0  0.1209
  H  H78  1  0.175300  0.312600  0.172200  1.0  0.1171
  H  H79  1  0.195200  0.550900  0.270500  1.0  0.106
  H  H80  1  0.163000  0.585000  0.149000  1.0  0.1385
  H  H81  1  0.153200  0.288900  0.062300  1.0  0.1335
  H  H82  1  0.128200  0.267000  0.944700  1.0  0.0985
  H  H83  1  0.107800  0.537500  0.918400  1.0  0.1102
  H  H84  1  0.131900  0.560100  0.037300  1.0  0.1268
  H  H85  1  0.249700  0.145400  0.452300  1.0  0.1083
  H  H86  1  0.240800  0.963800  0.298800  1.0  0.0848
  H  H87  1  0.261500  0.847900  0.376600  1.0  0.1233
  H  H88  1  0.276100  0.878500  0.496900  1.0  0.1146
  H  H89  1  0.578600  0.492100  0.869600  1.0  0.1146
  H  H90  1  0.665000  0.576100  0.015700  1.0  0.106
  H  H91  1  0.693800  0.581100  0.933100  1.0  0.1079
  H  H92  1  0.665300  0.537000  0.818900  1.0  0.1
  H  H93  1  0.526800  0.575000  0.669300  1.0  0.102
  H  H94  1  0.530500  0.778400  0.540400  1.0  0.1362
  H  H95  1  0.571100  0.658000  0.533300  1.0  0.1127
  H  H96  1  0.470500  0.622400  0.657400  1.0  0.1282
  H  H97  1  0.424300  0.695900  0.680200  1.0  0.0967
  H  H98  1  0.457100  0.940700  0.630100  1.0  0.1125
  H  H99  1  0.503700  0.868000  0.609400  1.0  0.1211
  H  H100  1  0.417300  0.296900  0.786600  1.0  0.0934
  H  H101  1  0.447200  0.130700  0.949700  1.0  0.1416
  H  H102  1  0.448600  0.292000  0.990200  1.0  0.0945
  H  H103  1  0.376300  0.149800  0.748400  1.0  0.1284
  H  H104  1  0.364900  0.026100  0.671000  1.0  0.102
  H  H105  1  0.460200  0.927500  0.762200  1.0  0.0975
  H  H106  1  0.471100  0.048800  0.842100  1.0  0.1301
  H  H107  1  0.272000  0.758900  0.764500  1.0  0.1073
  H  H108  1  0.292200  0.528300  0.873600  1.0  0.1025
  H  H109  1  0.342800  0.564000  0.837200  1.0  0.1282
  H  H110  1  0.298700  0.764900  0.669700  1.0  0.1298
  H  H111  1  0.333600  0.844100  0.617800  1.0  0.1059
  H  H112  1  0.416600  0.781300  0.779400  1.0  0.0988
  H  H113  1  0.381600  0.705700  0.832800  1.0  0.1203
  H  H114  1  0.324700  0.812600  0.327800  1.0  0.1173
  H  H115  1  0.304800  0.050900  0.229500  1.0  0.1064
  H  H116  1  0.337000  0.085000  0.351000  1.0  0.1382
  H  H117  1  0.346800  0.788900  0.437700  1.0  0.1331
  H  H118  1  0.371800  0.767000  0.555300  1.0  0.098
  H  H119  1  0.392200  0.037500  0.581600  1.0  0.1103
  H  H120  1  0.368100  0.060100  0.462700  1.0  0.1272
  H  H121  1  0.250300  0.645400  0.047700  1.0  0.1078
  H  H122  1  0.259200  0.463800  0.201200  1.0  0.0846
  H  H123  1  0.238500  0.347900  0.123400  1.0  0.1236
  H  H124  1  0.223900  0.378500  0.003100  1.0  0.114
  H  H125  1  0.078600  0.992100  0.869600  1.0  0.1146
  H  H126  1  0.165000  0.076100  0.015700  1.0  0.106
  H  H127  1  0.193800  0.081100  0.933100  1.0  0.1079
  H  H128  1  0.165300  0.037000  0.818900  1.0  0.1
  H  H129  1  0.026800  0.075000  0.669300  1.0  0.102
  H  H130  1  0.030500  0.278400  0.540400  1.0  0.1363
  H  H131  1  0.071100  0.158000  0.533300  1.0  0.1127
  H  H132  1  0.970500  0.122400  0.657400  1.0  0.1282
  H  H133  1  0.924300  0.195900  0.680200  1.0  0.0967
  H  H134  1  0.957100  0.440700  0.630100  1.0  0.1126
  H  H135  1  0.003700  0.368000  0.609400  1.0  0.121
  H  H136  1  0.917300  0.796900  0.786600  1.0  0.0934
  H  H137  1  0.947200  0.630700  0.949700  1.0  0.1416
  H  H138  1  0.948600  0.792000  0.990200  1.0  0.0945
  H  H139  1  0.876300  0.649800  0.748400  1.0  0.1284
  H  H140  1  0.864900  0.526100  0.671000  1.0  0.102
  H  H141  1  0.960200  0.427500  0.762200  1.0  0.0975
  H  H142  1  0.971100  0.548800  0.842100  1.0  0.1301
  H  H143  1  0.772000  0.258900  0.764500  1.0  0.1073
  H  H144  1  0.792200  0.028300  0.873600  1.0  0.1025
  H  H145  1  0.842800  0.064000  0.837200  1.0  0.1282
  H  H146  1  0.798700  0.264900  0.669700  1.0  0.1298
  H  H147  1  0.833600  0.344100  0.617800  1.0  0.1059
  H  H148  1  0.916600  0.281300  0.779400  1.0  0.0987
  H  H149  1  0.881600  0.205700  0.832800  1.0  0.1203
  H  H150  1  0.824700  0.312600  0.327800  1.0  0.1173
  H  H151  1  0.804800  0.550900  0.229500  1.0  0.1064
  H  H152  1  0.837000  0.585000  0.351000  1.0  0.1382
  H  H153  1  0.846800  0.288900  0.437700  1.0  0.1331
  H  H154  1  0.871800  0.267000  0.555300  1.0  0.098
  H  H155  1  0.892200  0.537500  0.581600  1.0  0.1103
  H  H156  1  0.868100  0.560100  0.462700  1.0  0.1272
  H  H157  1  0.750300  0.145400  0.047700  1.0  0.1078
  H  H158  1  0.759200  0.963800  0.201200  1.0  0.0846
  H  H159  1  0.738500  0.847900  0.123400  1.0  0.1236
  H  H160  1  0.723900  0.878500  0.003100  1.0  0.114
  H  H161  1  0.578600  0.507900  0.369600  1.0  0.1146
  H  H162  1  0.665000  0.423900  0.515700  1.0  0.1062
  H  H163  1  0.693800  0.418900  0.433100  1.0  0.1079
  H  H164  1  0.665300  0.463000  0.318900  1.0  0.0996
  H  H165  1  0.526800  0.425000  0.169300  1.0  0.1016
  H  H166  1  0.530500  0.221600  0.040400  1.0  0.1356
  H  H167  1  0.571100  0.342000  0.033300  1.0  0.1128
  H  H168  1  0.470500  0.377600  0.157400  1.0  0.128
  H  H169  1  0.424300  0.304100  0.180200  1.0  0.0971
  H  H170  1  0.457100  0.059300  0.130100  1.0  0.1134
  H  H171  1  0.503700  0.132000  0.109400  1.0  0.1206
  H  H172  1  0.417300  0.703100  0.286600  1.0  0.0935
  H  H173  1  0.447200  0.869300  0.449700  1.0  0.1417
  H  H174  1  0.448600  0.708000  0.490200  1.0  0.0946
  H  H175  1  0.376300  0.850200  0.248400  1.0  0.1279
  H  H176  1  0.364900  0.973900  0.171000  1.0  0.1021
  H  H177  1  0.460200  0.072500  0.262200  1.0  0.0973
  H  H178  1  0.471100  0.951200  0.342100  1.0  0.1307
  H  H179  1  0.272000  0.241100  0.264500  1.0  0.1075
  H  H180  1  0.292200  0.471700  0.373600  1.0  0.1025
  H  H181  1  0.342800  0.436000  0.337200  1.0  0.1284
  H  H182  1  0.298700  0.235100  0.169700  1.0  0.1295
  H  H183  1  0.333600  0.155900  0.117800  1.0  0.106
  H  H184  1  0.416600  0.218700  0.279400  1.0  0.0988
  H  H185  1  0.381600  0.294300  0.332800  1.0  0.1203
  H  H186  1  0.324700  0.187400  0.827800  1.0  0.1171
  H  H187  1  0.304800  0.949100  0.729500  1.0  0.1062
  H  H188  1  0.337000  0.915000  0.851000  1.0  0.1386
  H  H189  1  0.346800  0.211100  0.937700  1.0  0.1335
  H  H190  1  0.371800  0.233000  0.055300  1.0  0.0987
  H  H191  1  0.392200  0.962500  0.081600  1.0  0.1098
  H  H192  1  0.368100  0.939900  0.962700  1.0  0.127
  H  H193  1  0.250300  0.354600  0.547700  1.0  0.108
  H  H194  1  0.259200  0.536200  0.701200  1.0  0.0848
  H  H195  1  0.238500  0.652100  0.623400  1.0  0.1241
  H  H196  1  0.223900  0.621500  0.503100  1.0  0.1141
  H  H197  1  0.078600  0.007900  0.369600  1.0  0.1146
  H  H198  1  0.165000  0.923900  0.515700  1.0  0.1062
  H  H199  1  0.193800  0.918900  0.433100  1.0  0.1079
  H  H200  1  0.165300  0.963000  0.318900  1.0  0.0996
  H  H201  1  0.026800  0.925000  0.169300  1.0  0.1016
  H  H202  1  0.030500  0.721600  0.040400  1.0  0.1357
  H  H203  1  0.071100  0.842000  0.033300  1.0  0.1128
  H  H204  1  0.970500  0.877600  0.157400  1.0  0.1279
  H  H205  1  0.924300  0.804100  0.180200  1.0  0.0971
  H  H206  1  0.957100  0.559300  0.130100  1.0  0.1135
  H  H207  1  0.003700  0.632000  0.109400  1.0  0.1206
  H  H208  1  0.917300  0.203100  0.286600  1.0  0.0935
  H  H209  1  0.947200  0.369300  0.449700  1.0  0.1417
  H  H210  1  0.948600  0.208000  0.490200  1.0  0.0946
  H  H211  1  0.876300  0.350200  0.248400  1.0  0.1279
  H  H212  1  0.864900  0.473900  0.171000  1.0  0.1021
  H  H213  1  0.960200  0.572500  0.262200  1.0  0.0973
  H  H214  1  0.971100  0.451200  0.342100  1.0  0.1307
  H  H215  1  0.772000  0.741100  0.264500  1.0  0.1075
  H  H216  1  0.792200  0.971700  0.373600  1.0  0.1025
  H  H217  1  0.842800  0.936000  0.337200  1.0  0.1284
  H  H218  1  0.798700  0.735100  0.169700  1.0  0.1295
  H  H219  1  0.833600  0.655900  0.117800  1.0  0.106
  H  H220  1  0.916600  0.718700  0.279400  1.0  0.0987
  H  H221  1  0.881600  0.794300  0.332800  1.0  0.1203
  H  H222  1  0.824700  0.687400  0.827800  1.0  0.1171
  H  H223  1  0.804800  0.449100  0.729500  1.0  0.1062
  H  H224  1  0.837000  0.415000  0.851000  1.0  0.1386
  H  H225  1  0.846800  0.711100  0.937700  1.0  0.1335
  H  H226  1  0.871800  0.733000  0.055300  1.0  0.0987
  H  H227  1  0.892200  0.462500  0.081600  1.0  0.1098
  H  H228  1  0.868100  0.439900  0.962700  1.0  0.127
  H  H229  1  0.750300  0.854600  0.547700  1.0  0.108
  H  H230  1  0.759200  0.036200  0.701200  1.0  0.0848
  H  H231  1  0.738500  0.152100  0.623400  1.0  0.1241
  H  H232  1  0.723900  0.121500  0.503100  1.0  0.1141
  H  H233  1  0.421400  0.507900  0.130400  1.0  0.1137
  H  H234  1  0.335000  0.423900  0.984300  1.0  0.1059
  H  H235  1  0.306200  0.418900  0.066900  1.0  0.1086
  H  H236  1  0.334700  0.463000  0.181100  1.0  0.0992
  H  H237  1  0.473200  0.425000  0.330700  1.0  0.1021
  H  H238  1  0.469500  0.221600  0.459600  1.0  0.1368
  H  H239  1  0.428900  0.342000  0.466700  1.0  0.1133
  H  H240  1  0.529500  0.377600  0.342600  1.0  0.1282
  H  H241  1  0.575700  0.304100  0.319800  1.0  0.097
  H  H242  1  0.542900  0.059300  0.369900  1.0  0.1135
  H  H243  1  0.496300  0.132000  0.390600  1.0  0.1211
  H  H244  1  0.582700  0.703100  0.213400  1.0  0.0946
  H  H245  1  0.552800  0.869300  0.050300  1.0  0.142
  H  H246  1  0.551400  0.708000  0.009800  1.0  0.0945
  H  H247  1  0.623700  0.850200  0.251600  1.0  0.1286
  H  H248  1  0.635100  0.973900  0.329000  1.0  0.1025
  H  H249  1  0.539800  0.072500  0.237800  1.0  0.097
  H  H250  1  0.528900  0.951200  0.157900  1.0  0.1289
  H  H251  1  0.728000  0.241100  0.235500  1.0  0.1072
  H  H252  1  0.707800  0.471700  0.126400  1.0  0.1022
  H  H253  1  0.657200  0.436000  0.162800  1.0  0.1286
  H  H254  1  0.701300  0.235100  0.330300  1.0  0.1288
  H  H255  1  0.666400  0.155900  0.382200  1.0  0.1058
  H  H256  1  0.583400  0.218700  0.220600  1.0  0.0993
  H  H257  1  0.618400  0.294300  0.167200  1.0  0.1205
  H  H258  1  0.675300  0.187400  0.672200  1.0  0.117
  H  H259  1  0.695200  0.949100  0.770500  1.0  0.1065
  H  H260  1  0.663000  0.915000  0.649000  1.0  0.1385
  H  H261  1  0.653200  0.211100  0.562300  1.0  0.1333
  H  H262  1  0.628200  0.233000  0.444700  1.0  0.0986
  H  H263  1  0.607800  0.962500  0.418400  1.0  0.11
  H  H264  1  0.631900  0.939900  0.537300  1.0  0.127
  H  H265  1  0.749700  0.354600  0.952300  1.0  0.1088
  H  H266  1  0.740800  0.536200  0.798800  1.0  0.0846
  H  H267  1  0.761500  0.652100  0.876600  1.0  0.124
  H  H268  1  0.776100  0.621500  0.996900  1.0  0.1142
  H  H269  1  0.921400  0.007900  0.130400  1.0  0.1137
  H  H270  1  0.835000  0.923900  0.984300  1.0  0.1059
  H  H271  1  0.806200  0.918900  0.066900  1.0  0.1086
  H  H272  1  0.834700  0.963000  0.181100  1.0  0.0992
  H  H273  1  0.973200  0.925000  0.330700  1.0  0.1021
  H  H274  1  0.969500  0.721600  0.459600  1.0  0.137
  H  H275  1  0.928900  0.842000  0.466700  1.0  0.1133
  H  H276  1  0.029500  0.877600  0.342600  1.0  0.1282
  H  H277  1  0.075700  0.804100  0.319800  1.0  0.097
  H  H278  1  0.042900  0.559300  0.369900  1.0  0.1135
  H  H279  1  0.996300  0.632000  0.390600  1.0  0.121
  H  H280  1  0.082700  0.203100  0.213400  1.0  0.0946
  H  H281  1  0.052800  0.369300  0.050300  1.0  0.142
  H  H282  1  0.051400  0.208000  0.009800  1.0  0.0945
  H  H283  1  0.123700  0.350200  0.251600  1.0  0.1286
  H  H284  1  0.135100  0.473900  0.329000  1.0  0.1025
  H  H285  1  0.039800  0.572500  0.237800  1.0  0.097
  H  H286  1  0.028900  0.451200  0.157900  1.0  0.1289
  H  H287  1  0.228000  0.741100  0.235500  1.0  0.1072
  H  H288  1  0.207800  0.971700  0.126400  1.0  0.1022
  H  H289  1  0.157200  0.936000  0.162800  1.0  0.1286
  H  H290  1  0.201300  0.735100  0.330300  1.0  0.1288
  H  H291  1  0.166400  0.655900  0.382200  1.0  0.1058
  H  H292  1  0.083400  0.718700  0.220600  1.0  0.0992
  H  H293  1  0.118400  0.794300  0.167200  1.0  0.1205
  H  H294  1  0.175300  0.687400  0.672200  1.0  0.117
  H  H295  1  0.195200  0.449100  0.770500  1.0  0.1065
  H  H296  1  0.163000  0.415000  0.649000  1.0  0.1385
  H  H297  1  0.153200  0.711100  0.562300  1.0  0.1333
  H  H298  1  0.128200  0.733000  0.444700  1.0  0.0986
  H  H299  1  0.107800  0.462500  0.418400  1.0  0.11
  H  H300  1  0.131900  0.439900  0.537300  1.0  0.127
  H  H301  1  0.249700  0.854600  0.952300  1.0  0.1088
  H  H302  1  0.240800  0.036200  0.798800  1.0  0.0846
  H  H303  1  0.261500  0.152100  0.876600  1.0  0.124
  H  H304  1  0.276100  0.121500  0.996900  1.0  0.1142
  C  C305  1  0.399910  0.483700  0.741320  1.0  0.6616
  C  C306  1  0.380720  0.510200  0.667130  1.0  -0.1462
  C  C307  1  0.398150  0.509300  0.617560  1.0  -0.0237
  C  C308  1  0.380970  0.534040  0.549060  1.0  -0.1566
  C  C309  1  0.400260  0.532600  0.496440  1.0  0.6808
  C  C310  1  0.346610  0.560000  0.530370  1.0  -0.018
  C  C311  1  0.329280  0.562300  0.579550  1.0  -0.1126
  C  C312  1  0.346420  0.536500  0.648080  1.0  -0.0033
  C  C313  1  0.467480  0.609800  0.864480  1.0  0.1532
  C  C314  1  0.465500  0.722600  0.935090  1.0  -0.1559
  C  C315  1  0.443290  0.656000  0.938700  1.0  0.0235
  C  C316  1  0.508940  0.737900  0.869770  1.0  0.1515
  C  C317  1  0.532260  0.686500  0.848150  1.0  -0.1329
  C  C318  1  0.560000  0.730800  0.834580  1.0  -0.1397
  C  C319  1  0.564510  0.826000  0.842690  1.0  0.0031
  C  C320  1  0.540260  0.876600  0.864190  1.0  -0.1187
  C  C321  1  0.512470  0.833300  0.877080  1.0  -0.1787
  C  C322  1  0.597360  0.877760  0.839890  1.0  -0.005
  C  C323  1  0.574770  0.276100  0.667470  1.0  0.1427
  C  C324  1  0.558350  0.183700  0.577930  1.0  -0.0913
  C  C325  1  0.557820  0.273100  0.556160  1.0  0.0448
  C  C326  1  0.575110  0.111100  0.697660  1.0  0.1426
  C  C327  1  0.606820  0.104800  0.748540  1.0  -0.1632
  C  C328  1  0.613460  0.031000  0.795270  1.0  -0.1463
  C  C329  1  0.588210  0.964060  0.792380  1.0  0.0191
  C  C330  1  0.556910  0.971900  0.740800  1.0  -0.0975
  C  C331  1  0.550150  0.045000  0.692780  1.0  -0.1532
  C  C332  1  0.716830  0.706000  0.712620  1.0  0.1436
  C  C333  1  0.705490  0.579500  0.652930  1.0  0.0515
  C  C334  1  0.677550  0.598600  0.672790  1.0  -0.1527
  C  C335  1  0.663070  0.727180  0.743950  1.0  0.1276
  C  C336  1  0.677570  0.768500  0.808160  1.0  -0.1668
  C  C337  1  0.656500  0.815200  0.839340  1.0  -0.1055
  C  C338  1  0.620890  0.819800  0.808130  1.0  0.006
  C  C339  1  0.607180  0.778200  0.742950  1.0  -0.1352
  C  C340  1  0.628000  0.732600  0.710860  1.0  -0.1526
  C  C341  1  0.676190  0.876000  0.181820  1.0  0.1383
  C  C342  1  0.687040  0.007000  0.235350  1.0  0.0411
  C  C343  1  0.669310  0.026400  0.168320  1.0  -0.1382
  C  C344  1  0.645690  0.928000  0.060840  1.0  0.1
  C  C345  1  0.644190  0.839300  0.033420  1.0  -0.1814
  C  C346  1  0.629220  0.826800  0.962870  1.0  -0.0949
  C  C347  1  0.615650  0.899900  0.917630  1.0  0.0191
  C  C348  1  0.616950  0.986900  0.947000  1.0  -0.1227
  C  C349  1  0.631670  0.000900  0.018490  1.0  -0.139
  C  C350  1  0.773720  0.539400  0.562590  1.0  0.6768
  C  C351  1  0.765240  0.515400  0.486970  1.0  -0.1495
  C  C352  1  0.751820  0.585100  0.437430  1.0  -0.0107
  C  C353  1  0.741660  0.565800  0.366630  1.0  -0.1852
  C  C354  1  0.726750  0.640800  0.314900  1.0  0.6937
  C  C355  1  0.746420  0.476700  0.346240  1.0  -0.0714
  C  C356  1  0.758940  0.407400  0.392300  1.0  -0.1375
  C  C357  1  0.768160  0.426100  0.464700  1.0  -0.0883
  C  C358  1  0.899910  0.983700  0.741320  1.0  0.6616
  C  C359  1  0.880720  0.010200  0.667130  1.0  -0.1462
  C  C360  1  0.898150  0.009300  0.617560  1.0  -0.0237
  C  C361  1  0.880970  0.034040  0.549060  1.0  -0.1566
  C  C362  1  0.900260  0.032600  0.496440  1.0  0.6808
  C  C363  1  0.846610  0.060000  0.530370  1.0  -0.018
  C  C364  1  0.829280  0.062300  0.579550  1.0  -0.1126
  C  C365  1  0.846420  0.036500  0.648080  1.0  -0.0033
  C  C366  1  0.967480  0.109800  0.864480  1.0  0.1532
  C  C367  1  0.965500  0.222600  0.935090  1.0  -0.1559
  C  C368  1  0.943290  0.156000  0.938700  1.0  0.0235
  C  C369  1  0.008940  0.237900  0.869770  1.0  0.1513
  C  C370  1  0.032260  0.186500  0.848150  1.0  -0.1329
  C  C371  1  0.060000  0.230800  0.834580  1.0  -0.1397
  C  C372  1  0.064510  0.326000  0.842690  1.0  0.0028
  C  C373  1  0.040260  0.376600  0.864190  1.0  -0.1188
  C  C374  1  0.012470  0.333333  0.877080  1.0  -0.1781
  C  C375  1  0.097360  0.377760  0.839890  1.0  -0.005
  C  C376  1  0.074770  0.776100  0.667470  1.0  0.1427
  C  C377  1  0.058350  0.683700  0.577930  1.0  -0.0913
  C  C378  1  0.057820  0.773100  0.556160  1.0  0.0448
  C  C379  1  0.075110  0.611100  0.697660  1.0  0.1426
  C  C380  1  0.106820  0.604800  0.748540  1.0  -0.1632
  C  C381  1  0.113460  0.531000  0.795270  1.0  -0.1463
  C  C382  1  0.088210  0.464060  0.792380  1.0  0.0191
  C  C383  1  0.056910  0.471900  0.740800  1.0  -0.0975
  C  C384  1  0.050150  0.545000  0.692780  1.0  -0.1532
  C  C385  1  0.216830  0.206000  0.712620  1.0  0.1436
  C  C386  1  0.205490  0.079500  0.652930  1.0  0.0515
  C  C387  1  0.177550  0.098600  0.672790  1.0  -0.1527
  C  C388  1  0.163070  0.227180  0.743950  1.0  0.1276
  C  C389  1  0.177570  0.268500  0.808160  1.0  -0.1668
  C  C390  1  0.156500  0.315200  0.839340  1.0  -0.1055
  C  C391  1  0.120890  0.319800  0.808130  1.0  0.006
  C  C392  1  0.107180  0.278200  0.742950  1.0  -0.1352
  C  C393  1  0.128000  0.232600  0.710860  1.0  -0.1526
  C  C394  1  0.176190  0.376000  0.181820  1.0  0.1383
  C  C395  1  0.187040  0.507000  0.235350  1.0  0.0411
  C  C396  1  0.169310  0.526400  0.168320  1.0  -0.1382
  C  C397  1  0.145690  0.428000  0.060840  1.0  0.1
  C  C398  1  0.144190  0.339300  0.033420  1.0  -0.1814
  C  C399  1  0.129220  0.326800  0.962870  1.0  -0.0949
  C  C400  1  0.115650  0.399900  0.917630  1.0  0.0191
  C  C401  1  0.116950  0.486900  0.947000  1.0  -0.1227
  C  C402  1  0.131670  0.500900  0.018490  1.0  -0.139
  C  C403  1  0.273720  0.039400  0.562590  1.0  0.6768
  C  C404  1  0.265240  0.015400  0.486970  1.0  -0.1495
  C  C405  1  0.251820  0.085100  0.437430  1.0  -0.0107
  C  C406  1  0.241660  0.065800  0.366630  1.0  -0.1852
  C  C407  1  0.226750  0.140800  0.314900  1.0  0.6937
  C  C408  1  0.246420  0.976700  0.346240  1.0  -0.0714
  C  C409  1  0.258940  0.907400  0.392300  1.0  -0.1375
  C  C410  1  0.268160  0.926100  0.464700  1.0  -0.0883
  C  C411  1  0.600090  0.483700  0.758680  1.0  0.6601
  C  C412  1  0.619280  0.510200  0.832870  1.0  -0.1464
  C  C413  1  0.601850  0.509300  0.882440  1.0  -0.0238
  C  C414  1  0.619030  0.534040  0.950940  1.0  -0.1581
  C  C415  1  0.599740  0.532600  0.003560  1.0  0.6806
  C  C416  1  0.653390  0.560000  0.969630  1.0  -0.0187
  C  C417  1  0.670720  0.562300  0.920450  1.0  -0.1094
  C  C418  1  0.653580  0.536500  0.851920  1.0  -0.0051
  C  C419  1  0.532520  0.609800  0.635520  1.0  0.1537
  C  C420  1  0.534500  0.722600  0.564910  1.0  -0.1549
  C  C421  1  0.556710  0.656000  0.561300  1.0  0.0237
  C  C422  1  0.491060  0.737900  0.630230  1.0  0.1506
  C  C423  1  0.467740  0.686500  0.651850  1.0  -0.1328
  C  C424  1  0.440000  0.730800  0.665420  1.0  -0.1376
  C  C425  1  0.435490  0.826000  0.657310  1.0  0.0034
  C  C426  1  0.459740  0.876600  0.635810  1.0  -0.1173
  C  C427  1  0.487530  0.833300  0.622920  1.0  -0.1791
  C  C428  1  0.402640  0.877760  0.660110  1.0  -0.0047
  C  C429  1  0.425230  0.276100  0.832530  1.0  0.1434
  C  C430  1  0.441650  0.183700  0.922070  1.0  -0.0905
  C  C431  1  0.442180  0.273100  0.943840  1.0  0.0441
  C  C432  1  0.424890  0.111100  0.802340  1.0  0.1437
  C  C433  1  0.393180  0.104800  0.751460  1.0  -0.1631
  C  C434  1  0.386540  0.031000  0.704730  1.0  -0.144
  C  C435  1  0.411790  0.964060  0.707620  1.0  0.0197
  C  C436  1  0.443090  0.971900  0.759200  1.0  -0.0973
  C  C437  1  0.449850  0.045000  0.807220  1.0  -0.1513
  C  C438  1  0.283170  0.706000  0.787380  1.0  0.144
  C  C439  1  0.294510  0.579500  0.847070  1.0  0.0502
  C  C440  1  0.322450  0.598600  0.827210  1.0  -0.1496
  C  C441  1  0.336930  0.727180  0.756050  1.0  0.1289
  C  C442  1  0.322430  0.768500  0.691840  1.0  -0.1654
  C  C443  1  0.343500  0.815200  0.660660  1.0  -0.1058
  C  C444  1  0.379110  0.819800  0.691870  1.0  0.0052
  C  C445  1  0.392820  0.778200  0.757050  1.0  -0.1367
  C  C446  1  0.372000  0.732600  0.789140  1.0  -0.1521
  C  C447  1  0.323810  0.876000  0.318180  1.0  0.1381
  C  C448  1  0.312960  0.007000  0.264650  1.0  0.0405
  C  C449  1  0.330690  0.026400  0.331680  1.0  -0.1344
  C  C450  1  0.354310  0.928000  0.439160  1.0  0.1001
  C  C451  1  0.355810  0.839300  0.466580  1.0  -0.1823
  C  C452  1  0.370780  0.826800  0.537130  1.0  -0.0945
  C  C453  1  0.384350  0.899900  0.582370  1.0  0.0189
  C  C454  1  0.383050  0.986900  0.553000  1.0  -0.1217
  C  C455  1  0.368330  0.000900  0.481510  1.0  -0.1398
  C  C456  1  0.226280  0.539400  0.937410  1.0  0.6792
  C  C457  1  0.234760  0.515400  0.013030  1.0  -0.1488
  C  C458  1  0.248180  0.585100  0.062570  1.0  -0.0113
  C  C459  1  0.258340  0.565800  0.133370  1.0  -0.1855
  C  C460  1  0.273250  0.640800  0.185100  1.0  0.6943
  C  C461  1  0.253580  0.476700  0.153760  1.0  -0.0702
  C  C462  1  0.241060  0.407400  0.107700  1.0  -0.1369
  C  C463  1  0.231840  0.426100  0.035300  1.0  -0.0884
  C  C464  1  0.100090  0.983700  0.758680  1.0  0.6601
  C  C465  1  0.119280  0.010200  0.832870  1.0  -0.1464
  C  C466  1  0.101850  0.009300  0.882440  1.0  -0.0238
  C  C467  1  0.119030  0.034040  0.950940  1.0  -0.1581
  C  C468  1  0.099740  0.032600  0.003560  1.0  0.6806
  C  C469  1  0.153390  0.060000  0.969630  1.0  -0.0187
  C  C470  1  0.170720  0.062300  0.920450  1.0  -0.1094
  C  C471  1  0.153580  0.036500  0.851920  1.0  -0.0051
  C  C472  1  0.032520  0.109800  0.635520  1.0  0.1537
  C  C473  1  0.034500  0.222600  0.564910  1.0  -0.1549
  C  C474  1  0.056710  0.156000  0.561300  1.0  0.0237
  C  C475  1  0.991060  0.237900  0.630230  1.0  0.1503
  C  C476  1  0.967740  0.186500  0.651850  1.0  -0.1329
  C  C477  1  0.940000  0.230800  0.665420  1.0  -0.1376
  C  C478  1  0.935490  0.326000  0.657310  1.0  0.0032
  C  C479  1  0.959740  0.376600  0.635810  1.0  -0.1173
  C  C480  1  0.987530  0.333333  0.622920  1.0  -0.1787
  C  C481  1  0.902640  0.377760  0.660110  1.0  -0.0047
  C  C482  1  0.925230  0.776100  0.832530  1.0  0.1434
  C  C483  1  0.941650  0.683700  0.922070  1.0  -0.0905
  C  C484  1  0.942180  0.773100  0.943840  1.0  0.0441
  C  C485  1  0.924890  0.611100  0.802340  1.0  0.1437
  C  C486  1  0.893180  0.604800  0.751460  1.0  -0.1631
  C  C487  1  0.886540  0.531000  0.704730  1.0  -0.144
  C  C488  1  0.911790  0.464060  0.707620  1.0  0.0197
  C  C489  1  0.943090  0.471900  0.759200  1.0  -0.0973
  C  C490  1  0.949850  0.545000  0.807220  1.0  -0.1513
  C  C491  1  0.783170  0.206000  0.787380  1.0  0.144
  C  C492  1  0.794510  0.079500  0.847070  1.0  0.0502
  C  C493  1  0.822450  0.098600  0.827210  1.0  -0.1496
  C  C494  1  0.836930  0.227180  0.756050  1.0  0.1289
  C  C495  1  0.822430  0.268500  0.691840  1.0  -0.1654
  C  C496  1  0.843500  0.315200  0.660660  1.0  -0.1058
  C  C497  1  0.879110  0.319800  0.691870  1.0  0.0052
  C  C498  1  0.892820  0.278200  0.757050  1.0  -0.1367
  C  C499  1  0.872000  0.232600  0.789140  1.0  -0.1521
  C  C500  1  0.823810  0.376000  0.318180  1.0  0.1381
  C  C501  1  0.812960  0.507000  0.264650  1.0  0.0405
  C  C502  1  0.830690  0.526400  0.331680  1.0  -0.1344
  C  C503  1  0.854310  0.428000  0.439160  1.0  0.1001
  C  C504  1  0.855810  0.339300  0.466580  1.0  -0.1823
  C  C505  1  0.870780  0.326800  0.537130  1.0  -0.0945
  C  C506  1  0.884350  0.399900  0.582370  1.0  0.0189
  C  C507  1  0.883050  0.486900  0.553000  1.0  -0.1217
  C  C508  1  0.868330  0.500900  0.481510  1.0  -0.1398
  C  C509  1  0.726280  0.039400  0.937410  1.0  0.6792
  C  C510  1  0.734760  0.015400  0.013030  1.0  -0.1488
  C  C511  1  0.748180  0.085100  0.062570  1.0  -0.0113
  C  C512  1  0.758340  0.065800  0.133370  1.0  -0.1855
  C  C513  1  0.773250  0.140800  0.185100  1.0  0.6943
  C  C514  1  0.753580  0.976700  0.153760  1.0  -0.0702
  C  C515  1  0.741060  0.907400  0.107700  1.0  -0.1369
  C  C516  1  0.731840  0.926100  0.035300  1.0  -0.0884
  C  C517  1  0.600090  0.516300  0.258680  1.0  0.6604
  C  C518  1  0.619280  0.489800  0.332870  1.0  -0.1468
  C  C519  1  0.601850  0.490700  0.382440  1.0  -0.0236
  C  C520  1  0.619030  0.465960  0.450940  1.0  -0.1574
  C  C521  1  0.599740  0.467400  0.503560  1.0  0.6804
  C  C522  1  0.653390  0.440000  0.469630  1.0  -0.0185
  C  C523  1  0.670720  0.437700  0.420450  1.0  -0.1087
  C  C524  1  0.653580  0.463500  0.351920  1.0  -0.0046
  C  C525  1  0.532520  0.390200  0.135520  1.0  0.1529
  C  C526  1  0.534500  0.277400  0.064910  1.0  -0.1554
  C  C527  1  0.556710  0.344000  0.061300  1.0  0.025
  C  C528  1  0.491060  0.262100  0.130230  1.0  0.1503
  C  C529  1  0.467740  0.313500  0.151850  1.0  -0.1351
  C  C530  1  0.440000  0.269200  0.165420  1.0  -0.1377
  C  C531  1  0.435490  0.174000  0.157310  1.0  0.0037
  C  C532  1  0.459740  0.123400  0.135810  1.0  -0.1161
  C  C533  1  0.487530  0.166700  0.122920  1.0  -0.1777
  C  C534  1  0.402640  0.122240  0.160110  1.0  -0.005
  C  C535  1  0.425230  0.723900  0.332530  1.0  0.1432
  C  C536  1  0.441650  0.816300  0.422070  1.0  -0.0921
  C  C537  1  0.442180  0.726900  0.443840  1.0  0.0449
  C  C538  1  0.424890  0.888900  0.302340  1.0  0.144
  C  C539  1  0.393180  0.895200  0.251460  1.0  -0.1632
  C  C540  1  0.386540  0.969000  0.204730  1.0  -0.1437
  C  C541  1  0.411790  0.035940  0.207620  1.0  0.0194
  C  C542  1  0.443090  0.028100  0.259200  1.0  -0.0968
  C  C543  1  0.449850  0.955000  0.307220  1.0  -0.1509
  C  C544  1  0.283170  0.294000  0.287380  1.0  0.1447
  C  C545  1  0.294510  0.420500  0.347070  1.0  0.0507
  C  C546  1  0.322450  0.401400  0.327210  1.0  -0.1504
  C  C547  1  0.336930  0.272820  0.256050  1.0  0.1289
  C  C548  1  0.322430  0.231500  0.191840  1.0  -0.1649
  C  C549  1  0.343500  0.184800  0.160660  1.0  -0.106
  C  C550  1  0.379110  0.180200  0.191870  1.0  0.0052
  C  C551  1  0.392820  0.221800  0.257050  1.0  -0.1369
  C  C552  1  0.372000  0.267400  0.289140  1.0  -0.1524
  C  C553  1  0.323810  0.124000  0.818180  1.0  0.1383
  C  C554  1  0.312960  0.993000  0.764650  1.0  0.0402
  C  C555  1  0.330690  0.973600  0.831680  1.0  -0.1349
  C  C556  1  0.354310  0.072000  0.939160  1.0  0.1003
  C  C557  1  0.355810  0.160700  0.966580  1.0  -0.1816
  C  C558  1  0.370780  0.173200  0.037130  1.0  -0.0957
  C  C559  1  0.384350  0.100100  0.082370  1.0  0.0187
  C  C560  1  0.383050  0.013100  0.053000  1.0  -0.1249
  C  C561  1  0.368330  0.999100  0.981510  1.0  -0.1399
  C  C562  1  0.226280  0.460600  0.437410  1.0  0.679
  C  C563  1  0.234760  0.484600  0.513030  1.0  -0.1501
  C  C564  1  0.248180  0.414900  0.562570  1.0  -0.0119
  C  C565  1  0.258340  0.434200  0.633370  1.0  -0.1857
  C  C566  1  0.273250  0.359200  0.685100  1.0  0.6953
  C  C567  1  0.253580  0.523300  0.653760  1.0  -0.0704
  C  C568  1  0.241060  0.592600  0.607700  1.0  -0.1374
  C  C569  1  0.231840  0.573900  0.535300  1.0  -0.0895
  C  C570  1  0.100090  0.016300  0.258680  1.0  0.6604
  C  C571  1  0.119280  0.989800  0.332870  1.0  -0.1468
  C  C572  1  0.101850  0.990700  0.382440  1.0  -0.0236
  C  C573  1  0.119030  0.965960  0.450940  1.0  -0.1574
  C  C574  1  0.099740  0.967400  0.503560  1.0  0.6804
  C  C575  1  0.153390  0.940000  0.469630  1.0  -0.0185
  C  C576  1  0.170720  0.937700  0.420450  1.0  -0.1087
  C  C577  1  0.153580  0.963500  0.351920  1.0  -0.0046
  C  C578  1  0.032520  0.890200  0.135520  1.0  0.1529
  C  C579  1  0.034500  0.777400  0.064910  1.0  -0.1554
  C  C580  1  0.056710  0.844000  0.061300  1.0  0.025
  C  C581  1  0.991060  0.762100  0.130230  1.0  0.1501
  C  C582  1  0.967740  0.813500  0.151850  1.0  -0.1351
  C  C583  1  0.940000  0.769200  0.165420  1.0  -0.1377
  C  C584  1  0.935490  0.674000  0.157310  1.0  0.0034
  C  C585  1  0.959740  0.623400  0.135810  1.0  -0.1163
  C  C586  1  0.987530  0.666667  0.122920  1.0  -0.1773
  C  C587  1  0.902640  0.622240  0.160110  1.0  -0.005
  C  C588  1  0.925230  0.223900  0.332530  1.0  0.1432
  C  C589  1  0.941650  0.316300  0.422070  1.0  -0.0921
  C  C590  1  0.942180  0.226900  0.443840  1.0  0.0449
  C  C591  1  0.924890  0.388900  0.302340  1.0  0.144
  C  C592  1  0.893180  0.395200  0.251460  1.0  -0.1632
  C  C593  1  0.886540  0.469000  0.204730  1.0  -0.1437
  C  C594  1  0.911790  0.535940  0.207620  1.0  0.0194
  C  C595  1  0.943090  0.528100  0.259200  1.0  -0.0968
  C  C596  1  0.949850  0.455000  0.307220  1.0  -0.1509
  C  C597  1  0.783170  0.794000  0.287380  1.0  0.1447
  C  C598  1  0.794510  0.920500  0.347070  1.0  0.0507
  C  C599  1  0.822450  0.901400  0.327210  1.0  -0.1504
  C  C600  1  0.836930  0.772820  0.256050  1.0  0.1289
  C  C601  1  0.822430  0.731500  0.191840  1.0  -0.1649
  C  C602  1  0.843500  0.684800  0.160660  1.0  -0.106
  C  C603  1  0.879110  0.680200  0.191870  1.0  0.0052
  C  C604  1  0.892820  0.721800  0.257050  1.0  -0.1369
  C  C605  1  0.872000  0.767400  0.289140  1.0  -0.1524
  C  C606  1  0.823810  0.624000  0.818180  1.0  0.1383
  C  C607  1  0.812960  0.493000  0.764650  1.0  0.0402
  C  C608  1  0.830690  0.473600  0.831680  1.0  -0.1349
  C  C609  1  0.854310  0.572000  0.939160  1.0  0.1003
  C  C610  1  0.855810  0.660700  0.966580  1.0  -0.1816
  C  C611  1  0.870780  0.673200  0.037130  1.0  -0.0957
  C  C612  1  0.884350  0.600100  0.082370  1.0  0.0187
  C  C613  1  0.883050  0.513100  0.053000  1.0  -0.1249
  C  C614  1  0.868330  0.499100  0.981510  1.0  -0.1399
  C  C615  1  0.726280  0.960600  0.437410  1.0  0.679
  C  C616  1  0.734760  0.984600  0.513030  1.0  -0.1501
  C  C617  1  0.748180  0.914900  0.562570  1.0  -0.0119
  C  C618  1  0.758340  0.934200  0.633370  1.0  -0.1857
  C  C619  1  0.773250  0.859200  0.685100  1.0  0.6953
  C  C620  1  0.753580  0.023300  0.653760  1.0  -0.0704
  C  C621  1  0.741060  0.092600  0.607700  1.0  -0.1374
  C  C622  1  0.731840  0.073900  0.535300  1.0  -0.0895
  C  C623  1  0.399910  0.516300  0.241320  1.0  0.6611
  C  C624  1  0.380720  0.489800  0.167130  1.0  -0.1461
  C  C625  1  0.398150  0.490700  0.117560  1.0  -0.0232
  C  C626  1  0.380970  0.465960  0.049060  1.0  -0.1562
  C  C627  1  0.400260  0.467400  0.996440  1.0  0.6807
  C  C628  1  0.346610  0.440000  0.030370  1.0  -0.018
  C  C629  1  0.329280  0.437700  0.079550  1.0  -0.1121
  C  C630  1  0.346420  0.463500  0.148080  1.0  -0.0032
  C  C631  1  0.467480  0.390200  0.364480  1.0  0.1533
  C  C632  1  0.465500  0.277400  0.435090  1.0  -0.1545
  C  C633  1  0.443290  0.344000  0.438700  1.0  0.024
  C  C634  1  0.508940  0.262100  0.369770  1.0  0.1518
  C  C635  1  0.532260  0.313500  0.348150  1.0  -0.1345
  C  C636  1  0.560000  0.269200  0.334580  1.0  -0.1398
  C  C637  1  0.564510  0.174000  0.342690  1.0  0.0032
  C  C638  1  0.540260  0.123400  0.364190  1.0  -0.1161
  C  C639  1  0.512470  0.166700  0.377080  1.0  -0.1771
  C  C640  1  0.597360  0.122240  0.339890  1.0  -0.0051
  C  C641  1  0.574770  0.723900  0.167470  1.0  0.143
  C  C642  1  0.558350  0.816300  0.077930  1.0  -0.0917
  C  C643  1  0.557820  0.726900  0.056160  1.0  0.0448
  C  C644  1  0.575110  0.888900  0.197660  1.0  0.1431
  C  C645  1  0.606820  0.895200  0.248540  1.0  -0.1629
  C  C646  1  0.613460  0.969000  0.295270  1.0  -0.1457
  C  C647  1  0.588210  0.035940  0.292380  1.0  0.0185
  C  C648  1  0.556910  0.028100  0.240800  1.0  -0.0971
  C  C649  1  0.550150  0.955000  0.192780  1.0  -0.1523
  C  C650  1  0.716830  0.294000  0.212620  1.0  0.1441
  C  C651  1  0.705490  0.420500  0.152930  1.0  0.0518
  C  C652  1  0.677550  0.401400  0.172790  1.0  -0.1527
  C  C653  1  0.663070  0.272820  0.243950  1.0  0.1277
  C  C654  1  0.677570  0.231500  0.308160  1.0  -0.1662
  C  C655  1  0.656500  0.184800  0.339340  1.0  -0.1052
  C  C656  1  0.620890  0.180200  0.308130  1.0  0.0062
  C  C657  1  0.607180  0.221800  0.242950  1.0  -0.1353
  C  C658  1  0.628000  0.267400  0.210860  1.0  -0.1526
  C  C659  1  0.676190  0.124000  0.681820  1.0  0.1387
  C  C660  1  0.687040  0.993000  0.735350  1.0  0.0411
  C  C661  1  0.669310  0.973600  0.668320  1.0  -0.1375
  C  C662  1  0.645690  0.072000  0.560840  1.0  0.1004
  C  C663  1  0.644190  0.160700  0.533420  1.0  -0.1808
  C  C664  1  0.629220  0.173200  0.462870  1.0  -0.0967
  C  C665  1  0.615650  0.100100  0.417630  1.0  0.0195
  C  C666  1  0.616950  0.013100  0.447000  1.0  -0.1236
  C  C667  1  0.631670  0.999100  0.518490  1.0  -0.1393
  C  C668  1  0.773720  0.460600  0.062590  1.0  0.6771
  C  C669  1  0.765240  0.484600  0.986970  1.0  -0.1494
  C  C670  1  0.751820  0.414900  0.937430  1.0  -0.0112
  C  C671  1  0.741660  0.434200  0.866630  1.0  -0.186
  C  C672  1  0.726750  0.359200  0.814900  1.0  0.6936
  C  C673  1  0.746420  0.523300  0.846240  1.0  -0.0713
  C  C674  1  0.758940  0.592600  0.892300  1.0  -0.137
  C  C675  1  0.768160  0.573900  0.964700  1.0  -0.0901
  C  C676  1  0.899910  0.016300  0.241320  1.0  0.6611
  C  C677  1  0.880720  0.989800  0.167130  1.0  -0.1461
  C  C678  1  0.898150  0.990700  0.117560  1.0  -0.0232
  C  C679  1  0.880970  0.965960  0.049060  1.0  -0.1562
  C  C680  1  0.900260  0.967400  0.996440  1.0  0.6807
  C  C681  1  0.846610  0.940000  0.030370  1.0  -0.018
  C  C682  1  0.829280  0.937700  0.079550  1.0  -0.1121
  C  C683  1  0.846420  0.963500  0.148080  1.0  -0.0032
  C  C684  1  0.967480  0.890200  0.364480  1.0  0.1533
  C  C685  1  0.965500  0.777400  0.435090  1.0  -0.1545
  C  C686  1  0.943290  0.844000  0.438700  1.0  0.024
  C  C687  1  0.008940  0.762100  0.369770  1.0  0.1516
  C  C688  1  0.032260  0.813500  0.348150  1.0  -0.1345
  C  C689  1  0.060000  0.769200  0.334580  1.0  -0.1398
  C  C690  1  0.064510  0.674000  0.342690  1.0  0.0029
  C  C691  1  0.040260  0.623400  0.364190  1.0  -0.1161
  C  C692  1  0.012470  0.666667  0.377080  1.0  -0.1765
  C  C693  1  0.097360  0.622240  0.339890  1.0  -0.0051
  C  C694  1  0.074770  0.223900  0.167470  1.0  0.143
  C  C695  1  0.058350  0.316300  0.077930  1.0  -0.0917
  C  C696  1  0.057820  0.226900  0.056160  1.0  0.0448
  C  C697  1  0.075110  0.388900  0.197660  1.0  0.1431
  C  C698  1  0.106820  0.395200  0.248540  1.0  -0.1629
  C  C699  1  0.113460  0.469000  0.295270  1.0  -0.1457
  C  C700  1  0.088210  0.535940  0.292380  1.0  0.0185
  C  C701  1  0.056910  0.528100  0.240800  1.0  -0.0971
  C  C702  1  0.050150  0.455000  0.192780  1.0  -0.1523
  C  C703  1  0.216830  0.794000  0.212620  1.0  0.1441
  C  C704  1  0.205490  0.920500  0.152930  1.0  0.0518
  C  C705  1  0.177550  0.901400  0.172790  1.0  -0.1527
  C  C706  1  0.163070  0.772820  0.243950  1.0  0.1277
  C  C707  1  0.177570  0.731500  0.308160  1.0  -0.1662
  C  C708  1  0.156500  0.684800  0.339340  1.0  -0.1052
  C  C709  1  0.120890  0.680200  0.308130  1.0  0.0062
  C  C710  1  0.107180  0.721800  0.242950  1.0  -0.1353
  C  C711  1  0.128000  0.767400  0.210860  1.0  -0.1526
  C  C712  1  0.176190  0.624000  0.681820  1.0  0.1387
  C  C713  1  0.187040  0.493000  0.735350  1.0  0.0411
  C  C714  1  0.169310  0.473600  0.668320  1.0  -0.1375
  C  C715  1  0.145690  0.572000  0.560840  1.0  0.1004
  C  C716  1  0.144190  0.660700  0.533420  1.0  -0.1808
  C  C717  1  0.129220  0.673200  0.462870  1.0  -0.0967
  C  C718  1  0.115650  0.600100  0.417630  1.0  0.0195
  C  C719  1  0.116950  0.513100  0.447000  1.0  -0.1236
  C  C720  1  0.131670  0.499100  0.518490  1.0  -0.1393
  C  C721  1  0.273720  0.960600  0.062590  1.0  0.6771
  C  C722  1  0.265240  0.984600  0.986970  1.0  -0.1494
  C  C723  1  0.251820  0.914900  0.937430  1.0  -0.0112
  C  C724  1  0.241660  0.934200  0.866630  1.0  -0.186
  C  C725  1  0.226750  0.859200  0.814900  1.0  0.6936
  C  C726  1  0.246420  0.023300  0.846240  1.0  -0.0713
  C  C727  1  0.258940  0.092600  0.892300  1.0  -0.137
  C  C728  1  0.268160  0.073900  0.964700  1.0  -0.0901
  N  N729  1  0.444750  0.583680  0.894910  1.0  -0.3827
  N  N730  1  0.481440  0.692100  0.887710  1.0  0.0596
  N  N731  1  0.568260  0.331330  0.612680  1.0  -0.3855
  N  N732  1  0.568750  0.188070  0.649610  1.0  0.046
  N  N733  1  0.730440  0.647570  0.677880  1.0  -0.4017
  N  N734  1  0.685000  0.679740  0.710860  1.0  0.0533
  N  N735  1  0.691210  0.912600  0.243840  1.0  -0.3633
  N  N736  1  0.662410  0.942240  0.134290  1.0  0.0407
  N  N737  1  0.944750  0.083680  0.894910  1.0  -0.3827
  N  N738  1  0.981440  0.192100  0.887710  1.0  0.0596
  N  N739  1  0.068260  0.831330  0.612680  1.0  -0.3855
  N  N740  1  0.068750  0.688070  0.649610  1.0  0.046
  N  N741  1  0.230440  0.147570  0.677880  1.0  -0.4017
  N  N742  1  0.185000  0.179740  0.710860  1.0  0.0533
  N  N743  1  0.191210  0.412600  0.243840  1.0  -0.3633
  N  N744  1  0.162410  0.442240  0.134290  1.0  0.0407
  N  N745  1  0.555250  0.583680  0.605090  1.0  -0.3835
  N  N746  1  0.518560  0.692100  0.612290  1.0  0.0581
  N  N747  1  0.431740  0.331330  0.887320  1.0  -0.3866
  N  N748  1  0.431250  0.188070  0.850390  1.0  0.0445
  N  N749  1  0.269560  0.647570  0.822120  1.0  -0.4016
  N  N750  1  0.315000  0.679740  0.789140  1.0  0.0534
  N  N751  1  0.308790  0.912600  0.256160  1.0  -0.3647
  N  N752  1  0.337590  0.942240  0.365710  1.0  0.0396
  N  N753  1  0.055250  0.083680  0.605090  1.0  -0.3835
  N  N754  1  0.018560  0.192100  0.612290  1.0  0.058
  N  N755  1  0.931740  0.831330  0.887320  1.0  -0.3866
  N  N756  1  0.931250  0.688070  0.850390  1.0  0.0445
  N  N757  1  0.769560  0.147570  0.822120  1.0  -0.4016
  N  N758  1  0.815000  0.179740  0.789140  1.0  0.0534
  N  N759  1  0.808790  0.412600  0.256160  1.0  -0.3647
  N  N760  1  0.837590  0.442240  0.365710  1.0  0.0396
  N  N761  1  0.555250  0.416320  0.105090  1.0  -0.3818
  N  N762  1  0.518560  0.307900  0.112290  1.0  0.058
  N  N763  1  0.431740  0.668670  0.387320  1.0  -0.3856
  N  N764  1  0.431250  0.811930  0.350390  1.0  0.0443
  N  N765  1  0.269560  0.352430  0.322120  1.0  -0.4021
  N  N766  1  0.315000  0.320260  0.289140  1.0  0.0533
  N  N767  1  0.308790  0.087400  0.756160  1.0  -0.3644
  N  N768  1  0.337590  0.057760  0.865710  1.0  0.0396
  N  N769  1  0.055250  0.916320  0.105090  1.0  -0.3818
  N  N770  1  0.018560  0.807900  0.112290  1.0  0.0579
  N  N771  1  0.931740  0.168670  0.387320  1.0  -0.3856
  N  N772  1  0.931250  0.311930  0.350390  1.0  0.0443
  N  N773  1  0.769560  0.852430  0.322120  1.0  -0.4021
  N  N774  1  0.815000  0.820260  0.289140  1.0  0.0533
  N  N775  1  0.808790  0.587400  0.756160  1.0  -0.3644
  N  N776  1  0.837590  0.557760  0.865710  1.0  0.0396
  N  N777  1  0.444750  0.416320  0.394910  1.0  -0.382
  N  N778  1  0.481440  0.307900  0.387710  1.0  0.06
  N  N779  1  0.568260  0.668670  0.112680  1.0  -0.3845
  N  N780  1  0.568750  0.811930  0.149610  1.0  0.0457
  N  N781  1  0.730440  0.352430  0.177880  1.0  -0.4016
  N  N782  1  0.685000  0.320260  0.210860  1.0  0.0527
  N  N783  1  0.691210  0.087400  0.743840  1.0  -0.3652
  N  N784  1  0.662410  0.057760  0.634290  1.0  0.0407
  N  N785  1  0.944750  0.916320  0.394910  1.0  -0.382
  N  N786  1  0.981440  0.807900  0.387710  1.0  0.06
  N  N787  1  0.068260  0.168670  0.112680  1.0  -0.3845
  N  N788  1  0.068750  0.311930  0.149610  1.0  0.0457
  N  N789  1  0.230440  0.852430  0.177880  1.0  -0.4016
  N  N790  1  0.185000  0.820260  0.210860  1.0  0.0527
  N  N791  1  0.191210  0.587400  0.743840  1.0  -0.3652
  N  N792  1  0.162410  0.557760  0.634290  1.0  0.0407
  O  O793  1  0.382550  0.483500  0.784490  1.0  -0.5998
  O  O794  1  0.430910  0.463540  0.758860  1.0  -0.6001
  O  O795  1  0.382130  0.532070  0.431760  1.0  -0.5892
  O  O796  1  0.432250  0.531680  0.515080  1.0  -0.5875
  O  O797  1  0.780210  0.624500  0.578400  1.0  -0.5977
  O  O798  1  0.772320  0.480600  0.605370  1.0  -0.5958
  O  O799  1  0.714360  0.711930  0.337000  1.0  -0.628
  O  O800  1  0.725850  0.630700  0.253710  1.0  -0.5801
  O  O801  1  0.882550  0.983500  0.784490  1.0  -0.5998
  O  O802  1  0.930910  0.963540  0.758860  1.0  -0.6001
  O  O803  1  0.882130  0.032070  0.431760  1.0  -0.5892
  O  O804  1  0.932250  0.031680  0.515080  1.0  -0.5875
  O  O805  1  0.280210  0.124500  0.578400  1.0  -0.5977
  O  O806  1  0.272320  0.980600  0.605370  1.0  -0.5958
  O  O807  1  0.214360  0.211930  0.337000  1.0  -0.628
  O  O808  1  0.225850  0.130700  0.253710  1.0  -0.5801
  O  O809  1  0.617450  0.483500  0.715510  1.0  -0.5997
  O  O810  1  0.569090  0.463540  0.741140  1.0  -0.5991
  O  O811  1  0.617870  0.532070  0.068240  1.0  -0.5892
  O  O812  1  0.567750  0.531680  0.984920  1.0  -0.5881
  O  O813  1  0.219790  0.624500  0.921600  1.0  -0.5993
  O  O814  1  0.227680  0.480600  0.894630  1.0  -0.5961
  O  O815  1  0.285640  0.711930  0.163000  1.0  -0.6264
  O  O816  1  0.274150  0.630700  0.246290  1.0  -0.5784
  O  O817  1  0.117450  0.983500  0.715510  1.0  -0.5997
  O  O818  1  0.069090  0.963540  0.741140  1.0  -0.5991
  O  O819  1  0.117870  0.032070  0.068240  1.0  -0.5892
  O  O820  1  0.067750  0.031680  0.984920  1.0  -0.5881
  O  O821  1  0.719790  0.124500  0.921600  1.0  -0.5993
  O  O822  1  0.727680  0.980600  0.894630  1.0  -0.5961
  O  O823  1  0.785640  0.211930  0.163000  1.0  -0.6264
  O  O824  1  0.774150  0.130700  0.246290  1.0  -0.5784
  O  O825  1  0.617450  0.516500  0.215510  1.0  -0.5991
  O  O826  1  0.569090  0.536460  0.241140  1.0  -0.5991
  O  O827  1  0.617870  0.467930  0.568240  1.0  -0.5899
  O  O828  1  0.567750  0.468320  0.484920  1.0  -0.5887
  O  O829  1  0.219790  0.375500  0.421600  1.0  -0.5981
  O  O830  1  0.227680  0.519400  0.394630  1.0  -0.5967
  O  O831  1  0.285640  0.288070  0.663000  1.0  -0.6274
  O  O832  1  0.274150  0.369300  0.746290  1.0  -0.578
  O  O833  1  0.117450  0.016500  0.215510  1.0  -0.5991
  O  O834  1  0.069090  0.036460  0.241140  1.0  -0.5991
  O  O835  1  0.117870  0.967930  0.568240  1.0  -0.5899
  O  O836  1  0.067750  0.968320  0.484920  1.0  -0.5887
  O  O837  1  0.719790  0.875500  0.421600  1.0  -0.5981
  O  O838  1  0.727680  0.019400  0.394630  1.0  -0.5967
  O  O839  1  0.785640  0.788070  0.663000  1.0  -0.6274
  O  O840  1  0.774150  0.869300  0.746290  1.0  -0.578
  O  O841  1  0.382550  0.516500  0.284490  1.0  -0.5987
  O  O842  1  0.430910  0.536460  0.258860  1.0  -0.5985
  O  O843  1  0.382130  0.467930  0.931760  1.0  -0.5896
  O  O844  1  0.432250  0.468320  0.015080  1.0  -0.5876
  O  O845  1  0.780210  0.375500  0.078400  1.0  -0.5975
  O  O846  1  0.772320  0.519400  0.105370  1.0  -0.5979
  O  O847  1  0.714360  0.288070  0.837000  1.0  -0.6285
  O  O848  1  0.725850  0.369300  0.753710  1.0  -0.5794
  O  O849  1  0.882550  0.016500  0.284490  1.0  -0.5987
  O  O850  1  0.930910  0.036460  0.258860  1.0  -0.5985
  O  O851  1  0.882130  0.967930  0.931760  1.0  -0.5896
  O  O852  1  0.932250  0.968320  0.015080  1.0  -0.5876
  O  O853  1  0.280210  0.875500  0.078400  1.0  -0.5975
  O  O854  1  0.272320  0.019400  0.105370  1.0  -0.5979
  O  O855  1  0.214360  0.788070  0.837000  1.0  -0.6285
  O  O856  1  0.225850  0.869300  0.753710  1.0  -0.5794
