# generated using pymatgen
data_ZnCoH36C53(NO)8
_symmetry_space_group_name_H-M   'P 1'
_cell_length_a   40.99900000
_cell_length_b   14.35300000
_cell_length_c   20.25700000
_cell_angle_alpha   90.00000000
_cell_angle_beta   108.79000000
_cell_angle_gamma   90.00000000
_symmetry_Int_Tables_number   1
_chemical_formula_structural   ZnCoH36C53(NO)8
_chemical_formula_sum   'Zn8 Co8 H288 C424 N64 O64'
_cell_volume   11285.11459214
_cell_formula_units_Z   8
loop_
 _symmetry_equiv_pos_site_id
 _symmetry_equiv_pos_as_xyz
  1  'x, y, z'
loop_
 _atom_site_type_symbol
 _atom_site_label
 _atom_site_symmetry_multiplicity
 _atom_site_fract_x
 _atom_site_fract_y
 _atom_site_fract_z
 _atom_site_occupancy
 _atom_site_charge
  Zn  Zn1  1  0.082030  0.534170  0.120880  1.0  0.9264
  Zn  Zn2  1  0.223350  0.154360  0.829660  1.0  0.9677
  Zn  Zn3  1  0.582030  0.034170  0.120880  1.0  0.9264
  Zn  Zn4  1  0.723350  0.654360  0.829660  1.0  0.9677
  Zn  Zn5  1  0.776650  0.154360  0.670340  1.0  0.9666
  Zn  Zn6  1  0.276650  0.654360  0.670340  1.0  0.9666
  Zn  Zn7  1  0.917970  0.465830  0.879120  1.0  0.9254
  Zn  Zn8  1  0.417970  0.965830  0.879120  1.0  0.9254
  Co  Co9  1  0.917970  0.534170  0.379120  1.0  0.9804
  Co  Co10  1  0.276650  0.345640  0.170340  1.0  0.9647
  Co  Co11  1  0.417970  0.034170  0.379120  1.0  0.9804
  Co  Co12  1  0.776650  0.845640  0.170340  1.0  0.9647
  Co  Co13  1  0.723350  0.345640  0.329660  1.0  0.9668
  Co  Co14  1  0.223350  0.845640  0.329660  1.0  0.9668
  Co  Co15  1  0.082030  0.465830  0.620880  1.0  0.9839
  Co  Co16  1  0.582030  0.965830  0.620880  1.0  0.9839
  H  H17  1  0.922200  0.489200  0.629300  1.0  0.1042
  H  H18  1  0.836400  0.536400  0.678600  1.0  0.1017
  H  H19  1  0.807900  0.580600  0.564000  1.0  0.1055
  H  H20  1  0.836600  0.573700  0.481400  1.0  0.1042
  H  H21  1  0.975900  0.429600  0.332500  1.0  0.1059
  H  H22  1  0.972900  0.224300  0.459200  1.0  0.119
  H  H23  1  0.932900  0.344500  0.468400  1.0  0.1079
  H  H24  1  0.031600  0.380100  0.343900  1.0  0.1178
  H  H25  1  0.077200  0.305400  0.320700  1.0  0.0914
  H  H26  1  0.043700  0.061900  0.370700  1.0  0.1059
  H  H27  1  0.997700  0.135800  0.390000  1.0  0.1215
  H  H28  1  0.080200  0.702600  0.214900  1.0  0.0937
  H  H29  1  0.055600  0.870200  0.052300  1.0  0.1309
  H  H30  1  0.054500  0.708800  0.011200  1.0  0.1016
  H  H31  1  0.124700  0.851900  0.253600  1.0  0.1262
  H  H32  1  0.135700  0.977200  0.329800  1.0  0.1007
  H  H33  1  0.040000  0.072100  0.237700  1.0  0.0954
  H  H34  1  0.029500  0.951500  0.159000  1.0  0.135
  H  H35  1  0.178500  0.191100  0.672300  1.0  0.1076
  H  H36  1  0.162500  0.919000  0.649100  1.0  0.1306
  H  H37  1  0.195000  0.952400  0.771600  1.0  0.099
  H  H38  1  0.155200  0.214700  0.561700  1.0  0.1271
  H  H39  1  0.129700  0.235800  0.443400  1.0  0.0932
  H  H40  1  0.108500  0.965300  0.419300  1.0  0.1003
  H  H41  1  0.133500  0.943200  0.538600  1.0  0.1207
  H  H42  1  0.227300  0.241400  0.236100  1.0  0.1083
  H  H43  1  0.155200  0.434900  0.160500  1.0  0.1212
  H  H44  1  0.206500  0.471100  0.125100  1.0  0.0976
  H  H45  1  0.200700  0.235400  0.328900  1.0  0.1176
  H  H46  1  0.166900  0.155500  0.380900  1.0  0.1016
  H  H47  1  0.083100  0.220300  0.220700  1.0  0.0989
  H  H48  1  0.117600  0.296600  0.166800  1.0  0.1142
  H  H49  1  0.247500  0.358200  0.955800  1.0  0.1193
  H  H50  1  0.237600  0.534200  0.795700  1.0  0.1006
  H  H51  1  0.259600  0.653500  0.873000  1.0  0.101
  H  H52  1  0.274900  0.629600  0.991900  1.0  0.1216
  H  H53  1  0.422200  0.989200  0.629300  1.0  0.1042
  H  H54  1  0.336400  0.036400  0.678600  1.0  0.1017
  H  H55  1  0.307900  0.080600  0.564000  1.0  0.1055
  H  H56  1  0.336600  0.073700  0.481400  1.0  0.1042
  H  H57  1  0.475900  0.929600  0.332500  1.0  0.1059
  H  H58  1  0.472900  0.724300  0.459200  1.0  0.119
  H  H59  1  0.432900  0.844500  0.468400  1.0  0.1079
  H  H60  1  0.531600  0.880100  0.343900  1.0  0.1178
  H  H61  1  0.577200  0.805400  0.320700  1.0  0.0914
  H  H62  1  0.543700  0.561900  0.370700  1.0  0.1059
  H  H63  1  0.497700  0.635800  0.390000  1.0  0.1215
  H  H64  1  0.580200  0.202600  0.214900  1.0  0.0937
  H  H65  1  0.555600  0.370200  0.052300  1.0  0.1309
  H  H66  1  0.554500  0.208800  0.011200  1.0  0.1016
  H  H67  1  0.624700  0.351900  0.253600  1.0  0.1262
  H  H68  1  0.635700  0.477200  0.329800  1.0  0.1007
  H  H69  1  0.540000  0.572100  0.237700  1.0  0.0954
  H  H70  1  0.529500  0.451500  0.159000  1.0  0.135
  H  H71  1  0.678500  0.691100  0.672300  1.0  0.1076
  H  H72  1  0.662500  0.419000  0.649100  1.0  0.1306
  H  H73  1  0.695000  0.452400  0.771600  1.0  0.099
  H  H74  1  0.655200  0.714700  0.561700  1.0  0.1271
  H  H75  1  0.629700  0.735800  0.443400  1.0  0.0932
  H  H76  1  0.608500  0.465300  0.419300  1.0  0.1003
  H  H77  1  0.633500  0.443200  0.538600  1.0  0.1207
  H  H78  1  0.727300  0.741400  0.236100  1.0  0.1083
  H  H79  1  0.655200  0.934900  0.160500  1.0  0.1212
  H  H80  1  0.706500  0.971100  0.125100  1.0  0.0976
  H  H81  1  0.700700  0.735400  0.328900  1.0  0.1176
  H  H82  1  0.666900  0.655500  0.380900  1.0  0.1016
  H  H83  1  0.583100  0.720300  0.220700  1.0  0.0989
  H  H84  1  0.617600  0.796600  0.166800  1.0  0.1142
  H  H85  1  0.747500  0.858200  0.955800  1.0  0.1193
  H  H86  1  0.737600  0.034200  0.795700  1.0  0.1006
  H  H87  1  0.759600  0.153500  0.873000  1.0  0.101
  H  H88  1  0.774900  0.129600  0.991900  1.0  0.1216
  H  H89  1  0.077800  0.489200  0.870700  1.0  0.1051
  H  H90  1  0.163600  0.536400  0.821400  1.0  0.102
  H  H91  1  0.192100  0.580600  0.936000  1.0  0.1041
  H  H92  1  0.163400  0.573700  0.018600  1.0  0.1043
  H  H93  1  0.024100  0.429600  0.167500  1.0  0.1057
  H  H94  1  0.027100  0.224300  0.040800  1.0  0.1179
  H  H95  1  0.067100  0.344500  0.031600  1.0  0.1076
  H  H96  1  0.968400  0.380100  0.156100  1.0  0.1174
  H  H97  1  0.922800  0.305400  0.179300  1.0  0.0916
  H  H98  1  0.956300  0.061900  0.129300  1.0  0.106
  H  H99  1  0.002300  0.135800  0.110000  1.0  0.121
  H  H100  1  0.919800  0.702600  0.285100  1.0  0.0927
  H  H101  1  0.944400  0.870200  0.447700  1.0  0.1311
  H  H102  1  0.945500  0.708800  0.488800  1.0  0.1017
  H  H103  1  0.875300  0.851900  0.246400  1.0  0.1255
  H  H104  1  0.864300  0.977200  0.170200  1.0  0.0996
  H  H105  1  0.960000  0.072100  0.262300  1.0  0.0958
  H  H106  1  0.970500  0.951500  0.341000  1.0  0.1354
  H  H107  1  0.821500  0.191100  0.827700  1.0  0.1076
  H  H108  1  0.837500  0.919000  0.850900  1.0  0.1305
  H  H109  1  0.805000  0.952400  0.728400  1.0  0.0994
  H  H110  1  0.844800  0.214700  0.938300  1.0  0.1271
  H  H111  1  0.870300  0.235800  0.056600  1.0  0.0927
  H  H112  1  0.891500  0.965300  0.080700  1.0  0.1004
  H  H113  1  0.866500  0.943200  0.961400  1.0  0.1203
  H  H114  1  0.772700  0.241400  0.263900  1.0  0.1085
  H  H115  1  0.844800  0.434900  0.339500  1.0  0.1216
  H  H116  1  0.793500  0.471100  0.374900  1.0  0.0979
  H  H117  1  0.799300  0.235400  0.171100  1.0  0.1176
  H  H118  1  0.833100  0.155500  0.119100  1.0  0.1019
  H  H119  1  0.916900  0.220300  0.279300  1.0  0.0984
  H  H120  1  0.882400  0.296600  0.333200  1.0  0.1144
  H  H121  1  0.752500  0.358200  0.544200  1.0  0.1188
  H  H122  1  0.762400  0.534200  0.704300  1.0  0.101
  H  H123  1  0.740400  0.653500  0.627000  1.0  0.101
  H  H124  1  0.725100  0.629600  0.508100  1.0  0.1216
  H  H125  1  0.577800  0.989200  0.870700  1.0  0.1051
  H  H126  1  0.663600  0.036400  0.821400  1.0  0.102
  H  H127  1  0.692100  0.080600  0.936000  1.0  0.1041
  H  H128  1  0.663400  0.073700  0.018600  1.0  0.1043
  H  H129  1  0.524100  0.929600  0.167500  1.0  0.1057
  H  H130  1  0.527100  0.724300  0.040800  1.0  0.1179
  H  H131  1  0.567100  0.844500  0.031600  1.0  0.1076
  H  H132  1  0.468400  0.880100  0.156100  1.0  0.1174
  H  H133  1  0.422800  0.805400  0.179300  1.0  0.0916
  H  H134  1  0.456300  0.561900  0.129300  1.0  0.106
  H  H135  1  0.502300  0.635800  0.110000  1.0  0.121
  H  H136  1  0.419800  0.202600  0.285100  1.0  0.0927
  H  H137  1  0.444400  0.370200  0.447700  1.0  0.1311
  H  H138  1  0.445500  0.208800  0.488800  1.0  0.1017
  H  H139  1  0.375300  0.351900  0.246400  1.0  0.1255
  H  H140  1  0.364300  0.477200  0.170200  1.0  0.0996
  H  H141  1  0.460000  0.572100  0.262300  1.0  0.0958
  H  H142  1  0.470500  0.451500  0.341000  1.0  0.1354
  H  H143  1  0.321500  0.691100  0.827700  1.0  0.1076
  H  H144  1  0.337500  0.419000  0.850900  1.0  0.1305
  H  H145  1  0.305000  0.452400  0.728400  1.0  0.0994
  H  H146  1  0.344800  0.714700  0.938300  1.0  0.1271
  H  H147  1  0.370300  0.735800  0.056600  1.0  0.0927
  H  H148  1  0.391500  0.465300  0.080700  1.0  0.1004
  H  H149  1  0.366500  0.443200  0.961400  1.0  0.1203
  H  H150  1  0.272700  0.741400  0.263900  1.0  0.1085
  H  H151  1  0.344800  0.934900  0.339500  1.0  0.1216
  H  H152  1  0.293500  0.971100  0.374900  1.0  0.0979
  H  H153  1  0.299300  0.735400  0.171100  1.0  0.1176
  H  H154  1  0.333100  0.655500  0.119100  1.0  0.1019
  H  H155  1  0.416900  0.720300  0.279300  1.0  0.0984
  H  H156  1  0.382400  0.796600  0.333200  1.0  0.1144
  H  H157  1  0.252500  0.858200  0.544200  1.0  0.1188
  H  H158  1  0.262400  0.034200  0.704300  1.0  0.101
  H  H159  1  0.240400  0.153500  0.627000  1.0  0.101
  H  H160  1  0.225100  0.129600  0.508100  1.0  0.1216
  H  H161  1  0.077800  0.510800  0.370700  1.0  0.1052
  H  H162  1  0.163600  0.463600  0.321400  1.0  0.1019
  H  H163  1  0.192100  0.419400  0.436000  1.0  0.1044
  H  H164  1  0.163400  0.426300  0.518600  1.0  0.1048
  H  H165  1  0.024100  0.570400  0.667500  1.0  0.1063
  H  H166  1  0.027100  0.775700  0.540800  1.0  0.118
  H  H167  1  0.067100  0.655500  0.531600  1.0  0.1077
  H  H168  1  0.968400  0.619900  0.656100  1.0  0.1172
  H  H169  1  0.922800  0.694600  0.679300  1.0  0.0911
  H  H170  1  0.956300  0.938100  0.629300  1.0  0.1048
  H  H171  1  0.002300  0.864200  0.610000  1.0  0.1218
  H  H172  1  0.919800  0.297400  0.785100  1.0  0.0931
  H  H173  1  0.944400  0.129800  0.947700  1.0  0.1312
  H  H174  1  0.945500  0.291200  0.988800  1.0  0.1017
  H  H175  1  0.875300  0.148100  0.746400  1.0  0.126
  H  H176  1  0.864300  0.022800  0.670200  1.0  0.0989
  H  H177  1  0.960000  0.927900  0.762300  1.0  0.0961
  H  H178  1  0.970500  0.048500  0.841000  1.0  0.1356
  H  H179  1  0.821500  0.808900  0.327700  1.0  0.1086
  H  H180  1  0.837500  0.081000  0.350900  1.0  0.129
  H  H181  1  0.805000  0.047600  0.228400  1.0  0.0998
  H  H182  1  0.844800  0.785300  0.438300  1.0  0.1269
  H  H183  1  0.870300  0.764200  0.556600  1.0  0.0929
  H  H184  1  0.891500  0.034700  0.580700  1.0  0.1015
  H  H185  1  0.866500  0.056800  0.461400  1.0  0.1203
  H  H186  1  0.772700  0.758600  0.763900  1.0  0.1084
  H  H187  1  0.844800  0.565100  0.839500  1.0  0.1216
  H  H188  1  0.793500  0.528900  0.874900  1.0  0.0982
  H  H189  1  0.799300  0.764600  0.671100  1.0  0.1182
  H  H190  1  0.833100  0.844500  0.619100  1.0  0.1019
  H  H191  1  0.916900  0.779700  0.779300  1.0  0.0984
  H  H192  1  0.882400  0.703400  0.833200  1.0  0.1143
  H  H193  1  0.752500  0.641800  0.044200  1.0  0.1187
  H  H194  1  0.762400  0.465800  0.204300  1.0  0.1007
  H  H195  1  0.740400  0.346500  0.127000  1.0  0.1015
  H  H196  1  0.725100  0.370400  0.008100  1.0  0.1214
  H  H197  1  0.577800  0.010800  0.370700  1.0  0.1052
  H  H198  1  0.663600  0.963600  0.321400  1.0  0.1019
  H  H199  1  0.692100  0.919400  0.436000  1.0  0.1044
  H  H200  1  0.663400  0.926300  0.518600  1.0  0.1048
  H  H201  1  0.524100  0.070400  0.667500  1.0  0.1063
  H  H202  1  0.527100  0.275700  0.540800  1.0  0.118
  H  H203  1  0.567100  0.155500  0.531600  1.0  0.1077
  H  H204  1  0.468400  0.119900  0.656100  1.0  0.1172
  H  H205  1  0.422800  0.194600  0.679300  1.0  0.0911
  H  H206  1  0.456300  0.438100  0.629300  1.0  0.1048
  H  H207  1  0.502300  0.364200  0.610000  1.0  0.1218
  H  H208  1  0.419800  0.797400  0.785100  1.0  0.0931
  H  H209  1  0.444400  0.629800  0.947700  1.0  0.1312
  H  H210  1  0.445500  0.791200  0.988800  1.0  0.1017
  H  H211  1  0.375300  0.648100  0.746400  1.0  0.126
  H  H212  1  0.364300  0.522800  0.670200  1.0  0.0989
  H  H213  1  0.460000  0.427900  0.762300  1.0  0.0961
  H  H214  1  0.470500  0.548500  0.841000  1.0  0.1356
  H  H215  1  0.321500  0.308900  0.327700  1.0  0.1086
  H  H216  1  0.337500  0.581000  0.350900  1.0  0.129
  H  H217  1  0.305000  0.547600  0.228400  1.0  0.0998
  H  H218  1  0.344800  0.285300  0.438300  1.0  0.1269
  H  H219  1  0.370300  0.264200  0.556600  1.0  0.0929
  H  H220  1  0.391500  0.534700  0.580700  1.0  0.1015
  H  H221  1  0.366500  0.556800  0.461400  1.0  0.1203
  H  H222  1  0.272700  0.258600  0.763900  1.0  0.1084
  H  H223  1  0.344800  0.065100  0.839500  1.0  0.1216
  H  H224  1  0.293500  0.028900  0.874900  1.0  0.0982
  H  H225  1  0.299300  0.264600  0.671100  1.0  0.1182
  H  H226  1  0.333100  0.344500  0.619100  1.0  0.1019
  H  H227  1  0.416900  0.279700  0.779300  1.0  0.0984
  H  H228  1  0.382400  0.203400  0.833200  1.0  0.1143
  H  H229  1  0.252500  0.141800  0.044200  1.0  0.1187
  H  H230  1  0.262400  0.965800  0.204300  1.0  0.1007
  H  H231  1  0.240400  0.846500  0.127000  1.0  0.1015
  H  H232  1  0.225100  0.870400  0.008100  1.0  0.1214
  H  H233  1  0.922200  0.510800  0.129300  1.0  0.1049
  H  H234  1  0.836400  0.463600  0.178600  1.0  0.1014
  H  H235  1  0.807900  0.419400  0.064000  1.0  0.1051
  H  H236  1  0.836600  0.426300  0.981400  1.0  0.1045
  H  H237  1  0.975900  0.570400  0.832500  1.0  0.1061
  H  H238  1  0.972900  0.775700  0.959200  1.0  0.1187
  H  H239  1  0.932900  0.655500  0.968400  1.0  0.1078
  H  H240  1  0.031600  0.619900  0.843900  1.0  0.1176
  H  H241  1  0.077200  0.694600  0.820700  1.0  0.0908
  H  H242  1  0.043700  0.938100  0.870700  1.0  0.1045
  H  H243  1  0.997700  0.864200  0.890000  1.0  0.1219
  H  H244  1  0.080200  0.297400  0.714900  1.0  0.0939
  H  H245  1  0.055600  0.129800  0.552300  1.0  0.1313
  H  H246  1  0.054500  0.291200  0.511200  1.0  0.1015
  H  H247  1  0.124700  0.148100  0.753600  1.0  0.1258
  H  H248  1  0.135700  0.022800  0.829800  1.0  0.0999
  H  H249  1  0.040000  0.927900  0.737700  1.0  0.0955
  H  H250  1  0.029500  0.048500  0.659000  1.0  0.1346
  H  H251  1  0.178500  0.808900  0.172300  1.0  0.1089
  H  H252  1  0.162500  0.081000  0.149100  1.0  0.13
  H  H253  1  0.195000  0.047600  0.271600  1.0  0.0991
  H  H254  1  0.155200  0.785300  0.061700  1.0  0.1273
  H  H255  1  0.129700  0.764200  0.943400  1.0  0.0935
  H  H256  1  0.108500  0.034700  0.919300  1.0  0.1011
  H  H257  1  0.133500  0.056800  0.038600  1.0  0.1204
  H  H258  1  0.227300  0.758600  0.736100  1.0  0.1082
  H  H259  1  0.155200  0.565100  0.660500  1.0  0.1209
  H  H260  1  0.206500  0.528900  0.625100  1.0  0.0977
  H  H261  1  0.200700  0.764600  0.828900  1.0  0.1175
  H  H262  1  0.166900  0.844500  0.880900  1.0  0.1013
  H  H263  1  0.083100  0.779700  0.720700  1.0  0.099
  H  H264  1  0.117600  0.703400  0.666800  1.0  0.1143
  H  H265  1  0.247500  0.641800  0.455800  1.0  0.1192
  H  H266  1  0.237600  0.465800  0.295700  1.0  0.1011
  H  H267  1  0.259600  0.346500  0.373000  1.0  0.1011
  H  H268  1  0.274900  0.370400  0.491900  1.0  0.1218
  H  H269  1  0.422200  0.010800  0.129300  1.0  0.1049
  H  H270  1  0.336400  0.963600  0.178600  1.0  0.1014
  H  H271  1  0.307900  0.919400  0.064000  1.0  0.1051
  H  H272  1  0.336600  0.926300  0.981400  1.0  0.1045
  H  H273  1  0.475900  0.070400  0.832500  1.0  0.1061
  H  H274  1  0.472900  0.275700  0.959200  1.0  0.1187
  H  H275  1  0.432900  0.155500  0.968400  1.0  0.1078
  H  H276  1  0.531600  0.119900  0.843900  1.0  0.1176
  H  H277  1  0.577200  0.194600  0.820700  1.0  0.0908
  H  H278  1  0.543700  0.438100  0.870700  1.0  0.1045
  H  H279  1  0.497700  0.364200  0.890000  1.0  0.1219
  H  H280  1  0.580200  0.797400  0.714900  1.0  0.0939
  H  H281  1  0.555600  0.629800  0.552300  1.0  0.1313
  H  H282  1  0.554500  0.791200  0.511200  1.0  0.1015
  H  H283  1  0.624700  0.648100  0.753600  1.0  0.1258
  H  H284  1  0.635700  0.522800  0.829800  1.0  0.0999
  H  H285  1  0.540000  0.427900  0.737700  1.0  0.0955
  H  H286  1  0.529500  0.548500  0.659000  1.0  0.1346
  H  H287  1  0.678500  0.308900  0.172300  1.0  0.1089
  H  H288  1  0.662500  0.581000  0.149100  1.0  0.13
  H  H289  1  0.695000  0.547600  0.271600  1.0  0.0991
  H  H290  1  0.655200  0.285300  0.061700  1.0  0.1273
  H  H291  1  0.629700  0.264200  0.943400  1.0  0.0935
  H  H292  1  0.608500  0.534700  0.919300  1.0  0.1011
  H  H293  1  0.633500  0.556800  0.038600  1.0  0.1204
  H  H294  1  0.727300  0.258600  0.736100  1.0  0.1082
  H  H295  1  0.655200  0.065100  0.660500  1.0  0.1209
  H  H296  1  0.706500  0.028900  0.625100  1.0  0.0977
  H  H297  1  0.700700  0.264600  0.828900  1.0  0.1175
  H  H298  1  0.666900  0.344500  0.880900  1.0  0.1013
  H  H299  1  0.583100  0.279700  0.720700  1.0  0.099
  H  H300  1  0.617600  0.203400  0.666800  1.0  0.1143
  H  H301  1  0.747500  0.141800  0.455800  1.0  0.1192
  H  H302  1  0.737600  0.965800  0.295700  1.0  0.1011
  H  H303  1  0.759600  0.846500  0.373000  1.0  0.1011
  H  H304  1  0.774900  0.870400  0.491900  1.0  0.1218
  C  C305  1  0.902150  0.530000  0.495900  1.0  0.6747
  C  C306  1  0.882700  0.531800  0.548300  1.0  -0.1586
  C  C307  1  0.898930  0.507400  0.615700  1.0  -0.0356
  C  C308  1  0.881990  0.508800  0.665100  1.0  -0.1688
  C  C309  1  0.848060  0.535500  0.645500  1.0  0.0404
  C  C310  1  0.830970  0.561200  0.577300  1.0  -0.0937
  C  C311  1  0.848260  0.558000  0.528100  1.0  -0.0283
  C  C312  1  0.901880  0.483000  0.739400  1.0  0.6524
  C  C313  1  0.970000  0.393700  0.365800  1.0  0.1525
  C  C314  1  0.968560  0.281000  0.434700  1.0  -0.1597
  C  C315  1  0.946730  0.347300  0.439400  1.0  0.0271
  C  C316  1  0.010520  0.264000  0.369500  1.0  0.1274
  C  C317  1  0.034020  0.315100  0.348800  1.0  -0.1058
  C  C318  1  0.061390  0.270200  0.335200  1.0  -0.1491
  C  C319  1  0.065520  0.175400  0.342700  1.0  0.0193
  C  C320  1  0.041250  0.126700  0.364300  1.0  -0.1304
  C  C321  1  0.013920  0.170700  0.376600  1.0  -0.1717
  C  C322  1  0.098270  0.124500  0.340500  1.0  -0.0067
  C  C323  1  0.073700  0.724000  0.168600  1.0  0.1645
  C  C324  1  0.060400  0.816100  0.079900  1.0  -0.0907
  C  C325  1  0.059680  0.727400  0.057900  1.0  0.0371
  C  C326  1  0.076230  0.889600  0.199700  1.0  0.1866
  C  C327  1  0.107550  0.896900  0.250100  1.0  -0.1457
  C  C328  1  0.113860  0.971100  0.296000  1.0  -0.1171
  C  C329  1  0.088730  0.036600  0.293200  1.0  0.0289
  C  C330  1  0.057320  0.027700  0.241000  1.0  -0.1239
  C  C331  1  0.050860  0.955900  0.194400  1.0  -0.1449
  C  C332  1  0.178660  0.127200  0.682600  1.0  0.1425
  C  C333  1  0.169590  0.978000  0.668600  1.0  -0.1384
  C  C334  1  0.187520  0.997300  0.736100  1.0  0.0458
  C  C335  1  0.147500  0.076000  0.561600  1.0  0.0285
  C  C336  1  0.145940  0.163300  0.533000  1.0  -0.1684
  C  C337  1  0.130700  0.175500  0.462100  1.0  -0.1133
  C  C338  1  0.116930  0.102200  0.417800  1.0  0.0324
  C  C339  1  0.118110  0.016600  0.447700  1.0  -0.1495
  C  C340  1  0.133220  0.003000  0.519400  1.0  -0.1782
  C  C341  1  0.215830  0.294200  0.212200  1.0  0.1238
  C  C342  1  0.175730  0.400600  0.171300  1.0  -0.1488
  C  C343  1  0.204170  0.419400  0.151700  1.0  0.0346
  C  C344  1  0.162330  0.273200  0.243100  1.0  0.1241
  C  C345  1  0.176790  0.231900  0.306600  1.0  -0.105
  C  C346  1  0.156530  0.185600  0.338000  1.0  -0.1389
  C  C347  1  0.121270  0.182300  0.308000  1.0  -0.0008
  C  C348  1  0.107000  0.223300  0.243100  1.0  -0.1152
  C  C349  1  0.127560  0.268800  0.210700  1.0  -0.1396
  C  C350  1  0.272270  0.472800  0.062700  1.0  0.7001
  C  C351  1  0.263120  0.491700  0.985700  1.0  -0.1458
  C  C352  1  0.249880  0.418100  0.939200  1.0  -0.0748
  C  C353  1  0.240410  0.435500  0.868400  1.0  -0.1355
  C  C354  1  0.244050  0.523200  0.843900  1.0  -0.0912
  C  C355  1  0.257040  0.594000  0.890100  1.0  -0.0895
  C  C356  1  0.266410  0.580000  0.960800  1.0  -0.0906
  C  C357  1  0.225800  0.356200  0.818800  1.0  0.7129
  C  C358  1  0.402150  0.030000  0.495900  1.0  0.6747
  C  C359  1  0.382700  0.031800  0.548300  1.0  -0.1586
  C  C360  1  0.398930  0.007400  0.615700  1.0  -0.0356
  C  C361  1  0.381990  0.008800  0.665100  1.0  -0.1688
  C  C362  1  0.348060  0.035500  0.645500  1.0  0.0404
  C  C363  1  0.330970  0.061200  0.577300  1.0  -0.0937
  C  C364  1  0.348260  0.058000  0.528100  1.0  -0.0283
  C  C365  1  0.401880  0.983000  0.739400  1.0  0.6524
  C  C366  1  0.470000  0.893700  0.365800  1.0  0.1525
  C  C367  1  0.468560  0.781000  0.434700  1.0  -0.1597
  C  C368  1  0.446730  0.847300  0.439400  1.0  0.0271
  C  C369  1  0.510520  0.764000  0.369500  1.0  0.1274
  C  C370  1  0.534020  0.815100  0.348800  1.0  -0.1058
  C  C371  1  0.561390  0.770200  0.335200  1.0  -0.1491
  C  C372  1  0.565520  0.675400  0.342700  1.0  0.0193
  C  C373  1  0.541250  0.626700  0.364300  1.0  -0.1304
  C  C374  1  0.513920  0.670700  0.376600  1.0  -0.1717
  C  C375  1  0.598270  0.624500  0.340500  1.0  -0.0067
  C  C376  1  0.573700  0.224000  0.168600  1.0  0.1645
  C  C377  1  0.560400  0.316100  0.079900  1.0  -0.0907
  C  C378  1  0.559680  0.227400  0.057900  1.0  0.0371
  C  C379  1  0.576230  0.389600  0.199700  1.0  0.1866
  C  C380  1  0.607550  0.396900  0.250100  1.0  -0.1457
  C  C381  1  0.613860  0.471100  0.296000  1.0  -0.1171
  C  C382  1  0.588730  0.536600  0.293200  1.0  0.0289
  C  C383  1  0.557320  0.527700  0.241000  1.0  -0.1239
  C  C384  1  0.550860  0.455900  0.194400  1.0  -0.1449
  C  C385  1  0.678660  0.627200  0.682600  1.0  0.1425
  C  C386  1  0.669590  0.478000  0.668600  1.0  -0.1384
  C  C387  1  0.687520  0.497300  0.736100  1.0  0.0458
  C  C388  1  0.647500  0.576000  0.561600  1.0  0.0285
  C  C389  1  0.645940  0.663300  0.533000  1.0  -0.1684
  C  C390  1  0.630700  0.675500  0.462100  1.0  -0.1133
  C  C391  1  0.616930  0.602200  0.417800  1.0  0.0324
  C  C392  1  0.618110  0.516600  0.447700  1.0  -0.1495
  C  C393  1  0.633220  0.503000  0.519400  1.0  -0.1782
  C  C394  1  0.715830  0.794200  0.212200  1.0  0.1238
  C  C395  1  0.675730  0.900600  0.171300  1.0  -0.1488
  C  C396  1  0.704170  0.919400  0.151700  1.0  0.0346
  C  C397  1  0.662330  0.773200  0.243100  1.0  0.1241
  C  C398  1  0.676790  0.731900  0.306600  1.0  -0.105
  C  C399  1  0.656530  0.685600  0.338000  1.0  -0.1389
  C  C400  1  0.621270  0.682300  0.308000  1.0  -0.0008
  C  C401  1  0.607000  0.723300  0.243100  1.0  -0.1152
  C  C402  1  0.627560  0.768800  0.210700  1.0  -0.1396
  C  C403  1  0.772270  0.972800  0.062700  1.0  0.7001
  C  C404  1  0.763120  0.991700  0.985700  1.0  -0.1458
  C  C405  1  0.749880  0.918100  0.939200  1.0  -0.0748
  C  C406  1  0.740410  0.935500  0.868400  1.0  -0.1355
  C  C407  1  0.744050  0.023200  0.843900  1.0  -0.0912
  C  C408  1  0.757040  0.094000  0.890100  1.0  -0.0895
  C  C409  1  0.766410  0.080000  0.960800  1.0  -0.0906
  C  C410  1  0.725800  0.856200  0.818800  1.0  0.7129
  C  C411  1  0.097850  0.530000  0.004100  1.0  0.6744
  C  C412  1  0.117300  0.531800  0.951700  1.0  -0.1597
  C  C413  1  0.101070  0.507400  0.884300  1.0  -0.0356
  C  C414  1  0.118010  0.508800  0.834900  1.0  -0.1676
  C  C415  1  0.151940  0.535500  0.854500  1.0  0.0412
  C  C416  1  0.169030  0.561200  0.922700  1.0  -0.0911
  C  C417  1  0.151740  0.558000  0.971900  1.0  -0.0277
  C  C418  1  0.098120  0.483000  0.760600  1.0  0.6525
  C  C419  1  0.030000  0.393700  0.134200  1.0  0.1524
  C  C420  1  0.031440  0.281000  0.065300  1.0  -0.1624
  C  C421  1  0.053270  0.347300  0.060600  1.0  0.0294
  C  C422  1  0.989480  0.264000  0.130500  1.0  0.1265
  C  C423  1  0.965980  0.315100  0.151200  1.0  -0.1056
  C  C424  1  0.938610  0.270200  0.164800  1.0  -0.1487
  C  C425  1  0.934480  0.175400  0.157300  1.0  0.0203
  C  C426  1  0.958750  0.126700  0.135700  1.0  -0.1306
  C  C427  1  0.986080  0.170700  0.123400  1.0  -0.1718
  C  C428  1  0.901730  0.124500  0.159500  1.0  -0.0059
  C  C429  1  0.926300  0.724000  0.331400  1.0  0.1633
  C  C430  1  0.939600  0.816100  0.420100  1.0  -0.0916
  C  C431  1  0.940320  0.727400  0.442100  1.0  0.0378
  C  C432  1  0.923770  0.889600  0.300300  1.0  0.1871
  C  C433  1  0.892450  0.896900  0.249900  1.0  -0.1449
  C  C434  1  0.886140  0.971100  0.204000  1.0  -0.1144
  C  C435  1  0.911270  0.036600  0.206800  1.0  0.0298
  C  C436  1  0.942680  0.027700  0.259000  1.0  -0.1248
  C  C437  1  0.949140  0.955900  0.305600  1.0  -0.1418
  C  C438  1  0.821340  0.127200  0.817400  1.0  0.1406
  C  C439  1  0.830410  0.978000  0.831400  1.0  -0.1372
  C  C440  1  0.812480  0.997300  0.763900  1.0  0.0447
  C  C441  1  0.852500  0.076000  0.938400  1.0  0.028
  C  C442  1  0.854060  0.163300  0.967000  1.0  -0.1702
  C  C443  1  0.869300  0.175500  0.037900  1.0  -0.1134
  C  C444  1  0.883070  0.102200  0.082200  1.0  0.0313
  C  C445  1  0.881890  0.016600  0.052300  1.0  -0.1501
  C  C446  1  0.866780  0.003000  0.980600  1.0  -0.1777
  C  C447  1  0.784170  0.294200  0.287800  1.0  0.1254
  C  C448  1  0.824270  0.400600  0.328700  1.0  -0.1471
  C  C449  1  0.795830  0.419400  0.348300  1.0  0.0343
  C  C450  1  0.837670  0.273200  0.256900  1.0  0.1252
  C  C451  1  0.823210  0.231900  0.193400  1.0  -0.1
  C  C452  1  0.843470  0.185600  0.162000  1.0  -0.1383
  C  C453  1  0.878730  0.182300  0.192000  1.0  -0.0015
  C  C454  1  0.893000  0.223300  0.256900  1.0  -0.1169
  C  C455  1  0.872440  0.268800  0.289300  1.0  -0.1391
  C  C456  1  0.727730  0.472800  0.437300  1.0  0.7001
  C  C457  1  0.736880  0.491700  0.514300  1.0  -0.1455
  C  C458  1  0.750120  0.418100  0.560800  1.0  -0.0742
  C  C459  1  0.759590  0.435500  0.631600  1.0  -0.1356
  C  C460  1  0.755950  0.523200  0.656100  1.0  -0.0915
  C  C461  1  0.742960  0.594000  0.609900  1.0  -0.09
  C  C462  1  0.733590  0.580000  0.539200  1.0  -0.0903
  C  C463  1  0.774200  0.356200  0.681200  1.0  0.7136
  C  C464  1  0.597850  0.030000  0.004100  1.0  0.6744
  C  C465  1  0.617300  0.031800  0.951700  1.0  -0.1597
  C  C466  1  0.601070  0.007400  0.884300  1.0  -0.0356
  C  C467  1  0.618010  0.008800  0.834900  1.0  -0.1676
  C  C468  1  0.651940  0.035500  0.854500  1.0  0.0412
  C  C469  1  0.669030  0.061200  0.922700  1.0  -0.0911
  C  C470  1  0.651740  0.058000  0.971900  1.0  -0.0277
  C  C471  1  0.598120  0.983000  0.760600  1.0  0.6525
  C  C472  1  0.530000  0.893700  0.134200  1.0  0.1524
  C  C473  1  0.531440  0.781000  0.065300  1.0  -0.1624
  C  C474  1  0.553270  0.847300  0.060600  1.0  0.0294
  C  C475  1  0.489480  0.764000  0.130500  1.0  0.1265
  C  C476  1  0.465980  0.815100  0.151200  1.0  -0.1056
  C  C477  1  0.438610  0.770200  0.164800  1.0  -0.1487
  C  C478  1  0.434480  0.675400  0.157300  1.0  0.0203
  C  C479  1  0.458750  0.626700  0.135700  1.0  -0.1306
  C  C480  1  0.486080  0.670700  0.123400  1.0  -0.1718
  C  C481  1  0.401730  0.624500  0.159500  1.0  -0.0059
  C  C482  1  0.426300  0.224000  0.331400  1.0  0.1633
  C  C483  1  0.439600  0.316100  0.420100  1.0  -0.0916
  C  C484  1  0.440320  0.227400  0.442100  1.0  0.0378
  C  C485  1  0.423770  0.389600  0.300300  1.0  0.1871
  C  C486  1  0.392450  0.396900  0.249900  1.0  -0.1449
  C  C487  1  0.386140  0.471100  0.204000  1.0  -0.1144
  C  C488  1  0.411270  0.536600  0.206800  1.0  0.0298
  C  C489  1  0.442680  0.527700  0.259000  1.0  -0.1248
  C  C490  1  0.449140  0.455900  0.305600  1.0  -0.1418
  C  C491  1  0.321340  0.627200  0.817400  1.0  0.1406
  C  C492  1  0.330410  0.478000  0.831400  1.0  -0.1372
  C  C493  1  0.312480  0.497300  0.763900  1.0  0.0447
  C  C494  1  0.352500  0.576000  0.938400  1.0  0.028
  C  C495  1  0.354060  0.663300  0.967000  1.0  -0.1702
  C  C496  1  0.369300  0.675500  0.037900  1.0  -0.1134
  C  C497  1  0.383070  0.602200  0.082200  1.0  0.0313
  C  C498  1  0.381890  0.516600  0.052300  1.0  -0.1501
  C  C499  1  0.366780  0.503000  0.980600  1.0  -0.1777
  C  C500  1  0.284170  0.794200  0.287800  1.0  0.1254
  C  C501  1  0.324270  0.900600  0.328700  1.0  -0.1471
  C  C502  1  0.295830  0.919400  0.348300  1.0  0.0343
  C  C503  1  0.337670  0.773200  0.256900  1.0  0.1252
  C  C504  1  0.323210  0.731900  0.193400  1.0  -0.1
  C  C505  1  0.343470  0.685600  0.162000  1.0  -0.1383
  C  C506  1  0.378730  0.682300  0.192000  1.0  -0.0015
  C  C507  1  0.393000  0.723300  0.256900  1.0  -0.1169
  C  C508  1  0.372440  0.768800  0.289300  1.0  -0.1391
  C  C509  1  0.227730  0.972800  0.437300  1.0  0.7001
  C  C510  1  0.236880  0.991700  0.514300  1.0  -0.1455
  C  C511  1  0.250120  0.918100  0.560800  1.0  -0.0742
  C  C512  1  0.259590  0.935500  0.631600  1.0  -0.1356
  C  C513  1  0.255950  0.023200  0.656100  1.0  -0.0915
  C  C514  1  0.242960  0.094000  0.609900  1.0  -0.09
  C  C515  1  0.233590  0.080000  0.539200  1.0  -0.0903
  C  C516  1  0.274200  0.856200  0.681200  1.0  0.7136
  C  C517  1  0.097850  0.470000  0.504100  1.0  0.6742
  C  C518  1  0.117300  0.468200  0.451700  1.0  -0.159
  C  C519  1  0.101070  0.492600  0.384300  1.0  -0.0346
  C  C520  1  0.118010  0.491200  0.334900  1.0  -0.1673
  C  C521  1  0.151940  0.464500  0.354500  1.0  0.0429
  C  C522  1  0.169030  0.438800  0.422700  1.0  -0.0903
  C  C523  1  0.151740  0.442000  0.471900  1.0  -0.0277
  C  C524  1  0.098120  0.517000  0.260600  1.0  0.6518
  C  C525  1  0.030000  0.606300  0.634200  1.0  0.1541
  C  C526  1  0.031440  0.719000  0.565300  1.0  -0.1625
  C  C527  1  0.053270  0.652700  0.560600  1.0  0.0282
  C  C528  1  0.989480  0.736000  0.630500  1.0  0.1263
  C  C529  1  0.965980  0.684900  0.651200  1.0  -0.1055
  C  C530  1  0.938610  0.729800  0.664800  1.0  -0.1473
  C  C531  1  0.934480  0.824600  0.657300  1.0  0.0202
  C  C532  1  0.958750  0.873300  0.635700  1.0  -0.1303
  C  C533  1  0.986080  0.829300  0.623400  1.0  -0.1724
  C  C534  1  0.901730  0.875500  0.659500  1.0  -0.0055
  C  C535  1  0.926300  0.276000  0.831400  1.0  0.1635
  C  C536  1  0.939600  0.183900  0.920100  1.0  -0.0913
  C  C537  1  0.940320  0.272600  0.942100  1.0  0.0376
  C  C538  1  0.923770  0.110400  0.800300  1.0  0.1863
  C  C539  1  0.892450  0.103100  0.749900  1.0  -0.144
  C  C540  1  0.886140  0.028900  0.704000  1.0  -0.1152
  C  C541  1  0.911270  0.963400  0.706800  1.0  0.0324
  C  C542  1  0.942680  0.972300  0.759000  1.0  -0.1251
  C  C543  1  0.949140  0.044100  0.805600  1.0  -0.142
  C  C544  1  0.821340  0.872800  0.317400  1.0  0.1404
  C  C545  1  0.830410  0.022000  0.331400  1.0  -0.1346
  C  C546  1  0.812480  0.002700  0.263900  1.0  0.0446
  C  C547  1  0.852500  0.924000  0.438400  1.0  0.0277
  C  C548  1  0.854060  0.836700  0.467000  1.0  -0.1689
  C  C549  1  0.869300  0.824500  0.537900  1.0  -0.1123
  C  C550  1  0.883070  0.897800  0.582200  1.0  0.0317
  C  C551  1  0.881890  0.983400  0.552300  1.0  -0.1474
  C  C552  1  0.866780  0.997000  0.480600  1.0  -0.1756
  C  C553  1  0.784170  0.705800  0.787800  1.0  0.1244
  C  C554  1  0.824270  0.599400  0.828700  1.0  -0.1471
  C  C555  1  0.795830  0.580600  0.848300  1.0  0.0342
  C  C556  1  0.837670  0.726800  0.756900  1.0  0.1254
  C  C557  1  0.823210  0.768100  0.693400  1.0  -0.0998
  C  C558  1  0.843470  0.814400  0.662000  1.0  -0.1379
  C  C559  1  0.878730  0.817700  0.692000  1.0  -0.0014
  C  C560  1  0.893000  0.776700  0.756900  1.0  -0.1168
  C  C561  1  0.872440  0.731200  0.789300  1.0  -0.1389
  C  C562  1  0.727730  0.527200  0.937300  1.0  0.7003
  C  C563  1  0.736880  0.508300  0.014300  1.0  -0.1453
  C  C564  1  0.750120  0.581900  0.060800  1.0  -0.0731
  C  C565  1  0.759590  0.564500  0.131600  1.0  -0.1373
  C  C566  1  0.755950  0.476800  0.156100  1.0  -0.0909
  C  C567  1  0.742960  0.406000  0.109900  1.0  -0.0894
  C  C568  1  0.733590  0.420000  0.039200  1.0  -0.0912
  C  C569  1  0.774200  0.643800  0.181200  1.0  0.7125
  C  C570  1  0.597850  0.970000  0.504100  1.0  0.6742
  C  C571  1  0.617300  0.968200  0.451700  1.0  -0.159
  C  C572  1  0.601070  0.992600  0.384300  1.0  -0.0346
  C  C573  1  0.618010  0.991200  0.334900  1.0  -0.1673
  C  C574  1  0.651940  0.964500  0.354500  1.0  0.0429
  C  C575  1  0.669030  0.938800  0.422700  1.0  -0.0903
  C  C576  1  0.651740  0.942000  0.471900  1.0  -0.0277
  C  C577  1  0.598120  0.017000  0.260600  1.0  0.6518
  C  C578  1  0.530000  0.106300  0.634200  1.0  0.1541
  C  C579  1  0.531440  0.219000  0.565300  1.0  -0.1625
  C  C580  1  0.553270  0.152700  0.560600  1.0  0.0282
  C  C581  1  0.489480  0.236000  0.630500  1.0  0.1263
  C  C582  1  0.465980  0.184900  0.651200  1.0  -0.1055
  C  C583  1  0.438610  0.229800  0.664800  1.0  -0.1473
  C  C584  1  0.434480  0.324600  0.657300  1.0  0.0202
  C  C585  1  0.458750  0.373300  0.635700  1.0  -0.1303
  C  C586  1  0.486080  0.329300  0.623400  1.0  -0.1724
  C  C587  1  0.401730  0.375500  0.659500  1.0  -0.0055
  C  C588  1  0.426300  0.776000  0.831400  1.0  0.1635
  C  C589  1  0.439600  0.683900  0.920100  1.0  -0.0913
  C  C590  1  0.440320  0.772600  0.942100  1.0  0.0376
  C  C591  1  0.423770  0.610400  0.800300  1.0  0.1863
  C  C592  1  0.392450  0.603100  0.749900  1.0  -0.144
  C  C593  1  0.386140  0.528900  0.704000  1.0  -0.1152
  C  C594  1  0.411270  0.463400  0.706800  1.0  0.0324
  C  C595  1  0.442680  0.472300  0.759000  1.0  -0.1251
  C  C596  1  0.449140  0.544100  0.805600  1.0  -0.142
  C  C597  1  0.321340  0.372800  0.317400  1.0  0.1404
  C  C598  1  0.330410  0.522000  0.331400  1.0  -0.1346
  C  C599  1  0.312480  0.502700  0.263900  1.0  0.0446
  C  C600  1  0.352500  0.424000  0.438400  1.0  0.0277
  C  C601  1  0.354060  0.336700  0.467000  1.0  -0.1689
  C  C602  1  0.369300  0.324500  0.537900  1.0  -0.1123
  C  C603  1  0.383070  0.397800  0.582200  1.0  0.0317
  C  C604  1  0.381890  0.483400  0.552300  1.0  -0.1474
  C  C605  1  0.366780  0.497000  0.480600  1.0  -0.1756
  C  C606  1  0.284170  0.205800  0.787800  1.0  0.1244
  C  C607  1  0.324270  0.099400  0.828700  1.0  -0.1471
  C  C608  1  0.295830  0.080600  0.848300  1.0  0.0342
  C  C609  1  0.337670  0.226800  0.756900  1.0  0.1254
  C  C610  1  0.323210  0.268100  0.693400  1.0  -0.0998
  C  C611  1  0.343470  0.314400  0.662000  1.0  -0.1379
  C  C612  1  0.378730  0.317700  0.692000  1.0  -0.0014
  C  C613  1  0.393000  0.276700  0.756900  1.0  -0.1168
  C  C614  1  0.372440  0.231200  0.789300  1.0  -0.1389
  C  C615  1  0.227730  0.027200  0.937300  1.0  0.7003
  C  C616  1  0.236880  0.008300  0.014300  1.0  -0.1453
  C  C617  1  0.250120  0.081900  0.060800  1.0  -0.0731
  C  C618  1  0.259590  0.064500  0.131600  1.0  -0.1373
  C  C619  1  0.255950  0.976800  0.156100  1.0  -0.0909
  C  C620  1  0.242960  0.906000  0.109900  1.0  -0.0894
  C  C621  1  0.233590  0.920000  0.039200  1.0  -0.0912
  C  C622  1  0.274200  0.143800  0.181200  1.0  0.7125
  C  C623  1  0.902150  0.470000  0.995900  1.0  0.6748
  C  C624  1  0.882700  0.468200  0.048300  1.0  -0.1584
  C  C625  1  0.898930  0.492600  0.115700  1.0  -0.0335
  C  C626  1  0.881990  0.491200  0.165100  1.0  -0.168
  C  C627  1  0.848060  0.464500  0.145500  1.0  0.0406
  C  C628  1  0.830970  0.438800  0.077300  1.0  -0.0935
  C  C629  1  0.848260  0.442000  0.028100  1.0  -0.0283
  C  C630  1  0.901880  0.517000  0.239400  1.0  0.6521
  C  C631  1  0.970000  0.606300  0.865800  1.0  0.152
  C  C632  1  0.968560  0.719000  0.934700  1.0  -0.161
  C  C633  1  0.946730  0.652700  0.939400  1.0  0.0265
  C  C634  1  0.010520  0.736000  0.869500  1.0  0.127
  C  C635  1  0.034020  0.684900  0.848800  1.0  -0.1062
  C  C636  1  0.061390  0.729800  0.835200  1.0  -0.1487
  C  C637  1  0.065520  0.824600  0.842700  1.0  0.0197
  C  C638  1  0.041250  0.873300  0.864300  1.0  -0.1307
  C  C639  1  0.013920  0.829300  0.876600  1.0  -0.1732
  C  C640  1  0.098270  0.875500  0.840500  1.0  -0.0064
  C  C641  1  0.073700  0.276000  0.668600  1.0  0.164
  C  C642  1  0.060400  0.183900  0.579900  1.0  -0.0915
  C  C643  1  0.059680  0.272600  0.557900  1.0  0.0373
  C  C644  1  0.076230  0.110400  0.699700  1.0  0.1866
  C  C645  1  0.107550  0.103100  0.750100  1.0  -0.1452
  C  C646  1  0.113860  0.028900  0.796000  1.0  -0.1171
  C  C647  1  0.088730  0.963400  0.793200  1.0  0.0325
  C  C648  1  0.057320  0.972300  0.741000  1.0  -0.1245
  C  C649  1  0.050860  0.044100  0.694400  1.0  -0.1452
  C  C650  1  0.178660  0.872800  0.182600  1.0  0.1426
  C  C651  1  0.169590  0.022000  0.168600  1.0  -0.1365
  C  C652  1  0.187520  0.002700  0.236100  1.0  0.0455
  C  C653  1  0.147500  0.924000  0.061600  1.0  0.028
  C  C654  1  0.145940  0.836700  0.033000  1.0  -0.1678
  C  C655  1  0.130700  0.824500  0.962100  1.0  -0.1122
  C  C656  1  0.116930  0.897800  0.917800  1.0  0.0322
  C  C657  1  0.118110  0.983400  0.947700  1.0  -0.1479
  C  C658  1  0.133220  0.997000  0.019400  1.0  -0.1763
  C  C659  1  0.215830  0.705800  0.712200  1.0  0.1238
  C  C660  1  0.175730  0.599400  0.671300  1.0  -0.1497
  C  C661  1  0.204170  0.580600  0.651700  1.0  0.0341
  C  C662  1  0.162330  0.726800  0.743100  1.0  0.1241
  C  C663  1  0.176790  0.768100  0.806600  1.0  -0.1052
  C  C664  1  0.156530  0.814400  0.838000  1.0  -0.1391
  C  C665  1  0.121270  0.817700  0.808000  1.0  -0.0007
  C  C666  1  0.107000  0.776700  0.743100  1.0  -0.1152
  C  C667  1  0.127560  0.731200  0.710700  1.0  -0.1397
  C  C668  1  0.272270  0.527200  0.562700  1.0  0.7
  C  C669  1  0.263120  0.508300  0.485700  1.0  -0.1461
  C  C670  1  0.249880  0.581900  0.439200  1.0  -0.074
  C  C671  1  0.240410  0.564500  0.368400  1.0  -0.137
  C  C672  1  0.244050  0.476800  0.343900  1.0  -0.091
  C  C673  1  0.257040  0.406000  0.390100  1.0  -0.0894
  C  C674  1  0.266410  0.420000  0.460800  1.0  -0.0903
  C  C675  1  0.225800  0.643800  0.318800  1.0  0.713
  C  C676  1  0.402150  0.970000  0.995900  1.0  0.6748
  C  C677  1  0.382700  0.968200  0.048300  1.0  -0.1584
  C  C678  1  0.398930  0.992600  0.115700  1.0  -0.0335
  C  C679  1  0.381990  0.991200  0.165100  1.0  -0.168
  C  C680  1  0.348060  0.964500  0.145500  1.0  0.0406
  C  C681  1  0.330970  0.938800  0.077300  1.0  -0.0935
  C  C682  1  0.348260  0.942000  0.028100  1.0  -0.0283
  C  C683  1  0.401880  0.017000  0.239400  1.0  0.6521
  C  C684  1  0.470000  0.106300  0.865800  1.0  0.152
  C  C685  1  0.468560  0.219000  0.934700  1.0  -0.161
  C  C686  1  0.446730  0.152700  0.939400  1.0  0.0265
  C  C687  1  0.510520  0.236000  0.869500  1.0  0.127
  C  C688  1  0.534020  0.184900  0.848800  1.0  -0.1062
  C  C689  1  0.561390  0.229800  0.835200  1.0  -0.1487
  C  C690  1  0.565520  0.324600  0.842700  1.0  0.0197
  C  C691  1  0.541250  0.373300  0.864300  1.0  -0.1307
  C  C692  1  0.513920  0.329300  0.876600  1.0  -0.1732
  C  C693  1  0.598270  0.375500  0.840500  1.0  -0.0064
  C  C694  1  0.573700  0.776000  0.668600  1.0  0.164
  C  C695  1  0.560400  0.683900  0.579900  1.0  -0.0915
  C  C696  1  0.559680  0.772600  0.557900  1.0  0.0373
  C  C697  1  0.576230  0.610400  0.699700  1.0  0.1866
  C  C698  1  0.607550  0.603100  0.750100  1.0  -0.1452
  C  C699  1  0.613860  0.528900  0.796000  1.0  -0.1171
  C  C700  1  0.588730  0.463400  0.793200  1.0  0.0325
  C  C701  1  0.557320  0.472300  0.741000  1.0  -0.1245
  C  C702  1  0.550860  0.544100  0.694400  1.0  -0.1452
  C  C703  1  0.678660  0.372800  0.182600  1.0  0.1426
  C  C704  1  0.669590  0.522000  0.168600  1.0  -0.1365
  C  C705  1  0.687520  0.502700  0.236100  1.0  0.0455
  C  C706  1  0.647500  0.424000  0.061600  1.0  0.028
  C  C707  1  0.645940  0.336700  0.033000  1.0  -0.1678
  C  C708  1  0.630700  0.324500  0.962100  1.0  -0.1122
  C  C709  1  0.616930  0.397800  0.917800  1.0  0.0322
  C  C710  1  0.618110  0.483400  0.947700  1.0  -0.1479
  C  C711  1  0.633220  0.497000  0.019400  1.0  -0.1763
  C  C712  1  0.715830  0.205800  0.712200  1.0  0.1238
  C  C713  1  0.675730  0.099400  0.671300  1.0  -0.1497
  C  C714  1  0.704170  0.080600  0.651700  1.0  0.0341
  C  C715  1  0.662330  0.226800  0.743100  1.0  0.1241
  C  C716  1  0.676790  0.268100  0.806600  1.0  -0.1052
  C  C717  1  0.656530  0.314400  0.838000  1.0  -0.1391
  C  C718  1  0.621270  0.317700  0.808000  1.0  -0.0007
  C  C719  1  0.607000  0.276700  0.743100  1.0  -0.1152
  C  C720  1  0.627560  0.231200  0.710700  1.0  -0.1397
  C  C721  1  0.772270  0.027200  0.562700  1.0  0.7
  C  C722  1  0.763120  0.008300  0.485700  1.0  -0.1461
  C  C723  1  0.749880  0.081900  0.439200  1.0  -0.074
  C  C724  1  0.740410  0.064500  0.368400  1.0  -0.137
  C  C725  1  0.744050  0.976800  0.343900  1.0  -0.091
  C  C726  1  0.757040  0.906000  0.390100  1.0  -0.0894
  C  C727  1  0.766410  0.920000  0.460800  1.0  -0.0903
  C  C728  1  0.725800  0.143800  0.318800  1.0  0.713
  N  N729  1  0.947280  0.420200  0.396100  1.0  -0.3934
  N  N730  1  0.983270  0.311500  0.387500  1.0  0.0632
  N  N731  1  0.067690  0.668700  0.114100  1.0  -0.3911
  N  N732  1  0.069660  0.811100  0.151200  1.0  0.0424
  N  N733  1  0.193200  0.091200  0.745350  1.0  -0.3998
  N  N734  1  0.164010  0.060500  0.635010  1.0  0.0485
  N  N735  1  0.228710  0.352000  0.176690  1.0  -0.3667
  N  N736  1  0.183950  0.321400  0.209540  1.0  0.0725
  N  N737  1  0.447280  0.920200  0.396100  1.0  -0.3934
  N  N738  1  0.483270  0.811500  0.387500  1.0  0.0632
  N  N739  1  0.567690  0.168700  0.114100  1.0  -0.3911
  N  N740  1  0.569660  0.311100  0.151200  1.0  0.0424
  N  N741  1  0.693200  0.591200  0.745350  1.0  -0.3998
  N  N742  1  0.664010  0.560500  0.635010  1.0  0.0485
  N  N743  1  0.728710  0.852000  0.176690  1.0  -0.3667
  N  N744  1  0.683950  0.821400  0.209540  1.0  0.0725
  N  N745  1  0.052720  0.420200  0.103900  1.0  -0.4001
  N  N746  1  0.016730  0.311500  0.112500  1.0  0.0631
  N  N747  1  0.932310  0.668700  0.385900  1.0  -0.3921
  N  N748  1  0.930340  0.811100  0.348800  1.0  0.0417
  N  N749  1  0.806800  0.091200  0.754650  1.0  -0.4001
  N  N750  1  0.835990  0.060500  0.864990  1.0  0.0479
  N  N751  1  0.771290  0.352000  0.323310  1.0  -0.3656
  N  N752  1  0.816050  0.321400  0.290460  1.0  0.0732
  N  N753  1  0.552720  0.920200  0.103900  1.0  -0.4001
  N  N754  1  0.516730  0.811500  0.112500  1.0  0.0631
  N  N755  1  0.432310  0.168700  0.385900  1.0  -0.3921
  N  N756  1  0.430340  0.311100  0.348800  1.0  0.0417
  N  N757  1  0.306800  0.591200  0.754650  1.0  -0.4001
  N  N758  1  0.335990  0.560500  0.864990  1.0  0.0479
  N  N759  1  0.271290  0.852000  0.323310  1.0  -0.3656
  N  N760  1  0.316050  0.821400  0.290460  1.0  0.0732
  N  N761  1  0.052720  0.579800  0.603900  1.0  -0.3928
  N  N762  1  0.016730  0.688500  0.612500  1.0  0.0629
  N  N763  1  0.932310  0.331300  0.885900  1.0  -0.3927
  N  N764  1  0.930340  0.188900  0.848800  1.0  0.0416
  N  N765  1  0.806800  0.908800  0.254650  1.0  -0.3986
  N  N766  1  0.835990  0.939500  0.364990  1.0  0.048
  N  N767  1  0.771290  0.648000  0.823310  1.0  -0.3672
  N  N768  1  0.816050  0.678600  0.790460  1.0  0.0732
  N  N769  1  0.552720  0.079800  0.603900  1.0  -0.3928
  N  N770  1  0.516730  0.188500  0.612500  1.0  0.0629
  N  N771  1  0.432310  0.831300  0.885900  1.0  -0.3927
  N  N772  1  0.430340  0.688900  0.848800  1.0  0.0416
  N  N773  1  0.306800  0.408800  0.254650  1.0  -0.3986
  N  N774  1  0.335990  0.439500  0.364990  1.0  0.048
  N  N775  1  0.271290  0.148000  0.823310  1.0  -0.3672
  N  N776  1  0.316050  0.178600  0.790460  1.0  0.0732
  N  N777  1  0.947280  0.579800  0.896100  1.0  -0.3992
  N  N778  1  0.983270  0.688500  0.887500  1.0  0.0631
  N  N779  1  0.067690  0.331300  0.614100  1.0  -0.3919
  N  N780  1  0.069660  0.188900  0.651200  1.0  0.0422
  N  N781  1  0.193200  0.908800  0.245350  1.0  -0.3975
  N  N782  1  0.164010  0.939500  0.135010  1.0  0.0486
  N  N783  1  0.228710  0.648000  0.676690  1.0  -0.3683
  N  N784  1  0.183950  0.678600  0.709540  1.0  0.0733
  N  N785  1  0.447280  0.079800  0.896100  1.0  -0.3992
  N  N786  1  0.483270  0.188500  0.887500  1.0  0.0631
  N  N787  1  0.567690  0.831300  0.614100  1.0  -0.3919
  N  N788  1  0.569660  0.688900  0.651200  1.0  0.0422
  N  N789  1  0.693200  0.408800  0.245350  1.0  -0.3975
  N  N790  1  0.664010  0.439500  0.135010  1.0  0.0486
  N  N791  1  0.728710  0.148000  0.676690  1.0  -0.3683
  N  N792  1  0.683950  0.178600  0.709540  1.0  0.0733
  O  O793  1  0.884240  0.529800  0.431190  1.0  -0.601
  O  O794  1  0.933820  0.529600  0.517380  1.0  -0.5607
  O  O795  1  0.885260  0.486600  0.783350  1.0  -0.5901
  O  O796  1  0.932700  0.461000  0.755260  1.0  -0.5973
  O  O797  1  0.277010  0.387700  0.080560  1.0  -0.5983
  O  O798  1  0.274230  0.538000  0.103400  1.0  -0.5724
  O  O799  1  0.216020  0.284000  0.844400  1.0  -0.6322
  O  O800  1  0.225080  0.362300  0.757300  1.0  -0.5955
  O  O801  1  0.384240  0.029800  0.431190  1.0  -0.601
  O  O802  1  0.433820  0.029600  0.517380  1.0  -0.5607
  O  O803  1  0.385260  0.986600  0.783350  1.0  -0.5901
  O  O804  1  0.432700  0.961000  0.755260  1.0  -0.5973
  O  O805  1  0.777010  0.887700  0.080560  1.0  -0.5983
  O  O806  1  0.774230  0.038000  0.103400  1.0  -0.5724
  O  O807  1  0.716020  0.784000  0.844400  1.0  -0.6322
  O  O808  1  0.725080  0.862300  0.757300  1.0  -0.5955
  O  O809  1  0.115760  0.529800  0.068810  1.0  -0.6024
  O  O810  1  0.066180  0.529600  0.982620  1.0  -0.5614
  O  O811  1  0.114740  0.486600  0.716650  1.0  -0.5907
  O  O812  1  0.067300  0.461000  0.744740  1.0  -0.6137
  O  O813  1  0.722990  0.387700  0.419440  1.0  -0.5969
  O  O814  1  0.725770  0.538000  0.396600  1.0  -0.5716
  O  O815  1  0.783980  0.284000  0.655600  1.0  -0.6313
  O  O816  1  0.774920  0.362300  0.742700  1.0  -0.595
  O  O817  1  0.615760  0.029800  0.068810  1.0  -0.6024
  O  O818  1  0.566180  0.029600  0.982620  1.0  -0.5614
  O  O819  1  0.614740  0.986600  0.716650  1.0  -0.5907
  O  O820  1  0.567300  0.961000  0.744740  1.0  -0.6137
  O  O821  1  0.222990  0.887700  0.419440  1.0  -0.5969
  O  O822  1  0.225770  0.038000  0.396600  1.0  -0.5716
  O  O823  1  0.283980  0.784000  0.655600  1.0  -0.6313
  O  O824  1  0.274920  0.862300  0.742700  1.0  -0.595
  O  O825  1  0.115760  0.470200  0.568810  1.0  -0.6018
  O  O826  1  0.066180  0.470400  0.482620  1.0  -0.5608
  O  O827  1  0.114740  0.513400  0.216650  1.0  -0.5908
  O  O828  1  0.067300  0.539000  0.244740  1.0  -0.5955
  O  O829  1  0.722990  0.612300  0.919440  1.0  -0.596
  O  O830  1  0.725770  0.462000  0.896600  1.0  -0.5717
  O  O831  1  0.783980  0.716000  0.155600  1.0  -0.6308
  O  O832  1  0.774920  0.637700  0.242700  1.0  -0.5947
  O  O833  1  0.615760  0.970200  0.568810  1.0  -0.6018
  O  O834  1  0.566180  0.970400  0.482620  1.0  -0.5608
  O  O835  1  0.614740  0.013400  0.216650  1.0  -0.5908
  O  O836  1  0.567300  0.039000  0.244740  1.0  -0.5955
  O  O837  1  0.222990  0.112300  0.919440  1.0  -0.596
  O  O838  1  0.225770  0.962000  0.896600  1.0  -0.5717
  O  O839  1  0.283980  0.216000  0.155600  1.0  -0.6308
  O  O840  1  0.274920  0.137700  0.242700  1.0  -0.5947
  O  O841  1  0.884240  0.470200  0.931190  1.0  -0.602
  O  O842  1  0.933820  0.470400  0.017380  1.0  -0.5609
  O  O843  1  0.885260  0.513400  0.283350  1.0  -0.5901
  O  O844  1  0.932700  0.539000  0.255260  1.0  -0.6135
  O  O845  1  0.277010  0.612300  0.580560  1.0  -0.5971
  O  O846  1  0.274230  0.462000  0.603400  1.0  -0.5715
  O  O847  1  0.216020  0.716000  0.344400  1.0  -0.6324
  O  O848  1  0.225080  0.637700  0.257300  1.0  -0.595
  O  O849  1  0.384240  0.970200  0.931190  1.0  -0.602
  O  O850  1  0.433820  0.970400  0.017380  1.0  -0.5609
  O  O851  1  0.385260  0.013400  0.283350  1.0  -0.5901
  O  O852  1  0.432700  0.039000  0.255260  1.0  -0.6135
  O  O853  1  0.777010  0.112300  0.580560  1.0  -0.5971
  O  O854  1  0.774230  0.962000  0.603400  1.0  -0.5715
  O  O855  1  0.716020  0.216000  0.344400  1.0  -0.6324
  O  O856  1  0.725080  0.137700  0.257300  1.0  -0.595
