# generated using pymatgen
data_CdH26C28O5
_symmetry_space_group_name_H-M   'P 1'
_cell_length_a   34.24940000
_cell_length_b   34.24940000
_cell_length_c   34.24940000
_cell_angle_alpha   60.00000000
_cell_angle_beta   60.00000000
_cell_angle_gamma   60.00000000
_symmetry_Int_Tables_number   1
_chemical_formula_structural   CdH26C28O5
_chemical_formula_sum   'Cd24 H624 C672 O120'
_cell_volume   28408.21232267
_cell_formula_units_Z   24
loop_
 _symmetry_equiv_pos_site_id
 _symmetry_equiv_pos_as_xyz
  1  'x, y, z'
loop_
 _atom_site_type_symbol
 _atom_site_label
 _atom_site_symmetry_multiplicity
 _atom_site_fract_x
 _atom_site_fract_y
 _atom_site_fract_z
 _atom_site_occupancy
 _atom_site_charge
  Cd  Cd1  1  0.573950  0.976980  0.023020  1.0  1.045
  Cd  Cd2  1  0.976980  0.573950  0.426050  1.0  1.0455
  Cd  Cd3  1  0.023020  0.426050  0.573950  1.0  1.0455
  Cd  Cd4  1  0.426050  0.023020  0.976980  1.0  1.0449
  Cd  Cd5  1  0.573950  0.023020  0.426050  1.0  1.0443
  Cd  Cd6  1  0.976980  0.426050  0.023020  1.0  1.0458
  Cd  Cd7  1  0.023020  0.573950  0.976980  1.0  1.0453
  Cd  Cd8  1  0.426050  0.976980  0.573950  1.0  1.0457
  Cd  Cd9  1  0.573950  0.426050  0.976980  1.0  1.0458
  Cd  Cd10  1  0.976980  0.023020  0.573950  1.0  1.0451
  Cd  Cd11  1  0.023020  0.976980  0.426050  1.0  1.0452
  Cd  Cd12  1  0.426050  0.573950  0.023020  1.0  1.0456
  Cd  Cd13  1  0.523020  0.926050  0.476980  1.0  1.0455
  Cd  Cd14  1  0.926050  0.523020  0.073950  1.0  1.0448
  Cd  Cd15  1  0.073950  0.476980  0.926050  1.0  1.045
  Cd  Cd16  1  0.476980  0.073950  0.523020  1.0  1.0455
  Cd  Cd17  1  0.476980  0.926050  0.073950  1.0  1.0458
  Cd  Cd18  1  0.073950  0.523020  0.476980  1.0  1.0444
  Cd  Cd19  1  0.926050  0.476980  0.523020  1.0  1.0456
  Cd  Cd20  1  0.523020  0.073950  0.926050  1.0  1.0453
  Cd  Cd21  1  0.073950  0.926050  0.523020  1.0  1.0457
  Cd  Cd22  1  0.476980  0.523020  0.926050  1.0  1.0449
  Cd  Cd23  1  0.523020  0.476980  0.073950  1.0  1.0454
  Cd  Cd24  1  0.926050  0.073950  0.476980  1.0  1.0457
  H  H25  1  0.427500  0.959900  0.165700  1.0  0.1284
  H  H26  1  0.493300  0.939900  0.268700  1.0  0.117
  H  H27  1  0.539100  0.946300  0.188900  1.0  0.1198
  H  H28  1  0.341700  0.000300  0.200700  1.0  0.0908
  H  H29  1  0.298000  0.994800  0.249800  1.0  0.1082
  H  H30  1  0.311400  0.040600  0.270400  1.0  0.1306
  H  H31  1  0.310400  0.069400  0.216800  1.0  0.1284
  H  H32  1  0.360300  0.040900  0.226500  1.0  0.1207
  H  H33  1  0.334500  0.899500  0.273300  1.0  0.1298
  H  H34  1  0.375500  0.907100  0.222500  1.0  0.1167
  H  H35  1  0.433900  0.857300  0.260100  1.0  0.1224
  H  H36  1  0.400300  0.829700  0.273300  1.0  0.1282
  H  H37  1  0.392600  0.849600  0.311000  1.0  0.1256
  H  H38  1  0.959900  0.427500  0.446900  1.0  0.1283
  H  H39  1  0.939900  0.493300  0.298100  1.0  0.1188
  H  H40  1  0.946300  0.539100  0.325700  1.0  0.1162
  H  H41  1  0.000300  0.341700  0.457300  1.0  0.0914
  H  H42  1  0.994800  0.298000  0.457400  1.0  0.1087
  H  H43  1  0.040600  0.311400  0.377600  1.0  0.1302
  H  H44  1  0.069400  0.310400  0.403400  1.0  0.1284
  H  H45  1  0.040900  0.360300  0.372300  1.0  0.1239
  H  H46  1  0.899500  0.334500  0.492700  1.0  0.1282
  H  H47  1  0.907100  0.375500  0.494900  1.0  0.1175
  H  H48  1  0.857300  0.433900  0.448700  1.0  0.129
  H  H49  1  0.829700  0.400300  0.496700  1.0  0.1285
  H  H50  1  0.849600  0.392600  0.446800  1.0  0.1267
  H  H51  1  0.165700  0.446900  0.427500  1.0  0.1277
  H  H52  1  0.268700  0.298100  0.493300  1.0  0.1181
  H  H53  1  0.188900  0.325700  0.539100  1.0  0.1182
  H  H54  1  0.200700  0.457300  0.341700  1.0  0.0931
  H  H55  1  0.249800  0.457400  0.298000  1.0  0.1086
  H  H56  1  0.270400  0.377600  0.311400  1.0  0.1281
  H  H57  1  0.216800  0.403400  0.310400  1.0  0.1283
  H  H58  1  0.226500  0.372300  0.360300  1.0  0.123
  H  H59  1  0.273300  0.492700  0.334500  1.0  0.1305
  H  H60  1  0.222500  0.494900  0.375500  1.0  0.1116
  H  H61  1  0.260100  0.448700  0.433900  1.0  0.1298
  H  H62  1  0.273300  0.496700  0.400300  1.0  0.1316
  H  H63  1  0.311000  0.446800  0.392600  1.0  0.1256
  H  H64  1  0.446900  0.165700  0.959900  1.0  0.1266
  H  H65  1  0.298100  0.268700  0.939900  1.0  0.1184
  H  H66  1  0.325700  0.188900  0.946300  1.0  0.118
  H  H67  1  0.457300  0.200700  0.000300  1.0  0.0873
  H  H68  1  0.457400  0.249800  0.994800  1.0  0.1082
  H  H69  1  0.377600  0.270400  0.040600  1.0  0.1294
  H  H70  1  0.403400  0.216800  0.069400  1.0  0.1302
  H  H71  1  0.372300  0.226500  0.040900  1.0  0.125
  H  H72  1  0.492700  0.273300  0.899500  1.0  0.1304
  H  H73  1  0.494900  0.222500  0.907100  1.0  0.114
  H  H74  1  0.448700  0.260100  0.857300  1.0  0.1314
  H  H75  1  0.496700  0.273300  0.829700  1.0  0.13
  H  H76  1  0.446800  0.311000  0.849600  1.0  0.1297
  H  H77  1  0.427500  0.165700  0.446900  1.0  0.1276
  H  H78  1  0.493300  0.268700  0.298100  1.0  0.1154
  H  H79  1  0.539100  0.188900  0.325700  1.0  0.1171
  H  H80  1  0.341700  0.200700  0.457300  1.0  0.0882
  H  H81  1  0.298000  0.249800  0.457400  1.0  0.1068
  H  H82  1  0.311400  0.270400  0.377600  1.0  0.1284
  H  H83  1  0.310400  0.216800  0.403400  1.0  0.1283
  H  H84  1  0.360300  0.226500  0.372300  1.0  0.1202
  H  H85  1  0.334500  0.273300  0.492700  1.0  0.1289
  H  H86  1  0.375500  0.222500  0.494900  1.0  0.1169
  H  H87  1  0.433900  0.260100  0.448700  1.0  0.1297
  H  H88  1  0.400300  0.273300  0.496700  1.0  0.1315
  H  H89  1  0.392600  0.311000  0.446800  1.0  0.1276
  H  H90  1  0.959900  0.446900  0.165700  1.0  0.1275
  H  H91  1  0.939900  0.298100  0.268700  1.0  0.118
  H  H92  1  0.946300  0.325700  0.188900  1.0  0.1181
  H  H93  1  0.000300  0.457300  0.200700  1.0  0.0909
  H  H94  1  0.994800  0.457400  0.249800  1.0  0.1075
  H  H95  1  0.040600  0.377600  0.270400  1.0  0.1309
  H  H96  1  0.069400  0.403400  0.216800  1.0  0.1301
  H  H97  1  0.040900  0.372300  0.226500  1.0  0.1233
  H  H98  1  0.899500  0.492700  0.273300  1.0  0.1289
  H  H99  1  0.907100  0.494900  0.222500  1.0  0.1166
  H  H100  1  0.857300  0.448700  0.260100  1.0  0.1282
  H  H101  1  0.829700  0.496700  0.273300  1.0  0.1324
  H  H102  1  0.849600  0.446800  0.311000  1.0  0.1271
  H  H103  1  0.165700  0.427500  0.959900  1.0  0.1278
  H  H104  1  0.268700  0.493300  0.939900  1.0  0.117
  H  H105  1  0.188900  0.539100  0.946300  1.0  0.1174
  H  H106  1  0.200700  0.341700  0.000300  1.0  0.0934
  H  H107  1  0.249800  0.298000  0.994800  1.0  0.1082
  H  H108  1  0.270400  0.311400  0.040600  1.0  0.1296
  H  H109  1  0.216800  0.310400  0.069400  1.0  0.1284
  H  H110  1  0.226500  0.360300  0.040900  1.0  0.125
  H  H111  1  0.273300  0.334500  0.899500  1.0  0.129
  H  H112  1  0.222500  0.375500  0.907100  1.0  0.1093
  H  H113  1  0.260100  0.433900  0.857300  1.0  0.1309
  H  H114  1  0.273300  0.400300  0.829700  1.0  0.1324
  H  H115  1  0.311000  0.392600  0.849600  1.0  0.1283
  H  H116  1  0.446900  0.959900  0.427500  1.0  0.127
  H  H117  1  0.298100  0.939900  0.493300  1.0  0.117
  H  H118  1  0.325700  0.946300  0.539100  1.0  0.1217
  H  H119  1  0.457300  0.000300  0.341700  1.0  0.0902
  H  H120  1  0.457400  0.994800  0.298000  1.0  0.1075
  H  H121  1  0.377600  0.040600  0.311400  1.0  0.1302
  H  H122  1  0.403400  0.069400  0.310400  1.0  0.1273
  H  H123  1  0.372300  0.040900  0.360300  1.0  0.1227
  H  H124  1  0.492700  0.899500  0.334500  1.0  0.1301
  H  H125  1  0.494900  0.907100  0.375500  1.0  0.1161
  H  H126  1  0.448700  0.857300  0.433900  1.0  0.1296
  H  H127  1  0.496700  0.829700  0.400300  1.0  0.1299
  H  H128  1  0.446800  0.849600  0.392600  1.0  0.1276
  H  H129  1  0.427500  0.446900  0.959900  1.0  0.1274
  H  H130  1  0.493300  0.298100  0.939900  1.0  0.1146
  H  H131  1  0.539100  0.325700  0.946300  1.0  0.1183
  H  H132  1  0.341700  0.457300  0.000300  1.0  0.0911
  H  H133  1  0.298000  0.457400  0.994800  1.0  0.1093
  H  H134  1  0.311400  0.377600  0.040600  1.0  0.1297
  H  H135  1  0.310400  0.403400  0.069400  1.0  0.1303
  H  H136  1  0.360300  0.372300  0.040900  1.0  0.1238
  H  H137  1  0.334500  0.492700  0.899500  1.0  0.1305
  H  H138  1  0.375500  0.494900  0.907100  1.0  0.1129
  H  H139  1  0.433900  0.448700  0.857300  1.0  0.1341
  H  H140  1  0.400300  0.496700  0.829700  1.0  0.1334
  H  H141  1  0.392600  0.446800  0.849600  1.0  0.1303
  H  H142  1  0.959900  0.165700  0.427500  1.0  0.1276
  H  H143  1  0.939900  0.268700  0.493300  1.0  0.1162
  H  H144  1  0.946300  0.188900  0.539100  1.0  0.1199
  H  H145  1  0.000300  0.200700  0.341700  1.0  0.0864
  H  H146  1  0.994800  0.249800  0.298000  1.0  0.1071
  H  H147  1  0.040600  0.270400  0.311400  1.0  0.1289
  H  H148  1  0.069400  0.216800  0.310400  1.0  0.1278
  H  H149  1  0.040900  0.226500  0.360300  1.0  0.1221
  H  H150  1  0.899500  0.273300  0.334500  1.0  0.13
  H  H151  1  0.907100  0.222500  0.375500  1.0  0.1151
  H  H152  1  0.857300  0.260100  0.433900  1.0  0.1299
  H  H153  1  0.829700  0.273300  0.400300  1.0  0.1278
  H  H154  1  0.849600  0.311000  0.392600  1.0  0.1255
  H  H155  1  0.165700  0.959900  0.446900  1.0  0.1271
  H  H156  1  0.268700  0.939900  0.298100  1.0  0.1168
  H  H157  1  0.188900  0.946300  0.325700  1.0  0.1201
  H  H158  1  0.200700  0.000300  0.457300  1.0  0.0901
  H  H159  1  0.249800  0.994800  0.457400  1.0  0.108
  H  H160  1  0.270400  0.040600  0.377600  1.0  0.1282
  H  H161  1  0.216800  0.069400  0.403400  1.0  0.1276
  H  H162  1  0.226500  0.040900  0.372300  1.0  0.1222
  H  H163  1  0.273300  0.899500  0.492700  1.0  0.1309
  H  H164  1  0.222500  0.907100  0.494900  1.0  0.1106
  H  H165  1  0.260100  0.857300  0.448700  1.0  0.129
  H  H166  1  0.273300  0.829700  0.496700  1.0  0.1297
  H  H167  1  0.311000  0.849600  0.446800  1.0  0.1164
  H  H168  1  0.446900  0.427500  0.165700  1.0  0.1268
  H  H169  1  0.298100  0.493300  0.268700  1.0  0.1145
  H  H170  1  0.325700  0.539100  0.188900  1.0  0.1182
  H  H171  1  0.457300  0.341700  0.200700  1.0  0.0924
  H  H172  1  0.457400  0.298000  0.249800  1.0  0.1085
  H  H173  1  0.377600  0.311400  0.270400  1.0  0.127
  H  H174  1  0.403400  0.310400  0.216800  1.0  0.1297
  H  H175  1  0.372300  0.360300  0.226500  1.0  0.1242
  H  H176  1  0.492700  0.334500  0.273300  1.0  0.1289
  H  H177  1  0.494900  0.375500  0.222500  1.0  0.1106
  H  H178  1  0.448700  0.433900  0.260100  1.0  0.1297
  H  H179  1  0.496700  0.400300  0.273300  1.0  0.1282
  H  H180  1  0.446800  0.392600  0.311000  1.0  0.1287
  H  H181  1  0.540100  0.072500  0.334300  1.0  0.1279
  H  H182  1  0.560100  0.006700  0.231300  1.0  0.1156
  H  H183  1  0.553700  0.960900  0.311100  1.0  0.1171
  H  H184  1  0.499700  0.158300  0.299300  1.0  0.0917
  H  H185  1  0.505200  0.202000  0.250200  1.0  0.1083
  H  H186  1  0.459400  0.188600  0.229600  1.0  0.1284
  H  H187  1  0.430600  0.189600  0.283200  1.0  0.1276
  H  H188  1  0.459100  0.139700  0.273500  1.0  0.1234
  H  H189  1  0.600500  0.165500  0.226700  1.0  0.1303
  H  H190  1  0.592900  0.124500  0.277500  1.0  0.1169
  H  H191  1  0.642700  0.066100  0.239900  1.0  0.1285
  H  H192  1  0.670300  0.099700  0.226700  1.0  0.1291
  H  H193  1  0.650400  0.107400  0.189000  1.0  0.1275
  H  H194  1  0.072500  0.540100  0.053100  1.0  0.128
  H  H195  1  0.006700  0.560100  0.201900  1.0  0.1191
  H  H196  1  0.960900  0.553700  0.174300  1.0  0.1212
  H  H197  1  0.158300  0.499700  0.042700  1.0  0.0902
  H  H198  1  0.202000  0.505200  0.042600  1.0  0.1091
  H  H199  1  0.188600  0.459400  0.122400  1.0  0.131
  H  H200  1  0.189600  0.430600  0.096600  1.0  0.1259
  H  H201  1  0.139700  0.459100  0.127700  1.0  0.1215
  H  H202  1  0.165500  0.600500  0.007300  1.0  0.1306
  H  H203  1  0.124500  0.592900  0.005100  1.0  0.1166
  H  H204  1  0.066100  0.642700  0.051300  1.0  0.1249
  H  H205  1  0.099700  0.670300  0.003300  1.0  0.1313
  H  H206  1  0.107400  0.650400  0.053200  1.0  0.1257
  H  H207  1  0.053100  0.334300  0.072500  1.0  0.1269
  H  H208  1  0.201900  0.231300  0.006700  1.0  0.1181
  H  H209  1  0.174300  0.311100  0.960900  1.0  0.1185
  H  H210  1  0.042700  0.299300  0.158300  1.0  0.0888
  H  H211  1  0.042600  0.250200  0.202000  1.0  0.109
  H  H212  1  0.122400  0.229600  0.188600  1.0  0.1304
  H  H213  1  0.096600  0.283200  0.189600  1.0  0.1283
  H  H214  1  0.127700  0.273500  0.139700  1.0  0.1242
  H  H215  1  0.007300  0.226700  0.165500  1.0  0.1263
  H  H216  1  0.005100  0.277500  0.124500  1.0  0.117
  H  H217  1  0.051300  0.239900  0.066100  1.0  0.1282
  H  H218  1  0.003300  0.226700  0.099700  1.0  0.1278
  H  H219  1  0.053200  0.189000  0.107400  1.0  0.1278
  H  H220  1  0.334300  0.053100  0.540100  1.0  0.1272
  H  H221  1  0.231300  0.201900  0.560100  1.0  0.1178
  H  H222  1  0.311100  0.174300  0.553700  1.0  0.1182
  H  H223  1  0.299300  0.042700  0.499700  1.0  0.0921
  H  H224  1  0.250200  0.042600  0.505200  1.0  0.1085
  H  H225  1  0.229600  0.122400  0.459400  1.0  0.1286
  H  H226  1  0.283200  0.096600  0.430600  1.0  0.1299
  H  H227  1  0.273500  0.127700  0.459100  1.0  0.1239
  H  H228  1  0.226700  0.007300  0.600500  1.0  0.1291
  H  H229  1  0.277500  0.005100  0.592900  1.0  0.1131
  H  H230  1  0.239900  0.051300  0.642700  1.0  0.1295
  H  H231  1  0.226700  0.003300  0.670300  1.0  0.131
  H  H232  1  0.189000  0.053200  0.650400  1.0  0.1275
  H  H233  1  0.334300  0.072500  0.053100  1.0  0.1272
  H  H234  1  0.231300  0.006700  0.201900  1.0  0.1154
  H  H235  1  0.311100  0.960900  0.174300  1.0  0.1172
  H  H236  1  0.299300  0.158300  0.042700  1.0  0.0927
  H  H237  1  0.250200  0.202000  0.042600  1.0  0.1079
  H  H238  1  0.229600  0.188600  0.122400  1.0  0.1277
  H  H239  1  0.283200  0.189600  0.096600  1.0  0.1275
  H  H240  1  0.273500  0.139700  0.127700  1.0  0.1246
  H  H241  1  0.226700  0.165500  0.007300  1.0  0.13
  H  H242  1  0.277500  0.124500  0.005100  1.0  0.1139
  H  H243  1  0.239900  0.066100  0.051300  1.0  0.1297
  H  H244  1  0.226700  0.099700  0.003300  1.0  0.1315
  H  H245  1  0.189000  0.107400  0.053200  1.0  0.1246
  H  H246  1  0.053100  0.540100  0.334300  1.0  0.1268
  H  H247  1  0.201900  0.560100  0.231300  1.0  0.1172
  H  H248  1  0.174300  0.553700  0.311100  1.0  0.1213
  H  H249  1  0.042700  0.499700  0.299300  1.0  0.0905
  H  H250  1  0.042600  0.505200  0.250200  1.0  0.108
  H  H251  1  0.122400  0.459400  0.229600  1.0  0.1297
  H  H252  1  0.096600  0.430600  0.283200  1.0  0.1273
  H  H253  1  0.127700  0.459100  0.273500  1.0  0.1239
  H  H254  1  0.007300  0.600500  0.226700  1.0  0.1303
  H  H255  1  0.005100  0.592900  0.277500  1.0  0.1171
  H  H256  1  0.051300  0.642700  0.239900  1.0  0.1284
  H  H257  1  0.003300  0.670300  0.226700  1.0  0.1307
  H  H258  1  0.053200  0.650400  0.189000  1.0  0.1272
  H  H259  1  0.072500  0.334300  0.540100  1.0  0.1272
  H  H260  1  0.006700  0.231300  0.560100  1.0  0.1165
  H  H261  1  0.960900  0.311100  0.553700  1.0  0.1176
  H  H262  1  0.158300  0.299300  0.499700  1.0  0.0884
  H  H263  1  0.202000  0.250200  0.505200  1.0  0.1082
  H  H264  1  0.188600  0.229600  0.459400  1.0  0.1296
  H  H265  1  0.189600  0.283200  0.430600  1.0  0.1288
  H  H266  1  0.139700  0.273500  0.459100  1.0  0.1212
  H  H267  1  0.165500  0.226700  0.600500  1.0  0.1295
  H  H268  1  0.124500  0.277500  0.592900  1.0  0.116
  H  H269  1  0.066100  0.239900  0.642700  1.0  0.1294
  H  H270  1  0.099700  0.226700  0.670300  1.0  0.1322
  H  H271  1  0.107400  0.189000  0.650400  1.0  0.1275
  H  H272  1  0.540100  0.053100  0.072500  1.0  0.1272
  H  H273  1  0.560100  0.201900  0.006700  1.0  0.1159
  H  H274  1  0.553700  0.174300  0.960900  1.0  0.1182
  H  H275  1  0.499700  0.042700  0.158300  1.0  0.0913
  H  H276  1  0.505200  0.042600  0.202000  1.0  0.1083
  H  H277  1  0.459400  0.122400  0.188600  1.0  0.1307
  H  H278  1  0.430600  0.096600  0.189600  1.0  0.1294
  H  H279  1  0.459100  0.127700  0.139700  1.0  0.122
  H  H280  1  0.600500  0.007300  0.165500  1.0  0.1283
  H  H281  1  0.592900  0.005100  0.124500  1.0  0.1171
  H  H282  1  0.642700  0.051300  0.066100  1.0  0.1296
  H  H283  1  0.670300  0.003300  0.099700  1.0  0.1315
  H  H284  1  0.650400  0.053200  0.107400  1.0  0.1266
  H  H285  1  0.053100  0.072500  0.540100  1.0  0.1268
  H  H286  1  0.201900  0.006700  0.560100  1.0  0.1165
  H  H287  1  0.174300  0.960900  0.553700  1.0  0.1181
  H  H288  1  0.042700  0.158300  0.499700  1.0  0.0922
  H  H289  1  0.042600  0.202000  0.505200  1.0  0.1088
  H  H290  1  0.122400  0.188600  0.459400  1.0  0.1299
  H  H291  1  0.096600  0.189600  0.430600  1.0  0.1307
  H  H292  1  0.127700  0.139700  0.459100  1.0  0.1235
  H  H293  1  0.007300  0.165500  0.600500  1.0  0.1288
  H  H294  1  0.005100  0.124500  0.592900  1.0  0.1105
  H  H295  1  0.051300  0.066100  0.642700  1.0  0.1292
  H  H296  1  0.003300  0.099700  0.670300  1.0  0.13
  H  H297  1  0.053200  0.107400  0.650400  1.0  0.1284
  H  H298  1  0.334300  0.540100  0.072500  1.0  0.1262
  H  H299  1  0.231300  0.560100  0.006700  1.0  0.1154
  H  H300  1  0.311100  0.553700  0.960900  1.0  0.122
  H  H301  1  0.299300  0.499700  0.158300  1.0  0.0882
  H  H302  1  0.250200  0.505200  0.202000  1.0  0.1083
  H  H303  1  0.229600  0.459400  0.188600  1.0  0.1297
  H  H304  1  0.283200  0.430600  0.189600  1.0  0.1279
  H  H305  1  0.273500  0.459100  0.139700  1.0  0.122
  H  H306  1  0.226700  0.600500  0.165500  1.0  0.1297
  H  H307  1  0.277500  0.592900  0.124500  1.0  0.1113
  H  H308  1  0.239900  0.642700  0.066100  1.0  0.1302
  H  H309  1  0.226700  0.670300  0.099700  1.0  0.1312
  H  H310  1  0.189000  0.650400  0.107400  1.0  0.125
  H  H311  1  0.540100  0.334300  0.053100  1.0  0.1279
  H  H312  1  0.560100  0.231300  0.201900  1.0  0.1139
  H  H313  1  0.553700  0.311100  0.174300  1.0  0.1193
  H  H314  1  0.499700  0.299300  0.042700  1.0  0.0873
  H  H315  1  0.505200  0.250200  0.042600  1.0  0.1077
  H  H316  1  0.459400  0.229600  0.122400  1.0  0.1291
  H  H317  1  0.430600  0.283200  0.096600  1.0  0.1283
  H  H318  1  0.459100  0.273500  0.127700  1.0  0.1225
  H  H319  1  0.600500  0.226700  0.007300  1.0  0.1295
  H  H320  1  0.592900  0.277500  0.005100  1.0  0.116
  H  H321  1  0.642700  0.239900  0.051300  1.0  0.1295
  H  H322  1  0.670300  0.226700  0.003300  1.0  0.129
  H  H323  1  0.650400  0.189000  0.053200  1.0  0.1258
  H  H324  1  0.072500  0.053100  0.334300  1.0  0.1276
  H  H325  1  0.006700  0.201900  0.231300  1.0  0.1159
  H  H326  1  0.960900  0.174300  0.311100  1.0  0.1181
  H  H327  1  0.158300  0.042700  0.299300  1.0  0.092
  H  H328  1  0.202000  0.042600  0.250200  1.0  0.1079
  H  H329  1  0.188600  0.122400  0.229600  1.0  0.1288
  H  H330  1  0.189600  0.096600  0.283200  1.0  0.1287
  H  H331  1  0.139700  0.127700  0.273500  1.0  0.1224
  H  H332  1  0.165500  0.007300  0.226700  1.0  0.1287
  H  H333  1  0.124500  0.005100  0.277500  1.0  0.1147
  H  H334  1  0.066100  0.051300  0.239900  1.0  0.1273
  H  H335  1  0.099700  0.003300  0.226700  1.0  0.1286
  H  H336  1  0.107400  0.053200  0.189000  1.0  0.1276
  H  H337  1  0.572500  0.040100  0.834300  1.0  0.1276
  H  H338  1  0.506700  0.060100  0.731300  1.0  0.1185
  H  H339  1  0.460900  0.053700  0.811100  1.0  0.1211
  H  H340  1  0.658300  0.999700  0.799300  1.0  0.0908
  H  H341  1  0.702000  0.005200  0.750200  1.0  0.1087
  H  H342  1  0.688600  0.959400  0.729600  1.0  0.1298
  H  H343  1  0.689600  0.930600  0.783200  1.0  0.1268
  H  H344  1  0.639700  0.959100  0.773500  1.0  0.1215
  H  H345  1  0.665500  0.100500  0.726700  1.0  0.1288
  H  H346  1  0.624500  0.092900  0.777500  1.0  0.1163
  H  H347  1  0.566100  0.142700  0.739900  1.0  0.1251
  H  H348  1  0.599700  0.170300  0.726700  1.0  0.1315
  H  H349  1  0.607400  0.150400  0.689000  1.0  0.1271
  H  H350  1  0.040100  0.572500  0.553100  1.0  0.1283
  H  H351  1  0.060100  0.506700  0.701900  1.0  0.1167
  H  H352  1  0.053700  0.460900  0.674300  1.0  0.117
  H  H353  1  0.999700  0.658300  0.542700  1.0  0.0922
  H  H354  1  0.005200  0.702000  0.542600  1.0  0.1089
  H  H355  1  0.959400  0.688600  0.622400  1.0  0.1292
  H  H356  1  0.930600  0.689600  0.596600  1.0  0.1281
  H  H357  1  0.959100  0.639700  0.627700  1.0  0.1235
  H  H358  1  0.100500  0.665500  0.507300  1.0  0.1311
  H  H359  1  0.092900  0.624500  0.505100  1.0  0.1185
  H  H360  1  0.142700  0.566100  0.551300  1.0  0.1289
  H  H361  1  0.170300  0.599700  0.503300  1.0  0.1289
  H  H362  1  0.150400  0.607400  0.553200  1.0  0.1251
  H  H363  1  0.834300  0.553100  0.572500  1.0  0.1268
  H  H364  1  0.731300  0.701900  0.506700  1.0  0.1179
  H  H365  1  0.811100  0.674300  0.460900  1.0  0.1181
  H  H366  1  0.799300  0.542700  0.658300  1.0  0.0915
  H  H367  1  0.750200  0.542600  0.702000  1.0  0.1088
  H  H368  1  0.729600  0.622400  0.688600  1.0  0.1284
  H  H369  1  0.783200  0.596600  0.689600  1.0  0.128
  H  H370  1  0.773500  0.627700  0.639700  1.0  0.1231
  H  H371  1  0.726700  0.507300  0.665500  1.0  0.1288
  H  H372  1  0.777500  0.505100  0.624500  1.0  0.1111
  H  H373  1  0.739900  0.551300  0.566100  1.0  0.1277
  H  H374  1  0.726700  0.503300  0.599700  1.0  0.1289
  H  H375  1  0.689000  0.553200  0.607400  1.0  0.1245
  H  H376  1  0.553100  0.834300  0.040100  1.0  0.1273
  H  H377  1  0.701900  0.731300  0.060100  1.0  0.1181
  H  H378  1  0.674300  0.811100  0.053700  1.0  0.1185
  H  H379  1  0.542700  0.799300  0.999700  1.0  0.0891
  H  H380  1  0.542600  0.750200  0.005200  1.0  0.1091
  H  H381  1  0.622400  0.729600  0.959400  1.0  0.1304
  H  H382  1  0.596600  0.783200  0.930600  1.0  0.1299
  H  H383  1  0.627700  0.773500  0.959100  1.0  0.1263
  H  H384  1  0.507300  0.726700  0.100500  1.0  0.1268
  H  H385  1  0.505100  0.777500  0.092900  1.0  0.1173
  H  H386  1  0.551300  0.739900  0.142700  1.0  0.1302
  H  H387  1  0.503300  0.726700  0.170300  1.0  0.1301
  H  H388  1  0.553200  0.689000  0.150400  1.0  0.1272
  H  H389  1  0.572500  0.834300  0.553100  1.0  0.127
  H  H390  1  0.506700  0.731300  0.701900  1.0  0.1154
  H  H391  1  0.460900  0.811100  0.674300  1.0  0.1169
  H  H392  1  0.658300  0.799300  0.542700  1.0  0.0883
  H  H393  1  0.702000  0.750200  0.542600  1.0  0.108
  H  H394  1  0.688600  0.729600  0.622400  1.0  0.13
  H  H395  1  0.689600  0.783200  0.596600  1.0  0.1284
  H  H396  1  0.639700  0.773500  0.627700  1.0  0.1215
  H  H397  1  0.665500  0.726700  0.507300  1.0  0.1293
  H  H398  1  0.624500  0.777500  0.505100  1.0  0.1157
  H  H399  1  0.566100  0.739900  0.551300  1.0  0.1276
  H  H400  1  0.599700  0.726700  0.503300  1.0  0.1323
  H  H401  1  0.607400  0.689000  0.553200  1.0  0.1281
  H  H402  1  0.040100  0.553100  0.834300  1.0  0.1275
  H  H403  1  0.060100  0.701900  0.731300  1.0  0.1161
  H  H404  1  0.053700  0.674300  0.811100  1.0  0.1187
  H  H405  1  0.999700  0.542700  0.799300  1.0  0.0912
  H  H406  1  0.005200  0.542600  0.750200  1.0  0.1075
  H  H407  1  0.959400  0.622400  0.729600  1.0  0.13
  H  H408  1  0.930600  0.596600  0.783200  1.0  0.1301
  H  H409  1  0.959100  0.627700  0.773500  1.0  0.1223
  H  H410  1  0.100500  0.507300  0.726700  1.0  0.1297
  H  H411  1  0.092900  0.505100  0.777500  1.0  0.1175
  H  H412  1  0.142700  0.551300  0.739900  1.0  0.1285
  H  H413  1  0.170300  0.503300  0.726700  1.0  0.131
  H  H414  1  0.150400  0.553200  0.689000  1.0  0.1272
  H  H415  1  0.834300  0.572500  0.040100  1.0  0.1275
  H  H416  1  0.731300  0.506700  0.060100  1.0  0.1165
  H  H417  1  0.811100  0.460900  0.053700  1.0  0.1179
  H  H418  1  0.799300  0.658300  0.999700  1.0  0.0929
  H  H419  1  0.750200  0.702000  0.005200  1.0  0.1077
  H  H420  1  0.729600  0.688600  0.959400  1.0  0.1268
  H  H421  1  0.783200  0.689600  0.930600  1.0  0.1285
  H  H422  1  0.773500  0.639700  0.959100  1.0  0.1238
  H  H423  1  0.726700  0.665500  0.100500  1.0  0.129
  H  H424  1  0.777500  0.624500  0.092900  1.0  0.114
  H  H425  1  0.739900  0.566100  0.142700  1.0  0.1282
  H  H426  1  0.726700  0.599700  0.170300  1.0  0.1321
  H  H427  1  0.689000  0.607400  0.150400  1.0  0.1261
  H  H428  1  0.553100  0.040100  0.572500  1.0  0.1268
  H  H429  1  0.701900  0.060100  0.506700  1.0  0.1177
  H  H430  1  0.674300  0.053700  0.460900  1.0  0.1214
  H  H431  1  0.542700  0.999700  0.658300  1.0  0.0902
  H  H432  1  0.542600  0.005200  0.702000  1.0  0.1084
  H  H433  1  0.622400  0.959400  0.688600  1.0  0.1307
  H  H434  1  0.596600  0.930600  0.689600  1.0  0.1273
  H  H435  1  0.627700  0.959100  0.639700  1.0  0.1227
  H  H436  1  0.507300  0.100500  0.665500  1.0  0.1285
  H  H437  1  0.505100  0.092900  0.624500  1.0  0.117
  H  H438  1  0.551300  0.142700  0.566100  1.0  0.1287
  H  H439  1  0.503300  0.170300  0.599700  1.0  0.131
  H  H440  1  0.553200  0.150400  0.607400  1.0  0.1266
  H  H441  1  0.572500  0.553100  0.040100  1.0  0.1271
  H  H442  1  0.506700  0.701900  0.060100  1.0  0.1154
  H  H443  1  0.460900  0.674300  0.053700  1.0  0.1186
  H  H444  1  0.658300  0.542700  0.999700  1.0  0.0917
  H  H445  1  0.702000  0.542600  0.005200  1.0  0.1079
  H  H446  1  0.688600  0.622400  0.959400  1.0  0.1307
  H  H447  1  0.689600  0.596600  0.930600  1.0  0.1293
  H  H448  1  0.639700  0.627700  0.959100  1.0  0.1229
  H  H449  1  0.665500  0.507300  0.100500  1.0  0.129
  H  H450  1  0.624500  0.505100  0.092900  1.0  0.1118
  H  H451  1  0.566100  0.551300  0.142700  1.0  0.1298
  H  H452  1  0.599700  0.503300  0.170300  1.0  0.1305
  H  H453  1  0.607400  0.553200  0.150400  1.0  0.1281
  H  H454  1  0.040100  0.834300  0.572500  1.0  0.1268
  H  H455  1  0.060100  0.731300  0.506700  1.0  0.1141
  H  H456  1  0.053700  0.811100  0.460900  1.0  0.1197
  H  H457  1  0.999700  0.799300  0.658300  1.0  0.088
  H  H458  1  0.005200  0.750200  0.702000  1.0  0.1079
  H  H459  1  0.959400  0.729600  0.688600  1.0  0.1291
  H  H460  1  0.930600  0.783200  0.689600  1.0  0.1279
  H  H461  1  0.959100  0.773500  0.639700  1.0  0.1215
  H  H462  1  0.100500  0.726700  0.665500  1.0  0.1277
  H  H463  1  0.092900  0.777500  0.624500  1.0  0.1158
  H  H464  1  0.142700  0.739900  0.566100  1.0  0.1309
  H  H465  1  0.170300  0.726700  0.599700  1.0  0.1284
  H  H466  1  0.150400  0.689000  0.607400  1.0  0.1256
  H  H467  1  0.834300  0.040100  0.553100  1.0  0.1267
  H  H468  1  0.731300  0.060100  0.701900  1.0  0.1158
  H  H469  1  0.811100  0.053700  0.674300  1.0  0.1215
  H  H470  1  0.799300  0.999700  0.542700  1.0  0.0874
  H  H471  1  0.750200  0.005200  0.542600  1.0  0.1079
  H  H472  1  0.729600  0.959400  0.622400  1.0  0.1298
  H  H473  1  0.783200  0.930600  0.596600  1.0  0.127
  H  H474  1  0.773500  0.959100  0.627700  1.0  0.1236
  H  H475  1  0.726700  0.100500  0.507300  1.0  0.1328
  H  H476  1  0.777500  0.092900  0.505100  1.0  0.1116
  H  H477  1  0.739900  0.142700  0.551300  1.0  0.1291
  H  H478  1  0.726700  0.170300  0.503300  1.0  0.1312
  H  H479  1  0.689000  0.150400  0.553200  1.0  0.1247
  H  H480  1  0.553100  0.572500  0.834300  1.0  0.1269
  H  H481  1  0.701900  0.506700  0.731300  1.0  0.1154
  H  H482  1  0.674300  0.460900  0.811100  1.0  0.1174
  H  H483  1  0.542700  0.658300  0.799300  1.0  0.0921
  H  H484  1  0.542600  0.702000  0.750200  1.0  0.1088
  H  H485  1  0.622400  0.688600  0.729600  1.0  0.1281
  H  H486  1  0.596600  0.689600  0.783200  1.0  0.1291
  H  H487  1  0.627700  0.639700  0.773500  1.0  0.1243
  H  H488  1  0.507300  0.665500  0.726700  1.0  0.1304
  H  H489  1  0.505100  0.624500  0.777500  1.0  0.1124
  H  H490  1  0.551300  0.566100  0.739900  1.0  0.1305
  H  H491  1  0.503300  0.599700  0.726700  1.0  0.1283
  H  H492  1  0.553200  0.607400  0.689000  1.0  0.128
  H  H493  1  0.459900  0.927500  0.665700  1.0  0.1289
  H  H494  1  0.439900  0.993300  0.768700  1.0  0.1192
  H  H495  1  0.446300  0.039100  0.688900  1.0  0.1163
  H  H496  1  0.500300  0.841700  0.700700  1.0  0.0916
  H  H497  1  0.494800  0.798000  0.749800  1.0  0.1088
  H  H498  1  0.540600  0.811400  0.770400  1.0  0.13
  H  H499  1  0.569400  0.810400  0.716800  1.0  0.1282
  H  H500  1  0.540900  0.860300  0.726500  1.0  0.124
  H  H501  1  0.399500  0.834500  0.773300  1.0  0.1291
  H  H502  1  0.407100  0.875500  0.722500  1.0  0.1185
  H  H503  1  0.357300  0.933900  0.760100  1.0  0.1288
  H  H504  1  0.329700  0.900300  0.773300  1.0  0.1277
  H  H505  1  0.349600  0.892600  0.811000  1.0  0.1257
  H  H506  1  0.927500  0.459900  0.946900  1.0  0.1279
  H  H507  1  0.993300  0.439900  0.798100  1.0  0.116
  H  H508  1  0.039100  0.446300  0.825700  1.0  0.1199
  H  H509  1  0.841700  0.500300  0.957300  1.0  0.0904
  H  H510  1  0.798000  0.494800  0.957400  1.0  0.1073
  H  H511  1  0.811400  0.540600  0.877600  1.0  0.1308
  H  H512  1  0.810400  0.569400  0.903400  1.0  0.1275
  H  H513  1  0.860300  0.540900  0.872300  1.0  0.1208
  H  H514  1  0.834500  0.399500  0.992700  1.0  0.1289
  H  H515  1  0.875500  0.407100  0.994900  1.0  0.1159
  H  H516  1  0.933900  0.357300  0.948700  1.0  0.1221
  H  H517  1  0.900300  0.329700  0.996700  1.0  0.1301
  H  H518  1  0.892600  0.349600  0.946800  1.0  0.1278
  H  H519  1  0.946900  0.665700  0.927500  1.0  0.1271
  H  H520  1  0.798100  0.768700  0.993300  1.0  0.118
  H  H521  1  0.825700  0.688900  0.039100  1.0  0.1178
  H  H522  1  0.957300  0.700700  0.841700  1.0  0.0881
  H  H523  1  0.957400  0.749800  0.798000  1.0  0.1078
  H  H524  1  0.877600  0.770400  0.811400  1.0  0.1285
  H  H525  1  0.903400  0.716800  0.810400  1.0  0.1292
  H  H526  1  0.872300  0.726500  0.860300  1.0  0.1217
  H  H527  1  0.992700  0.773300  0.834500  1.0  0.1306
  H  H528  1  0.994900  0.722500  0.875500  1.0  0.1152
  H  H529  1  0.948700  0.760100  0.933900  1.0  0.131
  H  H530  1  0.996700  0.773300  0.900300  1.0  0.1282
  H  H531  1  0.946800  0.811000  0.892600  1.0  0.1278
  H  H532  1  0.665700  0.946900  0.459900  1.0  0.1274
  H  H533  1  0.768700  0.798100  0.439900  1.0  0.1181
  H  H534  1  0.688900  0.825700  0.446300  1.0  0.1181
  H  H535  1  0.700700  0.957300  0.500300  1.0  0.0926
  H  H536  1  0.749800  0.957400  0.494800  1.0  0.1085
  H  H537  1  0.770400  0.877600  0.540600  1.0  0.1302
  H  H538  1  0.716800  0.903400  0.569400  1.0  0.1297
  H  H539  1  0.726500  0.872300  0.540900  1.0  0.1238
  H  H540  1  0.773300  0.992700  0.399500  1.0  0.1302
  H  H541  1  0.722500  0.994900  0.407100  1.0  0.1122
  H  H542  1  0.760100  0.948700  0.357300  1.0  0.1298
  H  H543  1  0.773300  0.996700  0.329700  1.0  0.1333
  H  H544  1  0.811000  0.946800  0.349600  1.0  0.1294
  H  H545  1  0.665700  0.927500  0.946900  1.0  0.1277
  H  H546  1  0.768700  0.993300  0.798100  1.0  0.1177
  H  H547  1  0.688900  0.039100  0.825700  1.0  0.1176
  H  H548  1  0.700700  0.841700  0.957300  1.0  0.0935
  H  H549  1  0.749800  0.798000  0.957400  1.0  0.1081
  H  H550  1  0.770400  0.811400  0.877600  1.0  0.1274
  H  H551  1  0.716800  0.810400  0.903400  1.0  0.1267
  H  H552  1  0.726500  0.860300  0.872300  1.0  0.1241
  H  H553  1  0.773300  0.834500  0.992700  1.0  0.129
  H  H554  1  0.722500  0.875500  0.994900  1.0  0.1104
  H  H555  1  0.760100  0.933900  0.948700  1.0  0.1285
  H  H556  1  0.773300  0.900300  0.996700  1.0  0.1308
  H  H557  1  0.811000  0.892600  0.946800  1.0  0.125
  H  H558  1  0.946900  0.459900  0.665700  1.0  0.1269
  H  H559  1  0.798100  0.439900  0.768700  1.0  0.1174
  H  H560  1  0.825700  0.446300  0.688900  1.0  0.1191
  H  H561  1  0.957300  0.500300  0.700700  1.0  0.0906
  H  H562  1  0.957400  0.494800  0.749800  1.0  0.1077
  H  H563  1  0.877600  0.540600  0.770400  1.0  0.131
  H  H564  1  0.903400  0.569400  0.716800  1.0  0.1274
  H  H565  1  0.872300  0.540900  0.726500  1.0  0.123
  H  H566  1  0.992700  0.399500  0.773300  1.0  0.1287
  H  H567  1  0.994900  0.407100  0.722500  1.0  0.1167
  H  H568  1  0.948700  0.357300  0.760100  1.0  0.1287
  H  H569  1  0.996700  0.329700  0.773300  1.0  0.1301
  H  H570  1  0.946800  0.349600  0.811000  1.0  0.1273
  H  H571  1  0.927500  0.665700  0.459900  1.0  0.127
  H  H572  1  0.993300  0.768700  0.439900  1.0  0.1147
  H  H573  1  0.039100  0.688900  0.446300  1.0  0.1169
  H  H574  1  0.841700  0.700700  0.500300  1.0  0.0876
  H  H575  1  0.798000  0.749800  0.494800  1.0  0.1069
  H  H576  1  0.811400  0.770400  0.540600  1.0  0.1303
  H  H577  1  0.810400  0.716800  0.569400  1.0  0.1298
  H  H578  1  0.860300  0.726500  0.540900  1.0  0.1226
  H  H579  1  0.834500  0.773300  0.399500  1.0  0.1299
  H  H580  1  0.875500  0.722500  0.407100  1.0  0.115
  H  H581  1  0.933900  0.760100  0.357300  1.0  0.1346
  H  H582  1  0.900300  0.773300  0.329700  1.0  0.1328
  H  H583  1  0.892600  0.811000  0.349600  1.0  0.1291
  H  H584  1  0.459900  0.946900  0.927500  1.0  0.1271
  H  H585  1  0.439900  0.798100  0.993300  1.0  0.1182
  H  H586  1  0.446300  0.825700  0.039100  1.0  0.1189
  H  H587  1  0.500300  0.957300  0.841700  1.0  0.0907
  H  H588  1  0.494800  0.957400  0.798000  1.0  0.1074
  H  H589  1  0.540600  0.877600  0.811400  1.0  0.1304
  H  H590  1  0.569400  0.903400  0.810400  1.0  0.1303
  H  H591  1  0.540900  0.872300  0.860300  1.0  0.1239
  H  H592  1  0.399500  0.992700  0.834500  1.0  0.1309
  H  H593  1  0.407100  0.994900  0.875500  1.0  0.1157
  H  H594  1  0.357300  0.948700  0.933900  1.0  0.1289
  H  H595  1  0.329700  0.996700  0.900300  1.0  0.1321
  H  H596  1  0.349600  0.946800  0.892600  1.0  0.1278
  H  H597  1  0.946900  0.927500  0.459900  1.0  0.1266
  H  H598  1  0.798100  0.993300  0.439900  1.0  0.1151
  H  H599  1  0.825700  0.039100  0.446300  1.0  0.1182
  H  H600  1  0.957300  0.841700  0.500300  1.0  0.0917
  H  H601  1  0.957400  0.798000  0.494800  1.0  0.1083
  H  H602  1  0.877600  0.811400  0.540600  1.0  0.1292
  H  H603  1  0.903400  0.810400  0.569400  1.0  0.1302
  H  H604  1  0.872300  0.860300  0.540900  1.0  0.1251
  H  H605  1  0.992700  0.834500  0.399500  1.0  0.1298
  H  H606  1  0.994900  0.875500  0.407100  1.0  0.1119
  H  H607  1  0.948700  0.933900  0.357300  1.0  0.131
  H  H608  1  0.996700  0.900300  0.329700  1.0  0.1307
  H  H609  1  0.946800  0.892600  0.349600  1.0  0.131
  H  H610  1  0.665700  0.459900  0.927500  1.0  0.128
  H  H611  1  0.768700  0.439900  0.993300  1.0  0.1171
  H  H612  1  0.688900  0.446300  0.039100  1.0  0.122
  H  H613  1  0.700700  0.500300  0.841700  1.0  0.0897
  H  H614  1  0.749800  0.494800  0.798000  1.0  0.1079
  H  H615  1  0.770400  0.540600  0.811400  1.0  0.1279
  H  H616  1  0.716800  0.569400  0.810400  1.0  0.1282
  H  H617  1  0.726500  0.540900  0.860300  1.0  0.1223
  H  H618  1  0.773300  0.399500  0.834500  1.0  0.1313
  H  H619  1  0.722500  0.407100  0.875500  1.0  0.1105
  H  H620  1  0.760100  0.357300  0.933900  1.0  0.1299
  H  H621  1  0.773300  0.329700  0.900300  1.0  0.1282
  H  H622  1  0.811000  0.349600  0.892600  1.0  0.1161
  H  H623  1  0.459900  0.665700  0.946900  1.0  0.1271
  H  H624  1  0.439900  0.768700  0.798100  1.0  0.1168
  H  H625  1  0.446300  0.688900  0.825700  1.0  0.1195
  H  H626  1  0.500300  0.700700  0.957300  1.0  0.087
  H  H627  1  0.494800  0.749800  0.957400  1.0  0.1074
  H  H628  1  0.540600  0.770400  0.877600  1.0  0.1291
  H  H629  1  0.569400  0.716800  0.903400  1.0  0.1278
  H  H630  1  0.540900  0.726500  0.872300  1.0  0.1226
  H  H631  1  0.399500  0.773300  0.992700  1.0  0.1279
  H  H632  1  0.407100  0.722500  0.994900  1.0  0.1156
  H  H633  1  0.357300  0.760100  0.948700  1.0  0.1293
  H  H634  1  0.329700  0.773300  0.996700  1.0  0.1284
  H  H635  1  0.349600  0.811000  0.946800  1.0  0.1256
  H  H636  1  0.927500  0.946900  0.665700  1.0  0.128
  H  H637  1  0.993300  0.798100  0.768700  1.0  0.1151
  H  H638  1  0.039100  0.825700  0.688900  1.0  0.1186
  H  H639  1  0.841700  0.957300  0.700700  1.0  0.0915
  H  H640  1  0.798000  0.957400  0.749800  1.0  0.109
  H  H641  1  0.811400  0.877600  0.770400  1.0  0.1278
  H  H642  1  0.810400  0.903400  0.716800  1.0  0.1286
  H  H643  1  0.860300  0.872300  0.726500  1.0  0.1206
  H  H644  1  0.834500  0.992700  0.773300  1.0  0.1285
  H  H645  1  0.875500  0.994900  0.722500  1.0  0.1118
  H  H646  1  0.933900  0.948700  0.760100  1.0  0.1297
  H  H647  1  0.900300  0.996700  0.773300  1.0  0.1315
  H  H648  1  0.892600  0.946800  0.811000  1.0  0.1278
  C  C649  1  0.516160  0.963160  0.117300  1.0  0.6872
  C  C650  1  0.487380  0.955260  0.169260  1.0  -0.1338
  C  C651  1  0.440910  0.955930  0.186390  1.0  -0.0943
  C  C652  1  0.414290  0.950770  0.234190  1.0  -0.0096
  C  C653  1  0.432560  0.946100  0.265240  1.0  -0.0205
  C  C654  1  0.479750  0.944110  0.247950  1.0  -0.0938
  C  C655  1  0.506760  0.948260  0.200400  1.0  -0.0354
  C  C656  1  0.364020  0.949020  0.259100  1.0  0.0872
  C  C657  1  0.354490  0.944250  0.309670  1.0  -0.041
  C  C658  1  0.394400  0.943880  0.312620  1.0  -0.0875
  C  C659  1  0.330640  0.996660  0.234800  1.0  -0.1577
  C  C660  1  0.327920  0.040760  0.237380  1.0  -0.2929
  C  C661  1  0.366840  0.902320  0.256460  1.0  -0.186
  C  C662  1  0.401400  0.855680  0.277040  1.0  -0.304
  C  C663  1  0.963160  0.516160  0.403380  1.0  0.6878
  C  C664  1  0.955260  0.487380  0.388100  1.0  -0.1332
  C  C665  1  0.955930  0.440910  0.416770  1.0  -0.0965
  C  C666  1  0.950770  0.414290  0.400750  1.0  -0.0074
  C  C667  1  0.946100  0.432560  0.356100  1.0  -0.0209
  C  C668  1  0.944110  0.479750  0.328190  1.0  -0.0979
  C  C669  1  0.948260  0.506760  0.344580  1.0  -0.0324
  C  C670  1  0.949020  0.364020  0.427860  1.0  0.0865
  C  C671  1  0.944250  0.354490  0.391590  1.0  -0.0412
  C  C672  1  0.943880  0.394400  0.349100  1.0  -0.0877
  C  C673  1  0.996660  0.330640  0.437900  1.0  -0.1555
  C  C674  1  0.040760  0.327920  0.393940  1.0  -0.2978
  C  C675  1  0.902320  0.366840  0.474380  1.0  -0.1901
  C  C676  1  0.855680  0.401400  0.465880  1.0  -0.3062
  C  C677  1  0.117300  0.403380  0.516160  1.0  0.6838
  C  C678  1  0.169260  0.388100  0.487380  1.0  -0.1381
  C  C679  1  0.186390  0.416770  0.440910  1.0  -0.0943
  C  C680  1  0.234190  0.400750  0.414290  1.0  -0.0101
  C  C681  1  0.265240  0.356100  0.432560  1.0  -0.0214
  C  C682  1  0.247950  0.328190  0.479750  1.0  -0.0959
  C  C683  1  0.200400  0.344580  0.506760  1.0  -0.0318
  C  C684  1  0.259100  0.427860  0.364020  1.0  0.0866
  C  C685  1  0.309670  0.391590  0.354490  1.0  -0.0396
  C  C686  1  0.312620  0.349100  0.394400  1.0  -0.0866
  C  C687  1  0.234800  0.437900  0.330640  1.0  -0.1579
  C  C688  1  0.237380  0.393940  0.327920  1.0  -0.2992
  C  C689  1  0.256460  0.474380  0.366840  1.0  -0.1844
  C  C690  1  0.277040  0.465880  0.401400  1.0  -0.3045
  C  C691  1  0.403380  0.117300  0.963160  1.0  0.6884
  C  C692  1  0.388100  0.169260  0.955260  1.0  -0.1345
  C  C693  1  0.416770  0.186390  0.955930  1.0  -0.1008
  C  C694  1  0.400750  0.234190  0.950770  1.0  -0.0078
  C  C695  1  0.356100  0.265240  0.946100  1.0  -0.0191
  C  C696  1  0.328190  0.247950  0.944110  1.0  -0.0918
  C  C697  1  0.344580  0.200400  0.948260  1.0  -0.0286
  C  C698  1  0.427860  0.259100  0.949020  1.0  0.0871
  C  C699  1  0.391590  0.309670  0.944250  1.0  -0.0384
  C  C700  1  0.349100  0.312620  0.943880  1.0  -0.0868
  C  C701  1  0.437900  0.234800  0.996660  1.0  -0.1552
  C  C702  1  0.393940  0.237380  0.040760  1.0  -0.2976
  C  C703  1  0.474380  0.256460  0.902320  1.0  -0.1835
  C  C704  1  0.465880  0.277040  0.855680  1.0  -0.3048
  C  C705  1  0.516160  0.117300  0.403380  1.0  0.6887
  C  C706  1  0.487380  0.169260  0.388100  1.0  -0.134
  C  C707  1  0.440910  0.186390  0.416770  1.0  -0.1002
  C  C708  1  0.414290  0.234190  0.400750  1.0  -0.0093
  C  C709  1  0.432560  0.265240  0.356100  1.0  -0.0209
  C  C710  1  0.479750  0.247950  0.328190  1.0  -0.0926
  C  C711  1  0.506760  0.200400  0.344580  1.0  -0.03
  C  C712  1  0.364020  0.259100  0.427860  1.0  0.088
  C  C713  1  0.354490  0.309670  0.391590  1.0  -0.0426
  C  C714  1  0.394400  0.312620  0.349100  1.0  -0.0865
  C  C715  1  0.330640  0.234800  0.437900  1.0  -0.1537
  C  C716  1  0.327920  0.237380  0.393940  1.0  -0.2971
  C  C717  1  0.366840  0.256460  0.474380  1.0  -0.1863
  C  C718  1  0.401400  0.277040  0.465880  1.0  -0.3059
  C  C719  1  0.963160  0.403380  0.117300  1.0  0.6888
  C  C720  1  0.955260  0.388100  0.169260  1.0  -0.1346
  C  C721  1  0.955930  0.416770  0.186390  1.0  -0.0963
  C  C722  1  0.950770  0.400750  0.234190  1.0  -0.0079
  C  C723  1  0.946100  0.356100  0.265240  1.0  -0.0201
  C  C724  1  0.944110  0.328190  0.247950  1.0  -0.0923
  C  C725  1  0.948260  0.344580  0.200400  1.0  -0.0312
  C  C726  1  0.949020  0.427860  0.259100  1.0  0.085
  C  C727  1  0.944250  0.391590  0.309670  1.0  -0.0448
  C  C728  1  0.943880  0.349100  0.312620  1.0  -0.089
  C  C729  1  0.996660  0.437900  0.234800  1.0  -0.1538
  C  C730  1  0.040760  0.393940  0.237380  1.0  -0.3003
  C  C731  1  0.902320  0.474380  0.256460  1.0  -0.182
  C  C732  1  0.855680  0.465880  0.277040  1.0  -0.3041
  C  C733  1  0.117300  0.516160  0.963160  1.0  0.6834
  C  C734  1  0.169260  0.487380  0.955260  1.0  -0.1331
  C  C735  1  0.186390  0.440910  0.955930  1.0  -0.0943
  C  C736  1  0.234190  0.414290  0.950770  1.0  -0.0074
  C  C737  1  0.265240  0.432560  0.946100  1.0  -0.0203
  C  C738  1  0.247950  0.479750  0.944110  1.0  -0.0921
  C  C739  1  0.200400  0.506760  0.948260  1.0  -0.0299
  C  C740  1  0.259100  0.364020  0.949020  1.0  0.0869
  C  C741  1  0.309670  0.354490  0.944250  1.0  -0.044
  C  C742  1  0.312620  0.394400  0.943880  1.0  -0.0869
  C  C743  1  0.234800  0.330640  0.996660  1.0  -0.1544
  C  C744  1  0.237380  0.327920  0.040760  1.0  -0.2975
  C  C745  1  0.256460  0.366840  0.902320  1.0  -0.1861
  C  C746  1  0.277040  0.401400  0.855680  1.0  -0.3064
  C  C747  1  0.403380  0.963160  0.516160  1.0  0.6891
  C  C748  1  0.388100  0.955260  0.487380  1.0  -0.1348
  C  C749  1  0.416770  0.955930  0.440910  1.0  -0.0942
  C  C750  1  0.400750  0.950770  0.414290  1.0  -0.0124
  C  C751  1  0.356100  0.946100  0.432560  1.0  -0.0215
  C  C752  1  0.328190  0.944110  0.479750  1.0  -0.0903
  C  C753  1  0.344580  0.948260  0.506760  1.0  -0.0287
  C  C754  1  0.427860  0.949020  0.364020  1.0  0.0866
  C  C755  1  0.391590  0.944250  0.354490  1.0  -0.0457
  C  C756  1  0.349100  0.943880  0.394400  1.0  -0.0887
  C  C757  1  0.437900  0.996660  0.330640  1.0  -0.1521
  C  C758  1  0.393940  0.040760  0.327920  1.0  -0.2929
  C  C759  1  0.474380  0.902320  0.366840  1.0  -0.1797
  C  C760  1  0.465880  0.855680  0.401400  1.0  -0.3037
  C  C761  1  0.516160  0.403380  0.963160  1.0  0.6886
  C  C762  1  0.487380  0.388100  0.955260  1.0  -0.1351
  C  C763  1  0.440910  0.416770  0.955930  1.0  -0.0933
  C  C764  1  0.414290  0.400750  0.950770  1.0  -0.01
  C  C765  1  0.432560  0.356100  0.946100  1.0  -0.0183
  C  C766  1  0.479750  0.328190  0.944110  1.0  -0.0911
  C  C767  1  0.506760  0.344580  0.948260  1.0  -0.0316
  C  C768  1  0.364020  0.427860  0.949020  1.0  0.0859
  C  C769  1  0.354490  0.391590  0.944250  1.0  -0.0434
  C  C770  1  0.394400  0.349100  0.943880  1.0  -0.0871
  C  C771  1  0.330640  0.437900  0.996660  1.0  -0.1541
  C  C772  1  0.327920  0.393940  0.040760  1.0  -0.2993
  C  C773  1  0.366840  0.474380  0.902320  1.0  -0.1831
  C  C774  1  0.401400  0.465880  0.855680  1.0  -0.3065
  C  C775  1  0.963160  0.117300  0.516160  1.0  0.6889
  C  C776  1  0.955260  0.169260  0.487380  1.0  -0.1343
  C  C777  1  0.955930  0.186390  0.440910  1.0  -0.1
  C  C778  1  0.950770  0.234190  0.414290  1.0  -0.0084
  C  C779  1  0.946100  0.265240  0.432560  1.0  -0.0203
  C  C780  1  0.944110  0.247950  0.479750  1.0  -0.0922
  C  C781  1  0.948260  0.200400  0.506760  1.0  -0.0326
  C  C782  1  0.949020  0.259100  0.364020  1.0  0.0849
  C  C783  1  0.944250  0.309670  0.354490  1.0  -0.0439
  C  C784  1  0.943880  0.312620  0.394400  1.0  -0.0875
  C  C785  1  0.996660  0.234800  0.330640  1.0  -0.1582
  C  C786  1  0.040760  0.237380  0.327920  1.0  -0.2971
  C  C787  1  0.902320  0.256460  0.366840  1.0  -0.1889
  C  C788  1  0.855680  0.277040  0.401400  1.0  -0.3048
  C  C789  1  0.117300  0.963160  0.403380  1.0  0.6849
  C  C790  1  0.169260  0.955260  0.388100  1.0  -0.1354
  C  C791  1  0.186390  0.955930  0.416770  1.0  -0.0924
  C  C792  1  0.234190  0.950770  0.400750  1.0  -0.0095
  C  C793  1  0.265240  0.946100  0.356100  1.0  -0.0217
  C  C794  1  0.247950  0.944110  0.328190  1.0  -0.0915
  C  C795  1  0.200400  0.948260  0.344580  1.0  -0.0333
  C  C796  1  0.259100  0.949020  0.427860  1.0  0.0854
  C  C797  1  0.309670  0.944250  0.391590  1.0  -0.0451
  C  C798  1  0.312620  0.943880  0.349100  1.0  -0.0875
  C  C799  1  0.234800  0.996660  0.437900  1.0  -0.1621
  C  C800  1  0.237380  0.040760  0.393940  1.0  -0.2931
  C  C801  1  0.256460  0.902320  0.474380  1.0  -0.1869
  C  C802  1  0.277040  0.855680  0.465880  1.0  -0.3022
  C  C803  1  0.403380  0.516160  0.117300  1.0  0.6889
  C  C804  1  0.388100  0.487380  0.169260  1.0  -0.1346
  C  C805  1  0.416770  0.440910  0.186390  1.0  -0.0955
  C  C806  1  0.400750  0.414290  0.234190  1.0  -0.0077
  C  C807  1  0.356100  0.432560  0.265240  1.0  -0.0199
  C  C808  1  0.328190  0.479750  0.247950  1.0  -0.0931
  C  C809  1  0.344580  0.506760  0.200400  1.0  -0.0357
  C  C810  1  0.427860  0.364020  0.259100  1.0  0.0858
  C  C811  1  0.391590  0.354490  0.309670  1.0  -0.0434
  C  C812  1  0.349100  0.394400  0.312620  1.0  -0.0874
  C  C813  1  0.437900  0.330640  0.234800  1.0  -0.1553
  C  C814  1  0.393940  0.327920  0.237380  1.0  -0.2997
  C  C815  1  0.474380  0.366840  0.256460  1.0  -0.1821
  C  C816  1  0.465880  0.401400  0.277040  1.0  -0.3076
  C  C817  1  0.536840  0.983840  0.382700  1.0  0.6894
  C  C818  1  0.544740  0.012620  0.330740  1.0  -0.1339
  C  C819  1  0.544070  0.059090  0.313610  1.0  -0.0978
  C  C820  1  0.549230  0.085710  0.265810  1.0  -0.0087
  C  C821  1  0.553900  0.067440  0.234760  1.0  -0.0204
  C  C822  1  0.555890  0.020250  0.252050  1.0  -0.0963
  C  C823  1  0.551740  0.993240  0.299600  1.0  -0.0331
  C  C824  1  0.550980  0.135980  0.240900  1.0  0.0872
  C  C825  1  0.555750  0.145510  0.190330  1.0  -0.0419
  C  C826  1  0.556120  0.105600  0.187380  1.0  -0.0884
  C  C827  1  0.503340  0.169360  0.265200  1.0  -0.1553
  C  C828  1  0.459240  0.172080  0.262620  1.0  -0.2976
  C  C829  1  0.597680  0.133160  0.243540  1.0  -0.1881
  C  C830  1  0.644320  0.098600  0.222960  1.0  -0.3048
  C  C831  1  0.983840  0.536840  0.096620  1.0  0.6864
  C  C832  1  0.012620  0.544740  0.111900  1.0  -0.1342
  C  C833  1  0.059090  0.544070  0.083230  1.0  -0.0942
  C  C834  1  0.085710  0.549230  0.099250  1.0  -0.0092
  C  C835  1  0.067440  0.553900  0.143900  1.0  -0.0206
  C  C836  1  0.020250  0.555890  0.171810  1.0  -0.0959
  C  C837  1  0.993240  0.551740  0.155420  1.0  -0.033
  C  C838  1  0.135980  0.550980  0.072140  1.0  0.0864
  C  C839  1  0.145510  0.555750  0.108410  1.0  -0.0413
  C  C840  1  0.105600  0.556120  0.150900  1.0  -0.0869
  C  C841  1  0.169360  0.503340  0.062100  1.0  -0.1569
  C  C842  1  0.172080  0.459240  0.106060  1.0  -0.2941
  C  C843  1  0.133160  0.597680  0.025620  1.0  -0.1878
  C  C844  1  0.098600  0.644320  0.034120  1.0  -0.3043
  C  C845  1  0.096620  0.382700  0.983840  1.0  0.6876
  C  C846  1  0.111900  0.330740  0.012620  1.0  -0.1319
  C  C847  1  0.083230  0.313610  0.059090  1.0  -0.0994
  C  C848  1  0.099250  0.265810  0.085710  1.0  -0.0079
  C  C849  1  0.143900  0.234760  0.067440  1.0  -0.0205
  C  C850  1  0.171810  0.252050  0.020250  1.0  -0.0919
  C  C851  1  0.155420  0.299600  0.993240  1.0  -0.0304
  C  C852  1  0.072140  0.240900  0.135980  1.0  0.0866
  C  C853  1  0.108410  0.190330  0.145510  1.0  -0.0395
  C  C854  1  0.150900  0.187380  0.105600  1.0  -0.0873
  C  C855  1  0.062100  0.265200  0.169360  1.0  -0.1543
  C  C856  1  0.106060  0.262620  0.172080  1.0  -0.2975
  C  C857  1  0.025620  0.243540  0.133160  1.0  -0.1833
  C  C858  1  0.034120  0.222960  0.098600  1.0  -0.3054
  C  C859  1  0.382700  0.096620  0.536840  1.0  0.6866
  C  C860  1  0.330740  0.111900  0.544740  1.0  -0.1373
  C  C861  1  0.313610  0.083230  0.544070  1.0  -0.0939
  C  C862  1  0.265810  0.099250  0.549230  1.0  -0.0099
  C  C863  1  0.234760  0.143900  0.553900  1.0  -0.0212
  C  C864  1  0.252050  0.171810  0.555890  1.0  -0.0959
  C  C865  1  0.299600  0.155420  0.551740  1.0  -0.0315
  C  C866  1  0.240900  0.072140  0.550980  1.0  0.0874
  C  C867  1  0.190330  0.108410  0.555750  1.0  -0.0399
  C  C868  1  0.187380  0.150900  0.556120  1.0  -0.087
  C  C869  1  0.265200  0.062100  0.503340  1.0  -0.1579
  C  C870  1  0.262620  0.106060  0.459240  1.0  -0.298
  C  C871  1  0.243540  0.025620  0.597680  1.0  -0.1807
  C  C872  1  0.222960  0.034120  0.644320  1.0  -0.3043
  C  C873  1  0.382700  0.983840  0.096620  1.0  0.6841
  C  C874  1  0.330740  0.012620  0.111900  1.0  -0.1346
  C  C875  1  0.313610  0.059090  0.083230  1.0  -0.0948
  C  C876  1  0.265810  0.085710  0.099250  1.0  -0.0093
  C  C877  1  0.234760  0.067440  0.143900  1.0  -0.0212
  C  C878  1  0.252050  0.020250  0.171810  1.0  -0.0915
  C  C879  1  0.299600  0.993240  0.155420  1.0  -0.0325
  C  C880  1  0.240900  0.135980  0.072140  1.0  0.0874
  C  C881  1  0.190330  0.145510  0.108410  1.0  -0.0452
  C  C882  1  0.187380  0.105600  0.150900  1.0  -0.0871
  C  C883  1  0.265200  0.169360  0.062100  1.0  -0.1523
  C  C884  1  0.262620  0.172080  0.106060  1.0  -0.297
  C  C885  1  0.243540  0.133160  0.025620  1.0  -0.1859
  C  C886  1  0.222960  0.098600  0.034120  1.0  -0.3079
  C  C887  1  0.096620  0.536840  0.382700  1.0  0.6888
  C  C888  1  0.111900  0.544740  0.330740  1.0  -0.1322
  C  C889  1  0.083230  0.544070  0.313610  1.0  -0.0952
  C  C890  1  0.099250  0.549230  0.265810  1.0  -0.0105
  C  C891  1  0.143900  0.553900  0.234760  1.0  -0.02
  C  C892  1  0.171810  0.555890  0.252050  1.0  -0.0948
  C  C893  1  0.155420  0.551740  0.299600  1.0  -0.0292
  C  C894  1  0.072140  0.550980  0.240900  1.0  0.0863
  C  C895  1  0.108410  0.555750  0.190330  1.0  -0.045
  C  C896  1  0.150900  0.556120  0.187380  1.0  -0.087
  C  C897  1  0.062100  0.503340  0.265200  1.0  -0.1538
  C  C898  1  0.106060  0.459240  0.262620  1.0  -0.2972
  C  C899  1  0.025620  0.597680  0.243540  1.0  -0.1811
  C  C900  1  0.034120  0.644320  0.222960  1.0  -0.3041
  C  C901  1  0.983840  0.382700  0.536840  1.0  0.6876
  C  C902  1  0.012620  0.330740  0.544740  1.0  -0.1326
  C  C903  1  0.059090  0.313610  0.544070  1.0  -0.097
  C  C904  1  0.085710  0.265810  0.549230  1.0  -0.0089
  C  C905  1  0.067440  0.234760  0.553900  1.0  -0.0207
  C  C906  1  0.020250  0.252050  0.555890  1.0  -0.0934
  C  C907  1  0.993240  0.299600  0.551740  1.0  -0.0306
  C  C908  1  0.135980  0.240900  0.550980  1.0  0.0872
  C  C909  1  0.145510  0.190330  0.555750  1.0  -0.0439
  C  C910  1  0.105600  0.187380  0.556120  1.0  -0.0871
  C  C911  1  0.169360  0.265200  0.503340  1.0  -0.1517
  C  C912  1  0.172080  0.262620  0.459240  1.0  -0.2961
  C  C913  1  0.133160  0.243540  0.597680  1.0  -0.1848
  C  C914  1  0.098600  0.222960  0.644320  1.0  -0.3069
  C  C915  1  0.536840  0.096620  0.983840  1.0  0.6897
  C  C916  1  0.544740  0.111900  0.012620  1.0  -0.1358
  C  C917  1  0.544070  0.083230  0.059090  1.0  -0.0956
  C  C918  1  0.549230  0.099250  0.085710  1.0  -0.0082
  C  C919  1  0.553900  0.143900  0.067440  1.0  -0.021
  C  C920  1  0.555890  0.171810  0.020250  1.0  -0.0934
  C  C921  1  0.551740  0.155420  0.993240  1.0  -0.0317
  C  C922  1  0.550980  0.072140  0.135980  1.0  0.0862
  C  C923  1  0.555750  0.108410  0.145510  1.0  -0.045
  C  C924  1  0.556120  0.150900  0.105600  1.0  -0.0884
  C  C925  1  0.503340  0.062100  0.169360  1.0  -0.1556
  C  C926  1  0.459240  0.106060  0.172080  1.0  -0.2973
  C  C927  1  0.597680  0.025620  0.133160  1.0  -0.1794
  C  C928  1  0.644320  0.034120  0.098600  1.0  -0.3028
  C  C929  1  0.096620  0.983840  0.536840  1.0  0.6882
  C  C930  1  0.111900  0.012620  0.544740  1.0  -0.1361
  C  C931  1  0.083230  0.059090  0.544070  1.0  -0.0962
  C  C932  1  0.099250  0.085710  0.549230  1.0  -0.0093
  C  C933  1  0.143900  0.067440  0.553900  1.0  -0.0218
  C  C934  1  0.171810  0.020250  0.555890  1.0  -0.092
  C  C935  1  0.155420  0.993240  0.551740  1.0  -0.0351
  C  C936  1  0.072140  0.135980  0.550980  1.0  0.0861
  C  C937  1  0.108410  0.145510  0.555750  1.0  -0.0445
  C  C938  1  0.150900  0.105600  0.556120  1.0  -0.0869
  C  C939  1  0.062100  0.169360  0.503340  1.0  -0.1557
  C  C940  1  0.106060  0.172080  0.459240  1.0  -0.2994
  C  C941  1  0.025620  0.133160  0.597680  1.0  -0.1841
  C  C942  1  0.034120  0.098600  0.644320  1.0  -0.3057
  C  C943  1  0.382700  0.536840  0.983840  1.0  0.6862
  C  C944  1  0.330740  0.544740  0.012620  1.0  -0.134
  C  C945  1  0.313610  0.544070  0.059090  1.0  -0.0943
  C  C946  1  0.265810  0.549230  0.085710  1.0  -0.0094
  C  C947  1  0.234760  0.553900  0.067440  1.0  -0.0204
  C  C948  1  0.252050  0.555890  0.020250  1.0  -0.0913
  C  C949  1  0.299600  0.551740  0.993240  1.0  -0.0342
  C  C950  1  0.240900  0.550980  0.135980  1.0  0.0852
  C  C951  1  0.190330  0.555750  0.145510  1.0  -0.0455
  C  C952  1  0.187380  0.556120  0.105600  1.0  -0.0864
  C  C953  1  0.265200  0.503340  0.169360  1.0  -0.1623
  C  C954  1  0.262620  0.459240  0.172080  1.0  -0.2954
  C  C955  1  0.243540  0.597680  0.133160  1.0  -0.1873
  C  C956  1  0.222960  0.644320  0.098600  1.0  -0.3026
  C  C957  1  0.536840  0.382700  0.096620  1.0  0.6893
  C  C958  1  0.544740  0.330740  0.111900  1.0  -0.1342
  C  C959  1  0.544070  0.313610  0.083230  1.0  -0.0985
  C  C960  1  0.549230  0.265810  0.099250  1.0  -0.0082
  C  C961  1  0.553900  0.234760  0.143900  1.0  -0.0201
  C  C962  1  0.555890  0.252050  0.171810  1.0  -0.0919
  C  C963  1  0.551740  0.299600  0.155420  1.0  -0.0332
  C  C964  1  0.550980  0.240900  0.072140  1.0  0.0854
  C  C965  1  0.555750  0.190330  0.108410  1.0  -0.0447
  C  C966  1  0.556120  0.187380  0.150900  1.0  -0.088
  C  C967  1  0.503340  0.265200  0.062100  1.0  -0.1564
  C  C968  1  0.459240  0.262620  0.106060  1.0  -0.2976
  C  C969  1  0.597680  0.243540  0.025620  1.0  -0.1907
  C  C970  1  0.644320  0.222960  0.034120  1.0  -0.303
  C  C971  1  0.983840  0.096620  0.382700  1.0  0.6883
  C  C972  1  0.012620  0.111900  0.330740  1.0  -0.1364
  C  C973  1  0.059090  0.083230  0.313610  1.0  -0.0912
  C  C974  1  0.085710  0.099250  0.265810  1.0  -0.0091
  C  C975  1  0.067440  0.143900  0.234760  1.0  -0.0194
  C  C976  1  0.020250  0.171810  0.252050  1.0  -0.0928
  C  C977  1  0.993240  0.155420  0.299600  1.0  -0.0325
  C  C978  1  0.135980  0.072140  0.240900  1.0  0.0861
  C  C979  1  0.145510  0.108410  0.190330  1.0  -0.0435
  C  C980  1  0.105600  0.150900  0.187380  1.0  -0.0876
  C  C981  1  0.169360  0.062100  0.265200  1.0  -0.1546
  C  C982  1  0.172080  0.106060  0.262620  1.0  -0.2981
  C  C983  1  0.133160  0.025620  0.243540  1.0  -0.1845
  C  C984  1  0.098600  0.034120  0.222960  1.0  -0.3072
  C  C985  1  0.483840  0.036840  0.882700  1.0  0.6857
  C  C986  1  0.512620  0.044740  0.830740  1.0  -0.1335
  C  C987  1  0.559090  0.044070  0.813610  1.0  -0.0941
  C  C988  1  0.585710  0.049230  0.765810  1.0  -0.0083
  C  C989  1  0.567440  0.053900  0.734760  1.0  -0.0209
  C  C990  1  0.520250  0.055890  0.752050  1.0  -0.096
  C  C991  1  0.493240  0.051740  0.799600  1.0  -0.033
  C  C992  1  0.635980  0.050980  0.740900  1.0  0.0874
  C  C993  1  0.645510  0.055750  0.690330  1.0  -0.0423
  C  C994  1  0.605600  0.056120  0.687380  1.0  -0.0872
  C  C995  1  0.669360  0.003340  0.765200  1.0  -0.1566
  C  C996  1  0.672080  0.959240  0.762620  1.0  -0.2953
  C  C997  1  0.633160  0.097680  0.743540  1.0  -0.1882
  C  C998  1  0.598600  0.144320  0.722960  1.0  -0.3037
  C  C999  1  0.036840  0.483840  0.596620  1.0  0.6888
  C  C1000  1  0.044740  0.512620  0.611900  1.0  -0.134
  C  C1001  1  0.044070  0.559090  0.583230  1.0  -0.0989
  C  C1002  1  0.049230  0.585710  0.599250  1.0  -0.0096
  C  C1003  1  0.053900  0.567440  0.643900  1.0  -0.0203
  C  C1004  1  0.055890  0.520250  0.671810  1.0  -0.0965
  C  C1005  1  0.051740  0.493240  0.655420  1.0  -0.0331
  C  C1006  1  0.050980  0.635980  0.572140  1.0  0.0863
  C  C1007  1  0.055750  0.645510  0.608410  1.0  -0.041
  C  C1008  1  0.056120  0.605600  0.650900  1.0  -0.0885
  C  C1009  1  0.003340  0.669360  0.562100  1.0  -0.1557
  C  C1010  1  0.959240  0.672080  0.606060  1.0  -0.2976
  C  C1011  1  0.097680  0.633160  0.525620  1.0  -0.1913
  C  C1012  1  0.144320  0.598600  0.534120  1.0  -0.3065
  C  C1013  1  0.882700  0.596620  0.483840  1.0  0.6855
  C  C1014  1  0.830740  0.611900  0.512620  1.0  -0.136
  C  C1015  1  0.813610  0.583230  0.559090  1.0  -0.0933
  C  C1016  1  0.765810  0.599250  0.585710  1.0  -0.0082
  C  C1017  1  0.734760  0.643900  0.567440  1.0  -0.0207
  C  C1018  1  0.752050  0.671810  0.520250  1.0  -0.0943
  C  C1019  1  0.799600  0.655420  0.493240  1.0  -0.0305
  C  C1020  1  0.740900  0.572140  0.635980  1.0  0.0869
  C  C1021  1  0.690330  0.608410  0.645510  1.0  -0.0401
  C  C1022  1  0.687380  0.650900  0.605600  1.0  -0.0866
  C  C1023  1  0.765200  0.562100  0.669360  1.0  -0.1562
  C  C1024  1  0.762620  0.606060  0.672080  1.0  -0.2968
  C  C1025  1  0.743540  0.525620  0.633160  1.0  -0.1837
  C  C1026  1  0.722960  0.534120  0.598600  1.0  -0.3059
  C  C1027  1  0.596620  0.882700  0.036840  1.0  0.6872
  C  C1028  1  0.611900  0.830740  0.044740  1.0  -0.1351
  C  C1029  1  0.583230  0.813610  0.044070  1.0  -0.0996
  C  C1030  1  0.599250  0.765810  0.049230  1.0  -0.009
  C  C1031  1  0.643900  0.734760  0.053900  1.0  -0.02
  C  C1032  1  0.671810  0.752050  0.055890  1.0  -0.0944
  C  C1033  1  0.655420  0.799600  0.051740  1.0  -0.0334
  C  C1034  1  0.572140  0.740900  0.050980  1.0  0.087
  C  C1035  1  0.608410  0.690330  0.055750  1.0  -0.0395
  C  C1036  1  0.650900  0.687380  0.056120  1.0  -0.0872
  C  C1037  1  0.562100  0.765200  0.003340  1.0  -0.1555
  C  C1038  1  0.606060  0.762620  0.959240  1.0  -0.2973
  C  C1039  1  0.525620  0.743540  0.097680  1.0  -0.1835
  C  C1040  1  0.534120  0.722960  0.144320  1.0  -0.3037
  C  C1041  1  0.483840  0.882700  0.596620  1.0  0.6879
  C  C1042  1  0.512620  0.830740  0.611900  1.0  -0.1327
  C  C1043  1  0.559090  0.813610  0.583230  1.0  -0.0971
  C  C1044  1  0.585710  0.765810  0.599250  1.0  -0.0085
  C  C1045  1  0.567440  0.734760  0.643900  1.0  -0.0201
  C  C1046  1  0.520250  0.752050  0.671810  1.0  -0.0918
  C  C1047  1  0.493240  0.799600  0.655420  1.0  -0.0295
  C  C1048  1  0.635980  0.740900  0.572140  1.0  0.0865
  C  C1049  1  0.645510  0.690330  0.608410  1.0  -0.0437
  C  C1050  1  0.605600  0.687380  0.650900  1.0  -0.0884
  C  C1051  1  0.669360  0.765200  0.562100  1.0  -0.1506
  C  C1052  1  0.672080  0.762620  0.606060  1.0  -0.2975
  C  C1053  1  0.633160  0.743540  0.525620  1.0  -0.1871
  C  C1054  1  0.598600  0.722960  0.534120  1.0  -0.3078
  C  C1055  1  0.036840  0.596620  0.882700  1.0  0.6901
  C  C1056  1  0.044740  0.611900  0.830740  1.0  -0.1369
  C  C1057  1  0.044070  0.583230  0.813610  1.0  -0.0958
  C  C1058  1  0.049230  0.599250  0.765810  1.0  -0.0096
  C  C1059  1  0.053900  0.643900  0.734760  1.0  -0.0215
  C  C1060  1  0.055890  0.671810  0.752050  1.0  -0.0935
  C  C1061  1  0.051740  0.655420  0.799600  1.0  -0.0309
  C  C1062  1  0.050980  0.572140  0.740900  1.0  0.0862
  C  C1063  1  0.055750  0.608410  0.690330  1.0  -0.0449
  C  C1064  1  0.056120  0.650900  0.687380  1.0  -0.0882
  C  C1065  1  0.003340  0.562100  0.765200  1.0  -0.1555
  C  C1066  1  0.959240  0.606060  0.762620  1.0  -0.2979
  C  C1067  1  0.097680  0.525620  0.743540  1.0  -0.1787
  C  C1068  1  0.144320  0.534120  0.722960  1.0  -0.3026
  C  C1069  1  0.882700  0.483840  0.036840  1.0  0.6847
  C  C1070  1  0.830740  0.512620  0.044740  1.0  -0.1341
  C  C1071  1  0.813610  0.559090  0.044070  1.0  -0.0944
  C  C1072  1  0.765810  0.585710  0.049230  1.0  -0.0092
  C  C1073  1  0.734760  0.567440  0.053900  1.0  -0.0217
  C  C1074  1  0.752050  0.520250  0.055890  1.0  -0.0912
  C  C1075  1  0.799600  0.493240  0.051740  1.0  -0.0319
  C  C1076  1  0.740900  0.635980  0.050980  1.0  0.0882
  C  C1077  1  0.690330  0.645510  0.055750  1.0  -0.0453
  C  C1078  1  0.687380  0.605600  0.056120  1.0  -0.0861
  C  C1079  1  0.765200  0.669360  0.003340  1.0  -0.1535
  C  C1080  1  0.762620  0.672080  0.959240  1.0  -0.2961
  C  C1081  1  0.743540  0.633160  0.097680  1.0  -0.1825
  C  C1082  1  0.722960  0.598600  0.144320  1.0  -0.3071
  C  C1083  1  0.596620  0.036840  0.483840  1.0  0.6896
  C  C1084  1  0.611900  0.044740  0.512620  1.0  -0.1326
  C  C1085  1  0.583230  0.044070  0.559090  1.0  -0.0939
  C  C1086  1  0.599250  0.049230  0.585710  1.0  -0.0088
  C  C1087  1  0.643900  0.053900  0.567440  1.0  -0.0196
  C  C1088  1  0.671810  0.055890  0.520250  1.0  -0.0916
  C  C1089  1  0.655420  0.051740  0.493240  1.0  -0.0298
  C  C1090  1  0.572140  0.050980  0.635980  1.0  0.086
  C  C1091  1  0.608410  0.055750  0.645510  1.0  -0.0451
  C  C1092  1  0.650900  0.056120  0.605600  1.0  -0.0872
  C  C1093  1  0.562100  0.003340  0.669360  1.0  -0.1539
  C  C1094  1  0.606060  0.959240  0.672080  1.0  -0.2966
  C  C1095  1  0.525620  0.097680  0.633160  1.0  -0.1814
  C  C1096  1  0.534120  0.144320  0.598600  1.0  -0.3038
  C  C1097  1  0.483840  0.596620  0.036840  1.0  0.6879
  C  C1098  1  0.512620  0.611900  0.044740  1.0  -0.1369
  C  C1099  1  0.559090  0.583230  0.044070  1.0  -0.0904
  C  C1100  1  0.585710  0.599250  0.049230  1.0  -0.0088
  C  C1101  1  0.567440  0.643900  0.053900  1.0  -0.0193
  C  C1102  1  0.520250  0.671810  0.055890  1.0  -0.0929
  C  C1103  1  0.493240  0.655420  0.051740  1.0  -0.0325
  C  C1104  1  0.635980  0.572140  0.050980  1.0  0.0862
  C  C1105  1  0.645510  0.608410  0.055750  1.0  -0.044
  C  C1106  1  0.605600  0.650900  0.056120  1.0  -0.0884
  C  C1107  1  0.669360  0.562100  0.003340  1.0  -0.1556
  C  C1108  1  0.672080  0.606060  0.959240  1.0  -0.2985
  C  C1109  1  0.633160  0.525620  0.097680  1.0  -0.1823
  C  C1110  1  0.598600  0.534120  0.144320  1.0  -0.3059
  C  C1111  1  0.036840  0.882700  0.483840  1.0  0.6889
  C  C1112  1  0.044740  0.830740  0.512620  1.0  -0.134
  C  C1113  1  0.044070  0.813610  0.559090  1.0  -0.0979
  C  C1114  1  0.049230  0.765810  0.585710  1.0  -0.0092
  C  C1115  1  0.053900  0.734760  0.567440  1.0  -0.0195
  C  C1116  1  0.055890  0.752050  0.520250  1.0  -0.0909
  C  C1117  1  0.051740  0.799600  0.493240  1.0  -0.0327
  C  C1118  1  0.050980  0.740900  0.635980  1.0  0.0857
  C  C1119  1  0.055750  0.690330  0.645510  1.0  -0.0446
  C  C1120  1  0.056120  0.687380  0.605600  1.0  -0.0886
  C  C1121  1  0.003340  0.765200  0.669360  1.0  -0.1591
  C  C1122  1  0.959240  0.762620  0.672080  1.0  -0.2974
  C  C1123  1  0.097680  0.743540  0.633160  1.0  -0.1887
  C  C1124  1  0.144320  0.722960  0.598600  1.0  -0.3038
  C  C1125  1  0.882700  0.036840  0.596620  1.0  0.6866
  C  C1126  1  0.830740  0.044740  0.611900  1.0  -0.1343
  C  C1127  1  0.813610  0.044070  0.583230  1.0  -0.0949
  C  C1128  1  0.765810  0.049230  0.599250  1.0  -0.0087
  C  C1129  1  0.734760  0.053900  0.643900  1.0  -0.0212
  C  C1130  1  0.752050  0.055890  0.671810  1.0  -0.0925
  C  C1131  1  0.799600  0.051740  0.655420  1.0  -0.0343
  C  C1132  1  0.740900  0.050980  0.572140  1.0  0.0849
  C  C1133  1  0.690330  0.055750  0.608410  1.0  -0.0459
  C  C1134  1  0.687380  0.056120  0.650900  1.0  -0.0856
  C  C1135  1  0.765200  0.003340  0.562100  1.0  -0.1604
  C  C1136  1  0.762620  0.959240  0.606060  1.0  -0.2943
  C  C1137  1  0.743540  0.097680  0.525620  1.0  -0.1873
  C  C1138  1  0.722960  0.144320  0.534120  1.0  -0.3023
  C  C1139  1  0.596620  0.483840  0.882700  1.0  0.6886
  C  C1140  1  0.611900  0.512620  0.830740  1.0  -0.1363
  C  C1141  1  0.583230  0.559090  0.813610  1.0  -0.0962
  C  C1142  1  0.599250  0.585710  0.765810  1.0  -0.0094
  C  C1143  1  0.643900  0.567440  0.734760  1.0  -0.0217
  C  C1144  1  0.671810  0.520250  0.752050  1.0  -0.0922
  C  C1145  1  0.655420  0.493240  0.799600  1.0  -0.036
  C  C1146  1  0.572140  0.635980  0.740900  1.0  0.0862
  C  C1147  1  0.608410  0.645510  0.690330  1.0  -0.044
  C  C1148  1  0.650900  0.605600  0.687380  1.0  -0.0867
  C  C1149  1  0.562100  0.669360  0.765200  1.0  -0.1549
  C  C1150  1  0.606060  0.672080  0.762620  1.0  -0.2991
  C  C1151  1  0.525620  0.633160  0.743540  1.0  -0.1838
  C  C1152  1  0.534120  0.598600  0.722960  1.0  -0.3069
  C  C1153  1  0.463160  0.016160  0.617300  1.0  0.6884
  C  C1154  1  0.455260  0.987380  0.669260  1.0  -0.1333
  C  C1155  1  0.455930  0.940910  0.686390  1.0  -0.0982
  C  C1156  1  0.450770  0.914290  0.734190  1.0  -0.0083
  C  C1157  1  0.446100  0.932560  0.765240  1.0  -0.0208
  C  C1158  1  0.444110  0.979750  0.747950  1.0  -0.0978
  C  C1159  1  0.448260  0.006760  0.700400  1.0  -0.0325
  C  C1160  1  0.449020  0.864020  0.759100  1.0  0.0857
  C  C1161  1  0.444250  0.854490  0.809670  1.0  -0.0406
  C  C1162  1  0.443880  0.894400  0.812620  1.0  -0.0875
  C  C1163  1  0.496660  0.830640  0.734800  1.0  -0.1554
  C  C1164  1  0.540760  0.827920  0.737380  1.0  -0.2963
  C  C1165  1  0.402320  0.866840  0.756460  1.0  -0.1894
  C  C1166  1  0.355680  0.901400  0.777040  1.0  -0.3072
  C  C1167  1  0.016160  0.463160  0.903380  1.0  0.6878
  C  C1168  1  0.987380  0.455260  0.888100  1.0  -0.1345
  C  C1169  1  0.940910  0.455930  0.916770  1.0  -0.0941
  C  C1170  1  0.914290  0.450770  0.900750  1.0  -0.0085
  C  C1171  1  0.932560  0.446100  0.856100  1.0  -0.0203
  C  C1172  1  0.979750  0.444110  0.828190  1.0  -0.0936
  C  C1173  1  0.006760  0.448260  0.844580  1.0  -0.0353
  C  C1174  1  0.864020  0.449020  0.927860  1.0  0.0874
  C  C1175  1  0.854490  0.444250  0.891590  1.0  -0.0417
  C  C1176  1  0.894400  0.443880  0.849100  1.0  -0.0877
  C  C1177  1  0.830640  0.496660  0.937900  1.0  -0.1574
  C  C1178  1  0.827920  0.540760  0.893940  1.0  -0.2933
  C  C1179  1  0.866840  0.402320  0.974380  1.0  -0.1862
  C  C1180  1  0.901400  0.355680  0.965880  1.0  -0.3025
  C  C1181  1  0.903380  0.617300  0.016160  1.0  0.6888
  C  C1182  1  0.888100  0.669260  0.987380  1.0  -0.1343
  C  C1183  1  0.916770  0.686390  0.940910  1.0  -0.1002
  C  C1184  1  0.900750  0.734190  0.914290  1.0  -0.0089
  C  C1185  1  0.856100  0.765240  0.932560  1.0  -0.0201
  C  C1186  1  0.828190  0.747950  0.979750  1.0  -0.0928
  C  C1187  1  0.844580  0.700400  0.006760  1.0  -0.0302
  C  C1188  1  0.927860  0.759100  0.864020  1.0  0.0877
  C  C1189  1  0.891590  0.809670  0.854490  1.0  -0.0384
  C  C1190  1  0.849100  0.812620  0.894400  1.0  -0.0867
  C  C1191  1  0.937900  0.734800  0.830640  1.0  -0.1562
  C  C1192  1  0.893940  0.737380  0.827920  1.0  -0.2993
  C  C1193  1  0.974380  0.756460  0.866840  1.0  -0.182
  C  C1194  1  0.965880  0.777040  0.901400  1.0  -0.3048
  C  C1195  1  0.617300  0.903380  0.463160  1.0  0.6841
  C  C1196  1  0.669260  0.888100  0.455260  1.0  -0.1353
  C  C1197  1  0.686390  0.916770  0.455930  1.0  -0.0941
  C  C1198  1  0.734190  0.900750  0.450770  1.0  -0.0082
  C  C1199  1  0.765240  0.856100  0.446100  1.0  -0.0212
  C  C1200  1  0.747950  0.828190  0.444110  1.0  -0.0936
  C  C1201  1  0.700400  0.844580  0.448260  1.0  -0.0287
  C  C1202  1  0.759100  0.927860  0.449020  1.0  0.0861
  C  C1203  1  0.809670  0.891590  0.444250  1.0  -0.0397
  C  C1204  1  0.812620  0.849100  0.443880  1.0  -0.0869
  C  C1205  1  0.734800  0.937900  0.496660  1.0  -0.1564
  C  C1206  1  0.737380  0.893940  0.540760  1.0  -0.2987
  C  C1207  1  0.756460  0.974380  0.402320  1.0  -0.183
  C  C1208  1  0.777040  0.965880  0.355680  1.0  -0.3046
  C  C1209  1  0.617300  0.016160  0.903380  1.0  0.6833
  C  C1210  1  0.669260  0.987380  0.888100  1.0  -0.1331
  C  C1211  1  0.686390  0.940910  0.916770  1.0  -0.0952
  C  C1212  1  0.734190  0.914290  0.900750  1.0  -0.0074
  C  C1213  1  0.765240  0.932560  0.856100  1.0  -0.0206
  C  C1214  1  0.747950  0.979750  0.828190  1.0  -0.0948
  C  C1215  1  0.700400  0.006760  0.844580  1.0  -0.0321
  C  C1216  1  0.759100  0.864020  0.927860  1.0  0.0879
  C  C1217  1  0.809670  0.854490  0.891590  1.0  -0.0439
  C  C1218  1  0.812620  0.894400  0.849100  1.0  -0.086
  C  C1219  1  0.734800  0.830640  0.937900  1.0  -0.1544
  C  C1220  1  0.737380  0.827920  0.893940  1.0  -0.296
  C  C1221  1  0.756460  0.866840  0.974380  1.0  -0.1853
  C  C1222  1  0.777040  0.901400  0.965880  1.0  -0.3068
  C  C1223  1  0.903380  0.463160  0.617300  1.0  0.6891
  C  C1224  1  0.888100  0.455260  0.669260  1.0  -0.1334
  C  C1225  1  0.916770  0.455930  0.686390  1.0  -0.0953
  C  C1226  1  0.900750  0.450770  0.734190  1.0  -0.0106
  C  C1227  1  0.856100  0.446100  0.765240  1.0  -0.0209
  C  C1228  1  0.828190  0.444110  0.747950  1.0  -0.0912
  C  C1229  1  0.844580  0.448260  0.700400  1.0  -0.0302
  C  C1230  1  0.927860  0.449020  0.759100  1.0  0.0865
  C  C1231  1  0.891590  0.444250  0.809670  1.0  -0.0463
  C  C1232  1  0.849100  0.443880  0.812620  1.0  -0.0891
  C  C1233  1  0.937900  0.496660  0.734800  1.0  -0.1521
  C  C1234  1  0.893940  0.540760  0.737380  1.0  -0.2922
  C  C1235  1  0.974380  0.402320  0.756460  1.0  -0.1798
  C  C1236  1  0.965880  0.355680  0.777040  1.0  -0.3035
  C  C1237  1  0.016160  0.617300  0.463160  1.0  0.6886
  C  C1238  1  0.987380  0.669260  0.455260  1.0  -0.1345
  C  C1239  1  0.940910  0.686390  0.455930  1.0  -0.1003
  C  C1240  1  0.914290  0.734190  0.450770  1.0  -0.0094
  C  C1241  1  0.932560  0.765240  0.446100  1.0  -0.0204
  C  C1242  1  0.979750  0.747950  0.444110  1.0  -0.0908
  C  C1243  1  0.006760  0.700400  0.448260  1.0  -0.0284
  C  C1244  1  0.864020  0.759100  0.449020  1.0  0.087
  C  C1245  1  0.854490  0.809670  0.444250  1.0  -0.0431
  C  C1246  1  0.894400  0.812620  0.443880  1.0  -0.0872
  C  C1247  1  0.830640  0.734800  0.496660  1.0  -0.1531
  C  C1248  1  0.827920  0.737380  0.540760  1.0  -0.2983
  C  C1249  1  0.866840  0.756460  0.402320  1.0  -0.1875
  C  C1250  1  0.901400  0.777040  0.355680  1.0  -0.3065
  C  C1251  1  0.463160  0.903380  0.016160  1.0  0.6881
  C  C1252  1  0.455260  0.888100  0.987380  1.0  -0.1353
  C  C1253  1  0.455930  0.916770  0.940910  1.0  -0.0954
  C  C1254  1  0.450770  0.900750  0.914290  1.0  -0.0103
  C  C1255  1  0.446100  0.856100  0.932560  1.0  -0.021
  C  C1256  1  0.444110  0.828190  0.979750  1.0  -0.0929
  C  C1257  1  0.448260  0.844580  0.006760  1.0  -0.0315
  C  C1258  1  0.449020  0.927860  0.864020  1.0  0.0853
  C  C1259  1  0.444250  0.891590  0.854490  1.0  -0.0449
  C  C1260  1  0.443880  0.849100  0.894400  1.0  -0.0885
  C  C1261  1  0.496660  0.937900  0.830640  1.0  -0.1538
  C  C1262  1  0.540760  0.893940  0.827920  1.0  -0.3009
  C  C1263  1  0.402320  0.974380  0.866840  1.0  -0.1819
  C  C1264  1  0.355680  0.965880  0.901400  1.0  -0.3042
  C  C1265  1  0.903380  0.016160  0.463160  1.0  0.6892
  C  C1266  1  0.888100  0.987380  0.455260  1.0  -0.1353
  C  C1267  1  0.916770  0.940910  0.455930  1.0  -0.0957
  C  C1268  1  0.900750  0.914290  0.450770  1.0  -0.0078
  C  C1269  1  0.856100  0.932560  0.446100  1.0  -0.0197
  C  C1270  1  0.828190  0.979750  0.444110  1.0  -0.0926
  C  C1271  1  0.844580  0.006760  0.448260  1.0  -0.0345
  C  C1272  1  0.927860  0.864020  0.449020  1.0  0.0859
  C  C1273  1  0.891590  0.854490  0.444250  1.0  -0.0426
  C  C1274  1  0.849100  0.894400  0.443880  1.0  -0.0867
  C  C1275  1  0.937900  0.830640  0.496660  1.0  -0.1551
  C  C1276  1  0.893940  0.827920  0.540760  1.0  -0.2993
  C  C1277  1  0.974380  0.866840  0.402320  1.0  -0.1829
  C  C1278  1  0.965880  0.901400  0.355680  1.0  -0.3073
  C  C1279  1  0.617300  0.463160  0.016160  1.0  0.6854
  C  C1280  1  0.669260  0.455260  0.987380  1.0  -0.1354
  C  C1281  1  0.686390  0.455930  0.940910  1.0  -0.0934
  C  C1282  1  0.734190  0.450770  0.914290  1.0  -0.0082
  C  C1283  1  0.765240  0.446100  0.932560  1.0  -0.0229
  C  C1284  1  0.747950  0.444110  0.979750  1.0  -0.0919
  C  C1285  1  0.700400  0.448260  0.006760  1.0  -0.0347
  C  C1286  1  0.759100  0.449020  0.864020  1.0  0.0851
  C  C1287  1  0.809670  0.444250  0.854490  1.0  -0.045
  C  C1288  1  0.812620  0.443880  0.894400  1.0  -0.0865
  C  C1289  1  0.734800  0.496660  0.830640  1.0  -0.1593
  C  C1290  1  0.737380  0.540760  0.827920  1.0  -0.293
  C  C1291  1  0.756460  0.402320  0.866840  1.0  -0.1848
  C  C1292  1  0.777040  0.355680  0.901400  1.0  -0.3023
  C  C1293  1  0.463160  0.617300  0.903380  1.0  0.6888
  C  C1294  1  0.455260  0.669260  0.888100  1.0  -0.1347
  C  C1295  1  0.455930  0.686390  0.916770  1.0  -0.0988
  C  C1296  1  0.450770  0.734190  0.900750  1.0  -0.01
  C  C1297  1  0.446100  0.765240  0.856100  1.0  -0.0198
  C  C1298  1  0.444110  0.747950  0.828190  1.0  -0.0922
  C  C1299  1  0.448260  0.700400  0.844580  1.0  -0.0314
  C  C1300  1  0.449020  0.759100  0.927860  1.0  0.085
  C  C1301  1  0.444250  0.809670  0.891590  1.0  -0.0434
  C  C1302  1  0.443880  0.812620  0.849100  1.0  -0.0886
  C  C1303  1  0.496660  0.734800  0.937900  1.0  -0.1604
  C  C1304  1  0.540760  0.737380  0.893940  1.0  -0.2981
  C  C1305  1  0.402320  0.756460  0.974380  1.0  -0.1891
  C  C1306  1  0.355680  0.777040  0.965880  1.0  -0.3049
  C  C1307  1  0.016160  0.903380  0.617300  1.0  0.6882
  C  C1308  1  0.987380  0.888100  0.669260  1.0  -0.1344
  C  C1309  1  0.940910  0.916770  0.686390  1.0  -0.0942
  C  C1310  1  0.914290  0.900750  0.734190  1.0  -0.0097
  C  C1311  1  0.932560  0.856100  0.765240  1.0  -0.0193
  C  C1312  1  0.979750  0.828190  0.747950  1.0  -0.0919
  C  C1313  1  0.006760  0.844580  0.700400  1.0  -0.0324
  C  C1314  1  0.864020  0.927860  0.759100  1.0  0.0859
  C  C1315  1  0.854490  0.891590  0.809670  1.0  -0.0438
  C  C1316  1  0.894400  0.849100  0.812620  1.0  -0.0877
  C  C1317  1  0.830640  0.937900  0.734800  1.0  -0.1553
  C  C1318  1  0.827920  0.893940  0.737380  1.0  -0.2993
  C  C1319  1  0.866840  0.974380  0.756460  1.0  -0.1847
  C  C1320  1  0.901400  0.965880  0.777040  1.0  -0.3063
  O  O1321  1  0.557170  0.965070  0.102070  1.0  -0.5982
  O  O1322  1  0.498250  0.969710  0.088870  1.0  -0.6857
  O  O1323  1  0.965070  0.557170  0.375690  1.0  -0.6012
  O  O1324  1  0.969710  0.498250  0.443170  1.0  -0.6842
  O  O1325  1  0.102070  0.375690  0.557170  1.0  -0.601
  O  O1326  1  0.088870  0.443170  0.498250  1.0  -0.6821
  O  O1327  1  0.375690  0.102070  0.965070  1.0  -0.6024
  O  O1328  1  0.443170  0.088870  0.969710  1.0  -0.6846
  O  O1329  1  0.557170  0.102070  0.375690  1.0  -0.5986
  O  O1330  1  0.498250  0.088870  0.443170  1.0  -0.6835
  O  O1331  1  0.965070  0.375690  0.102070  1.0  -0.5983
  O  O1332  1  0.969710  0.443170  0.088870  1.0  -0.6815
  O  O1333  1  0.102070  0.557170  0.965070  1.0  -0.5969
  O  O1334  1  0.088870  0.498250  0.969710  1.0  -0.6834
  O  O1335  1  0.375690  0.965070  0.557170  1.0  -0.5974
  O  O1336  1  0.443170  0.969710  0.498250  1.0  -0.6845
  O  O1337  1  0.557170  0.375690  0.965070  1.0  -0.5967
  O  O1338  1  0.498250  0.443170  0.969710  1.0  -0.6853
  O  O1339  1  0.965070  0.102070  0.557170  1.0  -0.5979
  O  O1340  1  0.969710  0.088870  0.498250  1.0  -0.6867
  O  O1341  1  0.102070  0.965070  0.375690  1.0  -0.5952
  O  O1342  1  0.088870  0.969710  0.443170  1.0  -0.6856
  O  O1343  1  0.375690  0.557170  0.102070  1.0  -0.5988
  O  O1344  1  0.443170  0.498250  0.088870  1.0  -0.685
  O  O1345  1  0.534930  0.942830  0.397930  1.0  -0.6041
  O  O1346  1  0.530290  0.001750  0.411130  1.0  -0.6848
  O  O1347  1  0.942830  0.534930  0.124310  1.0  -0.6016
  O  O1348  1  0.001750  0.530290  0.056830  1.0  -0.6862
  O  O1349  1  0.124310  0.397930  0.942830  1.0  -0.6046
  O  O1350  1  0.056830  0.411130  0.001750  1.0  -0.685
  O  O1351  1  0.397930  0.124310  0.534930  1.0  -0.6031
  O  O1352  1  0.411130  0.056830  0.530290  1.0  -0.6842
  O  O1353  1  0.397930  0.942830  0.124310  1.0  -0.6002
  O  O1354  1  0.411130  0.001750  0.056830  1.0  -0.6831
  O  O1355  1  0.124310  0.534930  0.397930  1.0  -0.6016
  O  O1356  1  0.056830  0.530290  0.411130  1.0  -0.685
  O  O1357  1  0.942830  0.397930  0.534930  1.0  -0.5996
  O  O1358  1  0.001750  0.411130  0.530290  1.0  -0.683
  O  O1359  1  0.534930  0.124310  0.942830  1.0  -0.6024
  O  O1360  1  0.530290  0.056830  0.001750  1.0  -0.6827
  O  O1361  1  0.124310  0.942830  0.534930  1.0  -0.602
  O  O1362  1  0.056830  0.001750  0.530290  1.0  -0.6844
  O  O1363  1  0.397930  0.534930  0.942830  1.0  -0.5986
  O  O1364  1  0.411130  0.530290  0.001750  1.0  -0.6858
  O  O1365  1  0.534930  0.397930  0.124310  1.0  -0.6018
  O  O1366  1  0.530290  0.411130  0.056830  1.0  -0.6849
  O  O1367  1  0.942830  0.124310  0.397930  1.0  -0.5986
  O  O1368  1  0.001750  0.056830  0.411130  1.0  -0.6852
  O  O1369  1  0.442830  0.034930  0.897930  1.0  -0.599
  O  O1370  1  0.501750  0.030290  0.911130  1.0  -0.6861
  O  O1371  1  0.034930  0.442830  0.624310  1.0  -0.6025
  O  O1372  1  0.030290  0.501750  0.556830  1.0  -0.684
  O  O1373  1  0.897930  0.624310  0.442830  1.0  -0.6006
  O  O1374  1  0.911130  0.556830  0.501750  1.0  -0.6847
  O  O1375  1  0.624310  0.897930  0.034930  1.0  -0.6008
  O  O1376  1  0.556830  0.911130  0.030290  1.0  -0.683
  O  O1377  1  0.442830  0.897930  0.624310  1.0  -0.5971
  O  O1378  1  0.501750  0.911130  0.556830  1.0  -0.6825
  O  O1379  1  0.034930  0.624310  0.897930  1.0  -0.6006
  O  O1380  1  0.030290  0.556830  0.911130  1.0  -0.6825
  O  O1381  1  0.897930  0.442830  0.034930  1.0  -0.5981
  O  O1382  1  0.911130  0.501750  0.030290  1.0  -0.6831
  O  O1383  1  0.624310  0.034930  0.442830  1.0  -0.5978
  O  O1384  1  0.556830  0.030290  0.501750  1.0  -0.6851
  O  O1385  1  0.442830  0.624310  0.034930  1.0  -0.5956
  O  O1386  1  0.501750  0.556830  0.030290  1.0  -0.6859
  O  O1387  1  0.034930  0.897930  0.442830  1.0  -0.5977
  O  O1388  1  0.030290  0.911130  0.501750  1.0  -0.6863
  O  O1389  1  0.897930  0.034930  0.624310  1.0  -0.5977
  O  O1390  1  0.911130  0.030290  0.556830  1.0  -0.686
  O  O1391  1  0.624310  0.442830  0.897930  1.0  -0.5997
  O  O1392  1  0.556830  0.501750  0.911130  1.0  -0.6846
  O  O1393  1  0.465070  0.057170  0.602070  1.0  -0.6042
  O  O1394  1  0.469710  0.998250  0.588870  1.0  -0.6845
  O  O1395  1  0.057170  0.465070  0.875690  1.0  -0.6005
  O  O1396  1  0.998250  0.469710  0.943170  1.0  -0.6862
  O  O1397  1  0.875690  0.602070  0.057170  1.0  -0.6044
  O  O1398  1  0.943170  0.588870  0.998250  1.0  -0.6839
  O  O1399  1  0.602070  0.875690  0.465070  1.0  -0.6044
  O  O1400  1  0.588870  0.943170  0.469710  1.0  -0.6842
  O  O1401  1  0.602070  0.057170  0.875690  1.0  -0.6002
  O  O1402  1  0.588870  0.998250  0.943170  1.0  -0.684
  O  O1403  1  0.875690  0.465070  0.602070  1.0  -0.5994
  O  O1404  1  0.943170  0.469710  0.588870  1.0  -0.6847
  O  O1405  1  0.057170  0.602070  0.465070  1.0  -0.6007
  O  O1406  1  0.998250  0.588870  0.469710  1.0  -0.6833
  O  O1407  1  0.465070  0.875690  0.057170  1.0  -0.6015
  O  O1408  1  0.469710  0.943170  0.998250  1.0  -0.6818
  O  O1409  1  0.875690  0.057170  0.465070  1.0  -0.6011
  O  O1410  1  0.943170  0.998250  0.469710  1.0  -0.6845
  O  O1411  1  0.602070  0.465070  0.057170  1.0  -0.5994
  O  O1412  1  0.588870  0.469710  0.998250  1.0  -0.6852
  O  O1413  1  0.465070  0.602070  0.875690  1.0  -0.5998
  O  O1414  1  0.469710  0.588870  0.943170  1.0  -0.6867
  O  O1415  1  0.057170  0.875690  0.602070  1.0  -0.5996
  O  O1416  1  0.998250  0.943170  0.588870  1.0  -0.6838
  O  O1417  1  0.639150  0.995690  0.004310  1.0  -0.2505
  O  O1418  1  0.995690  0.639150  0.360850  1.0  -0.2518
  O  O1419  1  0.004310  0.360850  0.639150  1.0  -0.2523
  O  O1420  1  0.360850  0.004310  0.995690  1.0  -0.2525
  O  O1421  1  0.639150  0.004310  0.360850  1.0  -0.2507
  O  O1422  1  0.995690  0.360850  0.004310  1.0  -0.2525
  O  O1423  1  0.004310  0.639150  0.995690  1.0  -0.2529
  O  O1424  1  0.360850  0.995690  0.639150  1.0  -0.2523
  O  O1425  1  0.639150  0.360850  0.995690  1.0  -0.2525
  O  O1426  1  0.995690  0.004310  0.639150  1.0  -0.2543
  O  O1427  1  0.004310  0.995690  0.360850  1.0  -0.2545
  O  O1428  1  0.360850  0.639150  0.004310  1.0  -0.2516
  O  O1429  1  0.504310  0.860850  0.495690  1.0  -0.2528
  O  O1430  1  0.860850  0.504310  0.139150  1.0  -0.252
  O  O1431  1  0.139150  0.495690  0.860850  1.0  -0.2501
  O  O1432  1  0.495690  0.139150  0.504310  1.0  -0.2517
  O  O1433  1  0.495690  0.860850  0.139150  1.0  -0.2531
  O  O1434  1  0.139150  0.504310  0.495690  1.0  -0.2516
  O  O1435  1  0.860850  0.495690  0.504310  1.0  -0.2516
  O  O1436  1  0.504310  0.139150  0.860850  1.0  -0.2517
  O  O1437  1  0.139150  0.860850  0.504310  1.0  -0.2525
  O  O1438  1  0.495690  0.504310  0.860850  1.0  -0.2551
  O  O1439  1  0.504310  0.495690  0.139150  1.0  -0.2538
  O  O1440  1  0.860850  0.139150  0.495690  1.0  -0.2515
