# generated using pymatgen
data_CdH26C29O5
_symmetry_space_group_name_H-M   'P 1'
_cell_length_a   34.17090000
_cell_length_b   34.17090000
_cell_length_c   34.17090000
_cell_angle_alpha   60.00000000
_cell_angle_beta   60.00000000
_cell_angle_gamma   60.00000000
_symmetry_Int_Tables_number   1
_chemical_formula_structural   CdH26C29O5
_chemical_formula_sum   'Cd24 H624 C696 O120'
_cell_volume   28213.32389085
_cell_formula_units_Z   24
loop_
 _symmetry_equiv_pos_site_id
 _symmetry_equiv_pos_as_xyz
  1  'x, y, z'
loop_
 _atom_site_type_symbol
 _atom_site_label
 _atom_site_symmetry_multiplicity
 _atom_site_fract_x
 _atom_site_fract_y
 _atom_site_fract_z
 _atom_site_occupancy
 _atom_site_charge
  Cd  Cd1  1  0.575060  0.978040  0.021960  1.0  1.0404
  Cd  Cd2  1  0.978040  0.575060  0.424940  1.0  1.0399
  Cd  Cd3  1  0.021960  0.424940  0.575060  1.0  1.0407
  Cd  Cd4  1  0.424940  0.021960  0.978040  1.0  1.0405
  Cd  Cd5  1  0.575060  0.021960  0.424940  1.0  1.0404
  Cd  Cd6  1  0.978040  0.424940  0.021960  1.0  1.04
  Cd  Cd7  1  0.021960  0.575060  0.978040  1.0  1.0402
  Cd  Cd8  1  0.424940  0.978040  0.575060  1.0  1.0404
  Cd  Cd9  1  0.575060  0.424940  0.978040  1.0  1.0409
  Cd  Cd10  1  0.978040  0.021960  0.575060  1.0  1.0401
  Cd  Cd11  1  0.021960  0.978040  0.424940  1.0  1.0408
  Cd  Cd12  1  0.424940  0.575060  0.021960  1.0  1.0404
  Cd  Cd13  1  0.521960  0.924940  0.478040  1.0  1.0409
  Cd  Cd14  1  0.924940  0.521960  0.075060  1.0  1.0403
  Cd  Cd15  1  0.075060  0.478040  0.924940  1.0  1.0407
  Cd  Cd16  1  0.478040  0.075060  0.521960  1.0  1.0397
  Cd  Cd17  1  0.478040  0.924940  0.075060  1.0  1.0401
  Cd  Cd18  1  0.075060  0.521960  0.478040  1.0  1.0406
  Cd  Cd19  1  0.924940  0.478040  0.521960  1.0  1.0402
  Cd  Cd20  1  0.521960  0.075060  0.924940  1.0  1.0401
  Cd  Cd21  1  0.075060  0.924940  0.521960  1.0  1.0406
  Cd  Cd22  1  0.478040  0.521960  0.924940  1.0  1.0403
  Cd  Cd23  1  0.521960  0.478040  0.075060  1.0  1.0407
  Cd  Cd24  1  0.924940  0.075060  0.478040  1.0  1.0407
  H  H25  1  0.541000  0.053200  0.071400  1.0  0.1349
  H  H26  1  0.559200  0.203200  0.006000  1.0  0.1311
  H  H27  1  0.552600  0.175800  0.960400  1.0  0.1167
  H  H28  1  0.595200  0.006800  0.167600  1.0  0.1189
  H  H29  1  0.592700  0.007500  0.121900  1.0  0.1181
  H  H30  1  0.647400  0.049400  0.070000  1.0  0.1395
  H  H31  1  0.670300  0.003900  0.108900  1.0  0.14
  H  H32  1  0.646500  0.055900  0.113700  1.0  0.1391
  H  H33  1  0.498500  0.043500  0.157500  1.0  0.1026
  H  H34  1  0.503000  0.044400  0.201400  1.0  0.1066
  H  H35  1  0.458800  0.126600  0.183600  1.0  0.1337
  H  H36  1  0.428600  0.099200  0.189400  1.0  0.1426
  H  H37  1  0.456700  0.128100  0.137100  1.0  0.135
  H  H38  1  0.053200  0.541000  0.334400  1.0  0.1354
  H  H39  1  0.203200  0.559200  0.231600  1.0  0.1304
  H  H40  1  0.175800  0.552600  0.311200  1.0  0.1206
  H  H41  1  0.006800  0.595200  0.230400  1.0  0.1176
  H  H42  1  0.007500  0.592700  0.277900  1.0  0.118
  H  H43  1  0.049400  0.647400  0.233200  1.0  0.1385
  H  H44  1  0.003900  0.670300  0.216900  1.0  0.1368
  H  H45  1  0.055900  0.646500  0.183900  1.0  0.1381
  H  H46  1  0.043500  0.498500  0.300500  1.0  0.1021
  H  H47  1  0.044400  0.503000  0.251200  1.0  0.1069
  H  H48  1  0.126600  0.458800  0.231000  1.0  0.1318
  H  H49  1  0.099200  0.428600  0.282800  1.0  0.1391
  H  H50  1  0.128100  0.456700  0.278100  1.0  0.1363
  H  H51  1  0.071400  0.334400  0.541000  1.0  0.1346
  H  H52  1  0.006000  0.231600  0.559200  1.0  0.1315
  H  H53  1  0.960400  0.311200  0.552600  1.0  0.1167
  H  H54  1  0.167600  0.230400  0.595200  1.0  0.117
  H  H55  1  0.121900  0.277900  0.592700  1.0  0.1168
  H  H56  1  0.070000  0.233200  0.647400  1.0  0.1411
  H  H57  1  0.108900  0.216900  0.670300  1.0  0.139
  H  H58  1  0.113700  0.183900  0.646500  1.0  0.1388
  H  H59  1  0.157500  0.300500  0.498500  1.0  0.0995
  H  H60  1  0.201400  0.251200  0.503000  1.0  0.1075
  H  H61  1  0.183600  0.231000  0.458800  1.0  0.1326
  H  H62  1  0.189400  0.282800  0.428600  1.0  0.139
  H  H63  1  0.137100  0.278100  0.456700  1.0  0.1318
  H  H64  1  0.334400  0.071400  0.053200  1.0  0.135
  H  H65  1  0.231600  0.006000  0.203200  1.0  0.1292
  H  H66  1  0.311200  0.960400  0.175800  1.0  0.1167
  H  H67  1  0.230400  0.167600  0.006800  1.0  0.1181
  H  H68  1  0.277900  0.121900  0.007500  1.0  0.1172
  H  H69  1  0.233200  0.070000  0.049400  1.0  0.1397
  H  H70  1  0.216900  0.108900  0.003900  1.0  0.1397
  H  H71  1  0.183900  0.113700  0.055900  1.0  0.1369
  H  H72  1  0.300500  0.157500  0.043500  1.0  0.1036
  H  H73  1  0.251200  0.201400  0.044400  1.0  0.106
  H  H74  1  0.231000  0.183600  0.126600  1.0  0.13
  H  H75  1  0.282800  0.189400  0.099200  1.0  0.1375
  H  H76  1  0.278100  0.137100  0.128100  1.0  0.1367
  H  H77  1  0.541000  0.071400  0.334400  1.0  0.1353
  H  H78  1  0.559200  0.006000  0.231600  1.0  0.129
  H  H79  1  0.552600  0.960400  0.311200  1.0  0.1168
  H  H80  1  0.595200  0.167600  0.230400  1.0  0.1178
  H  H81  1  0.592700  0.121900  0.277900  1.0  0.1189
  H  H82  1  0.647400  0.070000  0.233200  1.0  0.1389
  H  H83  1  0.670300  0.108900  0.216900  1.0  0.1347
  H  H84  1  0.646500  0.113700  0.183900  1.0  0.139
  H  H85  1  0.498500  0.157500  0.300500  1.0  0.1029
  H  H86  1  0.503000  0.201400  0.251200  1.0  0.1053
  H  H87  1  0.458800  0.183600  0.231000  1.0  0.1312
  H  H88  1  0.428600  0.189400  0.282800  1.0  0.1394
  H  H89  1  0.456700  0.137100  0.278100  1.0  0.1356
  H  H90  1  0.053200  0.334400  0.071400  1.0  0.1343
  H  H91  1  0.203200  0.231600  0.006000  1.0  0.1339
  H  H92  1  0.175800  0.311200  0.960400  1.0  0.1184
  H  H93  1  0.006800  0.230400  0.167600  1.0  0.1177
  H  H94  1  0.007500  0.277900  0.121900  1.0  0.1192
  H  H95  1  0.049400  0.233200  0.070000  1.0  0.1376
  H  H96  1  0.003900  0.216900  0.108900  1.0  0.1352
  H  H97  1  0.055900  0.183900  0.113700  1.0  0.1392
  H  H98  1  0.043500  0.300500  0.157500  1.0  0.1001
  H  H99  1  0.044400  0.251200  0.201400  1.0  0.1077
  H  H100  1  0.126600  0.231000  0.183600  1.0  0.1326
  H  H101  1  0.099200  0.282800  0.189400  1.0  0.1375
  H  H102  1  0.128100  0.278100  0.137100  1.0  0.1355
  H  H103  1  0.071400  0.541000  0.053200  1.0  0.1356
  H  H104  1  0.006000  0.559200  0.203200  1.0  0.1313
  H  H105  1  0.960400  0.552600  0.175800  1.0  0.1207
  H  H106  1  0.167600  0.595200  0.006800  1.0  0.1177
  H  H107  1  0.121900  0.592700  0.007500  1.0  0.1183
  H  H108  1  0.070000  0.647400  0.049400  1.0  0.1365
  H  H109  1  0.108900  0.670300  0.003900  1.0  0.1381
  H  H110  1  0.113700  0.646500  0.055900  1.0  0.1368
  H  H111  1  0.157500  0.498500  0.043500  1.0  0.102
  H  H112  1  0.201400  0.503000  0.044400  1.0  0.1084
  H  H113  1  0.183600  0.458800  0.126600  1.0  0.1326
  H  H114  1  0.189400  0.428600  0.099200  1.0  0.1368
  H  H115  1  0.137100  0.456700  0.128100  1.0  0.1365
  H  H116  1  0.334400  0.053200  0.541000  1.0  0.1355
  H  H117  1  0.231600  0.203200  0.559200  1.0  0.1301
  H  H118  1  0.311200  0.175800  0.552600  1.0  0.1176
  H  H119  1  0.230400  0.006800  0.595200  1.0  0.118
  H  H120  1  0.277900  0.007500  0.592700  1.0  0.1172
  H  H121  1  0.233200  0.049400  0.647400  1.0  0.1405
  H  H122  1  0.216900  0.003900  0.670300  1.0  0.1421
  H  H123  1  0.183900  0.055900  0.646500  1.0  0.1405
  H  H124  1  0.300500  0.043500  0.498500  1.0  0.1047
  H  H125  1  0.251200  0.044400  0.503000  1.0  0.1074
  H  H126  1  0.231000  0.126600  0.458800  1.0  0.1328
  H  H127  1  0.282800  0.099200  0.428600  1.0  0.1396
  H  H128  1  0.278100  0.128100  0.456700  1.0  0.1353
  H  H129  1  0.541000  0.334400  0.053200  1.0  0.1358
  H  H130  1  0.559200  0.231600  0.203200  1.0  0.1289
  H  H131  1  0.552600  0.311200  0.175800  1.0  0.1181
  H  H132  1  0.595200  0.230400  0.006800  1.0  0.1206
  H  H133  1  0.592700  0.277900  0.007500  1.0  0.1183
  H  H134  1  0.647400  0.233200  0.049400  1.0  0.1389
  H  H135  1  0.670300  0.216900  0.003900  1.0  0.1355
  H  H136  1  0.646500  0.183900  0.055900  1.0  0.1389
  H  H137  1  0.498500  0.300500  0.043500  1.0  0.0987
  H  H138  1  0.503000  0.251200  0.044400  1.0  0.1079
  H  H139  1  0.458800  0.231000  0.126600  1.0  0.1311
  H  H140  1  0.428600  0.282800  0.099200  1.0  0.1407
  H  H141  1  0.456700  0.278100  0.128100  1.0  0.1346
  H  H142  1  0.053200  0.071400  0.541000  1.0  0.1349
  H  H143  1  0.203200  0.006000  0.559200  1.0  0.1291
  H  H144  1  0.175800  0.960400  0.552600  1.0  0.1179
  H  H145  1  0.006800  0.167600  0.595200  1.0  0.117
  H  H146  1  0.007500  0.121900  0.592700  1.0  0.1201
  H  H147  1  0.049400  0.070000  0.647400  1.0  0.1394
  H  H148  1  0.003900  0.108900  0.670300  1.0  0.1372
  H  H149  1  0.055900  0.113700  0.646500  1.0  0.1402
  H  H150  1  0.043500  0.157500  0.498500  1.0  0.1037
  H  H151  1  0.044400  0.201400  0.503000  1.0  0.1074
  H  H152  1  0.126600  0.183600  0.458800  1.0  0.1318
  H  H153  1  0.099200  0.189400  0.428600  1.0  0.1401
  H  H154  1  0.128100  0.137100  0.456700  1.0  0.1365
  H  H155  1  0.071400  0.053200  0.334400  1.0  0.1356
  H  H156  1  0.006000  0.203200  0.231600  1.0  0.1303
  H  H157  1  0.960400  0.175800  0.311200  1.0  0.1161
  H  H158  1  0.167600  0.006800  0.230400  1.0  0.114
  H  H159  1  0.121900  0.007500  0.277900  1.0  0.1199
  H  H160  1  0.070000  0.049400  0.233200  1.0  0.1384
  H  H161  1  0.108900  0.003900  0.216900  1.0  0.1393
  H  H162  1  0.113700  0.055900  0.183900  1.0  0.139
  H  H163  1  0.157500  0.043500  0.300500  1.0  0.1042
  H  H164  1  0.201400  0.044400  0.251200  1.0  0.109
  H  H165  1  0.183600  0.126600  0.231000  1.0  0.1303
  H  H166  1  0.189400  0.099200  0.282800  1.0  0.1373
  H  H167  1  0.137100  0.128100  0.278100  1.0  0.1345
  H  H168  1  0.334400  0.541000  0.071400  1.0  0.1344
  H  H169  1  0.231600  0.559200  0.006000  1.0  0.1292
  H  H170  1  0.311200  0.552600  0.960400  1.0  0.1215
  H  H171  1  0.230400  0.595200  0.167600  1.0  0.1168
  H  H172  1  0.277900  0.592700  0.121900  1.0  0.1186
  H  H173  1  0.233200  0.647400  0.070000  1.0  0.139
  H  H174  1  0.216900  0.670300  0.108900  1.0  0.1374
  H  H175  1  0.183900  0.646500  0.113700  1.0  0.1346
  H  H176  1  0.300500  0.498500  0.157500  1.0  0.1041
  H  H177  1  0.251200  0.503000  0.201400  1.0  0.1066
  H  H178  1  0.231000  0.458800  0.183600  1.0  0.1322
  H  H179  1  0.282800  0.428600  0.189400  1.0  0.1388
  H  H180  1  0.278100  0.456700  0.137100  1.0  0.1356
  H  H181  1  0.446800  0.959000  0.428600  1.0  0.1347
  H  H182  1  0.296800  0.940800  0.494000  1.0  0.1307
  H  H183  1  0.324200  0.947400  0.539600  1.0  0.1201
  H  H184  1  0.493200  0.904800  0.332400  1.0  0.1176
  H  H185  1  0.492500  0.907300  0.378100  1.0  0.1176
  H  H186  1  0.450600  0.852600  0.430000  1.0  0.1393
  H  H187  1  0.496100  0.829700  0.391100  1.0  0.1386
  H  H188  1  0.444100  0.853500  0.386300  1.0  0.1381
  H  H189  1  0.456500  0.001500  0.342500  1.0  0.1023
  H  H190  1  0.455600  0.997000  0.298600  1.0  0.1069
  H  H191  1  0.373400  0.041200  0.316400  1.0  0.1326
  H  H192  1  0.400800  0.071400  0.310600  1.0  0.1388
  H  H193  1  0.371900  0.043300  0.362900  1.0  0.1347
  H  H194  1  0.959000  0.446800  0.165600  1.0  0.1353
  H  H195  1  0.940800  0.296800  0.268400  1.0  0.1319
  H  H196  1  0.947400  0.324200  0.188800  1.0  0.1162
  H  H197  1  0.904800  0.493200  0.269600  1.0  0.1173
  H  H198  1  0.907300  0.492500  0.222100  1.0  0.1192
  H  H199  1  0.852600  0.450600  0.266800  1.0  0.1389
  H  H200  1  0.829700  0.496100  0.283100  1.0  0.1369
  H  H201  1  0.853500  0.444100  0.316100  1.0  0.1383
  H  H202  1  0.001500  0.456500  0.199500  1.0  0.103
  H  H203  1  0.997000  0.455600  0.248800  1.0  0.1069
  H  H204  1  0.041200  0.373400  0.269000  1.0  0.1327
  H  H205  1  0.071400  0.400800  0.217200  1.0  0.1421
  H  H206  1  0.043300  0.371900  0.221900  1.0  0.1356
  H  H207  1  0.165600  0.428600  0.959000  1.0  0.1361
  H  H208  1  0.268400  0.494000  0.940800  1.0  0.1301
  H  H209  1  0.188800  0.539600  0.947400  1.0  0.1178
  H  H210  1  0.269600  0.332400  0.904800  1.0  0.1161
  H  H211  1  0.222100  0.378100  0.907300  1.0  0.1141
  H  H212  1  0.266800  0.430000  0.852600  1.0  0.141
  H  H213  1  0.283100  0.391100  0.829700  1.0  0.1407
  H  H214  1  0.316100  0.386300  0.853500  1.0  0.141
  H  H215  1  0.199500  0.342500  0.001500  1.0  0.1044
  H  H216  1  0.248800  0.298600  0.997000  1.0  0.1062
  H  H217  1  0.269000  0.316400  0.041200  1.0  0.134
  H  H218  1  0.217200  0.310600  0.071400  1.0  0.1388
  H  H219  1  0.221900  0.362900  0.043300  1.0  0.1366
  H  H220  1  0.428600  0.165600  0.446800  1.0  0.1351
  H  H221  1  0.494000  0.268400  0.296800  1.0  0.1306
  H  H222  1  0.539600  0.188800  0.324200  1.0  0.1165
  H  H223  1  0.332400  0.269600  0.493200  1.0  0.1157
  H  H224  1  0.378100  0.222100  0.492500  1.0  0.1166
  H  H225  1  0.430000  0.266800  0.450600  1.0  0.1433
  H  H226  1  0.391100  0.283100  0.496100  1.0  0.1389
  H  H227  1  0.386300  0.316100  0.444100  1.0  0.1372
  H  H228  1  0.342500  0.199500  0.456500  1.0  0.1014
  H  H229  1  0.298600  0.248800  0.455600  1.0  0.1057
  H  H230  1  0.316400  0.269000  0.373400  1.0  0.1318
  H  H231  1  0.310600  0.217200  0.400800  1.0  0.1373
  H  H232  1  0.362900  0.221900  0.371900  1.0  0.1329
  H  H233  1  0.428600  0.959000  0.165600  1.0  0.136
  H  H234  1  0.494000  0.940800  0.268400  1.0  0.1291
  H  H235  1  0.539600  0.947400  0.188800  1.0  0.1191
  H  H236  1  0.332400  0.904800  0.269600  1.0  0.1159
  H  H237  1  0.378100  0.907300  0.222100  1.0  0.118
  H  H238  1  0.430000  0.852600  0.266800  1.0  0.1319
  H  H239  1  0.391100  0.829700  0.283100  1.0  0.1387
  H  H240  1  0.386300  0.853500  0.316100  1.0  0.1369
  H  H241  1  0.342500  0.001500  0.199500  1.0  0.1027
  H  H242  1  0.298600  0.997000  0.248800  1.0  0.1061
  H  H243  1  0.316400  0.041200  0.269000  1.0  0.1316
  H  H244  1  0.310600  0.071400  0.217200  1.0  0.139
  H  H245  1  0.362900  0.043300  0.221900  1.0  0.1354
  H  H246  1  0.165600  0.446800  0.428600  1.0  0.136
  H  H247  1  0.268400  0.296800  0.494000  1.0  0.1304
  H  H248  1  0.188800  0.324200  0.539600  1.0  0.1173
  H  H249  1  0.269600  0.493200  0.332400  1.0  0.1191
  H  H250  1  0.222100  0.492500  0.378100  1.0  0.1163
  H  H251  1  0.266800  0.450600  0.430000  1.0  0.1407
  H  H252  1  0.283100  0.496100  0.391100  1.0  0.1377
  H  H253  1  0.316100  0.444100  0.386300  1.0  0.1385
  H  H254  1  0.199500  0.456500  0.342500  1.0  0.1047
  H  H255  1  0.248800  0.455600  0.298600  1.0  0.1073
  H  H256  1  0.269000  0.373400  0.316400  1.0  0.1327
  H  H257  1  0.217200  0.400800  0.310600  1.0  0.1392
  H  H258  1  0.221900  0.371900  0.362900  1.0  0.1348
  H  H259  1  0.959000  0.428600  0.446800  1.0  0.1353
  H  H260  1  0.940800  0.494000  0.296800  1.0  0.1314
  H  H261  1  0.947400  0.539600  0.324200  1.0  0.117
  H  H262  1  0.904800  0.332400  0.493200  1.0  0.1162
  H  H263  1  0.907300  0.378100  0.492500  1.0  0.1202
  H  H264  1  0.852600  0.430000  0.450600  1.0  0.1391
  H  H265  1  0.829700  0.391100  0.496100  1.0  0.1339
  H  H266  1  0.853500  0.386300  0.444100  1.0  0.1381
  H  H267  1  0.001500  0.342500  0.456500  1.0  0.1028
  H  H268  1  0.997000  0.298600  0.455600  1.0  0.1061
  H  H269  1  0.041200  0.316400  0.373400  1.0  0.1319
  H  H270  1  0.071400  0.310600  0.400800  1.0  0.1396
  H  H271  1  0.043300  0.362900  0.371900  1.0  0.1357
  H  H272  1  0.446800  0.165600  0.959000  1.0  0.1339
  H  H273  1  0.296800  0.268400  0.940800  1.0  0.1341
  H  H274  1  0.324200  0.188800  0.947400  1.0  0.118
  H  H275  1  0.493200  0.269600  0.904800  1.0  0.1181
  H  H276  1  0.492500  0.222100  0.907300  1.0  0.1173
  H  H277  1  0.450600  0.266800  0.852600  1.0  0.1421
  H  H278  1  0.496100  0.283100  0.829700  1.0  0.139
  H  H279  1  0.444100  0.316100  0.853500  1.0  0.1405
  H  H280  1  0.456500  0.199500  0.001500  1.0  0.1004
  H  H281  1  0.455600  0.248800  0.997000  1.0  0.1069
  H  H282  1  0.373400  0.269000  0.041200  1.0  0.1321
  H  H283  1  0.400800  0.217200  0.071400  1.0  0.1399
  H  H284  1  0.371900  0.221900  0.043300  1.0  0.1369
  H  H285  1  0.165600  0.959000  0.446800  1.0  0.1354
  H  H286  1  0.268400  0.940800  0.296800  1.0  0.1305
  H  H287  1  0.188800  0.947400  0.324200  1.0  0.1195
  H  H288  1  0.269600  0.904800  0.493200  1.0  0.1168
  H  H289  1  0.222100  0.907300  0.492500  1.0  0.1165
  H  H290  1  0.266800  0.852600  0.450600  1.0  0.1393
  H  H291  1  0.283100  0.829700  0.496100  1.0  0.14
  H  H292  1  0.316100  0.853500  0.444100  1.0  0.1286
  H  H293  1  0.199500  0.001500  0.456500  1.0  0.1024
  H  H294  1  0.248800  0.997000  0.455600  1.0  0.1069
  H  H295  1  0.269000  0.041200  0.373400  1.0  0.1307
  H  H296  1  0.217200  0.071400  0.400800  1.0  0.1384
  H  H297  1  0.221900  0.043300  0.371900  1.0  0.1354
  H  H298  1  0.428600  0.446800  0.959000  1.0  0.1351
  H  H299  1  0.494000  0.296800  0.940800  1.0  0.1292
  H  H300  1  0.539600  0.324200  0.947400  1.0  0.1166
  H  H301  1  0.332400  0.493200  0.904800  1.0  0.1171
  H  H302  1  0.378100  0.492500  0.907300  1.0  0.1183
  H  H303  1  0.430000  0.450600  0.852600  1.0  0.1459
  H  H304  1  0.391100  0.496100  0.829700  1.0  0.1406
  H  H305  1  0.386300  0.444100  0.853500  1.0  0.1424
  H  H306  1  0.342500  0.456500  0.001500  1.0  0.1036
  H  H307  1  0.298600  0.455600  0.997000  1.0  0.1098
  H  H308  1  0.316400  0.373400  0.041200  1.0  0.1319
  H  H309  1  0.310600  0.400800  0.071400  1.0  0.1399
  H  H310  1  0.362900  0.371900  0.043300  1.0  0.1361
  H  H311  1  0.446800  0.428600  0.165600  1.0  0.1347
  H  H312  1  0.296800  0.494000  0.268400  1.0  0.1275
  H  H313  1  0.324200  0.539600  0.188800  1.0  0.1187
  H  H314  1  0.493200  0.332400  0.269600  1.0  0.1165
  H  H315  1  0.492500  0.378100  0.222100  1.0  0.1184
  H  H316  1  0.450600  0.430000  0.266800  1.0  0.1391
  H  H317  1  0.496100  0.391100  0.283100  1.0  0.1358
  H  H318  1  0.444100  0.386300  0.316100  1.0  0.1409
  H  H319  1  0.456500  0.342500  0.199500  1.0  0.104
  H  H320  1  0.455600  0.298600  0.248800  1.0  0.1073
  H  H321  1  0.373400  0.316400  0.269000  1.0  0.1285
  H  H322  1  0.400800  0.310600  0.217200  1.0  0.1398
  H  H323  1  0.371900  0.362900  0.221900  1.0  0.1364
  H  H324  1  0.959000  0.165600  0.428600  1.0  0.1354
  H  H325  1  0.940800  0.268400  0.494000  1.0  0.13
  H  H326  1  0.947400  0.188800  0.539600  1.0  0.1188
  H  H327  1  0.904800  0.269600  0.332400  1.0  0.1195
  H  H328  1  0.907300  0.222100  0.378100  1.0  0.1188
  H  H329  1  0.852600  0.266800  0.430000  1.0  0.1389
  H  H330  1  0.829700  0.283100  0.391100  1.0  0.1342
  H  H331  1  0.853500  0.316100  0.386300  1.0  0.1362
  H  H332  1  0.001500  0.199500  0.342500  1.0  0.0988
  H  H333  1  0.997000  0.248800  0.298600  1.0  0.1078
  H  H334  1  0.041200  0.269000  0.316400  1.0  0.1309
  H  H335  1  0.071400  0.217200  0.310600  1.0  0.14
  H  H336  1  0.043300  0.221900  0.362900  1.0  0.1339
  H  H337  1  0.459000  0.946800  0.928600  1.0  0.135
  H  H338  1  0.440800  0.796800  0.994000  1.0  0.132
  H  H339  1  0.447400  0.824200  0.039600  1.0  0.1178
  H  H340  1  0.404800  0.993200  0.832400  1.0  0.1179
  H  H341  1  0.407300  0.992500  0.878100  1.0  0.1196
  H  H342  1  0.352600  0.950600  0.930000  1.0  0.1387
  H  H343  1  0.329700  0.996100  0.891100  1.0  0.1371
  H  H344  1  0.353500  0.944100  0.886300  1.0  0.138
  H  H345  1  0.501500  0.956500  0.842500  1.0  0.1028
  H  H346  1  0.497000  0.955600  0.798600  1.0  0.1073
  H  H347  1  0.541200  0.873400  0.816400  1.0  0.1326
  H  H348  1  0.571400  0.900800  0.810600  1.0  0.1425
  H  H349  1  0.543300  0.871900  0.862900  1.0  0.1354
  H  H350  1  0.946800  0.459000  0.665600  1.0  0.1349
  H  H351  1  0.796800  0.440800  0.768400  1.0  0.1311
  H  H352  1  0.824200  0.447400  0.688800  1.0  0.1175
  H  H353  1  0.993200  0.404800  0.769600  1.0  0.118
  H  H354  1  0.992500  0.407300  0.722100  1.0  0.1168
  H  H355  1  0.950600  0.352600  0.766800  1.0  0.1392
  H  H356  1  0.996100  0.329700  0.783100  1.0  0.1387
  H  H357  1  0.944100  0.353500  0.816100  1.0  0.1387
  H  H358  1  0.956500  0.501500  0.699500  1.0  0.1028
  H  H359  1  0.955600  0.497000  0.748800  1.0  0.1066
  H  H360  1  0.873400  0.541200  0.769000  1.0  0.1324
  H  H361  1  0.900800  0.571400  0.717200  1.0  0.1387
  H  H362  1  0.871900  0.543300  0.721900  1.0  0.1353
  H  H363  1  0.928600  0.665600  0.459000  1.0  0.1347
  H  H364  1  0.994000  0.768400  0.440800  1.0  0.1292
  H  H365  1  0.039600  0.688800  0.447400  1.0  0.1158
  H  H366  1  0.832400  0.769600  0.404800  1.0  0.1163
  H  H367  1  0.878100  0.722100  0.407300  1.0  0.1162
  H  H368  1  0.930000  0.766800  0.352600  1.0  0.1469
  H  H369  1  0.891100  0.783100  0.329700  1.0  0.1405
  H  H370  1  0.886300  0.816100  0.353500  1.0  0.14
  H  H371  1  0.842500  0.699500  0.501500  1.0  0.1003
  H  H372  1  0.798600  0.748800  0.497000  1.0  0.1059
  H  H373  1  0.816400  0.769000  0.541200  1.0  0.1325
  H  H374  1  0.810600  0.717200  0.571400  1.0  0.1384
  H  H375  1  0.862900  0.721900  0.543300  1.0  0.1355
  H  H376  1  0.665600  0.928600  0.946800  1.0  0.136
  H  H377  1  0.768400  0.994000  0.796800  1.0  0.1312
  H  H378  1  0.688800  0.039600  0.824200  1.0  0.1183
  H  H379  1  0.769600  0.832400  0.993200  1.0  0.117
  H  H380  1  0.722100  0.878100  0.992500  1.0  0.1134
  H  H381  1  0.766800  0.930000  0.950600  1.0  0.1388
  H  H382  1  0.783100  0.891100  0.996100  1.0  0.1389
  H  H383  1  0.816100  0.886300  0.944100  1.0  0.1363
  H  H384  1  0.699500  0.842500  0.956500  1.0  0.1045
  H  H385  1  0.748800  0.798600  0.955600  1.0  0.1062
  H  H386  1  0.769000  0.816400  0.873400  1.0  0.1314
  H  H387  1  0.717200  0.810600  0.900800  1.0  0.1373
  H  H388  1  0.721900  0.862900  0.871900  1.0  0.135
  H  H389  1  0.459000  0.928600  0.665600  1.0  0.1362
  H  H390  1  0.440800  0.994000  0.768400  1.0  0.131
  H  H391  1  0.447400  0.039600  0.688800  1.0  0.1173
  H  H392  1  0.404800  0.832400  0.769600  1.0  0.1147
  H  H393  1  0.407300  0.878100  0.722100  1.0  0.1222
  H  H394  1  0.352600  0.930000  0.766800  1.0  0.1389
  H  H395  1  0.329700  0.891100  0.783100  1.0  0.1342
  H  H396  1  0.353500  0.886300  0.816100  1.0  0.1377
  H  H397  1  0.501500  0.842500  0.699500  1.0  0.1033
  H  H398  1  0.497000  0.798600  0.748800  1.0  0.1059
  H  H399  1  0.541200  0.816400  0.769000  1.0  0.1315
  H  H400  1  0.571400  0.810600  0.717200  1.0  0.1396
  H  H401  1  0.543300  0.862900  0.721900  1.0  0.1361
  H  H402  1  0.946800  0.665600  0.928600  1.0  0.1353
  H  H403  1  0.796800  0.768400  0.994000  1.0  0.1305
  H  H404  1  0.824200  0.688800  0.039600  1.0  0.1173
  H  H405  1  0.993200  0.769600  0.832400  1.0  0.1179
  H  H406  1  0.992500  0.722100  0.878100  1.0  0.1177
  H  H407  1  0.950600  0.766800  0.930000  1.0  0.1416
  H  H408  1  0.996100  0.783100  0.891100  1.0  0.1361
  H  H409  1  0.944100  0.816100  0.886300  1.0  0.1382
  H  H410  1  0.956500  0.699500  0.842500  1.0  0.1011
  H  H411  1  0.955600  0.748800  0.798600  1.0  0.1071
  H  H412  1  0.873400  0.769000  0.816400  1.0  0.1318
  H  H413  1  0.900800  0.717200  0.810600  1.0  0.1398
  H  H414  1  0.871900  0.721900  0.862900  1.0  0.133
  H  H415  1  0.928600  0.459000  0.946800  1.0  0.1353
  H  H416  1  0.994000  0.440800  0.796800  1.0  0.1296
  H  H417  1  0.039600  0.447400  0.824200  1.0  0.1192
  H  H418  1  0.832400  0.404800  0.993200  1.0  0.117
  H  H419  1  0.878100  0.407300  0.992500  1.0  0.1174
  H  H420  1  0.930000  0.352600  0.950600  1.0  0.1317
  H  H421  1  0.891100  0.329700  0.996100  1.0  0.1391
  H  H422  1  0.886300  0.353500  0.944100  1.0  0.1378
  H  H423  1  0.842500  0.501500  0.956500  1.0  0.1022
  H  H424  1  0.798600  0.497000  0.955600  1.0  0.1057
  H  H425  1  0.816400  0.541200  0.873400  1.0  0.1326
  H  H426  1  0.810600  0.571400  0.900800  1.0  0.1377
  H  H427  1  0.862900  0.543300  0.871900  1.0  0.1351
  H  H428  1  0.665600  0.946800  0.459000  1.0  0.1349
  H  H429  1  0.768400  0.796800  0.440800  1.0  0.1332
  H  H430  1  0.688800  0.824200  0.447400  1.0  0.1179
  H  H431  1  0.769600  0.993200  0.404800  1.0  0.1191
  H  H432  1  0.722100  0.992500  0.407300  1.0  0.1178
  H  H433  1  0.766800  0.950600  0.352600  1.0  0.1404
  H  H434  1  0.783100  0.996100  0.329700  1.0  0.1401
  H  H435  1  0.816100  0.944100  0.353500  1.0  0.1432
  H  H436  1  0.699500  0.956500  0.501500  1.0  0.1046
  H  H437  1  0.748800  0.955600  0.497000  1.0  0.1067
  H  H438  1  0.769000  0.873400  0.541200  1.0  0.1349
  H  H439  1  0.717200  0.900800  0.571400  1.0  0.1406
  H  H440  1  0.721900  0.871900  0.543300  1.0  0.1367
  H  H441  1  0.459000  0.665600  0.946800  1.0  0.1352
  H  H442  1  0.440800  0.768400  0.796800  1.0  0.1304
  H  H443  1  0.447400  0.688800  0.824200  1.0  0.1184
  H  H444  1  0.404800  0.769600  0.993200  1.0  0.1175
  H  H445  1  0.407300  0.722100  0.992500  1.0  0.1186
  H  H446  1  0.352600  0.766800  0.950600  1.0  0.1392
  H  H447  1  0.329700  0.783100  0.996100  1.0  0.1345
  H  H448  1  0.353500  0.816100  0.944100  1.0  0.1361
  H  H449  1  0.501500  0.699500  0.956500  1.0  0.0992
  H  H450  1  0.497000  0.748800  0.955600  1.0  0.1073
  H  H451  1  0.541200  0.769000  0.873400  1.0  0.1312
  H  H452  1  0.571400  0.717200  0.900800  1.0  0.1399
  H  H453  1  0.543300  0.721900  0.871900  1.0  0.1355
  H  H454  1  0.946800  0.928600  0.459000  1.0  0.1347
  H  H455  1  0.796800  0.994000  0.440800  1.0  0.1288
  H  H456  1  0.824200  0.039600  0.447400  1.0  0.1184
  H  H457  1  0.993200  0.832400  0.404800  1.0  0.1171
  H  H458  1  0.992500  0.878100  0.407300  1.0  0.1188
  H  H459  1  0.950600  0.930000  0.352600  1.0  0.1394
  H  H460  1  0.996100  0.891100  0.329700  1.0  0.1379
  H  H461  1  0.944100  0.886300  0.353500  1.0  0.1425
  H  H462  1  0.956500  0.842500  0.501500  1.0  0.104
  H  H463  1  0.955600  0.798600  0.497000  1.0  0.1078
  H  H464  1  0.873400  0.816400  0.541200  1.0  0.131
  H  H465  1  0.900800  0.810600  0.571400  1.0  0.1399
  H  H466  1  0.871900  0.862900  0.543300  1.0  0.1371
  H  H467  1  0.928600  0.946800  0.665600  1.0  0.1356
  H  H468  1  0.994000  0.796800  0.768400  1.0  0.1293
  H  H469  1  0.039600  0.824200  0.688800  1.0  0.1168
  H  H470  1  0.832400  0.993200  0.769600  1.0  0.1153
  H  H471  1  0.878100  0.992500  0.722100  1.0  0.1186
  H  H472  1  0.930000  0.950600  0.766800  1.0  0.1441
  H  H473  1  0.891100  0.996100  0.783100  1.0  0.1382
  H  H474  1  0.886300  0.944100  0.816100  1.0  0.141
  H  H475  1  0.842500  0.956500  0.699500  1.0  0.1032
  H  H476  1  0.798600  0.955600  0.748800  1.0  0.1093
  H  H477  1  0.816400  0.873400  0.769000  1.0  0.1308
  H  H478  1  0.810600  0.900800  0.717200  1.0  0.1391
  H  H479  1  0.862900  0.871900  0.721900  1.0  0.1342
  H  H480  1  0.665600  0.459000  0.928600  1.0  0.1362
  H  H481  1  0.768400  0.440800  0.994000  1.0  0.1304
  H  H482  1  0.688800  0.447400  0.039600  1.0  0.1206
  H  H483  1  0.769600  0.404800  0.832400  1.0  0.1168
  H  H484  1  0.722100  0.407300  0.878100  1.0  0.1175
  H  H485  1  0.766800  0.352600  0.930000  1.0  0.1393
  H  H486  1  0.783100  0.329700  0.891100  1.0  0.1388
  H  H487  1  0.816100  0.353500  0.886300  1.0  0.1292
  H  H488  1  0.699500  0.501500  0.842500  1.0  0.1021
  H  H489  1  0.748800  0.497000  0.798600  1.0  0.1071
  H  H490  1  0.769000  0.541200  0.816400  1.0  0.1304
  H  H491  1  0.717200  0.571400  0.810600  1.0  0.1394
  H  H492  1  0.721900  0.543300  0.862900  1.0  0.1346
  H  H493  1  0.553200  0.041000  0.571400  1.0  0.1353
  H  H494  1  0.703200  0.059200  0.506000  1.0  0.1305
  H  H495  1  0.675800  0.052600  0.460400  1.0  0.1201
  H  H496  1  0.506800  0.095200  0.667600  1.0  0.1169
  H  H497  1  0.507500  0.092700  0.621900  1.0  0.1166
  H  H498  1  0.549400  0.147400  0.570000  1.0  0.1388
  H  H499  1  0.503900  0.170300  0.608900  1.0  0.1367
  H  H500  1  0.555900  0.146500  0.613700  1.0  0.1379
  H  H501  1  0.543500  0.998500  0.657500  1.0  0.102
  H  H502  1  0.544400  0.003000  0.701400  1.0  0.1069
  H  H503  1  0.626600  0.958800  0.683600  1.0  0.1328
  H  H504  1  0.599200  0.928600  0.689400  1.0  0.1387
  H  H505  1  0.628100  0.956700  0.637100  1.0  0.1353
  H  H506  1  0.041000  0.553200  0.834400  1.0  0.1353
  H  H507  1  0.059200  0.703200  0.731600  1.0  0.1312
  H  H508  1  0.052600  0.675800  0.811200  1.0  0.1177
  H  H509  1  0.095200  0.506800  0.730400  1.0  0.1182
  H  H510  1  0.092700  0.507500  0.777900  1.0  0.1194
  H  H511  1  0.147400  0.549400  0.733200  1.0  0.1389
  H  H512  1  0.170300  0.503900  0.716900  1.0  0.1399
  H  H513  1  0.146500  0.555900  0.683900  1.0  0.1393
  H  H514  1  0.998500  0.543500  0.800500  1.0  0.1026
  H  H515  1  0.003000  0.544400  0.751200  1.0  0.1069
  H  H516  1  0.958800  0.626600  0.731000  1.0  0.1335
  H  H517  1  0.928600  0.599200  0.782800  1.0  0.1431
  H  H518  1  0.956700  0.628100  0.778100  1.0  0.135
  H  H519  1  0.834400  0.571400  0.041000  1.0  0.1355
  H  H520  1  0.731600  0.506000  0.059200  1.0  0.131
  H  H521  1  0.811200  0.460400  0.052600  1.0  0.1178
  H  H522  1  0.730400  0.667600  0.095200  1.0  0.1168
  H  H523  1  0.777900  0.621900  0.092700  1.0  0.115
  H  H524  1  0.733200  0.570000  0.147400  1.0  0.1385
  H  H525  1  0.716900  0.608900  0.170300  1.0  0.1393
  H  H526  1  0.683900  0.613700  0.146500  1.0  0.1387
  H  H527  1  0.800500  0.657500  0.998500  1.0  0.1042
  H  H528  1  0.751200  0.701400  0.003000  1.0  0.1058
  H  H529  1  0.731000  0.683600  0.958800  1.0  0.1301
  H  H530  1  0.782800  0.689400  0.928600  1.0  0.1385
  H  H531  1  0.778100  0.637100  0.956700  1.0  0.1352
  H  H532  1  0.571400  0.834400  0.553200  1.0  0.1347
  H  H533  1  0.506000  0.731600  0.703200  1.0  0.1296
  H  H534  1  0.460400  0.811200  0.675800  1.0  0.1156
  H  H535  1  0.667600  0.730400  0.506800  1.0  0.1162
  H  H536  1  0.621900  0.777900  0.507500  1.0  0.1185
  H  H537  1  0.570000  0.733200  0.549400  1.0  0.1398
  H  H538  1  0.608900  0.716900  0.503900  1.0  0.139
  H  H539  1  0.613700  0.683900  0.555900  1.0  0.1397
  H  H540  1  0.657500  0.800500  0.543500  1.0  0.0996
  H  H541  1  0.701400  0.751200  0.544400  1.0  0.1075
  H  H542  1  0.683600  0.731000  0.626600  1.0  0.1327
  H  H543  1  0.689400  0.782800  0.599200  1.0  0.1383
  H  H544  1  0.637100  0.778100  0.628100  1.0  0.1336
  H  H545  1  0.571400  0.041000  0.834400  1.0  0.1351
  H  H546  1  0.506000  0.059200  0.731600  1.0  0.1317
  H  H547  1  0.460400  0.052600  0.811200  1.0  0.1203
  H  H548  1  0.667600  0.095200  0.730400  1.0  0.117
  H  H549  1  0.621900  0.092700  0.777900  1.0  0.1171
  H  H550  1  0.570000  0.147400  0.733200  1.0  0.1366
  H  H551  1  0.608900  0.170300  0.716900  1.0  0.1365
  H  H552  1  0.613700  0.146500  0.683900  1.0  0.1376
  H  H553  1  0.657500  0.998500  0.800500  1.0  0.1022
  H  H554  1  0.701400  0.003000  0.751200  1.0  0.1083
  H  H555  1  0.683600  0.958800  0.731000  1.0  0.1316
  H  H556  1  0.689400  0.928600  0.782800  1.0  0.1372
  H  H557  1  0.637100  0.956700  0.778100  1.0  0.1367
  H  H558  1  0.834400  0.553200  0.571400  1.0  0.1341
  H  H559  1  0.731600  0.703200  0.506000  1.0  0.1336
  H  H560  1  0.811200  0.675800  0.460400  1.0  0.1181
  H  H561  1  0.730400  0.506800  0.667600  1.0  0.1166
  H  H562  1  0.777900  0.507500  0.621900  1.0  0.1155
  H  H563  1  0.733200  0.549400  0.570000  1.0  0.1384
  H  H564  1  0.716900  0.503900  0.608900  1.0  0.1395
  H  H565  1  0.683900  0.555900  0.613700  1.0  0.1378
  H  H566  1  0.800500  0.543500  0.657500  1.0  0.1041
  H  H567  1  0.751200  0.544400  0.701400  1.0  0.1076
  H  H568  1  0.731000  0.626600  0.683600  1.0  0.1319
  H  H569  1  0.782800  0.599200  0.689400  1.0  0.1379
  H  H570  1  0.778100  0.628100  0.637100  1.0  0.1359
  H  H571  1  0.041000  0.571400  0.553200  1.0  0.1358
  H  H572  1  0.059200  0.506000  0.703200  1.0  0.1283
  H  H573  1  0.052600  0.460400  0.675800  1.0  0.1165
  H  H574  1  0.095200  0.667600  0.506800  1.0  0.1179
  H  H575  1  0.092700  0.621900  0.507500  1.0  0.1199
  H  H576  1  0.147400  0.570000  0.549400  1.0  0.1392
  H  H577  1  0.170300  0.608900  0.503900  1.0  0.1359
  H  H578  1  0.146500  0.613700  0.555900  1.0  0.1379
  H  H579  1  0.998500  0.657500  0.543500  1.0  0.1035
  H  H580  1  0.003000  0.701400  0.544400  1.0  0.1056
  H  H581  1  0.958800  0.683600  0.626600  1.0  0.1315
  H  H582  1  0.928600  0.689400  0.599200  1.0  0.14
  H  H583  1  0.956700  0.637100  0.628100  1.0  0.1357
  H  H584  1  0.553200  0.834400  0.041000  1.0  0.1355
  H  H585  1  0.703200  0.731600  0.059200  1.0  0.1307
  H  H586  1  0.675800  0.811200  0.052600  1.0  0.1176
  H  H587  1  0.506800  0.730400  0.095200  1.0  0.1184
  H  H588  1  0.507500  0.777900  0.092700  1.0  0.1191
  H  H589  1  0.549400  0.733200  0.147400  1.0  0.14
  H  H590  1  0.503900  0.716900  0.170300  1.0  0.1376
  H  H591  1  0.555900  0.683900  0.146500  1.0  0.1391
  H  H592  1  0.543500  0.800500  0.998500  1.0  0.1001
  H  H593  1  0.544400  0.751200  0.003000  1.0  0.1082
  H  H594  1  0.626600  0.731000  0.958800  1.0  0.1331
  H  H595  1  0.599200  0.782800  0.928600  1.0  0.1396
  H  H596  1  0.628100  0.778100  0.956700  1.0  0.1358
  H  H597  1  0.834400  0.041000  0.553200  1.0  0.1349
  H  H598  1  0.731600  0.059200  0.703200  1.0  0.1292
  H  H599  1  0.811200  0.052600  0.675800  1.0  0.1208
  H  H600  1  0.730400  0.095200  0.506800  1.0  0.1197
  H  H601  1  0.777900  0.092700  0.507500  1.0  0.1198
  H  H602  1  0.733200  0.147400  0.549400  1.0  0.1382
  H  H603  1  0.716900  0.170300  0.503900  1.0  0.1384
  H  H604  1  0.683900  0.146500  0.555900  1.0  0.1345
  H  H605  1  0.800500  0.998500  0.543500  1.0  0.1038
  H  H606  1  0.751200  0.003000  0.544400  1.0  0.1073
  H  H607  1  0.731000  0.958800  0.626600  1.0  0.1323
  H  H608  1  0.782800  0.928600  0.599200  1.0  0.1379
  H  H609  1  0.778100  0.956700  0.628100  1.0  0.1359
  H  H610  1  0.571400  0.553200  0.041000  1.0  0.1353
  H  H611  1  0.506000  0.703200  0.059200  1.0  0.1298
  H  H612  1  0.460400  0.675800  0.052600  1.0  0.1172
  H  H613  1  0.667600  0.506800  0.095200  1.0  0.1155
  H  H614  1  0.621900  0.507500  0.092700  1.0  0.1186
  H  H615  1  0.570000  0.549400  0.147400  1.0  0.142
  H  H616  1  0.608900  0.503900  0.170300  1.0  0.1419
  H  H617  1  0.613700  0.555900  0.146500  1.0  0.1411
  H  H618  1  0.657500  0.543500  0.998500  1.0  0.103
  H  H619  1  0.701400  0.544400  0.003000  1.0  0.1084
  H  H620  1  0.683600  0.626600  0.958800  1.0  0.1327
  H  H621  1  0.689400  0.599200  0.928600  1.0  0.1393
  H  H622  1  0.637100  0.628100  0.956700  1.0  0.1346
  H  H623  1  0.553200  0.571400  0.834400  1.0  0.1352
  H  H624  1  0.703200  0.506000  0.731600  1.0  0.1292
  H  H625  1  0.675800  0.460400  0.811200  1.0  0.117
  H  H626  1  0.506800  0.667600  0.730400  1.0  0.1177
  H  H627  1  0.507500  0.621900  0.777900  1.0  0.1203
  H  H628  1  0.549400  0.570000  0.733200  1.0  0.1384
  H  H629  1  0.503900  0.608900  0.716900  1.0  0.1346
  H  H630  1  0.555900  0.613700  0.683900  1.0  0.1379
  H  H631  1  0.543500  0.657500  0.800500  1.0  0.1043
  H  H632  1  0.544400  0.701400  0.751200  1.0  0.1079
  H  H633  1  0.626600  0.683600  0.731000  1.0  0.1295
  H  H634  1  0.599200  0.689400  0.782800  1.0  0.1379
  H  H635  1  0.628100  0.637100  0.778100  1.0  0.1368
  H  H636  1  0.041000  0.834400  0.571400  1.0  0.135
  H  H637  1  0.059200  0.731600  0.506000  1.0  0.1292
  H  H638  1  0.052600  0.811200  0.460400  1.0  0.1187
  H  H639  1  0.095200  0.730400  0.667600  1.0  0.1192
  H  H640  1  0.092700  0.777900  0.621900  1.0  0.1181
  H  H641  1  0.147400  0.733200  0.570000  1.0  0.1397
  H  H642  1  0.170300  0.716900  0.608900  1.0  0.1353
  H  H643  1  0.146500  0.683900  0.613700  1.0  0.138
  H  H644  1  0.998500  0.800500  0.657500  1.0  0.0988
  H  H645  1  0.003000  0.751200  0.701400  1.0  0.1067
  H  H646  1  0.958800  0.731000  0.683600  1.0  0.1312
  H  H647  1  0.928600  0.782800  0.689400  1.0  0.14
  H  H648  1  0.956700  0.778100  0.637100  1.0  0.1345
  C  C649  1  0.536880  0.098160  0.982040  1.0  0.6993
  C  C650  1  0.545110  0.112470  0.011550  1.0  -0.1364
  C  C651  1  0.544410  0.083630  0.058170  1.0  -0.1102
  C  C652  1  0.548780  0.099980  0.084920  1.0  -0.0032
  C  C653  1  0.553430  0.144510  0.067090  1.0  -0.0064
  C  C654  1  0.555230  0.172970  0.019470  1.0  -0.1008
  C  C655  1  0.551190  0.156590  0.992650  1.0  -0.0173
  C  C656  1  0.550070  0.072870  0.135470  1.0  0.0614
  C  C657  1  0.555730  0.151490  0.105430  1.0  -0.0557
  C  C658  1  0.554930  0.108630  0.145750  1.0  -0.0438
  C  C659  1  0.595390  0.026410  0.134370  1.0  -0.1671
  C  C660  1  0.644500  0.034700  0.103900  1.0  -0.3066
  C  C661  1  0.501830  0.063290  0.168450  1.0  -0.1516
  C  C662  1  0.457430  0.108370  0.169770  1.0  -0.2763
  C  C663  1  0.098160  0.536880  0.382920  1.0  0.6995
  C  C664  1  0.112470  0.545110  0.330870  1.0  -0.1342
  C  C665  1  0.083630  0.544410  0.313790  1.0  -0.1074
  C  C666  1  0.099980  0.548780  0.266320  1.0  -0.0063
  C  C667  1  0.144510  0.553430  0.234970  1.0  -0.0063
  C  C668  1  0.172970  0.555230  0.252330  1.0  -0.1025
  C  C669  1  0.156590  0.551190  0.299570  1.0  -0.0159
  C  C670  1  0.072870  0.550070  0.241590  1.0  0.0615
  C  C671  1  0.151490  0.555730  0.187350  1.0  -0.0564
  C  C672  1  0.108630  0.554930  0.190690  1.0  -0.0418
  C  C673  1  0.026410  0.595390  0.243830  1.0  -0.1681
  C  C674  1  0.034700  0.644500  0.216900  1.0  -0.3065
  C  C675  1  0.063290  0.501830  0.266430  1.0  -0.1493
  C  C676  1  0.108370  0.457430  0.264430  1.0  -0.2739
  C  C677  1  0.982040  0.382920  0.536880  1.0  0.697
  C  C678  1  0.011550  0.330870  0.545110  1.0  -0.1363
  C  C679  1  0.058170  0.313790  0.544410  1.0  -0.1119
  C  C680  1  0.084920  0.266320  0.548780  1.0  -0.0063
  C  C681  1  0.067090  0.234970  0.553430  1.0  -0.0069
  C  C682  1  0.019470  0.252330  0.555230  1.0  -0.1021
  C  C683  1  0.992650  0.299570  0.551190  1.0  -0.0184
  C  C684  1  0.135470  0.241590  0.550070  1.0  0.0629
  C  C685  1  0.105430  0.187350  0.555730  1.0  -0.0555
  C  C686  1  0.145750  0.190690  0.554930  1.0  -0.043
  C  C687  1  0.134370  0.243830  0.595390  1.0  -0.1723
  C  C688  1  0.103900  0.216900  0.644500  1.0  -0.3104
  C  C689  1  0.168450  0.266430  0.501830  1.0  -0.1485
  C  C690  1  0.169770  0.264430  0.457430  1.0  -0.2752
  C  C691  1  0.382920  0.982040  0.098160  1.0  0.6965
  C  C692  1  0.330870  0.011550  0.112470  1.0  -0.1351
  C  C693  1  0.313790  0.058170  0.083630  1.0  -0.1079
  C  C694  1  0.266320  0.084920  0.099980  1.0  -0.0062
  C  C695  1  0.234970  0.067090  0.144510  1.0  -0.0073
  C  C696  1  0.252330  0.019470  0.172970  1.0  -0.0979
  C  C697  1  0.299570  0.992650  0.156590  1.0  -0.0199
  C  C698  1  0.241590  0.135470  0.072870  1.0  0.062
  C  C699  1  0.187350  0.105430  0.151490  1.0  -0.0551
  C  C700  1  0.190690  0.145750  0.108630  1.0  -0.0439
  C  C701  1  0.243830  0.134370  0.026410  1.0  -0.1683
  C  C702  1  0.216900  0.103900  0.034700  1.0  -0.3107
  C  C703  1  0.266430  0.168450  0.063290  1.0  -0.1481
  C  C704  1  0.264430  0.169770  0.108370  1.0  -0.2755
  C  C705  1  0.536880  0.982040  0.382920  1.0  0.6995
  C  C706  1  0.545110  0.011550  0.330870  1.0  -0.135
  C  C707  1  0.544410  0.058170  0.313790  1.0  -0.1106
  C  C708  1  0.548780  0.084920  0.266320  1.0  -0.0059
  C  C709  1  0.553430  0.067090  0.234970  1.0  -0.0053
  C  C710  1  0.555230  0.019470  0.252330  1.0  -0.1028
  C  C711  1  0.551190  0.992650  0.299570  1.0  -0.0194
  C  C712  1  0.550070  0.135470  0.241590  1.0  0.0621
  C  C713  1  0.555730  0.105430  0.187350  1.0  -0.0557
  C  C714  1  0.554930  0.145750  0.190690  1.0  -0.0458
  C  C715  1  0.595390  0.134370  0.243830  1.0  -0.1748
  C  C716  1  0.644500  0.103900  0.216900  1.0  -0.3069
  C  C717  1  0.501830  0.168450  0.266430  1.0  -0.15
  C  C718  1  0.457430  0.169770  0.264430  1.0  -0.2749
  C  C719  1  0.098160  0.382920  0.982040  1.0  0.6985
  C  C720  1  0.112470  0.330870  0.011550  1.0  -0.1346
  C  C721  1  0.083630  0.313790  0.058170  1.0  -0.1137
  C  C722  1  0.099980  0.266320  0.084920  1.0  -0.0031
  C  C723  1  0.144510  0.234970  0.067090  1.0  -0.0075
  C  C724  1  0.172970  0.252330  0.019470  1.0  -0.1004
  C  C725  1  0.156590  0.299570  0.992650  1.0  -0.0165
  C  C726  1  0.072870  0.241590  0.135470  1.0  0.0615
  C  C727  1  0.151490  0.187350  0.105430  1.0  -0.0546
  C  C728  1  0.108630  0.190690  0.145750  1.0  -0.0444
  C  C729  1  0.026410  0.243830  0.134370  1.0  -0.1727
  C  C730  1  0.034700  0.216900  0.103900  1.0  -0.3099
  C  C731  1  0.063290  0.266430  0.168450  1.0  -0.1476
  C  C732  1  0.108370  0.264430  0.169770  1.0  -0.275
  C  C733  1  0.982040  0.536880  0.098160  1.0  0.6969
  C  C734  1  0.011550  0.545110  0.112470  1.0  -0.1355
  C  C735  1  0.058170  0.544410  0.083630  1.0  -0.106
  C  C736  1  0.084920  0.548780  0.099980  1.0  -0.0069
  C  C737  1  0.067090  0.553430  0.144510  1.0  -0.0072
  C  C738  1  0.019470  0.555230  0.172970  1.0  -0.102
  C  C739  1  0.992650  0.551190  0.156590  1.0  -0.0197
  C  C740  1  0.135470  0.550070  0.072870  1.0  0.0616
  C  C741  1  0.105430  0.555730  0.151490  1.0  -0.0559
  C  C742  1  0.145750  0.554930  0.108630  1.0  -0.0448
  C  C743  1  0.134370  0.595390  0.026410  1.0  -0.1701
  C  C744  1  0.103900  0.644500  0.034700  1.0  -0.3073
  C  C745  1  0.168450  0.501830  0.063290  1.0  -0.1498
  C  C746  1  0.169770  0.457430  0.108370  1.0  -0.2727
  C  C747  1  0.382920  0.098160  0.536880  1.0  0.6979
  C  C748  1  0.330870  0.112470  0.545110  1.0  -0.1394
  C  C749  1  0.313790  0.083630  0.544410  1.0  -0.1067
  C  C750  1  0.266320  0.099980  0.548780  1.0  -0.0045
  C  C751  1  0.234970  0.144510  0.553430  1.0  -0.0069
  C  C752  1  0.252330  0.172970  0.555230  1.0  -0.104
  C  C753  1  0.299570  0.156590  0.551190  1.0  -0.0171
  C  C754  1  0.241590  0.072870  0.550070  1.0  0.062
  C  C755  1  0.187350  0.151490  0.555730  1.0  -0.056
  C  C756  1  0.190690  0.108630  0.554930  1.0  -0.0431
  C  C757  1  0.243830  0.026410  0.595390  1.0  -0.172
  C  C758  1  0.216900  0.034700  0.644500  1.0  -0.3087
  C  C759  1  0.266430  0.063290  0.501830  1.0  -0.1506
  C  C760  1  0.264430  0.108370  0.457430  1.0  -0.2768
  C  C761  1  0.536880  0.382920  0.098160  1.0  0.699
  C  C762  1  0.545110  0.330870  0.112470  1.0  -0.1372
  C  C763  1  0.544410  0.313790  0.083630  1.0  -0.1123
  C  C764  1  0.548780  0.266320  0.099980  1.0  -0.004
  C  C765  1  0.553430  0.234970  0.144510  1.0  -0.0056
  C  C766  1  0.555230  0.252330  0.172970  1.0  -0.1004
  C  C767  1  0.551190  0.299570  0.156590  1.0  -0.0192
  C  C768  1  0.550070  0.241590  0.072870  1.0  0.061
  C  C769  1  0.555730  0.187350  0.151490  1.0  -0.0554
  C  C770  1  0.554930  0.190690  0.108630  1.0  -0.0456
  C  C771  1  0.595390  0.243830  0.026410  1.0  -0.174
  C  C772  1  0.644500  0.216900  0.034700  1.0  -0.3069
  C  C773  1  0.501830  0.266430  0.063290  1.0  -0.1498
  C  C774  1  0.457430  0.264430  0.108370  1.0  -0.2753
  C  C775  1  0.098160  0.982040  0.536880  1.0  0.6988
  C  C776  1  0.112470  0.011550  0.545110  1.0  -0.1384
  C  C777  1  0.083630  0.058170  0.544410  1.0  -0.1076
  C  C778  1  0.099980  0.084920  0.548780  1.0  -0.0069
  C  C779  1  0.144510  0.067090  0.553430  1.0  -0.0065
  C  C780  1  0.172970  0.019470  0.555230  1.0  -0.1
  C  C781  1  0.156590  0.992650  0.551190  1.0  -0.0211
  C  C782  1  0.072870  0.135470  0.550070  1.0  0.0608
  C  C783  1  0.151490  0.105430  0.555730  1.0  -0.055
  C  C784  1  0.108630  0.145750  0.554930  1.0  -0.0462
  C  C785  1  0.026410  0.134370  0.595390  1.0  -0.1719
  C  C786  1  0.034700  0.103900  0.644500  1.0  -0.3093
  C  C787  1  0.063290  0.168450  0.501830  1.0  -0.1481
  C  C788  1  0.108370  0.169770  0.457430  1.0  -0.2766
  C  C789  1  0.982040  0.098160  0.382920  1.0  0.6968
  C  C790  1  0.011550  0.112470  0.330870  1.0  -0.1377
  C  C791  1  0.058170  0.083630  0.313790  1.0  -0.1037
  C  C792  1  0.084920  0.099980  0.266320  1.0  -0.0065
  C  C793  1  0.067090  0.144510  0.234970  1.0  -0.0081
  C  C794  1  0.019470  0.172970  0.252330  1.0  -0.1013
  C  C795  1  0.992650  0.156590  0.299570  1.0  -0.0193
  C  C796  1  0.135470  0.072870  0.241590  1.0  0.0611
  C  C797  1  0.105430  0.151490  0.187350  1.0  -0.0557
  C  C798  1  0.145750  0.108630  0.190690  1.0  -0.0444
  C  C799  1  0.134370  0.026410  0.243830  1.0  -0.173
  C  C800  1  0.103900  0.034700  0.216900  1.0  -0.3095
  C  C801  1  0.168450  0.063290  0.266430  1.0  -0.1485
  C  C802  1  0.169770  0.108370  0.264430  1.0  -0.2767
  C  C803  1  0.382920  0.536880  0.982040  1.0  0.6969
  C  C804  1  0.330870  0.545110  0.011550  1.0  -0.1359
  C  C805  1  0.313790  0.544410  0.058170  1.0  -0.1067
  C  C806  1  0.266320  0.548780  0.084920  1.0  -0.0045
  C  C807  1  0.234970  0.553430  0.067090  1.0  -0.007
  C  C808  1  0.252330  0.555230  0.019470  1.0  -0.1009
  C  C809  1  0.299570  0.551190  0.992650  1.0  -0.0201
  C  C810  1  0.241590  0.550070  0.135470  1.0  0.0606
  C  C811  1  0.187350  0.555730  0.105430  1.0  -0.0548
  C  C812  1  0.190690  0.554930  0.145750  1.0  -0.0455
  C  C813  1  0.243830  0.595390  0.134370  1.0  -0.173
  C  C814  1  0.216900  0.644500  0.103900  1.0  -0.3071
  C  C815  1  0.266430  0.501830  0.168450  1.0  -0.1534
  C  C816  1  0.264430  0.457430  0.169770  1.0  -0.2737
  C  C817  1  0.401840  0.963120  0.517960  1.0  0.6999
  C  C818  1  0.387530  0.954890  0.488450  1.0  -0.1348
  C  C819  1  0.416370  0.955590  0.441830  1.0  -0.1069
  C  C820  1  0.400020  0.951220  0.415080  1.0  -0.0062
  C  C821  1  0.355490  0.946570  0.432910  1.0  -0.0052
  C  C822  1  0.327030  0.944770  0.480530  1.0  -0.1
  C  C823  1  0.343410  0.948810  0.507350  1.0  -0.0156
  C  C824  1  0.427130  0.949930  0.364530  1.0  0.0619
  C  C825  1  0.348510  0.944270  0.394570  1.0  -0.0567
  C  C826  1  0.391370  0.945070  0.354250  1.0  -0.0428
  C  C827  1  0.473590  0.904610  0.365630  1.0  -0.1673
  C  C828  1  0.465300  0.855500  0.396100  1.0  -0.3073
  C  C829  1  0.436710  0.998170  0.331550  1.0  -0.1455
  C  C830  1  0.391630  0.042570  0.330230  1.0  -0.272
  C  C831  1  0.963120  0.401840  0.117080  1.0  0.699
  C  C832  1  0.954890  0.387530  0.169130  1.0  -0.1355
  C  C833  1  0.955590  0.416370  0.186210  1.0  -0.1103
  C  C834  1  0.951220  0.400020  0.233680  1.0  -0.0036
  C  C835  1  0.946570  0.355490  0.265030  1.0  -0.0077
  C  C836  1  0.944770  0.327030  0.247670  1.0  -0.1018
  C  C837  1  0.948810  0.343410  0.200430  1.0  -0.018
  C  C838  1  0.949930  0.427130  0.258410  1.0  0.0607
  C  C839  1  0.944270  0.348510  0.312650  1.0  -0.0568
  C  C840  1  0.945070  0.391370  0.309310  1.0  -0.0451
  C  C841  1  0.904610  0.473590  0.256170  1.0  -0.169
  C  C842  1  0.855500  0.465300  0.283100  1.0  -0.3062
  C  C843  1  0.998170  0.436710  0.233570  1.0  -0.1483
  C  C844  1  0.042570  0.391630  0.235570  1.0  -0.2765
  C  C845  1  0.117080  0.517960  0.963120  1.0  0.6956
  C  C846  1  0.169130  0.488450  0.954890  1.0  -0.1338
  C  C847  1  0.186210  0.441830  0.955590  1.0  -0.1069
  C  C848  1  0.233680  0.415080  0.951220  1.0  -0.0045
  C  C849  1  0.265030  0.432910  0.946570  1.0  -0.0064
  C  C850  1  0.247670  0.480530  0.944770  1.0  -0.0995
  C  C851  1  0.200430  0.507350  0.948810  1.0  -0.0187
  C  C852  1  0.258410  0.364530  0.949930  1.0  0.0617
  C  C853  1  0.312650  0.394570  0.944270  1.0  -0.0551
  C  C854  1  0.309310  0.354250  0.945070  1.0  -0.0439
  C  C855  1  0.256170  0.365630  0.904610  1.0  -0.1688
  C  C856  1  0.283100  0.396100  0.855500  1.0  -0.3104
  C  C857  1  0.233570  0.331550  0.998170  1.0  -0.1509
  C  C858  1  0.235570  0.330230  0.042570  1.0  -0.2754
  C  C859  1  0.517960  0.117080  0.401840  1.0  0.6985
  C  C860  1  0.488450  0.169130  0.387530  1.0  -0.1363
  C  C861  1  0.441830  0.186210  0.416370  1.0  -0.1134
  C  C862  1  0.415080  0.233680  0.400020  1.0  -0.006
  C  C863  1  0.432910  0.265030  0.355490  1.0  -0.0051
  C  C864  1  0.480530  0.247670  0.327030  1.0  -0.0996
  C  C865  1  0.507350  0.200430  0.343410  1.0  -0.0175
  C  C866  1  0.364530  0.258410  0.427130  1.0  0.0635
  C  C867  1  0.394570  0.312650  0.348510  1.0  -0.0549
  C  C868  1  0.354250  0.309310  0.391370  1.0  -0.041
  C  C869  1  0.365630  0.256170  0.473590  1.0  -0.1722
  C  C870  1  0.396100  0.283100  0.465300  1.0  -0.3091
  C  C871  1  0.331550  0.233570  0.436710  1.0  -0.1505
  C  C872  1  0.330230  0.235570  0.391630  1.0  -0.2758
  C  C873  1  0.517960  0.963120  0.117080  1.0  0.6967
  C  C874  1  0.488450  0.954890  0.169130  1.0  -0.1357
  C  C875  1  0.441830  0.955590  0.186210  1.0  -0.107
  C  C876  1  0.415080  0.951220  0.233680  1.0  -0.0056
  C  C877  1  0.432910  0.946570  0.265030  1.0  -0.0056
  C  C878  1  0.480530  0.944770  0.247670  1.0  -0.1003
  C  C879  1  0.507350  0.948810  0.200430  1.0  -0.0216
  C  C880  1  0.364530  0.949930  0.258410  1.0  0.0618
  C  C881  1  0.394570  0.944270  0.312650  1.0  -0.0556
  C  C882  1  0.354250  0.945070  0.309310  1.0  -0.0447
  C  C883  1  0.365630  0.904610  0.256170  1.0  -0.1693
  C  C884  1  0.396100  0.855500  0.283100  1.0  -0.3086
  C  C885  1  0.331550  0.998170  0.233570  1.0  -0.1507
  C  C886  1  0.330230  0.042570  0.235570  1.0  -0.2723
  C  C887  1  0.117080  0.401840  0.517960  1.0  0.6964
  C  C888  1  0.169130  0.387530  0.488450  1.0  -0.1407
  C  C889  1  0.186210  0.416370  0.441830  1.0  -0.1066
  C  C890  1  0.233680  0.400020  0.415080  1.0  -0.0061
  C  C891  1  0.265030  0.355490  0.432910  1.0  -0.007
  C  C892  1  0.247670  0.327030  0.480530  1.0  -0.105
  C  C893  1  0.200430  0.343410  0.507350  1.0  -0.0173
  C  C894  1  0.258410  0.427130  0.364530  1.0  0.0615
  C  C895  1  0.312650  0.348510  0.394570  1.0  -0.0557
  C  C896  1  0.309310  0.391370  0.354250  1.0  -0.0435
  C  C897  1  0.256170  0.473590  0.365630  1.0  -0.1753
  C  C898  1  0.283100  0.465300  0.396100  1.0  -0.3084
  C  C899  1  0.233570  0.436710  0.331550  1.0  -0.1507
  C  C900  1  0.235570  0.391630  0.330230  1.0  -0.2773
  C  C901  1  0.963120  0.517960  0.401840  1.0  0.6984
  C  C902  1  0.954890  0.488450  0.387530  1.0  -0.1353
  C  C903  1  0.955590  0.441830  0.416370  1.0  -0.1096
  C  C904  1  0.951220  0.415080  0.400020  1.0  -0.004
  C  C905  1  0.946570  0.432910  0.355490  1.0  -0.0067
  C  C906  1  0.944770  0.480530  0.327030  1.0  -0.1047
  C  C907  1  0.948810  0.507350  0.343410  1.0  -0.0184
  C  C908  1  0.949930  0.364530  0.427130  1.0  0.0616
  C  C909  1  0.944270  0.394570  0.348510  1.0  -0.0555
  C  C910  1  0.945070  0.354250  0.391370  1.0  -0.0456
  C  C911  1  0.904610  0.365630  0.473590  1.0  -0.1755
  C  C912  1  0.855500  0.396100  0.465300  1.0  -0.3074
  C  C913  1  0.998170  0.331550  0.436710  1.0  -0.1489
  C  C914  1  0.042570  0.330230  0.391630  1.0  -0.2737
  C  C915  1  0.401840  0.117080  0.963120  1.0  0.6989
  C  C916  1  0.387530  0.169130  0.954890  1.0  -0.1366
  C  C917  1  0.416370  0.186210  0.955590  1.0  -0.1135
  C  C918  1  0.400020  0.233680  0.951220  1.0  -0.0046
  C  C919  1  0.355490  0.265030  0.946570  1.0  -0.0065
  C  C920  1  0.327030  0.247670  0.944770  1.0  -0.1014
  C  C921  1  0.343410  0.200430  0.948810  1.0  -0.0146
  C  C922  1  0.427130  0.258410  0.949930  1.0  0.0627
  C  C923  1  0.348510  0.312650  0.944270  1.0  -0.0544
  C  C924  1  0.391370  0.309310  0.945070  1.0  -0.0422
  C  C925  1  0.473590  0.256170  0.904610  1.0  -0.1743
  C  C926  1  0.465300  0.283100  0.855500  1.0  -0.3104
  C  C927  1  0.436710  0.233570  0.998170  1.0  -0.1482
  C  C928  1  0.391630  0.235570  0.042570  1.0  -0.2764
  C  C929  1  0.117080  0.963120  0.401840  1.0  0.6958
  C  C930  1  0.169130  0.954890  0.387530  1.0  -0.1368
  C  C931  1  0.186210  0.955590  0.416370  1.0  -0.1052
  C  C932  1  0.233680  0.951220  0.400020  1.0  -0.0064
  C  C933  1  0.265030  0.946570  0.355490  1.0  -0.0073
  C  C934  1  0.247670  0.944770  0.327030  1.0  -0.1021
  C  C935  1  0.200430  0.948810  0.343410  1.0  -0.0194
  C  C936  1  0.258410  0.949930  0.427130  1.0  0.06
  C  C937  1  0.312650  0.944270  0.348510  1.0  -0.0551
  C  C938  1  0.309310  0.945070  0.391370  1.0  -0.0469
  C  C939  1  0.256170  0.904610  0.473590  1.0  -0.1723
  C  C940  1  0.283100  0.855500  0.465300  1.0  -0.3076
  C  C941  1  0.233570  0.998170  0.436710  1.0  -0.1538
  C  C942  1  0.235570  0.042570  0.391630  1.0  -0.2734
  C  C943  1  0.517960  0.401840  0.963120  1.0  0.6974
  C  C944  1  0.488450  0.387530  0.954890  1.0  -0.137
  C  C945  1  0.441830  0.416370  0.955590  1.0  -0.1061
  C  C946  1  0.415080  0.400020  0.951220  1.0  -0.0058
  C  C947  1  0.432910  0.355490  0.946570  1.0  -0.0052
  C  C948  1  0.480530  0.327030  0.944770  1.0  -0.0997
  C  C949  1  0.507350  0.343410  0.948810  1.0  -0.0175
  C  C950  1  0.364530  0.427130  0.949930  1.0  0.0608
  C  C951  1  0.394570  0.348510  0.944270  1.0  -0.0553
  C  C952  1  0.354250  0.391370  0.945070  1.0  -0.0452
  C  C953  1  0.365630  0.473590  0.904610  1.0  -0.1717
  C  C954  1  0.396100  0.465300  0.855500  1.0  -0.3101
  C  C955  1  0.331550  0.436710  0.998170  1.0  -0.1476
  C  C956  1  0.330230  0.391630  0.042570  1.0  -0.2769
  C  C957  1  0.401840  0.517960  0.117080  1.0  0.6985
  C  C958  1  0.387530  0.488450  0.169130  1.0  -0.1365
  C  C959  1  0.416370  0.441830  0.186210  1.0  -0.1074
  C  C960  1  0.400020  0.415080  0.233680  1.0  -0.0039
  C  C961  1  0.355490  0.432910  0.265030  1.0  -0.0055
  C  C962  1  0.327030  0.480530  0.247670  1.0  -0.1016
  C  C963  1  0.343410  0.507350  0.200430  1.0  -0.0208
  C  C964  1  0.427130  0.364530  0.258410  1.0  0.0615
  C  C965  1  0.348510  0.394570  0.312650  1.0  -0.0553
  C  C966  1  0.391370  0.354250  0.309310  1.0  -0.0462
  C  C967  1  0.473590  0.365630  0.256170  1.0  -0.1727
  C  C968  1  0.465300  0.396100  0.283100  1.0  -0.3094
  C  C969  1  0.436710  0.331550  0.233570  1.0  -0.1479
  C  C970  1  0.391630  0.330230  0.235570  1.0  -0.278
  C  C971  1  0.963120  0.117080  0.517960  1.0  0.6996
  C  C972  1  0.954890  0.169130  0.488450  1.0  -0.1374
  C  C973  1  0.955590  0.186210  0.441830  1.0  -0.1122
  C  C974  1  0.951220  0.233680  0.415080  1.0  -0.0058
  C  C975  1  0.946570  0.265030  0.432910  1.0  -0.0063
  C  C976  1  0.944770  0.247670  0.480530  1.0  -0.1008
  C  C977  1  0.948810  0.200430  0.507350  1.0  -0.0201
  C  C978  1  0.949930  0.258410  0.364530  1.0  0.0611
  C  C979  1  0.944270  0.312650  0.394570  1.0  -0.0554
  C  C980  1  0.945070  0.309310  0.354250  1.0  -0.0446
  C  C981  1  0.904610  0.256170  0.365630  1.0  -0.1731
  C  C982  1  0.855500  0.283100  0.396100  1.0  -0.3076
  C  C983  1  0.998170  0.233570  0.331550  1.0  -0.1499
  C  C984  1  0.042570  0.235570  0.330230  1.0  -0.2732
  C  C985  1  0.463120  0.901840  0.017960  1.0  0.699
  C  C986  1  0.454890  0.887530  0.988450  1.0  -0.137
  C  C987  1  0.455590  0.916370  0.941830  1.0  -0.1077
  C  C988  1  0.451220  0.900020  0.915080  1.0  -0.0063
  C  C989  1  0.446570  0.855490  0.932910  1.0  -0.0068
  C  C990  1  0.444770  0.827030  0.980530  1.0  -0.1022
  C  C991  1  0.448810  0.843410  0.007350  1.0  -0.0189
  C  C992  1  0.449930  0.927130  0.864530  1.0  0.0607
  C  C993  1  0.444270  0.848510  0.894570  1.0  -0.0565
  C  C994  1  0.445070  0.891370  0.854250  1.0  -0.0429
  C  C995  1  0.404610  0.973590  0.865630  1.0  -0.1687
  C  C996  1  0.355500  0.965300  0.896100  1.0  -0.3062
  C  C997  1  0.498170  0.936710  0.831550  1.0  -0.1482
  C  C998  1  0.542570  0.891630  0.830230  1.0  -0.2765
  C  C999  1  0.901840  0.463120  0.617080  1.0  0.6984
  C  C1000  1  0.887530  0.454890  0.669130  1.0  -0.1336
  C  C1001  1  0.916370  0.455590  0.686210  1.0  -0.1094
  C  C1002  1  0.900020  0.451220  0.733680  1.0  -0.0042
  C  C1003  1  0.855490  0.446570  0.765030  1.0  -0.0063
  C  C1004  1  0.827030  0.444770  0.747670  1.0  -0.1001
  C  C1005  1  0.843410  0.448810  0.700430  1.0  -0.0163
  C  C1006  1  0.927130  0.449930  0.758410  1.0  0.0621
  C  C1007  1  0.848510  0.444270  0.812650  1.0  -0.0567
  C  C1008  1  0.891370  0.445070  0.809310  1.0  -0.0449
  C  C1009  1  0.973590  0.404610  0.756170  1.0  -0.1673
  C  C1010  1  0.965300  0.355500  0.783100  1.0  -0.3072
  C  C1011  1  0.936710  0.498170  0.733570  1.0  -0.1455
  C  C1012  1  0.891630  0.542570  0.735570  1.0  -0.2721
  C  C1013  1  0.017960  0.617080  0.463120  1.0  0.6985
  C  C1014  1  0.988450  0.669130  0.454890  1.0  -0.1361
  C  C1015  1  0.941830  0.686210  0.455590  1.0  -0.1129
  C  C1016  1  0.915080  0.733680  0.451220  1.0  -0.0063
  C  C1017  1  0.932910  0.765030  0.446570  1.0  -0.0064
  C  C1018  1  0.980530  0.747670  0.444770  1.0  -0.0976
  C  C1019  1  0.007350  0.700430  0.448810  1.0  -0.0169
  C  C1020  1  0.864530  0.758410  0.449930  1.0  0.0623
  C  C1021  1  0.894570  0.812650  0.444270  1.0  -0.0548
  C  C1022  1  0.854250  0.809310  0.445070  1.0  -0.0424
  C  C1023  1  0.865630  0.756170  0.404610  1.0  -0.1693
  C  C1024  1  0.896100  0.783100  0.355500  1.0  -0.3103
  C  C1025  1  0.831550  0.733570  0.498170  1.0  -0.1496
  C  C1026  1  0.830230  0.735570  0.542570  1.0  -0.2761
  C  C1027  1  0.617080  0.017960  0.901840  1.0  0.6948
  C  C1028  1  0.669130  0.988450  0.887530  1.0  -0.1343
  C  C1029  1  0.686210  0.941830  0.916370  1.0  -0.1081
  C  C1030  1  0.733680  0.915080  0.900020  1.0  -0.0042
  C  C1031  1  0.765030  0.932910  0.855490  1.0  -0.0057
  C  C1032  1  0.747670  0.980530  0.827030  1.0  -0.103
  C  C1033  1  0.700430  0.007350  0.843410  1.0  -0.019
  C  C1034  1  0.758410  0.864530  0.927130  1.0  0.063
  C  C1035  1  0.812650  0.894570  0.848510  1.0  -0.0553
  C  C1036  1  0.809310  0.854250  0.891370  1.0  -0.0431
  C  C1037  1  0.756170  0.865630  0.973590  1.0  -0.1713
  C  C1038  1  0.783100  0.896100  0.965300  1.0  -0.3092
  C  C1039  1  0.733570  0.831550  0.936710  1.0  -0.1516
  C  C1040  1  0.735570  0.830230  0.891630  1.0  -0.2746
  C  C1041  1  0.463120  0.017960  0.617080  1.0  0.698
  C  C1042  1  0.454890  0.988450  0.669130  1.0  -0.1346
  C  C1043  1  0.455590  0.941830  0.686210  1.0  -0.1102
  C  C1044  1  0.451220  0.915080  0.733680  1.0  -0.0042
  C  C1045  1  0.446570  0.932910  0.765030  1.0  -0.0065
  C  C1046  1  0.444770  0.980530  0.747670  1.0  -0.1042
  C  C1047  1  0.448810  0.007350  0.700430  1.0  -0.0184
  C  C1048  1  0.449930  0.864530  0.758410  1.0  0.0613
  C  C1049  1  0.444270  0.894570  0.812650  1.0  -0.0556
  C  C1050  1  0.445070  0.854250  0.809310  1.0  -0.0455
  C  C1051  1  0.404610  0.865630  0.756170  1.0  -0.1732
  C  C1052  1  0.355500  0.896100  0.783100  1.0  -0.3079
  C  C1053  1  0.498170  0.831550  0.733570  1.0  -0.1484
  C  C1054  1  0.542570  0.830230  0.735570  1.0  -0.2729
  C  C1055  1  0.901840  0.617080  0.017960  1.0  0.6998
  C  C1056  1  0.887530  0.669130  0.988450  1.0  -0.1369
  C  C1057  1  0.916370  0.686210  0.941830  1.0  -0.1127
  C  C1058  1  0.900020  0.733680  0.915080  1.0  -0.0058
  C  C1059  1  0.855490  0.765030  0.932910  1.0  -0.0056
  C  C1060  1  0.827030  0.747670  0.980530  1.0  -0.1012
  C  C1061  1  0.843410  0.700430  0.007350  1.0  -0.0161
  C  C1062  1  0.927130  0.758410  0.864530  1.0  0.0631
  C  C1063  1  0.848510  0.812650  0.894570  1.0  -0.0557
  C  C1064  1  0.891370  0.809310  0.854250  1.0  -0.0415
  C  C1065  1  0.973590  0.756170  0.865630  1.0  -0.1726
  C  C1066  1  0.965300  0.783100  0.896100  1.0  -0.309
  C  C1067  1  0.936710  0.733570  0.831550  1.0  -0.149
  C  C1068  1  0.891630  0.735570  0.830230  1.0  -0.2777
  C  C1069  1  0.017960  0.463120  0.901840  1.0  0.6978
  C  C1070  1  0.988450  0.454890  0.887530  1.0  -0.1361
  C  C1071  1  0.941830  0.455590  0.916370  1.0  -0.108
  C  C1072  1  0.915080  0.451220  0.900020  1.0  -0.0052
  C  C1073  1  0.932910  0.446570  0.855490  1.0  -0.0051
  C  C1074  1  0.980530  0.444770  0.827030  1.0  -0.1001
  C  C1075  1  0.007350  0.448810  0.843410  1.0  -0.0217
  C  C1076  1  0.864530  0.449930  0.927130  1.0  0.0619
  C  C1077  1  0.894570  0.444270  0.848510  1.0  -0.0558
  C  C1078  1  0.854250  0.445070  0.891370  1.0  -0.0449
  C  C1079  1  0.865630  0.404610  0.973590  1.0  -0.1724
  C  C1080  1  0.896100  0.355500  0.965300  1.0  -0.3085
  C  C1081  1  0.831550  0.498170  0.936710  1.0  -0.1505
  C  C1082  1  0.830230  0.542570  0.891630  1.0  -0.2726
  C  C1083  1  0.617080  0.901840  0.463120  1.0  0.6962
  C  C1084  1  0.669130  0.887530  0.454890  1.0  -0.1373
  C  C1085  1  0.686210  0.916370  0.455590  1.0  -0.1068
  C  C1086  1  0.733680  0.900020  0.451220  1.0  -0.0045
  C  C1087  1  0.765030  0.855490  0.446570  1.0  -0.0082
  C  C1088  1  0.747670  0.827030  0.444770  1.0  -0.1036
  C  C1089  1  0.700430  0.843410  0.448810  1.0  -0.0146
  C  C1090  1  0.758410  0.927130  0.449930  1.0  0.0612
  C  C1091  1  0.812650  0.848510  0.444270  1.0  -0.0543
  C  C1092  1  0.809310  0.891370  0.445070  1.0  -0.044
  C  C1093  1  0.756170  0.973590  0.404610  1.0  -0.1733
  C  C1094  1  0.783100  0.965300  0.355500  1.0  -0.3097
  C  C1095  1  0.733570  0.936710  0.498170  1.0  -0.1497
  C  C1096  1  0.735570  0.891630  0.542570  1.0  -0.2769
  C  C1097  1  0.463120  0.617080  0.901840  1.0  0.6991
  C  C1098  1  0.454890  0.669130  0.887530  1.0  -0.1377
  C  C1099  1  0.455590  0.686210  0.916370  1.0  -0.1116
  C  C1100  1  0.451220  0.733680  0.900020  1.0  -0.0065
  C  C1101  1  0.446570  0.765030  0.855490  1.0  -0.0073
  C  C1102  1  0.444770  0.747670  0.827030  1.0  -0.1009
  C  C1103  1  0.448810  0.700430  0.843410  1.0  -0.0193
  C  C1104  1  0.449930  0.758410  0.927130  1.0  0.061
  C  C1105  1  0.444270  0.812650  0.848510  1.0  -0.0556
  C  C1106  1  0.445070  0.809310  0.891370  1.0  -0.0444
  C  C1107  1  0.404610  0.756170  0.973590  1.0  -0.1765
  C  C1108  1  0.355500  0.783100  0.965300  1.0  -0.3073
  C  C1109  1  0.498170  0.733570  0.936710  1.0  -0.1515
  C  C1110  1  0.542570  0.735570  0.891630  1.0  -0.2745
  C  C1111  1  0.901840  0.017960  0.463120  1.0  0.6985
  C  C1112  1  0.887530  0.988450  0.454890  1.0  -0.1366
  C  C1113  1  0.916370  0.941830  0.455590  1.0  -0.1075
  C  C1114  1  0.900020  0.915080  0.451220  1.0  -0.0041
  C  C1115  1  0.855490  0.932910  0.446570  1.0  -0.0062
  C  C1116  1  0.827030  0.980530  0.444770  1.0  -0.1009
  C  C1117  1  0.843410  0.007350  0.448810  1.0  -0.0197
  C  C1118  1  0.927130  0.864530  0.449930  1.0  0.0614
  C  C1119  1  0.848510  0.894570  0.444270  1.0  -0.0544
  C  C1120  1  0.891370  0.854250  0.445070  1.0  -0.0457
  C  C1121  1  0.973590  0.865630  0.404610  1.0  -0.1738
  C  C1122  1  0.965300  0.896100  0.355500  1.0  -0.3107
  C  C1123  1  0.936710  0.831550  0.498170  1.0  -0.1477
  C  C1124  1  0.891630  0.830230  0.542570  1.0  -0.2777
  C  C1125  1  0.017960  0.901840  0.617080  1.0  0.6972
  C  C1126  1  0.988450  0.887530  0.669130  1.0  -0.1367
  C  C1127  1  0.941830  0.916370  0.686210  1.0  -0.106
  C  C1128  1  0.915080  0.900020  0.733680  1.0  -0.0057
  C  C1129  1  0.932910  0.855490  0.765030  1.0  -0.0052
  C  C1130  1  0.980530  0.827030  0.747670  1.0  -0.1006
  C  C1131  1  0.007350  0.843410  0.700430  1.0  -0.0184
  C  C1132  1  0.864530  0.927130  0.758410  1.0  0.0609
  C  C1133  1  0.894570  0.848510  0.812650  1.0  -0.0559
  C  C1134  1  0.854250  0.891370  0.809310  1.0  -0.0459
  C  C1135  1  0.865630  0.973590  0.756170  1.0  -0.1735
  C  C1136  1  0.896100  0.965300  0.783100  1.0  -0.3087
  C  C1137  1  0.831550  0.936710  0.733570  1.0  -0.1483
  C  C1138  1  0.830230  0.891630  0.735570  1.0  -0.2772
  C  C1139  1  0.617080  0.463120  0.017960  1.0  0.6964
  C  C1140  1  0.669130  0.454890  0.988450  1.0  -0.1369
  C  C1141  1  0.686210  0.455590  0.941830  1.0  -0.1061
  C  C1142  1  0.733680  0.451220  0.915080  1.0  -0.0059
  C  C1143  1  0.765030  0.446570  0.932910  1.0  -0.0073
  C  C1144  1  0.747670  0.444770  0.980530  1.0  -0.102
  C  C1145  1  0.700430  0.448810  0.007350  1.0  -0.021
  C  C1146  1  0.758410  0.449930  0.864530  1.0  0.06
  C  C1147  1  0.812650  0.444270  0.894570  1.0  -0.0551
  C  C1148  1  0.809310  0.445070  0.854250  1.0  -0.0468
  C  C1149  1  0.756170  0.404610  0.865630  1.0  -0.1677
  C  C1150  1  0.783100  0.355500  0.896100  1.0  -0.3077
  C  C1151  1  0.733570  0.498170  0.831550  1.0  -0.1518
  C  C1152  1  0.735570  0.542570  0.830230  1.0  -0.2728
  C  C1153  1  0.598160  0.036880  0.482040  1.0  0.6995
  C  C1154  1  0.612470  0.045110  0.511550  1.0  -0.1334
  C  C1155  1  0.583630  0.044410  0.558170  1.0  -0.108
  C  C1156  1  0.599980  0.048780  0.584920  1.0  -0.0042
  C  C1157  1  0.644510  0.053430  0.567090  1.0  -0.0075
  C  C1158  1  0.672970  0.055230  0.519470  1.0  -0.1001
  C  C1159  1  0.656590  0.051190  0.492650  1.0  -0.016
  C  C1160  1  0.572870  0.050070  0.635470  1.0  0.0616
  C  C1161  1  0.651490  0.055730  0.605430  1.0  -0.0564
  C  C1162  1  0.608630  0.054930  0.645750  1.0  -0.0439
  C  C1163  1  0.526410  0.095390  0.634370  1.0  -0.1683
  C  C1164  1  0.534700  0.144500  0.603900  1.0  -0.3064
  C  C1165  1  0.563290  0.001830  0.668450  1.0  -0.1496
  C  C1166  1  0.608370  0.957430  0.669770  1.0  -0.2739
  C  C1167  1  0.036880  0.598160  0.882920  1.0  0.7001
  C  C1168  1  0.045110  0.612470  0.830870  1.0  -0.1374
  C  C1169  1  0.044410  0.583630  0.813790  1.0  -0.1088
  C  C1170  1  0.048780  0.599980  0.766320  1.0  -0.0046
  C  C1171  1  0.053430  0.644510  0.734970  1.0  -0.0059
  C  C1172  1  0.055230  0.672970  0.752330  1.0  -0.1011
  C  C1173  1  0.051190  0.656590  0.799570  1.0  -0.0178
  C  C1174  1  0.050070  0.572870  0.741590  1.0  0.0612
  C  C1175  1  0.055730  0.651490  0.687350  1.0  -0.0558
  C  C1176  1  0.054930  0.608630  0.690690  1.0  -0.0415
  C  C1177  1  0.095390  0.526410  0.743830  1.0  -0.1669
  C  C1178  1  0.144500  0.534700  0.716900  1.0  -0.3066
  C  C1179  1  0.001830  0.563290  0.766430  1.0  -0.1519
  C  C1180  1  0.957430  0.608370  0.764430  1.0  -0.2762
  C  C1181  1  0.882920  0.482040  0.036880  1.0  0.6966
  C  C1182  1  0.830870  0.511550  0.045110  1.0  -0.1348
  C  C1183  1  0.813790  0.558170  0.044410  1.0  -0.1082
  C  C1184  1  0.766320  0.584920  0.048780  1.0  -0.0061
  C  C1185  1  0.734970  0.567090  0.053430  1.0  -0.0061
  C  C1186  1  0.752330  0.519470  0.055230  1.0  -0.0992
  C  C1187  1  0.799570  0.492650  0.051190  1.0  -0.0199
  C  C1188  1  0.741590  0.635470  0.050070  1.0  0.0632
  C  C1189  1  0.687350  0.605430  0.055730  1.0  -0.0553
  C  C1190  1  0.690690  0.645750  0.054930  1.0  -0.0428
  C  C1191  1  0.743830  0.634370  0.095390  1.0  -0.1692
  C  C1192  1  0.716900  0.603900  0.144500  1.0  -0.3101
  C  C1193  1  0.766430  0.668450  0.001830  1.0  -0.1491
  C  C1194  1  0.764430  0.669770  0.957430  1.0  -0.275
  C  C1195  1  0.482040  0.882920  0.598160  1.0  0.6977
  C  C1196  1  0.511550  0.830870  0.612470  1.0  -0.1354
  C  C1197  1  0.558170  0.813790  0.583630  1.0  -0.1111
  C  C1198  1  0.584920  0.766320  0.599980  1.0  -0.0059
  C  C1199  1  0.567090  0.734970  0.644510  1.0  -0.0076
  C  C1200  1  0.519470  0.752330  0.672970  1.0  -0.1003
  C  C1201  1  0.492650  0.799570  0.656590  1.0  -0.0184
  C  C1202  1  0.635470  0.741590  0.572870  1.0  0.0616
  C  C1203  1  0.605430  0.687350  0.651490  1.0  -0.0558
  C  C1204  1  0.645750  0.690690  0.608630  1.0  -0.044
  C  C1205  1  0.634370  0.743830  0.526410  1.0  -0.1711
  C  C1206  1  0.603900  0.716900  0.534700  1.0  -0.3111
  C  C1207  1  0.668450  0.766430  0.563290  1.0  -0.1473
  C  C1208  1  0.669770  0.764430  0.608370  1.0  -0.2759
  C  C1209  1  0.482040  0.036880  0.882920  1.0  0.6967
  C  C1210  1  0.511550  0.045110  0.830870  1.0  -0.1357
  C  C1211  1  0.558170  0.044410  0.813790  1.0  -0.1067
  C  C1212  1  0.584920  0.048780  0.766320  1.0  -0.0067
  C  C1213  1  0.567090  0.053430  0.734970  1.0  -0.0074
  C  C1214  1  0.519470  0.055230  0.752330  1.0  -0.1022
  C  C1215  1  0.492650  0.051190  0.799570  1.0  -0.0192
  C  C1216  1  0.635470  0.050070  0.741590  1.0  0.062
  C  C1217  1  0.605430  0.055730  0.687350  1.0  -0.0558
  C  C1218  1  0.645750  0.054930  0.690690  1.0  -0.0448
  C  C1219  1  0.634370  0.095390  0.743830  1.0  -0.1732
  C  C1220  1  0.603900  0.144500  0.716900  1.0  -0.3073
  C  C1221  1  0.668450  0.001830  0.766430  1.0  -0.1498
  C  C1222  1  0.669770  0.957430  0.764430  1.0  -0.2733
  C  C1223  1  0.882920  0.598160  0.482040  1.0  0.6965
  C  C1224  1  0.830870  0.612470  0.511550  1.0  -0.1388
  C  C1225  1  0.813790  0.583630  0.558170  1.0  -0.1063
  C  C1226  1  0.766320  0.599980  0.584920  1.0  -0.0031
  C  C1227  1  0.734970  0.644510  0.567090  1.0  -0.008
  C  C1228  1  0.752330  0.672970  0.519470  1.0  -0.1037
  C  C1229  1  0.799570  0.656590  0.492650  1.0  -0.016
  C  C1230  1  0.741590  0.572870  0.635470  1.0  0.0617
  C  C1231  1  0.687350  0.651490  0.605430  1.0  -0.054
  C  C1232  1  0.690690  0.608630  0.645750  1.0  -0.0438
  C  C1233  1  0.743830  0.526410  0.634370  1.0  -0.1736
  C  C1234  1  0.716900  0.534700  0.603900  1.0  -0.3091
  C  C1235  1  0.766430  0.563290  0.668450  1.0  -0.1497
  C  C1236  1  0.764430  0.608370  0.669770  1.0  -0.2757
  C  C1237  1  0.036880  0.482040  0.598160  1.0  0.6985
  C  C1238  1  0.045110  0.511550  0.612470  1.0  -0.1349
  C  C1239  1  0.044410  0.558170  0.583630  1.0  -0.111
  C  C1240  1  0.048780  0.584920  0.599980  1.0  -0.0059
  C  C1241  1  0.053430  0.567090  0.644510  1.0  -0.0058
  C  C1242  1  0.055230  0.519470  0.672970  1.0  -0.1029
  C  C1243  1  0.051190  0.492650  0.656590  1.0  -0.0195
  C  C1244  1  0.050070  0.635470  0.572870  1.0  0.0619
  C  C1245  1  0.055730  0.605430  0.651490  1.0  -0.0556
  C  C1246  1  0.054930  0.645750  0.608630  1.0  -0.0456
  C  C1247  1  0.095390  0.634370  0.526410  1.0  -0.1743
  C  C1248  1  0.144500  0.603900  0.534700  1.0  -0.3074
  C  C1249  1  0.001830  0.668450  0.563290  1.0  -0.1503
  C  C1250  1  0.957430  0.669770  0.608370  1.0  -0.2744
  C  C1251  1  0.598160  0.882920  0.036880  1.0  0.6988
  C  C1252  1  0.612470  0.830870  0.045110  1.0  -0.1388
  C  C1253  1  0.583630  0.813790  0.044410  1.0  -0.1134
  C  C1254  1  0.599980  0.766320  0.048780  1.0  -0.0044
  C  C1255  1  0.644510  0.734970  0.053430  1.0  -0.0057
  C  C1256  1  0.672970  0.752330  0.055230  1.0  -0.1021
  C  C1257  1  0.656590  0.799570  0.051190  1.0  -0.0186
  C  C1258  1  0.572870  0.741590  0.050070  1.0  0.0619
  C  C1259  1  0.651490  0.687350  0.055730  1.0  -0.0564
  C  C1260  1  0.608630  0.690690  0.054930  1.0  -0.0437
  C  C1261  1  0.526410  0.743830  0.095390  1.0  -0.1721
  C  C1262  1  0.534700  0.716900  0.144500  1.0  -0.3094
  C  C1263  1  0.563290  0.766430  0.001830  1.0  -0.1485
  C  C1264  1  0.608370  0.764430  0.957430  1.0  -0.2753
  C  C1265  1  0.882920  0.036880  0.598160  1.0  0.6977
  C  C1266  1  0.830870  0.045110  0.612470  1.0  -0.136
  C  C1267  1  0.813790  0.044410  0.583630  1.0  -0.1071
  C  C1268  1  0.766320  0.048780  0.599980  1.0  -0.0048
  C  C1269  1  0.734970  0.053430  0.644510  1.0  -0.0069
  C  C1270  1  0.752330  0.055230  0.672970  1.0  -0.1022
  C  C1271  1  0.799570  0.051190  0.656590  1.0  -0.021
  C  C1272  1  0.741590  0.050070  0.572870  1.0  0.0608
  C  C1273  1  0.687350  0.055730  0.651490  1.0  -0.0545
  C  C1274  1  0.690690  0.054930  0.608630  1.0  -0.0454
  C  C1275  1  0.743830  0.095390  0.526410  1.0  -0.1699
  C  C1276  1  0.716900  0.144500  0.534700  1.0  -0.3069
  C  C1277  1  0.766430  0.001830  0.563290  1.0  -0.152
  C  C1278  1  0.764430  0.957430  0.608370  1.0  -0.2724
  C  C1279  1  0.482040  0.598160  0.036880  1.0  0.6963
  C  C1280  1  0.511550  0.612470  0.045110  1.0  -0.1388
  C  C1281  1  0.558170  0.583630  0.044410  1.0  -0.1032
  C  C1282  1  0.584920  0.599980  0.048780  1.0  -0.0064
  C  C1283  1  0.567090  0.644510  0.053430  1.0  -0.0073
  C  C1284  1  0.519470  0.672970  0.055230  1.0  -0.1013
  C  C1285  1  0.492650  0.656590  0.051190  1.0  -0.0193
  C  C1286  1  0.635470  0.572870  0.050070  1.0  0.0612
  C  C1287  1  0.605430  0.651490  0.055730  1.0  -0.0564
  C  C1288  1  0.645750  0.608630  0.054930  1.0  -0.0453
  C  C1289  1  0.634370  0.526410  0.095390  1.0  -0.1717
  C  C1290  1  0.603900  0.534700  0.144500  1.0  -0.3088
  C  C1291  1  0.668450  0.563290  0.001830  1.0  -0.1494
  C  C1292  1  0.669770  0.608370  0.957430  1.0  -0.2769
  C  C1293  1  0.598160  0.482040  0.882920  1.0  0.6991
  C  C1294  1  0.612470  0.511550  0.830870  1.0  -0.138
  C  C1295  1  0.583630  0.558170  0.813790  1.0  -0.1074
  C  C1296  1  0.599980  0.584920  0.766320  1.0  -0.007
  C  C1297  1  0.644510  0.567090  0.734970  1.0  -0.0069
  C  C1298  1  0.672970  0.519470  0.752330  1.0  -0.1002
  C  C1299  1  0.656590  0.492650  0.799570  1.0  -0.0211
  C  C1300  1  0.572870  0.635470  0.741590  1.0  0.0608
  C  C1301  1  0.651490  0.605430  0.687350  1.0  -0.0548
  C  C1302  1  0.608630  0.645750  0.690690  1.0  -0.0454
  C  C1303  1  0.526410  0.634370  0.743830  1.0  -0.172
  C  C1304  1  0.534700  0.603900  0.716900  1.0  -0.3099
  C  C1305  1  0.563290  0.668450  0.766430  1.0  -0.1475
  C  C1306  1  0.608370  0.669770  0.764430  1.0  -0.2766
  C  C1307  1  0.036880  0.882920  0.482040  1.0  0.6983
  C  C1308  1  0.045110  0.830870  0.511550  1.0  -0.137
  C  C1309  1  0.044410  0.813790  0.558170  1.0  -0.1121
  C  C1310  1  0.048780  0.766320  0.584920  1.0  -0.004
  C  C1311  1  0.053430  0.734970  0.567090  1.0  -0.0061
  C  C1312  1  0.055230  0.752330  0.519470  1.0  -0.0993
  C  C1313  1  0.051190  0.799570  0.492650  1.0  -0.0188
  C  C1314  1  0.050070  0.741590  0.635470  1.0  0.0608
  C  C1315  1  0.055730  0.687350  0.605430  1.0  -0.0554
  C  C1316  1  0.054930  0.690690  0.645750  1.0  -0.0457
  C  C1317  1  0.095390  0.743830  0.634370  1.0  -0.1751
  C  C1318  1  0.144500  0.716900  0.603900  1.0  -0.307
  C  C1319  1  0.001830  0.766430  0.668450  1.0  -0.1511
  C  C1320  1  0.957430  0.764430  0.669770  1.0  -0.2755
  C  C1321  1  0.665900  0.982300  0.017700  1.0  0.0886
  C  C1322  1  0.982300  0.665900  0.334100  1.0  0.0916
  C  C1323  1  0.017700  0.334100  0.665900  1.0  0.0924
  C  C1324  1  0.334100  0.017700  0.982300  1.0  0.0894
  C  C1325  1  0.665900  0.017700  0.334100  1.0  0.0894
  C  C1326  1  0.982300  0.334100  0.017700  1.0  0.0926
  C  C1327  1  0.017700  0.665900  0.982300  1.0  0.0915
  C  C1328  1  0.334100  0.982300  0.665900  1.0  0.0921
  C  C1329  1  0.665900  0.334100  0.982300  1.0  0.0923
  C  C1330  1  0.982300  0.017700  0.665900  1.0  0.0895
  C  C1331  1  0.017700  0.982300  0.334100  1.0  0.0883
  C  C1332  1  0.334100  0.665900  0.017700  1.0  0.092
  C  C1333  1  0.517700  0.834100  0.482300  1.0  0.091
  C  C1334  1  0.834100  0.517700  0.165900  1.0  0.0906
  C  C1335  1  0.165900  0.482300  0.834100  1.0  0.0888
  C  C1336  1  0.482300  0.165900  0.517700  1.0  0.0921
  C  C1337  1  0.482300  0.834100  0.165900  1.0  0.0942
  C  C1338  1  0.165900  0.517700  0.482300  1.0  0.0896
  C  C1339  1  0.834100  0.482300  0.517700  1.0  0.0906
  C  C1340  1  0.517700  0.165900  0.834100  1.0  0.0912
  C  C1341  1  0.165900  0.834100  0.517700  1.0  0.0907
  C  C1342  1  0.482300  0.517700  0.834100  1.0  0.0888
  C  C1343  1  0.517700  0.482300  0.165900  1.0  0.0893
  C  C1344  1  0.834100  0.165900  0.482300  1.0  0.0946
  O  O1345  1  0.529110  0.058190  0.001170  1.0  -0.707
  O  O1346  1  0.624810  0.898090  0.035750  1.0  -0.6016
  O  O1347  1  0.058190  0.529110  0.411530  1.0  -0.7082
  O  O1348  1  0.898090  0.624810  0.441350  1.0  -0.5994
  O  O1349  1  0.001170  0.411530  0.529110  1.0  -0.7075
  O  O1350  1  0.035750  0.441350  0.624810  1.0  -0.6021
  O  O1351  1  0.411530  0.001170  0.058190  1.0  -0.7072
  O  O1352  1  0.441350  0.035750  0.898090  1.0  -0.6026
  O  O1353  1  0.529110  0.001170  0.411530  1.0  -0.7103
  O  O1354  1  0.624810  0.035750  0.441350  1.0  -0.6003
  O  O1355  1  0.058190  0.411530  0.001170  1.0  -0.7094
  O  O1356  1  0.898090  0.441350  0.035750  1.0  -0.598
  O  O1357  1  0.001170  0.529110  0.058190  1.0  -0.7104
  O  O1358  1  0.035750  0.624810  0.898090  1.0  -0.6027
  O  O1359  1  0.411530  0.058190  0.529110  1.0  -0.7079
  O  O1360  1  0.441350  0.898090  0.624810  1.0  -0.5996
  O  O1361  1  0.529110  0.411530  0.058190  1.0  -0.7091
  O  O1362  1  0.624810  0.441350  0.898090  1.0  -0.6002
  O  O1363  1  0.058190  0.001170  0.529110  1.0  -0.7091
  O  O1364  1  0.898090  0.035750  0.624810  1.0  -0.6004
  O  O1365  1  0.001170  0.058190  0.411530  1.0  -0.7097
  O  O1366  1  0.035750  0.898090  0.441350  1.0  -0.602
  O  O1367  1  0.411530  0.529110  0.001170  1.0  -0.7096
  O  O1368  1  0.441350  0.624810  0.035750  1.0  -0.5978
  O  O1369  1  0.441810  0.970890  0.498830  1.0  -0.7074
  O  O1370  1  0.601910  0.875190  0.464250  1.0  -0.6002
  O  O1371  1  0.970890  0.441810  0.088470  1.0  -0.705
  O  O1372  1  0.875190  0.601910  0.058650  1.0  -0.6019
  O  O1373  1  0.088470  0.498830  0.970890  1.0  -0.7072
  O  O1374  1  0.058650  0.464250  0.875190  1.0  -0.602
  O  O1375  1  0.498830  0.088470  0.441810  1.0  -0.7074
  O  O1376  1  0.464250  0.058650  0.601910  1.0  -0.6012
  O  O1377  1  0.498830  0.970890  0.088470  1.0  -0.7087
  O  O1378  1  0.464250  0.875190  0.058650  1.0  -0.6017
  O  O1379  1  0.088470  0.441810  0.498830  1.0  -0.7054
  O  O1380  1  0.058650  0.601910  0.464250  1.0  -0.6007
  O  O1381  1  0.970890  0.498830  0.441810  1.0  -0.7099
  O  O1382  1  0.875190  0.464250  0.601910  1.0  -0.6014
  O  O1383  1  0.441810  0.088470  0.970890  1.0  -0.7078
  O  O1384  1  0.601910  0.058650  0.875190  1.0  -0.5964
  O  O1385  1  0.088470  0.970890  0.441810  1.0  -0.7104
  O  O1386  1  0.058650  0.875190  0.601910  1.0  -0.5988
  O  O1387  1  0.498830  0.441810  0.970890  1.0  -0.7096
  O  O1388  1  0.464250  0.601910  0.875190  1.0  -0.6013
  O  O1389  1  0.441810  0.498830  0.088470  1.0  -0.7098
  O  O1390  1  0.601910  0.464250  0.058650  1.0  -0.6001
  O  O1391  1  0.970890  0.088470  0.498830  1.0  -0.7107
  O  O1392  1  0.875190  0.058650  0.464250  1.0  -0.5981
  O  O1393  1  0.470890  0.941810  0.998830  1.0  -0.7053
  O  O1394  1  0.375190  0.101910  0.964250  1.0  -0.6011
  O  O1395  1  0.941810  0.470890  0.588470  1.0  -0.7073
  O  O1396  1  0.101910  0.375190  0.558650  1.0  -0.6011
  O  O1397  1  0.998830  0.588470  0.470890  1.0  -0.7068
  O  O1398  1  0.964250  0.558650  0.375190  1.0  -0.6009
  O  O1399  1  0.588470  0.998830  0.941810  1.0  -0.7078
  O  O1400  1  0.558650  0.964250  0.101910  1.0  -0.6025
  O  O1401  1  0.470890  0.998830  0.588470  1.0  -0.7104
  O  O1402  1  0.375190  0.964250  0.558650  1.0  -0.6007
  O  O1403  1  0.941810  0.588470  0.998830  1.0  -0.707
  O  O1404  1  0.101910  0.558650  0.964250  1.0  -0.5963
  O  O1405  1  0.998830  0.470890  0.941810  1.0  -0.7099
  O  O1406  1  0.964250  0.375190  0.101910  1.0  -0.6028
  O  O1407  1  0.588470  0.941810  0.470890  1.0  -0.7083
  O  O1408  1  0.558650  0.101910  0.375190  1.0  -0.6003
  O  O1409  1  0.470890  0.588470  0.941810  1.0  -0.7102
  O  O1410  1  0.375190  0.558650  0.101910  1.0  -0.5987
  O  O1411  1  0.941810  0.998830  0.470890  1.0  -0.7084
  O  O1412  1  0.101910  0.964250  0.375190  1.0  -0.6
  O  O1413  1  0.998830  0.941810  0.588470  1.0  -0.7087
  O  O1414  1  0.964250  0.101910  0.558650  1.0  -0.6005
  O  O1415  1  0.588470  0.470890  0.998830  1.0  -0.7102
  O  O1416  1  0.558650  0.375190  0.964250  1.0  -0.5989
  O  O1417  1  0.558190  0.029110  0.501170  1.0  -0.708
  O  O1418  1  0.398090  0.124810  0.535750  1.0  -0.601
  O  O1419  1  0.029110  0.558190  0.911530  1.0  -0.7068
  O  O1420  1  0.124810  0.398090  0.941350  1.0  -0.6002
  O  O1421  1  0.911530  0.501170  0.029110  1.0  -0.7071
  O  O1422  1  0.941350  0.535750  0.124810  1.0  -0.6026
  O  O1423  1  0.501170  0.911530  0.558190  1.0  -0.7069
  O  O1424  1  0.535750  0.941350  0.398090  1.0  -0.6012
  O  O1425  1  0.501170  0.029110  0.911530  1.0  -0.7107
  O  O1426  1  0.535750  0.124810  0.941350  1.0  -0.6033
  O  O1427  1  0.911530  0.558190  0.501170  1.0  -0.7086
  O  O1428  1  0.941350  0.398090  0.535750  1.0  -0.5997
  O  O1429  1  0.029110  0.501170  0.558190  1.0  -0.7091
  O  O1430  1  0.124810  0.535750  0.398090  1.0  -0.6006
  O  O1431  1  0.558190  0.911530  0.029110  1.0  -0.7072
  O  O1432  1  0.398090  0.941350  0.124810  1.0  -0.5982
  O  O1433  1  0.911530  0.029110  0.558190  1.0  -0.7103
  O  O1434  1  0.941350  0.124810  0.398090  1.0  -0.5976
  O  O1435  1  0.501170  0.558190  0.029110  1.0  -0.7113
  O  O1436  1  0.535750  0.398090  0.124810  1.0  -0.602
  O  O1437  1  0.558190  0.501170  0.911530  1.0  -0.709
  O  O1438  1  0.398090  0.535750  0.941350  1.0  -0.599
  O  O1439  1  0.029110  0.911530  0.501170  1.0  -0.7105
  O  O1440  1  0.124810  0.941350  0.535750  1.0  -0.5999
  O  O1441  1  0.637490  0.999550  0.000450  1.0  -0.5687
  O  O1442  1  0.999550  0.637490  0.362510  1.0  -0.5718
  O  O1443  1  0.000450  0.362510  0.637490  1.0  -0.5685
  O  O1444  1  0.362510  0.000450  0.999550  1.0  -0.5713
  O  O1445  1  0.637490  0.000450  0.362510  1.0  -0.5709
  O  O1446  1  0.999550  0.362510  0.000450  1.0  -0.569
  O  O1447  1  0.000450  0.637490  0.999550  1.0  -0.5732
  O  O1448  1  0.362510  0.999550  0.637490  1.0  -0.5723
  O  O1449  1  0.637490  0.362510  0.999550  1.0  -0.5696
  O  O1450  1  0.999550  0.000450  0.637490  1.0  -0.5728
  O  O1451  1  0.000450  0.999550  0.362510  1.0  -0.574
  O  O1452  1  0.362510  0.637490  0.000450  1.0  -0.5714
  O  O1453  1  0.500450  0.862510  0.499550  1.0  -0.57
  O  O1454  1  0.862510  0.500450  0.137490  1.0  -0.5701
  O  O1455  1  0.137490  0.499550  0.862510  1.0  -0.5706
  O  O1456  1  0.499550  0.137490  0.500450  1.0  -0.5696
  O  O1457  1  0.499550  0.862510  0.137490  1.0  -0.5693
  O  O1458  1  0.137490  0.500450  0.499550  1.0  -0.5704
  O  O1459  1  0.862510  0.499550  0.500450  1.0  -0.5716
  O  O1460  1  0.500450  0.137490  0.862510  1.0  -0.5732
  O  O1461  1  0.137490  0.862510  0.500450  1.0  -0.5693
  O  O1462  1  0.499550  0.500450  0.862510  1.0  -0.5727
  O  O1463  1  0.500450  0.499550  0.137490  1.0  -0.5741
  O  O1464  1  0.862510  0.137490  0.499550  1.0  -0.5726
