# generated using pymatgen
data_Cu31H72C48S24(BrN24)4
_symmetry_space_group_name_H-M   'P 1'
_cell_length_a   36.39970000
_cell_length_b   36.39970000
_cell_length_c   36.39970000
_cell_angle_alpha   90.00000000
_cell_angle_beta   90.00000000
_cell_angle_gamma   90.00000000
_symmetry_Int_Tables_number   1
_chemical_formula_structural   Cu31H72C48S24(BrN24)4
_chemical_formula_sum   'Cu248 H576 C384 S192 Br32 N768'
_cell_volume   48227.35154583
_cell_formula_units_Z   8
loop_
 _symmetry_equiv_pos_site_id
 _symmetry_equiv_pos_as_xyz
  1  'x, y, z'
loop_
 _atom_site_type_symbol
 _atom_site_label
 _atom_site_symmetry_multiplicity
 _atom_site_fract_x
 _atom_site_fract_y
 _atom_site_fract_z
 _atom_site_occupancy
 _atom_site_charge
  Cu  Cu1  1  0.890120  0.670530  0.585820  1.0  0.3208
  Cu  Cu2  1  0.953160  0.731580  0.554670  1.0  0.3076
  Cu  Cu3  1  0.890120  0.170530  0.085820  1.0  0.3208
  Cu  Cu4  1  0.953160  0.231580  0.054670  1.0  0.3076
  Cu  Cu5  1  0.390120  0.670530  0.085820  1.0  0.3208
  Cu  Cu6  1  0.453160  0.731580  0.054670  1.0  0.3076
  Cu  Cu7  1  0.390120  0.170530  0.585820  1.0  0.3208
  Cu  Cu8  1  0.453160  0.231580  0.554670  1.0  0.3076
  Cu  Cu9  1  0.109880  0.329470  0.585820  1.0  0.321
  Cu  Cu10  1  0.046840  0.268420  0.554670  1.0  0.3067
  Cu  Cu11  1  0.109880  0.829470  0.085820  1.0  0.321
  Cu  Cu12  1  0.046840  0.768420  0.054670  1.0  0.3067
  Cu  Cu13  1  0.609880  0.329470  0.085820  1.0  0.321
  Cu  Cu14  1  0.546840  0.268420  0.054670  1.0  0.3067
  Cu  Cu15  1  0.609880  0.829470  0.585820  1.0  0.321
  Cu  Cu16  1  0.546840  0.768420  0.554670  1.0  0.3067
  Cu  Cu17  1  0.109880  0.670530  0.414180  1.0  0.3219
  Cu  Cu18  1  0.046840  0.731580  0.445330  1.0  0.3072
  Cu  Cu19  1  0.109880  0.170530  0.914180  1.0  0.3219
  Cu  Cu20  1  0.046840  0.231580  0.945330  1.0  0.3072
  Cu  Cu21  1  0.609880  0.670530  0.914180  1.0  0.3219
  Cu  Cu22  1  0.546840  0.731580  0.945330  1.0  0.3072
  Cu  Cu23  1  0.609880  0.170530  0.414180  1.0  0.3219
  Cu  Cu24  1  0.546840  0.231580  0.445330  1.0  0.3072
  Cu  Cu25  1  0.890120  0.329470  0.414180  1.0  0.322
  Cu  Cu26  1  0.953160  0.268420  0.445330  1.0  0.3082
  Cu  Cu27  1  0.890120  0.829470  0.914180  1.0  0.322
  Cu  Cu28  1  0.953160  0.768420  0.945330  1.0  0.3082
  Cu  Cu29  1  0.390120  0.329470  0.914180  1.0  0.322
  Cu  Cu30  1  0.453160  0.268420  0.945330  1.0  0.3082
  Cu  Cu31  1  0.390120  0.829470  0.414180  1.0  0.322
  Cu  Cu32  1  0.453160  0.768420  0.445330  1.0  0.3082
  Cu  Cu33  1  0.585820  0.890120  0.670530  1.0  0.3213
  Cu  Cu34  1  0.554670  0.953160  0.731580  1.0  0.3085
  Cu  Cu35  1  0.585820  0.390120  0.170530  1.0  0.3213
  Cu  Cu36  1  0.554670  0.453160  0.231580  1.0  0.3085
  Cu  Cu37  1  0.085820  0.890120  0.170530  1.0  0.3213
  Cu  Cu38  1  0.054670  0.953160  0.231580  1.0  0.3085
  Cu  Cu39  1  0.085820  0.390120  0.670530  1.0  0.3213
  Cu  Cu40  1  0.054670  0.453160  0.731580  1.0  0.3085
  Cu  Cu41  1  0.585820  0.109880  0.329470  1.0  0.3199
  Cu  Cu42  1  0.554670  0.046840  0.268420  1.0  0.3085
  Cu  Cu43  1  0.585820  0.609880  0.829470  1.0  0.3199
  Cu  Cu44  1  0.554670  0.546840  0.768420  1.0  0.3085
  Cu  Cu45  1  0.085820  0.109880  0.829470  1.0  0.3199
  Cu  Cu46  1  0.054670  0.046840  0.768420  1.0  0.3085
  Cu  Cu47  1  0.085820  0.609880  0.329470  1.0  0.3199
  Cu  Cu48  1  0.054670  0.546840  0.268420  1.0  0.3085
  Cu  Cu49  1  0.414180  0.109880  0.670530  1.0  0.3207
  Cu  Cu50  1  0.445330  0.046840  0.731580  1.0  0.309
  Cu  Cu51  1  0.414180  0.609880  0.170530  1.0  0.3207
  Cu  Cu52  1  0.445330  0.546840  0.231580  1.0  0.309
  Cu  Cu53  1  0.914180  0.109880  0.170530  1.0  0.3207
  Cu  Cu54  1  0.945330  0.046840  0.231580  1.0  0.309
  Cu  Cu55  1  0.914180  0.609880  0.670530  1.0  0.3207
  Cu  Cu56  1  0.945330  0.546840  0.731580  1.0  0.309
  Cu  Cu57  1  0.414180  0.890120  0.329470  1.0  0.3207
  Cu  Cu58  1  0.445330  0.953160  0.268420  1.0  0.3089
  Cu  Cu59  1  0.414180  0.390120  0.829470  1.0  0.3207
  Cu  Cu60  1  0.445330  0.453160  0.768420  1.0  0.3089
  Cu  Cu61  1  0.914180  0.890120  0.829470  1.0  0.3207
  Cu  Cu62  1  0.945330  0.953160  0.768420  1.0  0.3089
  Cu  Cu63  1  0.914180  0.390120  0.329470  1.0  0.3207
  Cu  Cu64  1  0.945330  0.453160  0.268420  1.0  0.3089
  Cu  Cu65  1  0.670530  0.585820  0.890120  1.0  0.3224
  Cu  Cu66  1  0.731580  0.554670  0.953160  1.0  0.3083
  Cu  Cu67  1  0.670530  0.085820  0.390120  1.0  0.3224
  Cu  Cu68  1  0.731580  0.054670  0.453160  1.0  0.3083
  Cu  Cu69  1  0.170530  0.585820  0.390120  1.0  0.3224
  Cu  Cu70  1  0.231580  0.554670  0.453160  1.0  0.3083
  Cu  Cu71  1  0.170530  0.085820  0.890120  1.0  0.3224
  Cu  Cu72  1  0.231580  0.054670  0.953160  1.0  0.3083
  Cu  Cu73  1  0.329470  0.585820  0.109880  1.0  0.3194
  Cu  Cu74  1  0.268420  0.554670  0.046840  1.0  0.3083
  Cu  Cu75  1  0.329470  0.085820  0.609880  1.0  0.3194
  Cu  Cu76  1  0.268420  0.054670  0.546840  1.0  0.3083
  Cu  Cu77  1  0.829470  0.585820  0.609880  1.0  0.3194
  Cu  Cu78  1  0.768420  0.554670  0.546840  1.0  0.3083
  Cu  Cu79  1  0.829470  0.085820  0.109880  1.0  0.3194
  Cu  Cu80  1  0.768420  0.054670  0.046840  1.0  0.3083
  Cu  Cu81  1  0.670530  0.414180  0.109880  1.0  0.3217
  Cu  Cu82  1  0.731580  0.445330  0.046840  1.0  0.3076
  Cu  Cu83  1  0.670530  0.914180  0.609880  1.0  0.3217
  Cu  Cu84  1  0.731580  0.945330  0.546840  1.0  0.3076
  Cu  Cu85  1  0.170530  0.414180  0.609880  1.0  0.3217
  Cu  Cu86  1  0.231580  0.445330  0.546840  1.0  0.3076
  Cu  Cu87  1  0.170530  0.914180  0.109880  1.0  0.3217
  Cu  Cu88  1  0.231580  0.945330  0.046840  1.0  0.3076
  Cu  Cu89  1  0.329470  0.414180  0.890120  1.0  0.3218
  Cu  Cu90  1  0.268420  0.445330  0.953160  1.0  0.3091
  Cu  Cu91  1  0.329470  0.914180  0.390120  1.0  0.3218
  Cu  Cu92  1  0.268420  0.945330  0.453160  1.0  0.3091
  Cu  Cu93  1  0.829470  0.414180  0.390120  1.0  0.3218
  Cu  Cu94  1  0.768420  0.445330  0.453160  1.0  0.3091
  Cu  Cu95  1  0.829470  0.914180  0.890120  1.0  0.3218
  Cu  Cu96  1  0.768420  0.945330  0.953160  1.0  0.3091
  Cu  Cu97  1  0.170530  0.390120  0.085820  1.0  0.3214
  Cu  Cu98  1  0.231580  0.453160  0.054670  1.0  0.3074
  Cu  Cu99  1  0.170530  0.890120  0.585820  1.0  0.3214
  Cu  Cu100  1  0.231580  0.953160  0.554670  1.0  0.3074
  Cu  Cu101  1  0.670530  0.390120  0.585820  1.0  0.3214
  Cu  Cu102  1  0.731580  0.453160  0.554670  1.0  0.3074
  Cu  Cu103  1  0.670530  0.890120  0.085820  1.0  0.3214
  Cu  Cu104  1  0.731580  0.953160  0.054670  1.0  0.3074
  Cu  Cu105  1  0.829470  0.609880  0.085820  1.0  0.3192
  Cu  Cu106  1  0.768420  0.546840  0.054670  1.0  0.3082
  Cu  Cu107  1  0.829470  0.109880  0.585820  1.0  0.3192
  Cu  Cu108  1  0.768420  0.046840  0.554670  1.0  0.3082
  Cu  Cu109  1  0.329470  0.609880  0.585820  1.0  0.3192
  Cu  Cu110  1  0.268420  0.546840  0.554670  1.0  0.3082
  Cu  Cu111  1  0.329470  0.109880  0.085820  1.0  0.3192
  Cu  Cu112  1  0.268420  0.046840  0.054670  1.0  0.3082
  Cu  Cu113  1  0.170530  0.609880  0.914180  1.0  0.322
  Cu  Cu114  1  0.231580  0.546840  0.945330  1.0  0.308
  Cu  Cu115  1  0.170530  0.109880  0.414180  1.0  0.322
  Cu  Cu116  1  0.231580  0.046840  0.445330  1.0  0.308
  Cu  Cu117  1  0.670530  0.609880  0.414180  1.0  0.322
  Cu  Cu118  1  0.731580  0.546840  0.445330  1.0  0.308
  Cu  Cu119  1  0.670530  0.109880  0.914180  1.0  0.322
  Cu  Cu120  1  0.731580  0.046840  0.945330  1.0  0.308
  Cu  Cu121  1  0.829470  0.390120  0.914180  1.0  0.3215
  Cu  Cu122  1  0.768420  0.453160  0.945330  1.0  0.3086
  Cu  Cu123  1  0.829470  0.890120  0.414180  1.0  0.3215
  Cu  Cu124  1  0.768420  0.953160  0.445330  1.0  0.3086
  Cu  Cu125  1  0.329470  0.390120  0.414180  1.0  0.3215
  Cu  Cu126  1  0.268420  0.453160  0.445330  1.0  0.3086
  Cu  Cu127  1  0.329470  0.890120  0.914180  1.0  0.3215
  Cu  Cu128  1  0.268420  0.953160  0.945330  1.0  0.3086
  Cu  Cu129  1  0.390120  0.085820  0.170530  1.0  0.3209
  Cu  Cu130  1  0.453160  0.054670  0.231580  1.0  0.309
  Cu  Cu131  1  0.390120  0.585820  0.670530  1.0  0.3209
  Cu  Cu132  1  0.453160  0.554670  0.731580  1.0  0.309
  Cu  Cu133  1  0.890120  0.085820  0.670530  1.0  0.3209
  Cu  Cu134  1  0.953160  0.054670  0.731580  1.0  0.309
  Cu  Cu135  1  0.890120  0.585820  0.170530  1.0  0.3209
  Cu  Cu136  1  0.953160  0.554670  0.231580  1.0  0.309
  Cu  Cu137  1  0.609880  0.085820  0.829470  1.0  0.3201
  Cu  Cu138  1  0.546840  0.054670  0.768420  1.0  0.3081
  Cu  Cu139  1  0.609880  0.585820  0.329470  1.0  0.3201
  Cu  Cu140  1  0.546840  0.554670  0.268420  1.0  0.3081
  Cu  Cu141  1  0.109880  0.085820  0.329470  1.0  0.3201
  Cu  Cu142  1  0.046840  0.054670  0.268420  1.0  0.3081
  Cu  Cu143  1  0.109880  0.585820  0.829470  1.0  0.3201
  Cu  Cu144  1  0.046840  0.554670  0.768420  1.0  0.3081
  Cu  Cu145  1  0.609880  0.914180  0.170530  1.0  0.3217
  Cu  Cu146  1  0.546840  0.945330  0.231580  1.0  0.3082
  Cu  Cu147  1  0.609880  0.414180  0.670530  1.0  0.3217
  Cu  Cu148  1  0.546840  0.445330  0.731580  1.0  0.3082
  Cu  Cu149  1  0.109880  0.914180  0.670530  1.0  0.3217
  Cu  Cu150  1  0.046840  0.945330  0.731580  1.0  0.3082
  Cu  Cu151  1  0.109880  0.414180  0.170530  1.0  0.3217
  Cu  Cu152  1  0.046840  0.445330  0.231580  1.0  0.3082
  Cu  Cu153  1  0.390120  0.914180  0.829470  1.0  0.3211
  Cu  Cu154  1  0.453160  0.945330  0.768420  1.0  0.309
  Cu  Cu155  1  0.390120  0.414180  0.329470  1.0  0.3211
  Cu  Cu156  1  0.453160  0.445330  0.268420  1.0  0.309
  Cu  Cu157  1  0.890120  0.914180  0.329470  1.0  0.3211
  Cu  Cu158  1  0.953160  0.945330  0.268420  1.0  0.309
  Cu  Cu159  1  0.890120  0.414180  0.829470  1.0  0.3211
  Cu  Cu160  1  0.953160  0.445330  0.768420  1.0  0.309
  Cu  Cu161  1  0.085820  0.170530  0.390120  1.0  0.322
  Cu  Cu162  1  0.054670  0.231580  0.453160  1.0  0.308
  Cu  Cu163  1  0.085820  0.670530  0.890120  1.0  0.322
  Cu  Cu164  1  0.054670  0.731580  0.953160  1.0  0.308
  Cu  Cu165  1  0.585820  0.170530  0.890120  1.0  0.322
  Cu  Cu166  1  0.554670  0.231580  0.953160  1.0  0.308
  Cu  Cu167  1  0.585820  0.670530  0.390120  1.0  0.322
  Cu  Cu168  1  0.554670  0.731580  0.453160  1.0  0.308
  Cu  Cu169  1  0.085820  0.829470  0.609880  1.0  0.3208
  Cu  Cu170  1  0.054670  0.768420  0.546840  1.0  0.3072
  Cu  Cu171  1  0.085820  0.329470  0.109880  1.0  0.3208
  Cu  Cu172  1  0.054670  0.268420  0.046840  1.0  0.3072
  Cu  Cu173  1  0.585820  0.829470  0.109880  1.0  0.3208
  Cu  Cu174  1  0.554670  0.768420  0.046840  1.0  0.3072
  Cu  Cu175  1  0.585820  0.329470  0.609880  1.0  0.3208
  Cu  Cu176  1  0.554670  0.268420  0.546840  1.0  0.3072
  Cu  Cu177  1  0.914180  0.170530  0.609880  1.0  0.3211
  Cu  Cu178  1  0.945330  0.231580  0.546840  1.0  0.3076
  Cu  Cu179  1  0.914180  0.670530  0.109880  1.0  0.3211
  Cu  Cu180  1  0.945330  0.731580  0.046840  1.0  0.3076
  Cu  Cu181  1  0.414180  0.170530  0.109880  1.0  0.3211
  Cu  Cu182  1  0.445330  0.231580  0.046840  1.0  0.3076
  Cu  Cu183  1  0.414180  0.670530  0.609880  1.0  0.3211
  Cu  Cu184  1  0.445330  0.731580  0.546840  1.0  0.3076
  Cu  Cu185  1  0.914180  0.829470  0.390120  1.0  0.322
  Cu  Cu186  1  0.945330  0.768420  0.453160  1.0  0.3084
  Cu  Cu187  1  0.914180  0.329470  0.890120  1.0  0.322
  Cu  Cu188  1  0.945330  0.268420  0.953160  1.0  0.3084
  Cu  Cu189  1  0.414180  0.829470  0.890120  1.0  0.322
  Cu  Cu190  1  0.445330  0.768420  0.953160  1.0  0.3084
  Cu  Cu191  1  0.414180  0.329470  0.390120  1.0  0.322
  Cu  Cu192  1  0.445330  0.268420  0.453160  1.0  0.3084
  Cu  Cu193  1  0.852070  0.647930  0.647930  1.0  0.3458
  Cu  Cu194  1  0.852070  0.147930  0.147930  1.0  0.3458
  Cu  Cu195  1  0.147930  0.352070  0.647930  1.0  0.3468
  Cu  Cu196  1  0.147930  0.852070  0.147930  1.0  0.3468
  Cu  Cu197  1  0.147930  0.647930  0.352070  1.0  0.3483
  Cu  Cu198  1  0.147930  0.147930  0.852070  1.0  0.3483
  Cu  Cu199  1  0.852070  0.352070  0.352070  1.0  0.347
  Cu  Cu200  1  0.852070  0.852070  0.852070  1.0  0.347
  Cu  Cu201  1  0.647930  0.852070  0.647930  1.0  0.3468
  Cu  Cu202  1  0.647930  0.147930  0.352070  1.0  0.3483
  Cu  Cu203  1  0.352070  0.147930  0.647930  1.0  0.3458
  Cu  Cu204  1  0.352070  0.852070  0.352070  1.0  0.347
  Cu  Cu205  1  0.647930  0.647930  0.852070  1.0  0.3483
  Cu  Cu206  1  0.352070  0.647930  0.147930  1.0  0.3458
  Cu  Cu207  1  0.647930  0.352070  0.147930  1.0  0.3468
  Cu  Cu208  1  0.352070  0.352070  0.852070  1.0  0.347
  Cu  Cu209  1  0.147930  0.352070  0.147930  1.0  0.3468
  Cu  Cu210  1  0.852070  0.647930  0.147930  1.0  0.3458
  Cu  Cu211  1  0.147930  0.647930  0.852070  1.0  0.3483
  Cu  Cu212  1  0.852070  0.352070  0.852070  1.0  0.347
  Cu  Cu213  1  0.352070  0.147930  0.147930  1.0  0.3458
  Cu  Cu214  1  0.352070  0.647930  0.647930  1.0  0.3458
  Cu  Cu215  1  0.647930  0.147930  0.852070  1.0  0.3483
  Cu  Cu216  1  0.647930  0.647930  0.352070  1.0  0.3483
  Cu  Cu217  1  0.647930  0.852070  0.147930  1.0  0.3468
  Cu  Cu218  1  0.647930  0.352070  0.647930  1.0  0.3468
  Cu  Cu219  1  0.352070  0.852070  0.852070  1.0  0.347
  Cu  Cu220  1  0.352070  0.352070  0.352070  1.0  0.347
  Cu  Cu221  1  0.147930  0.147930  0.352070  1.0  0.3483
  Cu  Cu222  1  0.147930  0.852070  0.647930  1.0  0.3468
  Cu  Cu223  1  0.852070  0.147930  0.647930  1.0  0.3458
  Cu  Cu224  1  0.852070  0.852070  0.352070  1.0  0.347
  Cu  Cu225  1  0.000000  0.750000  0.500000  1.0  0.1866
  Cu  Cu226  1  0.000000  0.250000  0.000000  1.0  0.1866
  Cu  Cu227  1  0.500000  0.750000  0.000000  1.0  0.1866
  Cu  Cu228  1  0.500000  0.250000  0.500000  1.0  0.1866
  Cu  Cu229  1  0.000000  0.250000  0.500000  1.0  0.1866
  Cu  Cu230  1  0.000000  0.750000  0.000000  1.0  0.1866
  Cu  Cu231  1  0.500000  0.250000  0.000000  1.0  0.1866
  Cu  Cu232  1  0.500000  0.750000  0.500000  1.0  0.1866
  Cu  Cu233  1  0.500000  0.000000  0.750000  1.0  0.1866
  Cu  Cu234  1  0.500000  0.500000  0.250000  1.0  0.1866
  Cu  Cu235  1  0.000000  0.000000  0.250000  1.0  0.1866
  Cu  Cu236  1  0.000000  0.500000  0.750000  1.0  0.1866
  Cu  Cu237  1  0.500000  0.000000  0.250000  1.0  0.1866
  Cu  Cu238  1  0.500000  0.500000  0.750000  1.0  0.1866
  Cu  Cu239  1  0.000000  0.000000  0.750000  1.0  0.1866
  Cu  Cu240  1  0.000000  0.500000  0.250000  1.0  0.1866
  Cu  Cu241  1  0.750000  0.500000  0.000000  1.0  0.1866
  Cu  Cu242  1  0.750000  0.000000  0.500000  1.0  0.1866
  Cu  Cu243  1  0.250000  0.500000  0.500000  1.0  0.1866
  Cu  Cu244  1  0.250000  0.000000  0.000000  1.0  0.1866
  Cu  Cu245  1  0.250000  0.500000  0.000000  1.0  0.1866
  Cu  Cu246  1  0.250000  0.000000  0.500000  1.0  0.1866
  Cu  Cu247  1  0.750000  0.500000  0.500000  1.0  0.1866
  Cu  Cu248  1  0.750000  0.000000  0.000000  1.0  0.1866
  H  H249  1  0.914100  0.650900  0.453400  1.0  0.2823
  H  H250  1  0.856400  0.618600  0.523000  1.0  0.307
  H  H251  1  0.865500  0.611000  0.483900  1.0  0.3445
  H  H252  1  0.780400  0.689500  0.539500  1.0  0.3015
  H  H253  1  0.736900  0.618400  0.492000  1.0  0.2997
  H  H254  1  0.739800  0.659200  0.491300  1.0  0.3214
  H  H255  1  0.914100  0.150900  0.953400  1.0  0.2823
  H  H256  1  0.856400  0.118600  0.023000  1.0  0.307
  H  H257  1  0.865500  0.111000  0.983900  1.0  0.3445
  H  H258  1  0.780400  0.189500  0.039500  1.0  0.3015
  H  H259  1  0.736900  0.118400  0.992000  1.0  0.2997
  H  H260  1  0.739800  0.159200  0.991300  1.0  0.3214
  H  H261  1  0.414100  0.650900  0.953400  1.0  0.2823
  H  H262  1  0.356400  0.618600  0.023000  1.0  0.307
  H  H263  1  0.365500  0.611000  0.983900  1.0  0.3445
  H  H264  1  0.280400  0.689500  0.039500  1.0  0.3015
  H  H265  1  0.236900  0.618400  0.992000  1.0  0.2997
  H  H266  1  0.239800  0.659200  0.991300  1.0  0.3214
  H  H267  1  0.414100  0.150900  0.453400  1.0  0.2823
  H  H268  1  0.356400  0.118600  0.523000  1.0  0.307
  H  H269  1  0.365500  0.111000  0.483900  1.0  0.3445
  H  H270  1  0.280400  0.189500  0.539500  1.0  0.3015
  H  H271  1  0.236900  0.118400  0.492000  1.0  0.2997
  H  H272  1  0.239800  0.159200  0.491300  1.0  0.3214
  H  H273  1  0.085900  0.349100  0.453400  1.0  0.2816
  H  H274  1  0.143600  0.381400  0.523000  1.0  0.3076
  H  H275  1  0.134500  0.389000  0.483900  1.0  0.3455
  H  H276  1  0.219600  0.310500  0.539500  1.0  0.3005
  H  H277  1  0.263100  0.381600  0.492000  1.0  0.2997
  H  H278  1  0.260200  0.340800  0.491300  1.0  0.3196
  H  H279  1  0.085900  0.849100  0.953400  1.0  0.2816
  H  H280  1  0.143600  0.881400  0.023000  1.0  0.3076
  H  H281  1  0.134500  0.889000  0.983900  1.0  0.3455
  H  H282  1  0.219600  0.810500  0.039500  1.0  0.3005
  H  H283  1  0.263100  0.881600  0.992000  1.0  0.2997
  H  H284  1  0.260200  0.840800  0.991300  1.0  0.3196
  H  H285  1  0.585900  0.349100  0.953400  1.0  0.2816
  H  H286  1  0.643600  0.381400  0.023000  1.0  0.3076
  H  H287  1  0.634500  0.389000  0.983900  1.0  0.3455
  H  H288  1  0.719600  0.310500  0.039500  1.0  0.3005
  H  H289  1  0.763100  0.381600  0.992000  1.0  0.2997
  H  H290  1  0.760200  0.340800  0.991300  1.0  0.3196
  H  H291  1  0.585900  0.849100  0.453400  1.0  0.2816
  H  H292  1  0.643600  0.881400  0.523000  1.0  0.3076
  H  H293  1  0.634500  0.889000  0.483900  1.0  0.3455
  H  H294  1  0.719600  0.810500  0.539500  1.0  0.3005
  H  H295  1  0.763100  0.881600  0.492000  1.0  0.2997
  H  H296  1  0.760200  0.840800  0.491300  1.0  0.3196
  H  H297  1  0.085900  0.650900  0.546600  1.0  0.2817
  H  H298  1  0.143600  0.618600  0.477000  1.0  0.3069
  H  H299  1  0.134500  0.611000  0.516100  1.0  0.3455
  H  H300  1  0.219600  0.689500  0.460500  1.0  0.3012
  H  H301  1  0.263100  0.618400  0.508000  1.0  0.2992
  H  H302  1  0.260200  0.659200  0.508700  1.0  0.322
  H  H303  1  0.085900  0.150900  0.046600  1.0  0.2817
  H  H304  1  0.143600  0.118600  0.977000  1.0  0.3069
  H  H305  1  0.134500  0.111000  0.016100  1.0  0.3455
  H  H306  1  0.219600  0.189500  0.960500  1.0  0.3012
  H  H307  1  0.263100  0.118400  0.008000  1.0  0.2992
  H  H308  1  0.260200  0.159200  0.008700  1.0  0.322
  H  H309  1  0.585900  0.650900  0.046600  1.0  0.2817
  H  H310  1  0.643600  0.618600  0.977000  1.0  0.3069
  H  H311  1  0.634500  0.611000  0.016100  1.0  0.3455
  H  H312  1  0.719600  0.689500  0.960500  1.0  0.3012
  H  H313  1  0.763100  0.618400  0.008000  1.0  0.2992
  H  H314  1  0.760200  0.659200  0.008700  1.0  0.322
  H  H315  1  0.585900  0.150900  0.546600  1.0  0.2817
  H  H316  1  0.643600  0.118600  0.477000  1.0  0.3069
  H  H317  1  0.634500  0.111000  0.516100  1.0  0.3455
  H  H318  1  0.719600  0.189500  0.460500  1.0  0.3012
  H  H319  1  0.763100  0.118400  0.508000  1.0  0.2992
  H  H320  1  0.760200  0.159200  0.508700  1.0  0.322
  H  H321  1  0.914100  0.349100  0.546600  1.0  0.2815
  H  H322  1  0.856400  0.381400  0.477000  1.0  0.307
  H  H323  1  0.865500  0.389000  0.516100  1.0  0.3448
  H  H324  1  0.780400  0.310500  0.460500  1.0  0.3004
  H  H325  1  0.736900  0.381600  0.508000  1.0  0.2998
  H  H326  1  0.739800  0.340800  0.508700  1.0  0.3205
  H  H327  1  0.914100  0.849100  0.046600  1.0  0.2815
  H  H328  1  0.856400  0.881400  0.977000  1.0  0.307
  H  H329  1  0.865500  0.889000  0.016100  1.0  0.3448
  H  H330  1  0.780400  0.810500  0.960500  1.0  0.3004
  H  H331  1  0.736900  0.881600  0.008000  1.0  0.2998
  H  H332  1  0.739800  0.840800  0.008700  1.0  0.3205
  H  H333  1  0.414100  0.349100  0.046600  1.0  0.2815
  H  H334  1  0.356400  0.381400  0.977000  1.0  0.307
  H  H335  1  0.365500  0.389000  0.016100  1.0  0.3448
  H  H336  1  0.280400  0.310500  0.960500  1.0  0.3004
  H  H337  1  0.236900  0.381600  0.008000  1.0  0.2998
  H  H338  1  0.239800  0.340800  0.008700  1.0  0.3205
  H  H339  1  0.414100  0.849100  0.546600  1.0  0.2815
  H  H340  1  0.356400  0.881400  0.477000  1.0  0.307
  H  H341  1  0.365500  0.889000  0.516100  1.0  0.3448
  H  H342  1  0.280400  0.810500  0.460500  1.0  0.3004
  H  H343  1  0.236900  0.881600  0.508000  1.0  0.2998
  H  H344  1  0.239800  0.840800  0.508700  1.0  0.3205
  H  H345  1  0.453400  0.914100  0.650900  1.0  0.2813
  H  H346  1  0.523000  0.856400  0.618600  1.0  0.3106
  H  H347  1  0.483900  0.865500  0.611000  1.0  0.3444
  H  H348  1  0.539500  0.780400  0.689500  1.0  0.2984
  H  H349  1  0.492000  0.736900  0.618400  1.0  0.3007
  H  H350  1  0.491300  0.739800  0.659200  1.0  0.3231
  H  H351  1  0.453400  0.414100  0.150900  1.0  0.2813
  H  H352  1  0.523000  0.356400  0.118600  1.0  0.3106
  H  H353  1  0.483900  0.365500  0.111000  1.0  0.3444
  H  H354  1  0.539500  0.280400  0.189500  1.0  0.2984
  H  H355  1  0.492000  0.236900  0.118400  1.0  0.3007
  H  H356  1  0.491300  0.239800  0.159200  1.0  0.3231
  H  H357  1  0.953400  0.914100  0.150900  1.0  0.2813
  H  H358  1  0.023000  0.856400  0.118600  1.0  0.3106
  H  H359  1  0.983900  0.865500  0.111000  1.0  0.3444
  H  H360  1  0.039500  0.780400  0.189500  1.0  0.2984
  H  H361  1  0.992000  0.736900  0.118400  1.0  0.3007
  H  H362  1  0.991300  0.739800  0.159200  1.0  0.3231
  H  H363  1  0.953400  0.414100  0.650900  1.0  0.2813
  H  H364  1  0.023000  0.356400  0.618600  1.0  0.3106
  H  H365  1  0.983900  0.365500  0.611000  1.0  0.3444
  H  H366  1  0.039500  0.280400  0.689500  1.0  0.2984
  H  H367  1  0.992000  0.236900  0.618400  1.0  0.3007
  H  H368  1  0.991300  0.239800  0.659200  1.0  0.3231
  H  H369  1  0.453400  0.085900  0.349100  1.0  0.2808
  H  H370  1  0.523000  0.143600  0.381400  1.0  0.3101
  H  H371  1  0.483900  0.134500  0.389000  1.0  0.3453
  H  H372  1  0.539500  0.219600  0.310500  1.0  0.2977
  H  H373  1  0.492000  0.263100  0.381600  1.0  0.3015
  H  H374  1  0.491300  0.260200  0.340800  1.0  0.3216
  H  H375  1  0.453400  0.585900  0.849100  1.0  0.2808
  H  H376  1  0.523000  0.643600  0.881400  1.0  0.3101
  H  H377  1  0.483900  0.634500  0.889000  1.0  0.3453
  H  H378  1  0.539500  0.719600  0.810500  1.0  0.2977
  H  H379  1  0.492000  0.763100  0.881600  1.0  0.3015
  H  H380  1  0.491300  0.760200  0.840800  1.0  0.3216
  H  H381  1  0.953400  0.085900  0.849100  1.0  0.2808
  H  H382  1  0.023000  0.143600  0.881400  1.0  0.3101
  H  H383  1  0.983900  0.134500  0.889000  1.0  0.3453
  H  H384  1  0.039500  0.219600  0.810500  1.0  0.2977
  H  H385  1  0.992000  0.263100  0.881600  1.0  0.3015
  H  H386  1  0.991300  0.260200  0.840800  1.0  0.3216
  H  H387  1  0.953400  0.585900  0.349100  1.0  0.2808
  H  H388  1  0.023000  0.643600  0.381400  1.0  0.3101
  H  H389  1  0.983900  0.634500  0.389000  1.0  0.3453
  H  H390  1  0.039500  0.719600  0.310500  1.0  0.2977
  H  H391  1  0.992000  0.763100  0.381600  1.0  0.3015
  H  H392  1  0.991300  0.760200  0.340800  1.0  0.3216
  H  H393  1  0.546600  0.085900  0.650900  1.0  0.2812
  H  H394  1  0.477000  0.143600  0.618600  1.0  0.3099
  H  H395  1  0.516100  0.134500  0.611000  1.0  0.3448
  H  H396  1  0.460500  0.219600  0.689500  1.0  0.2992
  H  H397  1  0.508000  0.263100  0.618400  1.0  0.3001
  H  H398  1  0.508700  0.260200  0.659200  1.0  0.3226
  H  H399  1  0.546600  0.585900  0.150900  1.0  0.2812
  H  H400  1  0.477000  0.643600  0.118600  1.0  0.3099
  H  H401  1  0.516100  0.634500  0.111000  1.0  0.3448
  H  H402  1  0.460500  0.719600  0.189500  1.0  0.2992
  H  H403  1  0.508000  0.763100  0.118400  1.0  0.3001
  H  H404  1  0.508700  0.760200  0.159200  1.0  0.3226
  H  H405  1  0.046600  0.085900  0.150900  1.0  0.2812
  H  H406  1  0.977000  0.143600  0.118600  1.0  0.3099
  H  H407  1  0.016100  0.134500  0.111000  1.0  0.3448
  H  H408  1  0.960500  0.219600  0.189500  1.0  0.2992
  H  H409  1  0.008000  0.263100  0.118400  1.0  0.3001
  H  H410  1  0.008700  0.260200  0.159200  1.0  0.3226
  H  H411  1  0.046600  0.585900  0.650900  1.0  0.2812
  H  H412  1  0.977000  0.643600  0.618600  1.0  0.3099
  H  H413  1  0.016100  0.634500  0.611000  1.0  0.3448
  H  H414  1  0.960500  0.719600  0.689500  1.0  0.2992
  H  H415  1  0.008000  0.763100  0.618400  1.0  0.3001
  H  H416  1  0.008700  0.760200  0.659200  1.0  0.3226
  H  H417  1  0.546600  0.914100  0.349100  1.0  0.2817
  H  H418  1  0.477000  0.856400  0.381400  1.0  0.3106
  H  H419  1  0.516100  0.865500  0.389000  1.0  0.346
  H  H420  1  0.460500  0.780400  0.310500  1.0  0.298
  H  H421  1  0.508000  0.736900  0.381600  1.0  0.3018
  H  H422  1  0.508700  0.739800  0.340800  1.0  0.3218
  H  H423  1  0.546600  0.414100  0.849100  1.0  0.2817
  H  H424  1  0.477000  0.356400  0.881400  1.0  0.3106
  H  H425  1  0.516100  0.365500  0.889000  1.0  0.346
  H  H426  1  0.460500  0.280400  0.810500  1.0  0.298
  H  H427  1  0.508000  0.236900  0.881600  1.0  0.3018
  H  H428  1  0.508700  0.239800  0.840800  1.0  0.3218
  H  H429  1  0.046600  0.914100  0.849100  1.0  0.2817
  H  H430  1  0.977000  0.856400  0.881400  1.0  0.3106
  H  H431  1  0.016100  0.865500  0.889000  1.0  0.346
  H  H432  1  0.960500  0.780400  0.810500  1.0  0.298
  H  H433  1  0.008000  0.736900  0.881600  1.0  0.3018
  H  H434  1  0.008700  0.739800  0.840800  1.0  0.3218
  H  H435  1  0.046600  0.414100  0.349100  1.0  0.2817
  H  H436  1  0.977000  0.356400  0.381400  1.0  0.3106
  H  H437  1  0.016100  0.365500  0.389000  1.0  0.346
  H  H438  1  0.960500  0.280400  0.310500  1.0  0.298
  H  H439  1  0.008000  0.236900  0.381600  1.0  0.3018
  H  H440  1  0.008700  0.239800  0.340800  1.0  0.3218
  H  H441  1  0.650900  0.453400  0.914100  1.0  0.2826
  H  H442  1  0.618600  0.523000  0.856400  1.0  0.3062
  H  H443  1  0.611000  0.483900  0.865500  1.0  0.3436
  H  H444  1  0.689500  0.539500  0.780400  1.0  0.2979
  H  H445  1  0.618400  0.492000  0.736900  1.0  0.3012
  H  H446  1  0.659200  0.491300  0.739800  1.0  0.3202
  H  H447  1  0.650900  0.953400  0.414100  1.0  0.2826
  H  H448  1  0.618600  0.023000  0.356400  1.0  0.3062
  H  H449  1  0.611000  0.983900  0.365500  1.0  0.3436
  H  H450  1  0.689500  0.039500  0.280400  1.0  0.2979
  H  H451  1  0.618400  0.992000  0.236900  1.0  0.3012
  H  H452  1  0.659200  0.991300  0.239800  1.0  0.3202
  H  H453  1  0.150900  0.453400  0.414100  1.0  0.2826
  H  H454  1  0.118600  0.523000  0.356400  1.0  0.3062
  H  H455  1  0.111000  0.483900  0.365500  1.0  0.3436
  H  H456  1  0.189500  0.539500  0.280400  1.0  0.2979
  H  H457  1  0.118400  0.492000  0.236900  1.0  0.3012
  H  H458  1  0.159200  0.491300  0.239800  1.0  0.3202
  H  H459  1  0.150900  0.953400  0.914100  1.0  0.2826
  H  H460  1  0.118600  0.023000  0.856400  1.0  0.3062
  H  H461  1  0.111000  0.983900  0.865500  1.0  0.3436
  H  H462  1  0.189500  0.039500  0.780400  1.0  0.2979
  H  H463  1  0.118400  0.992000  0.736900  1.0  0.3012
  H  H464  1  0.159200  0.991300  0.739800  1.0  0.3202
  H  H465  1  0.349100  0.453400  0.085900  1.0  0.2813
  H  H466  1  0.381400  0.523000  0.143600  1.0  0.3068
  H  H467  1  0.389000  0.483900  0.134500  1.0  0.3424
  H  H468  1  0.310500  0.539500  0.219600  1.0  0.2976
  H  H469  1  0.381600  0.492000  0.263100  1.0  0.303
  H  H470  1  0.340800  0.491300  0.260200  1.0  0.3202
  H  H471  1  0.349100  0.953400  0.585900  1.0  0.2813
  H  H472  1  0.381400  0.023000  0.643600  1.0  0.3068
  H  H473  1  0.389000  0.983900  0.634500  1.0  0.3424
  H  H474  1  0.310500  0.039500  0.719600  1.0  0.2976
  H  H475  1  0.381600  0.992000  0.763100  1.0  0.303
  H  H476  1  0.340800  0.991300  0.760200  1.0  0.3202
  H  H477  1  0.849100  0.453400  0.585900  1.0  0.2813
  H  H478  1  0.881400  0.523000  0.643600  1.0  0.3068
  H  H479  1  0.889000  0.483900  0.634500  1.0  0.3424
  H  H480  1  0.810500  0.539500  0.719600  1.0  0.2976
  H  H481  1  0.881600  0.492000  0.763100  1.0  0.303
  H  H482  1  0.840800  0.491300  0.760200  1.0  0.3202
  H  H483  1  0.849100  0.953400  0.085900  1.0  0.2813
  H  H484  1  0.881400  0.023000  0.143600  1.0  0.3068
  H  H485  1  0.889000  0.983900  0.134500  1.0  0.3424
  H  H486  1  0.810500  0.039500  0.219600  1.0  0.2976
  H  H487  1  0.881600  0.992000  0.263100  1.0  0.303
  H  H488  1  0.840800  0.991300  0.260200  1.0  0.3202
  H  H489  1  0.650900  0.546600  0.085900  1.0  0.2831
  H  H490  1  0.618600  0.477000  0.143600  1.0  0.3065
  H  H491  1  0.611000  0.516100  0.134500  1.0  0.344
  H  H492  1  0.689500  0.460500  0.219600  1.0  0.2984
  H  H493  1  0.618400  0.508000  0.263100  1.0  0.3008
  H  H494  1  0.659200  0.508700  0.260200  1.0  0.3212
  H  H495  1  0.650900  0.046600  0.585900  1.0  0.2831
  H  H496  1  0.618600  0.977000  0.643600  1.0  0.3065
  H  H497  1  0.611000  0.016100  0.634500  1.0  0.344
  H  H498  1  0.689500  0.960500  0.719600  1.0  0.2984
  H  H499  1  0.618400  0.008000  0.763100  1.0  0.3008
  H  H500  1  0.659200  0.008700  0.760200  1.0  0.3212
  H  H501  1  0.150900  0.546600  0.585900  1.0  0.2831
  H  H502  1  0.118600  0.477000  0.643600  1.0  0.3065
  H  H503  1  0.111000  0.516100  0.634500  1.0  0.344
  H  H504  1  0.189500  0.460500  0.719600  1.0  0.2984
  H  H505  1  0.118400  0.508000  0.763100  1.0  0.3008
  H  H506  1  0.159200  0.508700  0.760200  1.0  0.3212
  H  H507  1  0.150900  0.046600  0.085900  1.0  0.2831
  H  H508  1  0.118600  0.977000  0.143600  1.0  0.3065
  H  H509  1  0.111000  0.016100  0.134500  1.0  0.344
  H  H510  1  0.189500  0.960500  0.219600  1.0  0.2984
  H  H511  1  0.118400  0.008000  0.263100  1.0  0.3008
  H  H512  1  0.159200  0.008700  0.260200  1.0  0.3212
  H  H513  1  0.349100  0.546600  0.914100  1.0  0.2833
  H  H514  1  0.381400  0.477000  0.856400  1.0  0.3047
  H  H515  1  0.389000  0.516100  0.865500  1.0  0.3445
  H  H516  1  0.310500  0.460500  0.780400  1.0  0.2977
  H  H517  1  0.381600  0.508000  0.736900  1.0  0.3023
  H  H518  1  0.340800  0.508700  0.739800  1.0  0.3194
  H  H519  1  0.349100  0.046600  0.414100  1.0  0.2833
  H  H520  1  0.381400  0.977000  0.356400  1.0  0.3047
  H  H521  1  0.389000  0.016100  0.365500  1.0  0.3445
  H  H522  1  0.310500  0.960500  0.280400  1.0  0.2977
  H  H523  1  0.381600  0.008000  0.236900  1.0  0.3023
  H  H524  1  0.340800  0.008700  0.239800  1.0  0.3194
  H  H525  1  0.849100  0.546600  0.414100  1.0  0.2833
  H  H526  1  0.881400  0.477000  0.356400  1.0  0.3047
  H  H527  1  0.889000  0.516100  0.365500  1.0  0.3445
  H  H528  1  0.810500  0.460500  0.280400  1.0  0.2977
  H  H529  1  0.881600  0.508000  0.236900  1.0  0.3023
  H  H530  1  0.840800  0.508700  0.239800  1.0  0.3194
  H  H531  1  0.849100  0.046600  0.914100  1.0  0.2833
  H  H532  1  0.881400  0.977000  0.856400  1.0  0.3047
  H  H533  1  0.889000  0.016100  0.865500  1.0  0.3445
  H  H534  1  0.810500  0.960500  0.780400  1.0  0.2977
  H  H535  1  0.881600  0.008000  0.736900  1.0  0.3023
  H  H536  1  0.840800  0.008700  0.739800  1.0  0.3194
  H  H537  1  0.150900  0.414100  0.953400  1.0  0.2827
  H  H538  1  0.118600  0.356400  0.023000  1.0  0.3082
  H  H539  1  0.111000  0.365500  0.983900  1.0  0.3437
  H  H540  1  0.189500  0.280400  0.039500  1.0  0.2989
  H  H541  1  0.118400  0.236900  0.992000  1.0  0.301
  H  H542  1  0.159200  0.239800  0.991300  1.0  0.3199
  H  H543  1  0.150900  0.914100  0.453400  1.0  0.2827
  H  H544  1  0.118600  0.856400  0.523000  1.0  0.3082
  H  H545  1  0.111000  0.865500  0.483900  1.0  0.3437
  H  H546  1  0.189500  0.780400  0.539500  1.0  0.2989
  H  H547  1  0.118400  0.736900  0.492000  1.0  0.301
  H  H548  1  0.159200  0.739800  0.491300  1.0  0.3199
  H  H549  1  0.650900  0.414100  0.453400  1.0  0.2827
  H  H550  1  0.618600  0.356400  0.523000  1.0  0.3082
  H  H551  1  0.611000  0.365500  0.483900  1.0  0.3437
  H  H552  1  0.689500  0.280400  0.539500  1.0  0.2989
  H  H553  1  0.618400  0.236900  0.492000  1.0  0.301
  H  H554  1  0.659200  0.239800  0.491300  1.0  0.3199
  H  H555  1  0.650900  0.914100  0.953400  1.0  0.2827
  H  H556  1  0.618600  0.856400  0.023000  1.0  0.3082
  H  H557  1  0.611000  0.865500  0.983900  1.0  0.3437
  H  H558  1  0.689500  0.780400  0.039500  1.0  0.2989
  H  H559  1  0.618400  0.736900  0.992000  1.0  0.301
  H  H560  1  0.659200  0.739800  0.991300  1.0  0.3199
  H  H561  1  0.849100  0.585900  0.953400  1.0  0.2824
  H  H562  1  0.881400  0.643600  0.023000  1.0  0.3073
  H  H563  1  0.889000  0.634500  0.983900  1.0  0.3442
  H  H564  1  0.810500  0.719600  0.039500  1.0  0.2984
  H  H565  1  0.881600  0.763100  0.992000  1.0  0.3021
  H  H566  1  0.840800  0.760200  0.991300  1.0  0.3193
  H  H567  1  0.849100  0.085900  0.453400  1.0  0.2824
  H  H568  1  0.881400  0.143600  0.523000  1.0  0.3073
  H  H569  1  0.889000  0.134500  0.483900  1.0  0.3442
  H  H570  1  0.810500  0.219600  0.539500  1.0  0.2984
  H  H571  1  0.881600  0.263100  0.492000  1.0  0.3021
  H  H572  1  0.840800  0.260200  0.491300  1.0  0.3193
  H  H573  1  0.349100  0.585900  0.453400  1.0  0.2824
  H  H574  1  0.381400  0.643600  0.523000  1.0  0.3073
  H  H575  1  0.389000  0.634500  0.483900  1.0  0.3442
  H  H576  1  0.310500  0.719600  0.539500  1.0  0.2984
  H  H577  1  0.381600  0.763100  0.492000  1.0  0.3021
  H  H578  1  0.340800  0.760200  0.491300  1.0  0.3193
  H  H579  1  0.349100  0.085900  0.953400  1.0  0.2824
  H  H580  1  0.381400  0.143600  0.023000  1.0  0.3073
  H  H581  1  0.389000  0.134500  0.983900  1.0  0.3442
  H  H582  1  0.310500  0.219600  0.039500  1.0  0.2984
  H  H583  1  0.381600  0.263100  0.992000  1.0  0.3021
  H  H584  1  0.340800  0.260200  0.991300  1.0  0.3193
  H  H585  1  0.150900  0.585900  0.046600  1.0  0.2825
  H  H586  1  0.118600  0.643600  0.977000  1.0  0.3075
  H  H587  1  0.111000  0.634500  0.016100  1.0  0.3442
  H  H588  1  0.189500  0.719600  0.960500  1.0  0.2985
  H  H589  1  0.118400  0.763100  0.008000  1.0  0.3004
  H  H590  1  0.159200  0.760200  0.008700  1.0  0.3209
  H  H591  1  0.150900  0.085900  0.546600  1.0  0.2825
  H  H592  1  0.118600  0.143600  0.477000  1.0  0.3075
  H  H593  1  0.111000  0.134500  0.516100  1.0  0.3442
  H  H594  1  0.189500  0.219600  0.460500  1.0  0.2985
  H  H595  1  0.118400  0.263100  0.508000  1.0  0.3004
  H  H596  1  0.159200  0.260200  0.508700  1.0  0.3209
  H  H597  1  0.650900  0.585900  0.546600  1.0  0.2825
  H  H598  1  0.618600  0.643600  0.477000  1.0  0.3075
  H  H599  1  0.611000  0.634500  0.516100  1.0  0.3442
  H  H600  1  0.689500  0.719600  0.460500  1.0  0.2985
  H  H601  1  0.618400  0.763100  0.508000  1.0  0.3004
  H  H602  1  0.659200  0.760200  0.508700  1.0  0.3209
  H  H603  1  0.650900  0.085900  0.046600  1.0  0.2825
  H  H604  1  0.618600  0.143600  0.977000  1.0  0.3075
  H  H605  1  0.611000  0.134500  0.016100  1.0  0.3442
  H  H606  1  0.689500  0.219600  0.960500  1.0  0.2985
  H  H607  1  0.618400  0.263100  0.008000  1.0  0.3004
  H  H608  1  0.659200  0.260200  0.008700  1.0  0.3209
  H  H609  1  0.849100  0.414100  0.046600  1.0  0.2815
  H  H610  1  0.881400  0.356400  0.977000  1.0  0.3076
  H  H611  1  0.889000  0.365500  0.016100  1.0  0.3441
  H  H612  1  0.810500  0.280400  0.960500  1.0  0.2973
  H  H613  1  0.881600  0.236900  0.008000  1.0  0.3022
  H  H614  1  0.840800  0.239800  0.008700  1.0  0.3209
  H  H615  1  0.849100  0.914100  0.546600  1.0  0.2815
  H  H616  1  0.881400  0.856400  0.477000  1.0  0.3076
  H  H617  1  0.889000  0.865500  0.516100  1.0  0.3441
  H  H618  1  0.810500  0.780400  0.460500  1.0  0.2973
  H  H619  1  0.881600  0.736900  0.508000  1.0  0.3022
  H  H620  1  0.840800  0.739800  0.508700  1.0  0.3209
  H  H621  1  0.349100  0.414100  0.546600  1.0  0.2815
  H  H622  1  0.381400  0.356400  0.477000  1.0  0.3076
  H  H623  1  0.389000  0.365500  0.516100  1.0  0.3441
  H  H624  1  0.310500  0.280400  0.460500  1.0  0.2973
  H  H625  1  0.381600  0.236900  0.508000  1.0  0.3022
  H  H626  1  0.340800  0.239800  0.508700  1.0  0.3209
  H  H627  1  0.349100  0.914100  0.046600  1.0  0.2815
  H  H628  1  0.381400  0.856400  0.977000  1.0  0.3076
  H  H629  1  0.389000  0.865500  0.016100  1.0  0.3441
  H  H630  1  0.310500  0.780400  0.960500  1.0  0.2973
  H  H631  1  0.381600  0.736900  0.008000  1.0  0.3022
  H  H632  1  0.340800  0.739800  0.008700  1.0  0.3209
  H  H633  1  0.414100  0.953400  0.150900  1.0  0.2815
  H  H634  1  0.356400  0.023000  0.118600  1.0  0.3074
  H  H635  1  0.365500  0.983900  0.111000  1.0  0.3435
  H  H636  1  0.280400  0.039500  0.189500  1.0  0.2993
  H  H637  1  0.236900  0.992000  0.118400  1.0  0.2998
  H  H638  1  0.239800  0.991300  0.159200  1.0  0.323
  H  H639  1  0.414100  0.453400  0.650900  1.0  0.2815
  H  H640  1  0.356400  0.523000  0.618600  1.0  0.3074
  H  H641  1  0.365500  0.483900  0.611000  1.0  0.3435
  H  H642  1  0.280400  0.539500  0.689500  1.0  0.2993
  H  H643  1  0.236900  0.492000  0.618400  1.0  0.2998
  H  H644  1  0.239800  0.491300  0.659200  1.0  0.323
  H  H645  1  0.914100  0.953400  0.650900  1.0  0.2815
  H  H646  1  0.856400  0.023000  0.618600  1.0  0.3074
  H  H647  1  0.865500  0.983900  0.611000  1.0  0.3435
  H  H648  1  0.780400  0.039500  0.689500  1.0  0.2993
  H  H649  1  0.736900  0.992000  0.618400  1.0  0.2998
  H  H650  1  0.739800  0.991300  0.659200  1.0  0.323
  H  H651  1  0.914100  0.453400  0.150900  1.0  0.2815
  H  H652  1  0.856400  0.523000  0.118600  1.0  0.3074
  H  H653  1  0.865500  0.483900  0.111000  1.0  0.3435
  H  H654  1  0.780400  0.539500  0.189500  1.0  0.2993
  H  H655  1  0.736900  0.492000  0.118400  1.0  0.2998
  H  H656  1  0.739800  0.491300  0.159200  1.0  0.323
  H  H657  1  0.585900  0.953400  0.849100  1.0  0.282
  H  H658  1  0.643600  0.023000  0.881400  1.0  0.3076
  H  H659  1  0.634500  0.983900  0.889000  1.0  0.3445
  H  H660  1  0.719600  0.039500  0.810500  1.0  0.2981
  H  H661  1  0.763100  0.992000  0.881600  1.0  0.3013
  H  H662  1  0.760200  0.991300  0.840800  1.0  0.3217
  H  H663  1  0.585900  0.453400  0.349100  1.0  0.282
  H  H664  1  0.643600  0.523000  0.381400  1.0  0.3076
  H  H665  1  0.634500  0.483900  0.389000  1.0  0.3445
  H  H666  1  0.719600  0.539500  0.310500  1.0  0.2981
  H  H667  1  0.763100  0.492000  0.381600  1.0  0.3013
  H  H668  1  0.760200  0.491300  0.340800  1.0  0.3217
  H  H669  1  0.085900  0.953400  0.349100  1.0  0.282
  H  H670  1  0.143600  0.023000  0.381400  1.0  0.3076
  H  H671  1  0.134500  0.983900  0.389000  1.0  0.3445
  H  H672  1  0.219600  0.039500  0.310500  1.0  0.2981
  H  H673  1  0.263100  0.992000  0.381600  1.0  0.3013
  H  H674  1  0.260200  0.991300  0.340800  1.0  0.3217
  H  H675  1  0.085900  0.453400  0.849100  1.0  0.282
  H  H676  1  0.143600  0.523000  0.881400  1.0  0.3076
  H  H677  1  0.134500  0.483900  0.889000  1.0  0.3445
  H  H678  1  0.219600  0.539500  0.810500  1.0  0.2981
  H  H679  1  0.263100  0.492000  0.881600  1.0  0.3013
  H  H680  1  0.260200  0.491300  0.840800  1.0  0.3217
  H  H681  1  0.585900  0.046600  0.150900  1.0  0.2823
  H  H682  1  0.643600  0.977000  0.118600  1.0  0.3073
  H  H683  1  0.634500  0.016100  0.111000  1.0  0.3455
  H  H684  1  0.719600  0.960500  0.189500  1.0  0.299
  H  H685  1  0.763100  0.008000  0.118400  1.0  0.2993
  H  H686  1  0.760200  0.008700  0.159200  1.0  0.3228
  H  H687  1  0.585900  0.546600  0.650900  1.0  0.2823
  H  H688  1  0.643600  0.477000  0.618600  1.0  0.3073
  H  H689  1  0.634500  0.516100  0.611000  1.0  0.3455
  H  H690  1  0.719600  0.460500  0.689500  1.0  0.299
  H  H691  1  0.763100  0.508000  0.618400  1.0  0.2993
  H  H692  1  0.760200  0.508700  0.659200  1.0  0.3228
  H  H693  1  0.085900  0.046600  0.650900  1.0  0.2823
  H  H694  1  0.143600  0.977000  0.618600  1.0  0.3073
  H  H695  1  0.134500  0.016100  0.611000  1.0  0.3455
  H  H696  1  0.219600  0.960500  0.689500  1.0  0.299
  H  H697  1  0.263100  0.008000  0.618400  1.0  0.2993
  H  H698  1  0.260200  0.008700  0.659200  1.0  0.3228
  H  H699  1  0.085900  0.546600  0.150900  1.0  0.2823
  H  H700  1  0.143600  0.477000  0.118600  1.0  0.3073
  H  H701  1  0.134500  0.516100  0.111000  1.0  0.3455
  H  H702  1  0.219600  0.460500  0.189500  1.0  0.299
  H  H703  1  0.263100  0.508000  0.118400  1.0  0.2993
  H  H704  1  0.260200  0.508700  0.159200  1.0  0.3228
  H  H705  1  0.414100  0.046600  0.849100  1.0  0.2828
  H  H706  1  0.356400  0.977000  0.881400  1.0  0.3074
  H  H707  1  0.365500  0.016100  0.889000  1.0  0.3458
  H  H708  1  0.280400  0.960500  0.810500  1.0  0.2989
  H  H709  1  0.236900  0.008000  0.881600  1.0  0.3009
  H  H710  1  0.239800  0.008700  0.840800  1.0  0.3213
  H  H711  1  0.414100  0.546600  0.349100  1.0  0.2828
  H  H712  1  0.356400  0.477000  0.381400  1.0  0.3074
  H  H713  1  0.365500  0.516100  0.389000  1.0  0.3458
  H  H714  1  0.280400  0.460500  0.310500  1.0  0.2989
  H  H715  1  0.236900  0.508000  0.381600  1.0  0.3009
  H  H716  1  0.239800  0.508700  0.340800  1.0  0.3213
  H  H717  1  0.914100  0.046600  0.349100  1.0  0.2828
  H  H718  1  0.856400  0.977000  0.381400  1.0  0.3074
  H  H719  1  0.865500  0.016100  0.389000  1.0  0.3458
  H  H720  1  0.780400  0.960500  0.310500  1.0  0.2989
  H  H721  1  0.736900  0.008000  0.381600  1.0  0.3009
  H  H722  1  0.739800  0.008700  0.340800  1.0  0.3213
  H  H723  1  0.914100  0.546600  0.849100  1.0  0.2828
  H  H724  1  0.856400  0.477000  0.881400  1.0  0.3074
  H  H725  1  0.865500  0.516100  0.889000  1.0  0.3458
  H  H726  1  0.780400  0.460500  0.810500  1.0  0.2989
  H  H727  1  0.736900  0.508000  0.881600  1.0  0.3009
  H  H728  1  0.739800  0.508700  0.840800  1.0  0.3213
  H  H729  1  0.953400  0.150900  0.414100  1.0  0.2813
  H  H730  1  0.023000  0.118600  0.356400  1.0  0.3083
  H  H731  1  0.983900  0.111000  0.365500  1.0  0.3447
  H  H732  1  0.039500  0.189500  0.280400  1.0  0.3008
  H  H733  1  0.992000  0.118400  0.236900  1.0  0.3
  H  H734  1  0.991300  0.159200  0.239800  1.0  0.3228
  H  H735  1  0.953400  0.650900  0.914100  1.0  0.2813
  H  H736  1  0.023000  0.618600  0.856400  1.0  0.3083
  H  H737  1  0.983900  0.611000  0.865500  1.0  0.3447
  H  H738  1  0.039500  0.689500  0.780400  1.0  0.3008
  H  H739  1  0.992000  0.618400  0.736900  1.0  0.3
  H  H740  1  0.991300  0.659200  0.739800  1.0  0.3228
  H  H741  1  0.453400  0.150900  0.914100  1.0  0.2813
  H  H742  1  0.523000  0.118600  0.856400  1.0  0.3083
  H  H743  1  0.483900  0.111000  0.865500  1.0  0.3447
  H  H744  1  0.539500  0.189500  0.780400  1.0  0.3008
  H  H745  1  0.492000  0.118400  0.736900  1.0  0.3
  H  H746  1  0.491300  0.159200  0.739800  1.0  0.3228
  H  H747  1  0.453400  0.650900  0.414100  1.0  0.2813
  H  H748  1  0.523000  0.618600  0.356400  1.0  0.3083
  H  H749  1  0.483900  0.611000  0.365500  1.0  0.3447
  H  H750  1  0.539500  0.689500  0.280400  1.0  0.3008
  H  H751  1  0.492000  0.618400  0.236900  1.0  0.3
  H  H752  1  0.491300  0.659200  0.239800  1.0  0.3228
  H  H753  1  0.953400  0.849100  0.585900  1.0  0.2808
  H  H754  1  0.023000  0.881400  0.643600  1.0  0.3094
  H  H755  1  0.983900  0.889000  0.634500  1.0  0.3448
  H  H756  1  0.039500  0.810500  0.719600  1.0  0.3004
  H  H757  1  0.992000  0.881600  0.763100  1.0  0.301
  H  H758  1  0.991300  0.840800  0.760200  1.0  0.3211
  H  H759  1  0.953400  0.349100  0.085900  1.0  0.2808
  H  H760  1  0.023000  0.381400  0.143600  1.0  0.3094
  H  H761  1  0.983900  0.389000  0.134500  1.0  0.3448
  H  H762  1  0.039500  0.310500  0.219600  1.0  0.3004
  H  H763  1  0.992000  0.381600  0.263100  1.0  0.301
  H  H764  1  0.991300  0.340800  0.260200  1.0  0.3211
  H  H765  1  0.453400  0.849100  0.085900  1.0  0.2808
  H  H766  1  0.523000  0.881400  0.143600  1.0  0.3094
  H  H767  1  0.483900  0.889000  0.134500  1.0  0.3448
  H  H768  1  0.539500  0.810500  0.219600  1.0  0.3004
  H  H769  1  0.492000  0.881600  0.263100  1.0  0.301
  H  H770  1  0.491300  0.840800  0.260200  1.0  0.3211
  H  H771  1  0.453400  0.349100  0.585900  1.0  0.2808
  H  H772  1  0.523000  0.381400  0.643600  1.0  0.3094
  H  H773  1  0.483900  0.389000  0.634500  1.0  0.3448
  H  H774  1  0.539500  0.310500  0.719600  1.0  0.3004
  H  H775  1  0.492000  0.381600  0.763100  1.0  0.301
  H  H776  1  0.491300  0.340800  0.760200  1.0  0.3211
  H  H777  1  0.046600  0.150900  0.585900  1.0  0.2821
  H  H778  1  0.977000  0.118600  0.643600  1.0  0.3089
  H  H779  1  0.016100  0.111000  0.634500  1.0  0.3449
  H  H780  1  0.960500  0.189500  0.719600  1.0  0.3009
  H  H781  1  0.008000  0.118400  0.763100  1.0  0.3003
  H  H782  1  0.008700  0.159200  0.760200  1.0  0.3223
  H  H783  1  0.046600  0.650900  0.085900  1.0  0.2821
  H  H784  1  0.977000  0.618600  0.143600  1.0  0.3089
  H  H785  1  0.016100  0.611000  0.134500  1.0  0.3449
  H  H786  1  0.960500  0.689500  0.219600  1.0  0.3009
  H  H787  1  0.008000  0.618400  0.263100  1.0  0.3003
  H  H788  1  0.008700  0.659200  0.260200  1.0  0.3223
  H  H789  1  0.546600  0.150900  0.085900  1.0  0.2821
  H  H790  1  0.477000  0.118600  0.143600  1.0  0.3089
  H  H791  1  0.516100  0.111000  0.134500  1.0  0.3449
  H  H792  1  0.460500  0.189500  0.219600  1.0  0.3009
  H  H793  1  0.508000  0.118400  0.263100  1.0  0.3003
  H  H794  1  0.508700  0.159200  0.260200  1.0  0.3223
  H  H795  1  0.546600  0.650900  0.585900  1.0  0.2821
  H  H796  1  0.477000  0.618600  0.643600  1.0  0.3089
  H  H797  1  0.516100  0.611000  0.634500  1.0  0.3449
  H  H798  1  0.460500  0.689500  0.719600  1.0  0.3009
  H  H799  1  0.508000  0.618400  0.763100  1.0  0.3003
  H  H800  1  0.508700  0.659200  0.760200  1.0  0.3223
  H  H801  1  0.046600  0.849100  0.414100  1.0  0.282
  H  H802  1  0.977000  0.881400  0.356400  1.0  0.3083
  H  H803  1  0.016100  0.889000  0.365500  1.0  0.345
  H  H804  1  0.960500  0.810500  0.280400  1.0  0.3
  H  H805  1  0.008000  0.881600  0.236900  1.0  0.3004
  H  H806  1  0.008700  0.840800  0.239800  1.0  0.3207
  H  H807  1  0.046600  0.349100  0.914100  1.0  0.282
  H  H808  1  0.977000  0.381400  0.856400  1.0  0.3083
  H  H809  1  0.016100  0.389000  0.865500  1.0  0.345
  H  H810  1  0.960500  0.310500  0.780400  1.0  0.3
  H  H811  1  0.008000  0.381600  0.736900  1.0  0.3004
  H  H812  1  0.008700  0.340800  0.739800  1.0  0.3207
  H  H813  1  0.546600  0.849100  0.914100  1.0  0.282
  H  H814  1  0.477000  0.881400  0.856400  1.0  0.3083
  H  H815  1  0.516100  0.889000  0.865500  1.0  0.345
  H  H816  1  0.460500  0.810500  0.780400  1.0  0.3
  H  H817  1  0.508000  0.881600  0.736900  1.0  0.3004
  H  H818  1  0.508700  0.840800  0.739800  1.0  0.3207
  H  H819  1  0.546600  0.349100  0.414100  1.0  0.282
  H  H820  1  0.477000  0.381400  0.356400  1.0  0.3083
  H  H821  1  0.516100  0.389000  0.365500  1.0  0.345
  H  H822  1  0.460500  0.310500  0.280400  1.0  0.3
  H  H823  1  0.508000  0.381600  0.236900  1.0  0.3004
  H  H824  1  0.508700  0.340800  0.239800  1.0  0.3207
  C  C825  1  0.936600  0.689090  0.485870  1.0  0.2071
  C  C826  1  0.894970  0.650520  0.504390  1.0  0.2603
  C  C827  1  0.805550  0.654970  0.573040  1.0  0.2367
  C  C828  1  0.769200  0.637370  0.529400  1.0  0.4011
  C  C829  1  0.936600  0.189090  0.985870  1.0  0.2071
  C  C830  1  0.894970  0.150520  0.004390  1.0  0.2603
  C  C831  1  0.805550  0.154970  0.073040  1.0  0.2367
  C  C832  1  0.769200  0.137370  0.029400  1.0  0.4011
  C  C833  1  0.436600  0.689090  0.985870  1.0  0.2071
  C  C834  1  0.394970  0.650520  0.004390  1.0  0.2603
  C  C835  1  0.305550  0.654970  0.073040  1.0  0.2367
  C  C836  1  0.269200  0.637370  0.029400  1.0  0.4011
  C  C837  1  0.436600  0.189090  0.485870  1.0  0.2071
  C  C838  1  0.394970  0.150520  0.504390  1.0  0.2603
  C  C839  1  0.305550  0.154970  0.573040  1.0  0.2367
  C  C840  1  0.269200  0.137370  0.529400  1.0  0.4011
  C  C841  1  0.063400  0.310910  0.485870  1.0  0.2064
  C  C842  1  0.105030  0.349480  0.504390  1.0  0.26
  C  C843  1  0.194450  0.345030  0.573040  1.0  0.2352
  C  C844  1  0.230800  0.362630  0.529400  1.0  0.3996
  C  C845  1  0.063400  0.810910  0.985870  1.0  0.2064
  C  C846  1  0.105030  0.849480  0.004390  1.0  0.26
  C  C847  1  0.194450  0.845030  0.073040  1.0  0.2352
  C  C848  1  0.230800  0.862630  0.029400  1.0  0.3996
  C  C849  1  0.563400  0.310910  0.985870  1.0  0.2064
  C  C850  1  0.605030  0.349480  0.004390  1.0  0.26
  C  C851  1  0.694450  0.345030  0.073040  1.0  0.2352
  C  C852  1  0.730800  0.362630  0.029400  1.0  0.3996
  C  C853  1  0.563400  0.810910  0.485870  1.0  0.2064
  C  C854  1  0.605030  0.849480  0.504390  1.0  0.26
  C  C855  1  0.694450  0.845030  0.573040  1.0  0.2352
  C  C856  1  0.730800  0.862630  0.529400  1.0  0.3996
  C  C857  1  0.063400  0.689090  0.514130  1.0  0.208
  C  C858  1  0.105030  0.650520  0.495610  1.0  0.2607
  C  C859  1  0.194450  0.654970  0.426960  1.0  0.2351
  C  C860  1  0.230800  0.637370  0.470600  1.0  0.4004
  C  C861  1  0.063400  0.189090  0.014130  1.0  0.208
  C  C862  1  0.105030  0.150520  0.995610  1.0  0.2607
  C  C863  1  0.194450  0.154970  0.926960  1.0  0.2351
  C  C864  1  0.230800  0.137370  0.970600  1.0  0.4004
  C  C865  1  0.563400  0.689090  0.014130  1.0  0.208
  C  C866  1  0.605030  0.650520  0.995610  1.0  0.2607
  C  C867  1  0.694450  0.654970  0.926960  1.0  0.2351
  C  C868  1  0.730800  0.637370  0.970600  1.0  0.4004
  C  C869  1  0.563400  0.189090  0.514130  1.0  0.208
  C  C870  1  0.605030  0.150520  0.495610  1.0  0.2607
  C  C871  1  0.694450  0.154970  0.426960  1.0  0.2351
  C  C872  1  0.730800  0.137370  0.470600  1.0  0.4004
  C  C873  1  0.936600  0.310910  0.514130  1.0  0.206
  C  C874  1  0.894970  0.349480  0.495610  1.0  0.2601
  C  C875  1  0.805550  0.345030  0.426960  1.0  0.237
  C  C876  1  0.769200  0.362630  0.470600  1.0  0.401
  C  C877  1  0.936600  0.810910  0.014130  1.0  0.206
  C  C878  1  0.894970  0.849480  0.995610  1.0  0.2601
  C  C879  1  0.805550  0.845030  0.926960  1.0  0.237
  C  C880  1  0.769200  0.862630  0.970600  1.0  0.401
  C  C881  1  0.436600  0.310910  0.014130  1.0  0.206
  C  C882  1  0.394970  0.349480  0.995610  1.0  0.2601
  C  C883  1  0.305550  0.345030  0.926960  1.0  0.237
  C  C884  1  0.269200  0.362630  0.970600  1.0  0.401
  C  C885  1  0.436600  0.810910  0.514130  1.0  0.206
  C  C886  1  0.394970  0.849480  0.495610  1.0  0.2601
  C  C887  1  0.305550  0.845030  0.426960  1.0  0.237
  C  C888  1  0.269200  0.862630  0.470600  1.0  0.401
  C  C889  1  0.485870  0.936600  0.689090  1.0  0.2059
  C  C890  1  0.504390  0.894970  0.650520  1.0  0.2594
  C  C891  1  0.573040  0.805550  0.654970  1.0  0.2379
  C  C892  1  0.529400  0.769200  0.637370  1.0  0.4025
  C  C893  1  0.485870  0.436600  0.189090  1.0  0.2059
  C  C894  1  0.504390  0.394970  0.150520  1.0  0.2594
  C  C895  1  0.573040  0.305550  0.154970  1.0  0.2379
  C  C896  1  0.529400  0.269200  0.137370  1.0  0.4025
  C  C897  1  0.985870  0.936600  0.189090  1.0  0.2059
  C  C898  1  0.004390  0.894970  0.150520  1.0  0.2594
  C  C899  1  0.073040  0.805550  0.154970  1.0  0.2379
  C  C900  1  0.029400  0.769200  0.137370  1.0  0.4025
  C  C901  1  0.985870  0.436600  0.689090  1.0  0.2059
  C  C902  1  0.004390  0.394970  0.650520  1.0  0.2594
  C  C903  1  0.073040  0.305550  0.654970  1.0  0.2379
  C  C904  1  0.029400  0.269200  0.637370  1.0  0.4025
  C  C905  1  0.485870  0.063400  0.310910  1.0  0.2063
  C  C906  1  0.504390  0.105030  0.349480  1.0  0.2593
  C  C907  1  0.573040  0.194450  0.345030  1.0  0.2363
  C  C908  1  0.529400  0.230800  0.362630  1.0  0.4031
  C  C909  1  0.485870  0.563400  0.810910  1.0  0.2063
  C  C910  1  0.504390  0.605030  0.849480  1.0  0.2593
  C  C911  1  0.573040  0.694450  0.845030  1.0  0.2363
  C  C912  1  0.529400  0.730800  0.862630  1.0  0.4031
  C  C913  1  0.985870  0.063400  0.810910  1.0  0.2063
  C  C914  1  0.004390  0.105030  0.849480  1.0  0.2593
  C  C915  1  0.073040  0.194450  0.845030  1.0  0.2363
  C  C916  1  0.029400  0.230800  0.862630  1.0  0.4031
  C  C917  1  0.985870  0.563400  0.310910  1.0  0.2063
  C  C918  1  0.004390  0.605030  0.349480  1.0  0.2593
  C  C919  1  0.073040  0.694450  0.345030  1.0  0.2363
  C  C920  1  0.029400  0.730800  0.362630  1.0  0.4031
  C  C921  1  0.514130  0.063400  0.689090  1.0  0.2081
  C  C922  1  0.495610  0.105030  0.650520  1.0  0.2594
  C  C923  1  0.426960  0.194450  0.654970  1.0  0.2386
  C  C924  1  0.470600  0.230800  0.637370  1.0  0.4023
  C  C925  1  0.514130  0.563400  0.189090  1.0  0.2081
  C  C926  1  0.495610  0.605030  0.150520  1.0  0.2594
  C  C927  1  0.426960  0.694450  0.154970  1.0  0.2386
  C  C928  1  0.470600  0.730800  0.137370  1.0  0.4023
  C  C929  1  0.014130  0.063400  0.189090  1.0  0.2081
  C  C930  1  0.995610  0.105030  0.150520  1.0  0.2594
  C  C931  1  0.926960  0.194450  0.154970  1.0  0.2386
  C  C932  1  0.970600  0.230800  0.137370  1.0  0.4023
  C  C933  1  0.014130  0.563400  0.689090  1.0  0.2081
  C  C934  1  0.995610  0.605030  0.650520  1.0  0.2594
  C  C935  1  0.926960  0.694450  0.654970  1.0  0.2386
  C  C936  1  0.970600  0.730800  0.637370  1.0  0.4023
  C  C937  1  0.514130  0.936600  0.310910  1.0  0.2062
  C  C938  1  0.495610  0.894970  0.349480  1.0  0.2601
  C  C939  1  0.426960  0.805550  0.345030  1.0  0.2389
  C  C940  1  0.470600  0.769200  0.362630  1.0  0.403
  C  C941  1  0.514130  0.436600  0.810910  1.0  0.2062
  C  C942  1  0.495610  0.394970  0.849480  1.0  0.2601
  C  C943  1  0.426960  0.305550  0.845030  1.0  0.2389
  C  C944  1  0.470600  0.269200  0.862630  1.0  0.403
  C  C945  1  0.014130  0.936600  0.810910  1.0  0.2062
  C  C946  1  0.995610  0.894970  0.849480  1.0  0.2601
  C  C947  1  0.926960  0.805550  0.845030  1.0  0.2389
  C  C948  1  0.970600  0.769200  0.862630  1.0  0.403
  C  C949  1  0.014130  0.436600  0.310910  1.0  0.2062
  C  C950  1  0.995610  0.394970  0.349480  1.0  0.2601
  C  C951  1  0.926960  0.305550  0.345030  1.0  0.2389
  C  C952  1  0.970600  0.269200  0.362630  1.0  0.403
  C  C953  1  0.689090  0.485870  0.936600  1.0  0.2079
  C  C954  1  0.650520  0.504390  0.894970  1.0  0.2607
  C  C955  1  0.654970  0.573040  0.805550  1.0  0.2367
  C  C956  1  0.637370  0.529400  0.769200  1.0  0.4016
  C  C957  1  0.689090  0.985870  0.436600  1.0  0.2079
  C  C958  1  0.650520  0.004390  0.394970  1.0  0.2607
  C  C959  1  0.654970  0.073040  0.305550  1.0  0.2367
  C  C960  1  0.637370  0.029400  0.269200  1.0  0.4016
  C  C961  1  0.189090  0.485870  0.436600  1.0  0.2079
  C  C962  1  0.150520  0.504390  0.394970  1.0  0.2607
  C  C963  1  0.154970  0.573040  0.305550  1.0  0.2367
  C  C964  1  0.137370  0.529400  0.269200  1.0  0.4016
  C  C965  1  0.189090  0.985870  0.936600  1.0  0.2079
  C  C966  1  0.150520  0.004390  0.894970  1.0  0.2607
  C  C967  1  0.154970  0.073040  0.805550  1.0  0.2367
  C  C968  1  0.137370  0.029400  0.769200  1.0  0.4016
  C  C969  1  0.310910  0.485870  0.063400  1.0  0.2087
  C  C970  1  0.349480  0.504390  0.105030  1.0  0.2596
  C  C971  1  0.345030  0.573040  0.194450  1.0  0.2351
  C  C972  1  0.362630  0.529400  0.230800  1.0  0.4035
  C  C973  1  0.310910  0.985870  0.563400  1.0  0.2087
  C  C974  1  0.349480  0.004390  0.605030  1.0  0.2596
  C  C975  1  0.345030  0.073040  0.694450  1.0  0.2351
  C  C976  1  0.362630  0.029400  0.730800  1.0  0.4035
  C  C977  1  0.810910  0.485870  0.563400  1.0  0.2087
  C  C978  1  0.849480  0.504390  0.605030  1.0  0.2596
  C  C979  1  0.845030  0.573040  0.694450  1.0  0.2351
  C  C980  1  0.862630  0.529400  0.730800  1.0  0.4035
  C  C981  1  0.810910  0.985870  0.063400  1.0  0.2087
  C  C982  1  0.849480  0.004390  0.105030  1.0  0.2596
  C  C983  1  0.845030  0.073040  0.194450  1.0  0.2351
  C  C984  1  0.862630  0.029400  0.230800  1.0  0.4035
  C  C985  1  0.689090  0.514130  0.063400  1.0  0.2075
  C  C986  1  0.650520  0.495610  0.105030  1.0  0.26
  C  C987  1  0.654970  0.426960  0.194450  1.0  0.2385
  C  C988  1  0.637370  0.470600  0.230800  1.0  0.4011
  C  C989  1  0.689090  0.014130  0.563400  1.0  0.2075
  C  C990  1  0.650520  0.995610  0.605030  1.0  0.26
  C  C991  1  0.654970  0.926960  0.694450  1.0  0.2385
  C  C992  1  0.637370  0.970600  0.730800  1.0  0.4011
  C  C993  1  0.189090  0.514130  0.563400  1.0  0.2075
  C  C994  1  0.150520  0.495610  0.605030  1.0  0.26
  C  C995  1  0.154970  0.426960  0.694450  1.0  0.2385
  C  C996  1  0.137370  0.470600  0.730800  1.0  0.4011
  C  C997  1  0.189090  0.014130  0.063400  1.0  0.2075
  C  C998  1  0.150520  0.995610  0.105030  1.0  0.26
  C  C999  1  0.154970  0.926960  0.194450  1.0  0.2385
  C  C1000  1  0.137370  0.970600  0.230800  1.0  0.4011
  C  C1001  1  0.310910  0.514130  0.936600  1.0  0.2071
  C  C1002  1  0.349480  0.495610  0.894970  1.0  0.2584
  C  C1003  1  0.345030  0.426960  0.805550  1.0  0.2356
  C  C1004  1  0.362630  0.470600  0.769200  1.0  0.4029
  C  C1005  1  0.310910  0.014130  0.436600  1.0  0.2071
  C  C1006  1  0.349480  0.995610  0.394970  1.0  0.2584
  C  C1007  1  0.345030  0.926960  0.305550  1.0  0.2356
  C  C1008  1  0.362630  0.970600  0.269200  1.0  0.4029
  C  C1009  1  0.810910  0.514130  0.436600  1.0  0.2071
  C  C1010  1  0.849480  0.495610  0.394970  1.0  0.2584
  C  C1011  1  0.845030  0.426960  0.305550  1.0  0.2356
  C  C1012  1  0.862630  0.470600  0.269200  1.0  0.4029
  C  C1013  1  0.810910  0.014130  0.936600  1.0  0.2071
  C  C1014  1  0.849480  0.995610  0.894970  1.0  0.2584
  C  C1015  1  0.845030  0.926960  0.805550  1.0  0.2356
  C  C1016  1  0.862630  0.970600  0.769200  1.0  0.4029
  C  C1017  1  0.189090  0.436600  0.985870  1.0  0.2071
  C  C1018  1  0.150520  0.394970  0.004390  1.0  0.2613
  C  C1019  1  0.154970  0.305550  0.073040  1.0  0.24
  C  C1020  1  0.137370  0.269200  0.029400  1.0  0.3996
  C  C1021  1  0.189090  0.936600  0.485870  1.0  0.2071
  C  C1022  1  0.150520  0.894970  0.504390  1.0  0.2613
  C  C1023  1  0.154970  0.805550  0.573040  1.0  0.24
  C  C1024  1  0.137370  0.769200  0.529400  1.0  0.3996
  C  C1025  1  0.689090  0.436600  0.485870  1.0  0.2071
  C  C1026  1  0.650520  0.394970  0.504390  1.0  0.2613
  C  C1027  1  0.654970  0.305550  0.573040  1.0  0.24
  C  C1028  1  0.637370  0.269200  0.529400  1.0  0.3996
  C  C1029  1  0.689090  0.936600  0.985870  1.0  0.2071
  C  C1030  1  0.650520  0.894970  0.004390  1.0  0.2613
  C  C1031  1  0.654970  0.805550  0.073040  1.0  0.24
  C  C1032  1  0.637370  0.769200  0.029400  1.0  0.3996
  C  C1033  1  0.810910  0.563400  0.985870  1.0  0.2091
  C  C1034  1  0.849480  0.605030  0.004390  1.0  0.2597
  C  C1035  1  0.845030  0.694450  0.073040  1.0  0.2384
  C  C1036  1  0.862630  0.730800  0.029400  1.0  0.402
  C  C1037  1  0.810910  0.063400  0.485870  1.0  0.2091
  C  C1038  1  0.849480  0.105030  0.504390  1.0  0.2597
  C  C1039  1  0.845030  0.194450  0.573040  1.0  0.2384
  C  C1040  1  0.862630  0.230800  0.529400  1.0  0.402
  C  C1041  1  0.310910  0.563400  0.485870  1.0  0.2091
  C  C1042  1  0.349480  0.605030  0.504390  1.0  0.2597
  C  C1043  1  0.345030  0.694450  0.573040  1.0  0.2384
  C  C1044  1  0.362630  0.730800  0.529400  1.0  0.402
  C  C1045  1  0.310910  0.063400  0.985870  1.0  0.2091
  C  C1046  1  0.349480  0.105030  0.004390  1.0  0.2597
  C  C1047  1  0.345030  0.194450  0.073040  1.0  0.2384
  C  C1048  1  0.362630  0.230800  0.029400  1.0  0.402
  C  C1049  1  0.189090  0.563400  0.014130  1.0  0.2093
  C  C1050  1  0.150520  0.605030  0.995610  1.0  0.2609
  C  C1051  1  0.154970  0.694450  0.926960  1.0  0.2381
  C  C1052  1  0.137370  0.730800  0.970600  1.0  0.4012
  C  C1053  1  0.189090  0.063400  0.514130  1.0  0.2093
  C  C1054  1  0.150520  0.105030  0.495610  1.0  0.2609
  C  C1055  1  0.154970  0.194450  0.426960  1.0  0.2381
  C  C1056  1  0.137370  0.230800  0.470600  1.0  0.4012
  C  C1057  1  0.689090  0.563400  0.514130  1.0  0.2093
  C  C1058  1  0.650520  0.605030  0.495610  1.0  0.2609
  C  C1059  1  0.654970  0.694450  0.426960  1.0  0.2381
  C  C1060  1  0.637370  0.730800  0.470600  1.0  0.4012
  C  C1061  1  0.689090  0.063400  0.014130  1.0  0.2093
  C  C1062  1  0.650520  0.105030  0.995610  1.0  0.2609
  C  C1063  1  0.654970  0.194450  0.926960  1.0  0.2381
  C  C1064  1  0.637370  0.230800  0.970600  1.0  0.4012
  C  C1065  1  0.810910  0.436600  0.014130  1.0  0.2099
  C  C1066  1  0.849480  0.394970  0.995610  1.0  0.2596
  C  C1067  1  0.845030  0.305550  0.926960  1.0  0.2391
  C  C1068  1  0.862630  0.269200  0.970600  1.0  0.4027
  C  C1069  1  0.810910  0.936600  0.514130  1.0  0.2099
  C  C1070  1  0.849480  0.894970  0.495610  1.0  0.2596
  C  C1071  1  0.845030  0.805550  0.426960  1.0  0.2391
  C  C1072  1  0.862630  0.769200  0.470600  1.0  0.4027
  C  C1073  1  0.310910  0.436600  0.514130  1.0  0.2099
  C  C1074  1  0.349480  0.394970  0.495610  1.0  0.2596
  C  C1075  1  0.345030  0.305550  0.426960  1.0  0.2391
  C  C1076  1  0.362630  0.269200  0.470600  1.0  0.4027
  C  C1077  1  0.310910  0.936600  0.014130  1.0  0.2099
  C  C1078  1  0.349480  0.894970  0.995610  1.0  0.2596
  C  C1079  1  0.345030  0.805550  0.926960  1.0  0.2391
  C  C1080  1  0.362630  0.769200  0.970600  1.0  0.4027
  C  C1081  1  0.436600  0.985870  0.189090  1.0  0.2041
  C  C1082  1  0.394970  0.004390  0.150520  1.0  0.2585
  C  C1083  1  0.305550  0.073040  0.154970  1.0  0.2368
  C  C1084  1  0.269200  0.029400  0.137370  1.0  0.4013
  C  C1085  1  0.436600  0.485870  0.689090  1.0  0.2041
  C  C1086  1  0.394970  0.504390  0.650520  1.0  0.2585
  C  C1087  1  0.305550  0.573040  0.654970  1.0  0.2368
  C  C1088  1  0.269200  0.529400  0.637370  1.0  0.4013
  C  C1089  1  0.936600  0.985870  0.689090  1.0  0.2041
  C  C1090  1  0.894970  0.004390  0.650520  1.0  0.2585
  C  C1091  1  0.805550  0.073040  0.654970  1.0  0.2368
  C  C1092  1  0.769200  0.029400  0.637370  1.0  0.4013
  C  C1093  1  0.936600  0.485870  0.189090  1.0  0.2041
  C  C1094  1  0.894970  0.504390  0.150520  1.0  0.2585
  C  C1095  1  0.805550  0.573040  0.154970  1.0  0.2368
  C  C1096  1  0.769200  0.529400  0.137370  1.0  0.4013
  C  C1097  1  0.563400  0.985870  0.810910  1.0  0.2049
  C  C1098  1  0.605030  0.004390  0.849480  1.0  0.259
  C  C1099  1  0.694450  0.073040  0.845030  1.0  0.235
  C  C1100  1  0.730800  0.029400  0.862630  1.0  0.4017
  C  C1101  1  0.563400  0.485870  0.310910  1.0  0.2049
  C  C1102  1  0.605030  0.504390  0.349480  1.0  0.259
  C  C1103  1  0.694450  0.573040  0.345030  1.0  0.235
  C  C1104  1  0.730800  0.529400  0.362630  1.0  0.4017
  C  C1105  1  0.063400  0.985870  0.310910  1.0  0.2049
  C  C1106  1  0.105030  0.004390  0.349480  1.0  0.259
  C  C1107  1  0.194450  0.073040  0.345030  1.0  0.235
  C  C1108  1  0.230800  0.029400  0.362630  1.0  0.4017
  C  C1109  1  0.063400  0.485870  0.810910  1.0  0.2049
  C  C1110  1  0.105030  0.504390  0.849480  1.0  0.259
  C  C1111  1  0.194450  0.573040  0.845030  1.0  0.235
  C  C1112  1  0.230800  0.529400  0.862630  1.0  0.4017
  C  C1113  1  0.563400  0.014130  0.189090  1.0  0.2041
  C  C1114  1  0.605030  0.995610  0.150520  1.0  0.2577
  C  C1115  1  0.694450  0.926960  0.154970  1.0  0.2357
  C  C1116  1  0.730800  0.970600  0.137370  1.0  0.4006
  C  C1117  1  0.563400  0.514130  0.689090  1.0  0.2041
  C  C1118  1  0.605030  0.495610  0.650520  1.0  0.2577
  C  C1119  1  0.694450  0.426960  0.654970  1.0  0.2357
  C  C1120  1  0.730800  0.470600  0.637370  1.0  0.4006
  C  C1121  1  0.063400  0.014130  0.689090  1.0  0.2041
  C  C1122  1  0.105030  0.995610  0.650520  1.0  0.2577
  C  C1123  1  0.194450  0.926960  0.654970  1.0  0.2357
  C  C1124  1  0.230800  0.970600  0.637370  1.0  0.4006
  C  C1125  1  0.063400  0.514130  0.189090  1.0  0.2041
  C  C1126  1  0.105030  0.495610  0.150520  1.0  0.2577
  C  C1127  1  0.194450  0.426960  0.154970  1.0  0.2357
  C  C1128  1  0.230800  0.470600  0.137370  1.0  0.4006
  C  C1129  1  0.436600  0.014130  0.810910  1.0  0.2027
  C  C1130  1  0.394970  0.995610  0.849480  1.0  0.2584
  C  C1131  1  0.305550  0.926960  0.845030  1.0  0.2396
  C  C1132  1  0.269200  0.970600  0.862630  1.0  0.4023
  C  C1133  1  0.436600  0.514130  0.310910  1.0  0.2027
  C  C1134  1  0.394970  0.495610  0.349480  1.0  0.2584
  C  C1135  1  0.305550  0.426960  0.345030  1.0  0.2396
  C  C1136  1  0.269200  0.470600  0.362630  1.0  0.4023
  C  C1137  1  0.936600  0.014130  0.310910  1.0  0.2027
  C  C1138  1  0.894970  0.995610  0.349480  1.0  0.2584
  C  C1139  1  0.805550  0.926960  0.345030  1.0  0.2396
  C  C1140  1  0.769200  0.970600  0.362630  1.0  0.4023
  C  C1141  1  0.936600  0.514130  0.810910  1.0  0.2027
  C  C1142  1  0.894970  0.495610  0.849480  1.0  0.2584
  C  C1143  1  0.805550  0.426960  0.845030  1.0  0.2396
  C  C1144  1  0.769200  0.470600  0.862630  1.0  0.4023
  C  C1145  1  0.985870  0.189090  0.436600  1.0  0.2072
  C  C1146  1  0.004390  0.150520  0.394970  1.0  0.2606
  C  C1147  1  0.073040  0.154970  0.305550  1.0  0.2341
  C  C1148  1  0.029400  0.137370  0.269200  1.0  0.4028
  C  C1149  1  0.985870  0.689090  0.936600  1.0  0.2072
  C  C1150  1  0.004390  0.650520  0.894970  1.0  0.2606
  C  C1151  1  0.073040  0.654970  0.805550  1.0  0.2341
  C  C1152  1  0.029400  0.637370  0.769200  1.0  0.4028
  C  C1153  1  0.485870  0.189090  0.936600  1.0  0.2072
  C  C1154  1  0.504390  0.150520  0.894970  1.0  0.2606
  C  C1155  1  0.573040  0.154970  0.805550  1.0  0.2341
  C  C1156  1  0.529400  0.137370  0.769200  1.0  0.4028
  C  C1157  1  0.485870  0.689090  0.436600  1.0  0.2072
  C  C1158  1  0.504390  0.650520  0.394970  1.0  0.2606
  C  C1159  1  0.573040  0.654970  0.305550  1.0  0.2341
  C  C1160  1  0.529400  0.637370  0.269200  1.0  0.4028
  C  C1161  1  0.985870  0.810910  0.563400  1.0  0.2078
  C  C1162  1  0.004390  0.849480  0.605030  1.0  0.2606
  C  C1163  1  0.073040  0.845030  0.694450  1.0  0.2345
  C  C1164  1  0.029400  0.862630  0.730800  1.0  0.4024
  C  C1165  1  0.985870  0.310910  0.063400  1.0  0.2078
  C  C1166  1  0.004390  0.349480  0.105030  1.0  0.2606
  C  C1167  1  0.073040  0.345030  0.194450  1.0  0.2345
  C  C1168  1  0.029400  0.362630  0.230800  1.0  0.4024
  C  C1169  1  0.485870  0.810910  0.063400  1.0  0.2078
  C  C1170  1  0.504390  0.849480  0.105030  1.0  0.2606
  C  C1171  1  0.573040  0.845030  0.194450  1.0  0.2345
  C  C1172  1  0.529400  0.862630  0.230800  1.0  0.4024
  C  C1173  1  0.485870  0.310910  0.563400  1.0  0.2078
  C  C1174  1  0.504390  0.349480  0.605030  1.0  0.2606
  C  C1175  1  0.573040  0.345030  0.694450  1.0  0.2345
  C  C1176  1  0.529400  0.362630  0.730800  1.0  0.4024
  C  C1177  1  0.014130  0.189090  0.563400  1.0  0.2103
  C  C1178  1  0.995610  0.150520  0.605030  1.0  0.2611
  C  C1179  1  0.926960  0.154970  0.694450  1.0  0.2347
  C  C1180  1  0.970600  0.137370  0.730800  1.0  0.4029
  C  C1181  1  0.014130  0.689090  0.063400  1.0  0.2103
  C  C1182  1  0.995610  0.650520  0.105030  1.0  0.2611
  C  C1183  1  0.926960  0.654970  0.194450  1.0  0.2347
  C  C1184  1  0.970600  0.637370  0.230800  1.0  0.4029
  C  C1185  1  0.514130  0.189090  0.063400  1.0  0.2103
  C  C1186  1  0.495610  0.150520  0.105030  1.0  0.2611
  C  C1187  1  0.426960  0.154970  0.194450  1.0  0.2347
  C  C1188  1  0.470600  0.137370  0.230800  1.0  0.4029
  C  C1189  1  0.514130  0.689090  0.563400  1.0  0.2103
  C  C1190  1  0.495610  0.650520  0.605030  1.0  0.2611
  C  C1191  1  0.426960  0.654970  0.694450  1.0  0.2347
  C  C1192  1  0.470600  0.637370  0.730800  1.0  0.4029
  C  C1193  1  0.014130  0.810910  0.436600  1.0  0.2078
  C  C1194  1  0.995610  0.849480  0.394970  1.0  0.2608
  C  C1195  1  0.926960  0.845030  0.305550  1.0  0.2356
  C  C1196  1  0.970600  0.862630  0.269200  1.0  0.402
  C  C1197  1  0.014130  0.310910  0.936600  1.0  0.2078
  C  C1198  1  0.995610  0.349480  0.894970  1.0  0.2608
  C  C1199  1  0.926960  0.345030  0.805550  1.0  0.2356
  C  C1200  1  0.970600  0.362630  0.769200  1.0  0.402
  C  C1201  1  0.514130  0.810910  0.936600  1.0  0.2078
  C  C1202  1  0.495610  0.849480  0.894970  1.0  0.2608
  C  C1203  1  0.426960  0.845030  0.805550  1.0  0.2356
  C  C1204  1  0.470600  0.862630  0.769200  1.0  0.402
  C  C1205  1  0.514130  0.310910  0.436600  1.0  0.2078
  C  C1206  1  0.495610  0.349480  0.394970  1.0  0.2608
  C  C1207  1  0.426960  0.345030  0.305550  1.0  0.2356
  C  C1208  1  0.470600  0.362630  0.269200  1.0  0.402
  S  S1209  1  0.968230  0.711010  0.457330  1.0  -0.1162
  S  S1210  1  0.830260  0.684370  0.601730  1.0  -0.2452
  S  S1211  1  0.968230  0.211010  0.957330  1.0  -0.1162
  S  S1212  1  0.830260  0.184370  0.101730  1.0  -0.2452
  S  S1213  1  0.468230  0.711010  0.957330  1.0  -0.1162
  S  S1214  1  0.330260  0.684370  0.101730  1.0  -0.2452
  S  S1215  1  0.468230  0.211010  0.457330  1.0  -0.1162
  S  S1216  1  0.330260  0.184370  0.601730  1.0  -0.2452
  S  S1217  1  0.031770  0.288990  0.457330  1.0  -0.1143
  S  S1218  1  0.169740  0.315630  0.601730  1.0  -0.2421
  S  S1219  1  0.031770  0.788990  0.957330  1.0  -0.1143
  S  S1220  1  0.169740  0.815630  0.101730  1.0  -0.2421
  S  S1221  1  0.531770  0.288990  0.957330  1.0  -0.1143
  S  S1222  1  0.669740  0.315630  0.101730  1.0  -0.2421
  S  S1223  1  0.531770  0.788990  0.457330  1.0  -0.1143
  S  S1224  1  0.669740  0.815630  0.601730  1.0  -0.2421
  S  S1225  1  0.031770  0.711010  0.542670  1.0  -0.1139
  S  S1226  1  0.169740  0.684370  0.398270  1.0  -0.2426
  S  S1227  1  0.031770  0.211010  0.042670  1.0  -0.1139
  S  S1228  1  0.169740  0.184370  0.898270  1.0  -0.2426
  S  S1229  1  0.531770  0.711010  0.042670  1.0  -0.1139
  S  S1230  1  0.669740  0.684370  0.898270  1.0  -0.2426
  S  S1231  1  0.531770  0.211010  0.542670  1.0  -0.1139
  S  S1232  1  0.669740  0.184370  0.398270  1.0  -0.2426
  S  S1233  1  0.968230  0.288990  0.542670  1.0  -0.1162
  S  S1234  1  0.830260  0.315630  0.398270  1.0  -0.2415
  S  S1235  1  0.968230  0.788990  0.042670  1.0  -0.1162
  S  S1236  1  0.830260  0.815630  0.898270  1.0  -0.2415
  S  S1237  1  0.468230  0.288990  0.042670  1.0  -0.1162
  S  S1238  1  0.330260  0.315630  0.898270  1.0  -0.2415
  S  S1239  1  0.468230  0.788990  0.542670  1.0  -0.1162
  S  S1240  1  0.330260  0.815630  0.398270  1.0  -0.2415
  S  S1241  1  0.457330  0.968230  0.711010  1.0  -0.1172
  S  S1242  1  0.601730  0.830260  0.684370  1.0  -0.2406
  S  S1243  1  0.457330  0.468230  0.211010  1.0  -0.1172
  S  S1244  1  0.601730  0.330260  0.184370  1.0  -0.2406
  S  S1245  1  0.957330  0.968230  0.211010  1.0  -0.1172
  S  S1246  1  0.101730  0.830260  0.184370  1.0  -0.2406
  S  S1247  1  0.957330  0.468230  0.711010  1.0  -0.1172
  S  S1248  1  0.101730  0.330260  0.684370  1.0  -0.2406
  S  S1249  1  0.457330  0.031770  0.288990  1.0  -0.1164
  S  S1250  1  0.601730  0.169740  0.315630  1.0  -0.2402
  S  S1251  1  0.457330  0.531770  0.788990  1.0  -0.1164
  S  S1252  1  0.601730  0.669740  0.815630  1.0  -0.2402
  S  S1253  1  0.957330  0.031770  0.788990  1.0  -0.1164
  S  S1254  1  0.101730  0.169740  0.815630  1.0  -0.2402
  S  S1255  1  0.957330  0.531770  0.288990  1.0  -0.1164
  S  S1256  1  0.101730  0.669740  0.315630  1.0  -0.2402
  S  S1257  1  0.542670  0.031770  0.711010  1.0  -0.1194
  S  S1258  1  0.398270  0.169740  0.684370  1.0  -0.2426
  S  S1259  1  0.542670  0.531770  0.211010  1.0  -0.1194
  S  S1260  1  0.398270  0.669740  0.184370  1.0  -0.2426
  S  S1261  1  0.042670  0.031770  0.211010  1.0  -0.1194
  S  S1262  1  0.898270  0.169740  0.184370  1.0  -0.2426
  S  S1263  1  0.042670  0.531770  0.711010  1.0  -0.1194
  S  S1264  1  0.898270  0.669740  0.684370  1.0  -0.2426
  S  S1265  1  0.542670  0.968230  0.288990  1.0  -0.1176
  S  S1266  1  0.398270  0.830260  0.315630  1.0  -0.2408
  S  S1267  1  0.542670  0.468230  0.788990  1.0  -0.1176
  S  S1268  1  0.398270  0.330260  0.815630  1.0  -0.2408
  S  S1269  1  0.042670  0.968230  0.788990  1.0  -0.1176
  S  S1270  1  0.898270  0.830260  0.815630  1.0  -0.2408
  S  S1271  1  0.042670  0.468230  0.288990  1.0  -0.1176
  S  S1272  1  0.898270  0.330260  0.315630  1.0  -0.2408
  S  S1273  1  0.711010  0.457330  0.968230  1.0  -0.1175
  S  S1274  1  0.684370  0.601730  0.830260  1.0  -0.2382
  S  S1275  1  0.711010  0.957330  0.468230  1.0  -0.1175
  S  S1276  1  0.684370  0.101730  0.330260  1.0  -0.2382
  S  S1277  1  0.211010  0.457330  0.468230  1.0  -0.1175
  S  S1278  1  0.184370  0.601730  0.330260  1.0  -0.2382
  S  S1279  1  0.211010  0.957330  0.968230  1.0  -0.1175
  S  S1280  1  0.184370  0.101730  0.830260  1.0  -0.2382
  S  S1281  1  0.288990  0.457330  0.031770  1.0  -0.1169
  S  S1282  1  0.315630  0.601730  0.169740  1.0  -0.2422
  S  S1283  1  0.288990  0.957330  0.531770  1.0  -0.1169
  S  S1284  1  0.315630  0.101730  0.669740  1.0  -0.2422
  S  S1285  1  0.788990  0.457330  0.531770  1.0  -0.1169
  S  S1286  1  0.815630  0.601730  0.669740  1.0  -0.2422
  S  S1287  1  0.788990  0.957330  0.031770  1.0  -0.1169
  S  S1288  1  0.815630  0.101730  0.169740  1.0  -0.2422
  S  S1289  1  0.711010  0.542670  0.031770  1.0  -0.117
  S  S1290  1  0.684370  0.398270  0.169740  1.0  -0.2382
  S  S1291  1  0.711010  0.042670  0.531770  1.0  -0.117
  S  S1292  1  0.684370  0.898270  0.669740  1.0  -0.2382
  S  S1293  1  0.211010  0.542670  0.531770  1.0  -0.117
  S  S1294  1  0.184370  0.398270  0.669740  1.0  -0.2382
  S  S1295  1  0.211010  0.042670  0.031770  1.0  -0.117
  S  S1296  1  0.184370  0.898270  0.169740  1.0  -0.2382
  S  S1297  1  0.288990  0.542670  0.968230  1.0  -0.1186
  S  S1298  1  0.315630  0.398270  0.830260  1.0  -0.2385
  S  S1299  1  0.288990  0.042670  0.468230  1.0  -0.1186
  S  S1300  1  0.315630  0.898270  0.330260  1.0  -0.2385
  S  S1301  1  0.788990  0.542670  0.468230  1.0  -0.1186
  S  S1302  1  0.815630  0.398270  0.330260  1.0  -0.2385
  S  S1303  1  0.788990  0.042670  0.968230  1.0  -0.1186
  S  S1304  1  0.815630  0.898270  0.830260  1.0  -0.2385
  S  S1305  1  0.211010  0.468230  0.957330  1.0  -0.1182
  S  S1306  1  0.184370  0.330260  0.101730  1.0  -0.2407
  S  S1307  1  0.211010  0.968230  0.457330  1.0  -0.1182
  S  S1308  1  0.184370  0.830260  0.601730  1.0  -0.2407
  S  S1309  1  0.711010  0.468230  0.457330  1.0  -0.1182
  S  S1310  1  0.684370  0.330260  0.601730  1.0  -0.2407
  S  S1311  1  0.711010  0.968230  0.957330  1.0  -0.1182
  S  S1312  1  0.684370  0.830260  0.101730  1.0  -0.2407
  S  S1313  1  0.788990  0.531770  0.957330  1.0  -0.1189
  S  S1314  1  0.815630  0.669740  0.101730  1.0  -0.2427
  S  S1315  1  0.788990  0.031770  0.457330  1.0  -0.1189
  S  S1316  1  0.815630  0.169740  0.601730  1.0  -0.2427
  S  S1317  1  0.288990  0.531770  0.457330  1.0  -0.1189
  S  S1318  1  0.315630  0.669740  0.601730  1.0  -0.2427
  S  S1319  1  0.288990  0.031770  0.957330  1.0  -0.1189
  S  S1320  1  0.315630  0.169740  0.101730  1.0  -0.2427
  S  S1321  1  0.211010  0.531770  0.042670  1.0  -0.1179
  S  S1322  1  0.184370  0.669740  0.898270  1.0  -0.2402
  S  S1323  1  0.211010  0.031770  0.542670  1.0  -0.1179
  S  S1324  1  0.184370  0.169740  0.398270  1.0  -0.2402
  S  S1325  1  0.711010  0.531770  0.542670  1.0  -0.1179
  S  S1326  1  0.684370  0.669740  0.398270  1.0  -0.2402
  S  S1327  1  0.711010  0.031770  0.042670  1.0  -0.1179
  S  S1328  1  0.684370  0.169740  0.898270  1.0  -0.2402
  S  S1329  1  0.788990  0.468230  0.042670  1.0  -0.118
  S  S1330  1  0.815630  0.330260  0.898270  1.0  -0.2403
  S  S1331  1  0.788990  0.968230  0.542670  1.0  -0.118
  S  S1332  1  0.815630  0.830260  0.398270  1.0  -0.2403
  S  S1333  1  0.288990  0.468230  0.542670  1.0  -0.118
  S  S1334  1  0.315630  0.330260  0.398270  1.0  -0.2403
  S  S1335  1  0.288990  0.968230  0.042670  1.0  -0.118
  S  S1336  1  0.315630  0.830260  0.898270  1.0  -0.2403
  S  S1337  1  0.468230  0.957330  0.211010  1.0  -0.1163
  S  S1338  1  0.330260  0.101730  0.184370  1.0  -0.2457
  S  S1339  1  0.468230  0.457330  0.711010  1.0  -0.1163
  S  S1340  1  0.330260  0.601730  0.684370  1.0  -0.2457
  S  S1341  1  0.968230  0.957330  0.711010  1.0  -0.1163
  S  S1342  1  0.830260  0.101730  0.684370  1.0  -0.2457
  S  S1343  1  0.968230  0.457330  0.211010  1.0  -0.1163
  S  S1344  1  0.830260  0.601730  0.184370  1.0  -0.2457
  S  S1345  1  0.531770  0.957330  0.788990  1.0  -0.1131
  S  S1346  1  0.669740  0.101730  0.815630  1.0  -0.2437
  S  S1347  1  0.531770  0.457330  0.288990  1.0  -0.1131
  S  S1348  1  0.669740  0.601730  0.315630  1.0  -0.2437
  S  S1349  1  0.031770  0.957330  0.288990  1.0  -0.1131
  S  S1350  1  0.169740  0.101730  0.315630  1.0  -0.2437
  S  S1351  1  0.031770  0.457330  0.788990  1.0  -0.1131
  S  S1352  1  0.169740  0.601730  0.815630  1.0  -0.2437
  S  S1353  1  0.531770  0.042670  0.211010  1.0  -0.1146
  S  S1354  1  0.669740  0.898270  0.184370  1.0  -0.243
  S  S1355  1  0.531770  0.542670  0.711010  1.0  -0.1146
  S  S1356  1  0.669740  0.398270  0.684370  1.0  -0.243
  S  S1357  1  0.031770  0.042670  0.711010  1.0  -0.1146
  S  S1358  1  0.169740  0.898270  0.684370  1.0  -0.243
  S  S1359  1  0.031770  0.542670  0.211010  1.0  -0.1146
  S  S1360  1  0.169740  0.398270  0.184370  1.0  -0.243
  S  S1361  1  0.468230  0.042670  0.788990  1.0  -0.1158
  S  S1362  1  0.330260  0.898270  0.815630  1.0  -0.2421
  S  S1363  1  0.468230  0.542670  0.288990  1.0  -0.1158
  S  S1364  1  0.330260  0.398270  0.315630  1.0  -0.2421
  S  S1365  1  0.968230  0.042670  0.288990  1.0  -0.1158
  S  S1366  1  0.830260  0.898270  0.315630  1.0  -0.2421
  S  S1367  1  0.968230  0.542670  0.788990  1.0  -0.1158
  S  S1368  1  0.830260  0.398270  0.815630  1.0  -0.2421
  S  S1369  1  0.957330  0.211010  0.468230  1.0  -0.1175
  S  S1370  1  0.101730  0.184370  0.330260  1.0  -0.238
  S  S1371  1  0.957330  0.711010  0.968230  1.0  -0.1175
  S  S1372  1  0.101730  0.684370  0.830260  1.0  -0.238
  S  S1373  1  0.457330  0.211010  0.968230  1.0  -0.1175
  S  S1374  1  0.601730  0.184370  0.830260  1.0  -0.238
  S  S1375  1  0.457330  0.711010  0.468230  1.0  -0.1175
  S  S1376  1  0.601730  0.684370  0.330260  1.0  -0.238
  S  S1377  1  0.957330  0.788990  0.531770  1.0  -0.1167
  S  S1378  1  0.101730  0.815630  0.669740  1.0  -0.238
  S  S1379  1  0.957330  0.288990  0.031770  1.0  -0.1167
  S  S1380  1  0.101730  0.315630  0.169740  1.0  -0.238
  S  S1381  1  0.457330  0.788990  0.031770  1.0  -0.1167
  S  S1382  1  0.601730  0.815630  0.169740  1.0  -0.238
  S  S1383  1  0.457330  0.288990  0.531770  1.0  -0.1167
  S  S1384  1  0.601730  0.315630  0.669740  1.0  -0.238
  S  S1385  1  0.042670  0.211010  0.531770  1.0  -0.118
  S  S1386  1  0.898270  0.184370  0.669740  1.0  -0.2413
  S  S1387  1  0.042670  0.711010  0.031770  1.0  -0.118
  S  S1388  1  0.898270  0.684370  0.169740  1.0  -0.2413
  S  S1389  1  0.542670  0.211010  0.031770  1.0  -0.118
  S  S1390  1  0.398270  0.184370  0.169740  1.0  -0.2413
  S  S1391  1  0.542670  0.711010  0.531770  1.0  -0.118
  S  S1392  1  0.398270  0.684370  0.669740  1.0  -0.2413
  S  S1393  1  0.042670  0.788990  0.468230  1.0  -0.1196
  S  S1394  1  0.898270  0.815630  0.330260  1.0  -0.2382
  S  S1395  1  0.042670  0.288990  0.968230  1.0  -0.1196
  S  S1396  1  0.898270  0.315630  0.830260  1.0  -0.2382
  S  S1397  1  0.542670  0.788990  0.968230  1.0  -0.1196
  S  S1398  1  0.398270  0.815630  0.830260  1.0  -0.2382
  S  S1399  1  0.542670  0.288990  0.468230  1.0  -0.1196
  S  S1400  1  0.398270  0.315630  0.330260  1.0  -0.2382
  Br  Br1401  1  0.901420  0.598580  0.598580  1.0  -0.3469
  Br  Br1402  1  0.901420  0.098580  0.098580  1.0  -0.3469
  Br  Br1403  1  0.098580  0.401420  0.598580  1.0  -0.3468
  Br  Br1404  1  0.098580  0.901420  0.098580  1.0  -0.3468
  Br  Br1405  1  0.098580  0.598580  0.401420  1.0  -0.347
  Br  Br1406  1  0.098580  0.098580  0.901420  1.0  -0.347
  Br  Br1407  1  0.901420  0.401420  0.401420  1.0  -0.3471
  Br  Br1408  1  0.901420  0.901420  0.901420  1.0  -0.3471
  Br  Br1409  1  0.598580  0.901420  0.598580  1.0  -0.3468
  Br  Br1410  1  0.598580  0.098580  0.401420  1.0  -0.347
  Br  Br1411  1  0.401420  0.098580  0.598580  1.0  -0.3469
  Br  Br1412  1  0.401420  0.901420  0.401420  1.0  -0.3471
  Br  Br1413  1  0.598580  0.598580  0.901420  1.0  -0.347
  Br  Br1414  1  0.401420  0.598580  0.098580  1.0  -0.3469
  Br  Br1415  1  0.598580  0.401420  0.098580  1.0  -0.3468
  Br  Br1416  1  0.401420  0.401420  0.901420  1.0  -0.3471
  Br  Br1417  1  0.098580  0.401420  0.098580  1.0  -0.3468
  Br  Br1418  1  0.901420  0.598580  0.098580  1.0  -0.3469
  Br  Br1419  1  0.098580  0.598580  0.901420  1.0  -0.347
  Br  Br1420  1  0.901420  0.401420  0.901420  1.0  -0.3471
  Br  Br1421  1  0.401420  0.098580  0.098580  1.0  -0.3469
  Br  Br1422  1  0.401420  0.598580  0.598580  1.0  -0.3469
  Br  Br1423  1  0.598580  0.098580  0.901420  1.0  -0.347
  Br  Br1424  1  0.598580  0.598580  0.401420  1.0  -0.347
  Br  Br1425  1  0.598580  0.901420  0.098580  1.0  -0.3468
  Br  Br1426  1  0.598580  0.401420  0.598580  1.0  -0.3468
  Br  Br1427  1  0.401420  0.901420  0.901420  1.0  -0.3471
  Br  Br1428  1  0.401420  0.401420  0.401420  1.0  -0.3471
  Br  Br1429  1  0.098580  0.098580  0.401420  1.0  -0.347
  Br  Br1430  1  0.098580  0.901420  0.598580  1.0  -0.3468
  Br  Br1431  1  0.901420  0.098580  0.598580  1.0  -0.3469
  Br  Br1432  1  0.901420  0.901420  0.401420  1.0  -0.3471
  N  N1433  1  0.930230  0.695520  0.520540  1.0  -0.2953
  N  N1434  1  0.902990  0.671020  0.532380  1.0  -0.3243
  N  N1435  1  0.914910  0.660550  0.474890  1.0  -0.1587
  N  N1436  1  0.869090  0.623370  0.503660  1.0  -0.7627
  N  N1437  1  0.804330  0.619070  0.574660  1.0  -0.3471
  N  N1438  1  0.780590  0.607250  0.546380  1.0  -0.3687
  N  N1439  1  0.784030  0.666990  0.545590  1.0  -0.2425
  N  N1440  1  0.745830  0.638460  0.500810  1.0  -0.7735
  N  N1441  1  0.930230  0.195520  0.020540  1.0  -0.2953
  N  N1442  1  0.902990  0.171020  0.032380  1.0  -0.3243
  N  N1443  1  0.914910  0.160550  0.974890  1.0  -0.1587
  N  N1444  1  0.869090  0.123370  0.003660  1.0  -0.7627
  N  N1445  1  0.804330  0.119070  0.074660  1.0  -0.3471
  N  N1446  1  0.780590  0.107250  0.046380  1.0  -0.3687
  N  N1447  1  0.784030  0.166990  0.045590  1.0  -0.2425
  N  N1448  1  0.745830  0.138460  0.000810  1.0  -0.7735
  N  N1449  1  0.430230  0.695520  0.020540  1.0  -0.2953
  N  N1450  1  0.402990  0.671020  0.032380  1.0  -0.3243
  N  N1451  1  0.414910  0.660550  0.974890  1.0  -0.1587
  N  N1452  1  0.369090  0.623370  0.003660  1.0  -0.7627
  N  N1453  1  0.304330  0.619070  0.074660  1.0  -0.3471
  N  N1454  1  0.280590  0.607250  0.046380  1.0  -0.3687
  N  N1455  1  0.284030  0.666990  0.045590  1.0  -0.2425
  N  N1456  1  0.245830  0.638460  0.000810  1.0  -0.7735
  N  N1457  1  0.430230  0.195520  0.520540  1.0  -0.2953
  N  N1458  1  0.402990  0.171020  0.532380  1.0  -0.3243
  N  N1459  1  0.414910  0.160550  0.474890  1.0  -0.1587
  N  N1460  1  0.369090  0.123370  0.503660  1.0  -0.7627
  N  N1461  1  0.304330  0.119070  0.574660  1.0  -0.3471
  N  N1462  1  0.280590  0.107250  0.546380  1.0  -0.3687
  N  N1463  1  0.284030  0.166990  0.545590  1.0  -0.2425
  N  N1464  1  0.245830  0.138460  0.500810  1.0  -0.7735
  N  N1465  1  0.069770  0.304480  0.520540  1.0  -0.2972
  N  N1466  1  0.097010  0.328980  0.532380  1.0  -0.3246
  N  N1467  1  0.085090  0.339450  0.474890  1.0  -0.1591
  N  N1468  1  0.130910  0.376630  0.503660  1.0  -0.7632
  N  N1469  1  0.195670  0.380930  0.574660  1.0  -0.347
  N  N1470  1  0.219410  0.392750  0.546380  1.0  -0.3686
  N  N1471  1  0.215970  0.333010  0.545590  1.0  -0.2443
  N  N1472  1  0.254170  0.361540  0.500810  1.0  -0.7741
  N  N1473  1  0.069770  0.804480  0.020540  1.0  -0.2972
  N  N1474  1  0.097010  0.828980  0.032380  1.0  -0.3246
  N  N1475  1  0.085090  0.839450  0.974890  1.0  -0.1591
  N  N1476  1  0.130910  0.876630  0.003660  1.0  -0.7632
  N  N1477  1  0.195670  0.880930  0.074660  1.0  -0.347
  N  N1478  1  0.219410  0.892750  0.046380  1.0  -0.3686
  N  N1479  1  0.215970  0.833010  0.045590  1.0  -0.2443
  N  N1480  1  0.254170  0.861540  0.000810  1.0  -0.7741
  N  N1481  1  0.569770  0.304480  0.020540  1.0  -0.2972
  N  N1482  1  0.597010  0.328980  0.032380  1.0  -0.3246
  N  N1483  1  0.585090  0.339450  0.974890  1.0  -0.1591
  N  N1484  1  0.630910  0.376630  0.003660  1.0  -0.7632
  N  N1485  1  0.695670  0.380930  0.074660  1.0  -0.347
  N  N1486  1  0.719410  0.392750  0.046380  1.0  -0.3686
  N  N1487  1  0.715970  0.333010  0.045590  1.0  -0.2443
  N  N1488  1  0.754170  0.361540  0.000810  1.0  -0.7741
  N  N1489  1  0.569770  0.804480  0.520540  1.0  -0.2972
  N  N1490  1  0.597010  0.828980  0.532380  1.0  -0.3246
  N  N1491  1  0.585090  0.839450  0.474890  1.0  -0.1591
  N  N1492  1  0.630910  0.876630  0.503660  1.0  -0.7632
  N  N1493  1  0.695670  0.880930  0.574660  1.0  -0.347
  N  N1494  1  0.719410  0.892750  0.546380  1.0  -0.3686
  N  N1495  1  0.715970  0.833010  0.545590  1.0  -0.2443
  N  N1496  1  0.754170  0.861540  0.500810  1.0  -0.7741
  N  N1497  1  0.069770  0.695520  0.479460  1.0  -0.2969
  N  N1498  1  0.097010  0.671020  0.467620  1.0  -0.3238
  N  N1499  1  0.085090  0.660550  0.525110  1.0  -0.16
  N  N1500  1  0.130910  0.623370  0.496340  1.0  -0.7637
  N  N1501  1  0.195670  0.619070  0.425340  1.0  -0.3483
  N  N1502  1  0.219410  0.607250  0.453620  1.0  -0.3699
  N  N1503  1  0.215970  0.666990  0.454410  1.0  -0.2422
  N  N1504  1  0.254170  0.638460  0.499190  1.0  -0.7755
  N  N1505  1  0.069770  0.195520  0.979460  1.0  -0.2969
  N  N1506  1  0.097010  0.171020  0.967620  1.0  -0.3238
  N  N1507  1  0.085090  0.160550  0.025110  1.0  -0.16
  N  N1508  1  0.130910  0.123370  0.996340  1.0  -0.7637
  N  N1509  1  0.195670  0.119070  0.925340  1.0  -0.3483
  N  N1510  1  0.219410  0.107250  0.953620  1.0  -0.3699
  N  N1511  1  0.215970  0.166990  0.954410  1.0  -0.2422
  N  N1512  1  0.254170  0.138460  0.999190  1.0  -0.7755
  N  N1513  1  0.569770  0.695520  0.979460  1.0  -0.2969
  N  N1514  1  0.597010  0.671020  0.967620  1.0  -0.3238
  N  N1515  1  0.585090  0.660550  0.025110  1.0  -0.16
  N  N1516  1  0.630910  0.623370  0.996340  1.0  -0.7637
  N  N1517  1  0.695670  0.619070  0.925340  1.0  -0.3483
  N  N1518  1  0.719410  0.607250  0.953620  1.0  -0.3699
  N  N1519  1  0.715970  0.666990  0.954410  1.0  -0.2422
  N  N1520  1  0.754170  0.638460  0.999190  1.0  -0.7755
  N  N1521  1  0.569770  0.195520  0.479460  1.0  -0.2969
  N  N1522  1  0.597010  0.171020  0.467620  1.0  -0.3238
  N  N1523  1  0.585090  0.160550  0.525110  1.0  -0.16
  N  N1524  1  0.630910  0.123370  0.496340  1.0  -0.7637
  N  N1525  1  0.695670  0.119070  0.425340  1.0  -0.3483
  N  N1526  1  0.719410  0.107250  0.453620  1.0  -0.3699
  N  N1527  1  0.715970  0.166990  0.454410  1.0  -0.2422
  N  N1528  1  0.754170  0.138460  0.499190  1.0  -0.7755
  N  N1529  1  0.930230  0.304480  0.479460  1.0  -0.2965
  N  N1530  1  0.902990  0.328980  0.467620  1.0  -0.3234
  N  N1531  1  0.914910  0.339450  0.525110  1.0  -0.1585
  N  N1532  1  0.869090  0.376630  0.496340  1.0  -0.7626
  N  N1533  1  0.804330  0.380930  0.425340  1.0  -0.3474
  N  N1534  1  0.780590  0.392750  0.453620  1.0  -0.3694
  N  N1535  1  0.784030  0.333010  0.454410  1.0  -0.2447
  N  N1536  1  0.745830  0.361540  0.499190  1.0  -0.7733
  N  N1537  1  0.930230  0.804480  0.979460  1.0  -0.2965
  N  N1538  1  0.902990  0.828980  0.967620  1.0  -0.3234
  N  N1539  1  0.914910  0.839450  0.025110  1.0  -0.1585
  N  N1540  1  0.869090  0.876630  0.996340  1.0  -0.7626
  N  N1541  1  0.804330  0.880930  0.925340  1.0  -0.3474
  N  N1542  1  0.780590  0.892750  0.953620  1.0  -0.3694
  N  N1543  1  0.784030  0.833010  0.954410  1.0  -0.2447
  N  N1544  1  0.745830  0.861540  0.999190  1.0  -0.7733
  N  N1545  1  0.430230  0.304480  0.979460  1.0  -0.2965
  N  N1546  1  0.402990  0.328980  0.967620  1.0  -0.3234
  N  N1547  1  0.414910  0.339450  0.025110  1.0  -0.1585
  N  N1548  1  0.369090  0.376630  0.996340  1.0  -0.7626
  N  N1549  1  0.304330  0.380930  0.925340  1.0  -0.3474
  N  N1550  1  0.280590  0.392750  0.953620  1.0  -0.3694
  N  N1551  1  0.284030  0.333010  0.954410  1.0  -0.2447
  N  N1552  1  0.245830  0.361540  0.999190  1.0  -0.7733
  N  N1553  1  0.430230  0.804480  0.479460  1.0  -0.2965
  N  N1554  1  0.402990  0.828980  0.467620  1.0  -0.3234
  N  N1555  1  0.414910  0.839450  0.525110  1.0  -0.1585
  N  N1556  1  0.369090  0.876630  0.496340  1.0  -0.7626
  N  N1557  1  0.304330  0.880930  0.425340  1.0  -0.3474
  N  N1558  1  0.280590  0.892750  0.453620  1.0  -0.3694
  N  N1559  1  0.284030  0.833010  0.454410  1.0  -0.2447
  N  N1560  1  0.245830  0.861540  0.499190  1.0  -0.7733
  N  N1561  1  0.520540  0.930230  0.695520  1.0  -0.2936
  N  N1562  1  0.532380  0.902990  0.671020  1.0  -0.329
  N  N1563  1  0.474890  0.914910  0.660550  1.0  -0.1616
  N  N1564  1  0.503660  0.869090  0.623370  1.0  -0.7622
  N  N1565  1  0.574660  0.804330  0.619070  1.0  -0.3475
  N  N1566  1  0.546380  0.780590  0.607250  1.0  -0.3669
  N  N1567  1  0.545590  0.784030  0.666990  1.0  -0.245
  N  N1568  1  0.500810  0.745830  0.638460  1.0  -0.7731
  N  N1569  1  0.520540  0.430230  0.195520  1.0  -0.2936
  N  N1570  1  0.532380  0.402990  0.171020  1.0  -0.329
  N  N1571  1  0.474890  0.414910  0.160550  1.0  -0.1616
  N  N1572  1  0.503660  0.369090  0.123370  1.0  -0.7622
  N  N1573  1  0.574660  0.304330  0.119070  1.0  -0.3475
  N  N1574  1  0.546380  0.280590  0.107250  1.0  -0.3669
  N  N1575  1  0.545590  0.284030  0.166990  1.0  -0.245
  N  N1576  1  0.500810  0.245830  0.138460  1.0  -0.7731
  N  N1577  1  0.020540  0.930230  0.195520  1.0  -0.2936
  N  N1578  1  0.032380  0.902990  0.171020  1.0  -0.329
  N  N1579  1  0.974890  0.914910  0.160550  1.0  -0.1616
  N  N1580  1  0.003660  0.869090  0.123370  1.0  -0.7622
  N  N1581  1  0.074660  0.804330  0.119070  1.0  -0.3475
  N  N1582  1  0.046380  0.780590  0.107250  1.0  -0.3669
  N  N1583  1  0.045590  0.784030  0.166990  1.0  -0.245
  N  N1584  1  0.000810  0.745830  0.138460  1.0  -0.7731
  N  N1585  1  0.020540  0.430230  0.695520  1.0  -0.2936
  N  N1586  1  0.032380  0.402990  0.671020  1.0  -0.329
  N  N1587  1  0.974890  0.414910  0.660550  1.0  -0.1616
  N  N1588  1  0.003660  0.369090  0.623370  1.0  -0.7622
  N  N1589  1  0.074660  0.304330  0.619070  1.0  -0.3475
  N  N1590  1  0.046380  0.280590  0.607250  1.0  -0.3669
  N  N1591  1  0.045590  0.284030  0.666990  1.0  -0.245
  N  N1592  1  0.000810  0.245830  0.638460  1.0  -0.7731
  N  N1593  1  0.520540  0.069770  0.304480  1.0  -0.2922
  N  N1594  1  0.532380  0.097010  0.328980  1.0  -0.3284
  N  N1595  1  0.474890  0.085090  0.339450  1.0  -0.1611
  N  N1596  1  0.503660  0.130910  0.376630  1.0  -0.7638
  N  N1597  1  0.574660  0.195670  0.380930  1.0  -0.3487
  N  N1598  1  0.546380  0.219410  0.392750  1.0  -0.3682
  N  N1599  1  0.545590  0.215970  0.333010  1.0  -0.2428
  N  N1600  1  0.500810  0.254170  0.361540  1.0  -0.7737
  N  N1601  1  0.520540  0.569770  0.804480  1.0  -0.2922
  N  N1602  1  0.532380  0.597010  0.828980  1.0  -0.3284
  N  N1603  1  0.474890  0.585090  0.839450  1.0  -0.1611
  N  N1604  1  0.503660  0.630910  0.876630  1.0  -0.7638
  N  N1605  1  0.574660  0.695670  0.880930  1.0  -0.3487
  N  N1606  1  0.546380  0.719410  0.892750  1.0  -0.3682
  N  N1607  1  0.545590  0.715970  0.833010  1.0  -0.2428
  N  N1608  1  0.500810  0.754170  0.861540  1.0  -0.7737
  N  N1609  1  0.020540  0.069770  0.804480  1.0  -0.2922
  N  N1610  1  0.032380  0.097010  0.828980  1.0  -0.3284
  N  N1611  1  0.974890  0.085090  0.839450  1.0  -0.1611
  N  N1612  1  0.003660  0.130910  0.876630  1.0  -0.7638
  N  N1613  1  0.074660  0.195670  0.880930  1.0  -0.3487
  N  N1614  1  0.046380  0.219410  0.892750  1.0  -0.3682
  N  N1615  1  0.045590  0.215970  0.833010  1.0  -0.2428
  N  N1616  1  0.000810  0.254170  0.861540  1.0  -0.7737
  N  N1617  1  0.020540  0.569770  0.304480  1.0  -0.2922
  N  N1618  1  0.032380  0.597010  0.328980  1.0  -0.3284
  N  N1619  1  0.974890  0.585090  0.339450  1.0  -0.1611
  N  N1620  1  0.003660  0.630910  0.376630  1.0  -0.7638
  N  N1621  1  0.074660  0.695670  0.380930  1.0  -0.3487
  N  N1622  1  0.046380  0.719410  0.392750  1.0  -0.3682
  N  N1623  1  0.045590  0.715970  0.333010  1.0  -0.2428
  N  N1624  1  0.000810  0.754170  0.361540  1.0  -0.7737
  N  N1625  1  0.479460  0.069770  0.695520  1.0  -0.2974
  N  N1626  1  0.467620  0.097010  0.671020  1.0  -0.3293
  N  N1627  1  0.525110  0.085090  0.660550  1.0  -0.1586
  N  N1628  1  0.496340  0.130910  0.623370  1.0  -0.762
  N  N1629  1  0.425340  0.195670  0.619070  1.0  -0.3477
  N  N1630  1  0.453620  0.219410  0.607250  1.0  -0.3665
  N  N1631  1  0.454410  0.215970  0.666990  1.0  -0.2466
  N  N1632  1  0.499190  0.254170  0.638460  1.0  -0.7744
  N  N1633  1  0.479460  0.569770  0.195520  1.0  -0.2974
  N  N1634  1  0.467620  0.597010  0.171020  1.0  -0.3293
  N  N1635  1  0.525110  0.585090  0.160550  1.0  -0.1586
  N  N1636  1  0.496340  0.630910  0.123370  1.0  -0.762
  N  N1637  1  0.425340  0.695670  0.119070  1.0  -0.3477
  N  N1638  1  0.453620  0.719410  0.107250  1.0  -0.3665
  N  N1639  1  0.454410  0.715970  0.166990  1.0  -0.2466
  N  N1640  1  0.499190  0.754170  0.138460  1.0  -0.7744
  N  N1641  1  0.979460  0.069770  0.195520  1.0  -0.2974
  N  N1642  1  0.967620  0.097010  0.171020  1.0  -0.3293
  N  N1643  1  0.025110  0.085090  0.160550  1.0  -0.1586
  N  N1644  1  0.996340  0.130910  0.123370  1.0  -0.762
  N  N1645  1  0.925340  0.195670  0.119070  1.0  -0.3477
  N  N1646  1  0.953620  0.219410  0.107250  1.0  -0.3665
  N  N1647  1  0.954410  0.215970  0.166990  1.0  -0.2466
  N  N1648  1  0.999190  0.254170  0.138460  1.0  -0.7744
  N  N1649  1  0.979460  0.569770  0.695520  1.0  -0.2974
  N  N1650  1  0.967620  0.597010  0.671020  1.0  -0.3293
  N  N1651  1  0.025110  0.585090  0.660550  1.0  -0.1586
  N  N1652  1  0.996340  0.630910  0.623370  1.0  -0.762
  N  N1653  1  0.925340  0.695670  0.619070  1.0  -0.3477
  N  N1654  1  0.953620  0.719410  0.607250  1.0  -0.3665
  N  N1655  1  0.954410  0.715970  0.666990  1.0  -0.2466
  N  N1656  1  0.999190  0.754170  0.638460  1.0  -0.7744
  N  N1657  1  0.479460  0.930230  0.304480  1.0  -0.296
  N  N1658  1  0.467620  0.902990  0.328980  1.0  -0.3295
  N  N1659  1  0.525110  0.914910  0.339450  1.0  -0.1584
  N  N1660  1  0.496340  0.869090  0.376630  1.0  -0.7641
  N  N1661  1  0.425340  0.804330  0.380930  1.0  -0.3488
  N  N1662  1  0.453620  0.780590  0.392750  1.0  -0.3671
  N  N1663  1  0.454410  0.784030  0.333010  1.0  -0.2432
  N  N1664  1  0.499190  0.745830  0.361540  1.0  -0.7739
  N  N1665  1  0.479460  0.430230  0.804480  1.0  -0.296
  N  N1666  1  0.467620  0.402990  0.828980  1.0  -0.3295
  N  N1667  1  0.525110  0.414910  0.839450  1.0  -0.1584
  N  N1668  1  0.496340  0.369090  0.876630  1.0  -0.7641
  N  N1669  1  0.425340  0.304330  0.880930  1.0  -0.3488
  N  N1670  1  0.453620  0.280590  0.892750  1.0  -0.3671
  N  N1671  1  0.454410  0.284030  0.833010  1.0  -0.2432
  N  N1672  1  0.499190  0.245830  0.861540  1.0  -0.7739
  N  N1673  1  0.979460  0.930230  0.804480  1.0  -0.296
  N  N1674  1  0.967620  0.902990  0.828980  1.0  -0.3295
  N  N1675  1  0.025110  0.914910  0.839450  1.0  -0.1584
  N  N1676  1  0.996340  0.869090  0.876630  1.0  -0.7641
  N  N1677  1  0.925340  0.804330  0.880930  1.0  -0.3488
  N  N1678  1  0.953620  0.780590  0.892750  1.0  -0.3671
  N  N1679  1  0.954410  0.784030  0.833010  1.0  -0.2432
  N  N1680  1  0.999190  0.745830  0.861540  1.0  -0.7739
  N  N1681  1  0.979460  0.430230  0.304480  1.0  -0.296
  N  N1682  1  0.967620  0.402990  0.328980  1.0  -0.3295
  N  N1683  1  0.025110  0.414910  0.339450  1.0  -0.1584
  N  N1684  1  0.996340  0.369090  0.376630  1.0  -0.7641
  N  N1685  1  0.925340  0.304330  0.380930  1.0  -0.3488
  N  N1686  1  0.953620  0.280590  0.392750  1.0  -0.3671
  N  N1687  1  0.954410  0.284030  0.333010  1.0  -0.2432
  N  N1688  1  0.999190  0.245830  0.361540  1.0  -0.7739
  N  N1689  1  0.695520  0.520540  0.930230  1.0  -0.2965
  N  N1690  1  0.671020  0.532380  0.902990  1.0  -0.3283
  N  N1691  1  0.660550  0.474890  0.914910  1.0  -0.1597
  N  N1692  1  0.623370  0.503660  0.869090  1.0  -0.7606
  N  N1693  1  0.619070  0.574660  0.804330  1.0  -0.35
  N  N1694  1  0.607250  0.546380  0.780590  1.0  -0.3668
  N  N1695  1  0.666990  0.545590  0.784030  1.0  -0.2432
  N  N1696  1  0.638460  0.500810  0.745830  1.0  -0.7738
  N  N1697  1  0.695520  0.020540  0.430230  1.0  -0.2965
  N  N1698  1  0.671020  0.032380  0.402990  1.0  -0.3283
  N  N1699  1  0.660550  0.974890  0.414910  1.0  -0.1597
  N  N1700  1  0.623370  0.003660  0.369090  1.0  -0.7606
  N  N1701  1  0.619070  0.074660  0.304330  1.0  -0.35
  N  N1702  1  0.607250  0.046380  0.280590  1.0  -0.3668
  N  N1703  1  0.666990  0.045590  0.284030  1.0  -0.2432
  N  N1704  1  0.638460  0.000810  0.245830  1.0  -0.7738
  N  N1705  1  0.195520  0.520540  0.430230  1.0  -0.2965
  N  N1706  1  0.171020  0.532380  0.402990  1.0  -0.3283
  N  N1707  1  0.160550  0.474890  0.414910  1.0  -0.1597
  N  N1708  1  0.123370  0.503660  0.369090  1.0  -0.7606
  N  N1709  1  0.119070  0.574660  0.304330  1.0  -0.35
  N  N1710  1  0.107250  0.546380  0.280590  1.0  -0.3668
  N  N1711  1  0.166990  0.545590  0.284030  1.0  -0.2432
  N  N1712  1  0.138460  0.500810  0.245830  1.0  -0.7738
  N  N1713  1  0.195520  0.020540  0.930230  1.0  -0.2965
  N  N1714  1  0.171020  0.032380  0.902990  1.0  -0.3283
  N  N1715  1  0.160550  0.974890  0.914910  1.0  -0.1597
  N  N1716  1  0.123370  0.003660  0.869090  1.0  -0.7606
  N  N1717  1  0.119070  0.074660  0.804330  1.0  -0.35
  N  N1718  1  0.107250  0.046380  0.780590  1.0  -0.3668
  N  N1719  1  0.166990  0.045590  0.784030  1.0  -0.2432
  N  N1720  1  0.138460  0.000810  0.745830  1.0  -0.7738
  N  N1721  1  0.304480  0.520540  0.069770  1.0  -0.2951
  N  N1722  1  0.328980  0.532380  0.097010  1.0  -0.3279
  N  N1723  1  0.339450  0.474890  0.085090  1.0  -0.1613
  N  N1724  1  0.376630  0.503660  0.130910  1.0  -0.7606
  N  N1725  1  0.380930  0.574660  0.195670  1.0  -0.3476
  N  N1726  1  0.392750  0.546380  0.219410  1.0  -0.3698
  N  N1727  1  0.333010  0.545590  0.215970  1.0  -0.2459
  N  N1728  1  0.361540  0.500810  0.254170  1.0  -0.7746
  N  N1729  1  0.304480  0.020540  0.569770  1.0  -0.2951
  N  N1730  1  0.328980  0.032380  0.597010  1.0  -0.3279
  N  N1731  1  0.339450  0.974890  0.585090  1.0  -0.1613
  N  N1732  1  0.376630  0.003660  0.630910  1.0  -0.7606
  N  N1733  1  0.380930  0.074660  0.695670  1.0  -0.3476
  N  N1734  1  0.392750  0.046380  0.719410  1.0  -0.3698
  N  N1735  1  0.333010  0.045590  0.715970  1.0  -0.2459
  N  N1736  1  0.361540  0.000810  0.754170  1.0  -0.7746
  N  N1737  1  0.804480  0.520540  0.569770  1.0  -0.2951
  N  N1738  1  0.828980  0.532380  0.597010  1.0  -0.3279
  N  N1739  1  0.839450  0.474890  0.585090  1.0  -0.1613
  N  N1740  1  0.876630  0.503660  0.630910  1.0  -0.7606
  N  N1741  1  0.880930  0.574660  0.695670  1.0  -0.3476
  N  N1742  1  0.892750  0.546380  0.719410  1.0  -0.3698
  N  N1743  1  0.833010  0.545590  0.715970  1.0  -0.2459
  N  N1744  1  0.861540  0.500810  0.754170  1.0  -0.7746
  N  N1745  1  0.804480  0.020540  0.069770  1.0  -0.2951
  N  N1746  1  0.828980  0.032380  0.097010  1.0  -0.3279
  N  N1747  1  0.839450  0.974890  0.085090  1.0  -0.1613
  N  N1748  1  0.876630  0.003660  0.130910  1.0  -0.7606
  N  N1749  1  0.880930  0.074660  0.195670  1.0  -0.3476
  N  N1750  1  0.892750  0.046380  0.219410  1.0  -0.3698
  N  N1751  1  0.833010  0.045590  0.215970  1.0  -0.2459
  N  N1752  1  0.861540  0.000810  0.254170  1.0  -0.7746
  N  N1753  1  0.695520  0.479460  0.069770  1.0  -0.2947
  N  N1754  1  0.671020  0.467620  0.097010  1.0  -0.3282
  N  N1755  1  0.660550  0.525110  0.085090  1.0  -0.1607
  N  N1756  1  0.623370  0.496340  0.130910  1.0  -0.7604
  N  N1757  1  0.619070  0.425340  0.195670  1.0  -0.3486
  N  N1758  1  0.607250  0.453620  0.219410  1.0  -0.3671
  N  N1759  1  0.666990  0.454410  0.215970  1.0  -0.2443
  N  N1760  1  0.638460  0.499190  0.254170  1.0  -0.7753
  N  N1761  1  0.695520  0.979460  0.569770  1.0  -0.2947
  N  N1762  1  0.671020  0.967620  0.597010  1.0  -0.3282
  N  N1763  1  0.660550  0.025110  0.585090  1.0  -0.1607
  N  N1764  1  0.623370  0.996340  0.630910  1.0  -0.7604
  N  N1765  1  0.619070  0.925340  0.695670  1.0  -0.3486
  N  N1766  1  0.607250  0.953620  0.719410  1.0  -0.3671
  N  N1767  1  0.666990  0.954410  0.715970  1.0  -0.2443
  N  N1768  1  0.638460  0.999190  0.754170  1.0  -0.7753
  N  N1769  1  0.195520  0.479460  0.569770  1.0  -0.2947
  N  N1770  1  0.171020  0.467620  0.597010  1.0  -0.3282
  N  N1771  1  0.160550  0.525110  0.585090  1.0  -0.1607
  N  N1772  1  0.123370  0.496340  0.630910  1.0  -0.7604
  N  N1773  1  0.119070  0.425340  0.695670  1.0  -0.3486
  N  N1774  1  0.107250  0.453620  0.719410  1.0  -0.3671
  N  N1775  1  0.166990  0.454410  0.715970  1.0  -0.2443
  N  N1776  1  0.138460  0.499190  0.754170  1.0  -0.7753
  N  N1777  1  0.195520  0.979460  0.069770  1.0  -0.2947
  N  N1778  1  0.171020  0.967620  0.097010  1.0  -0.3282
  N  N1779  1  0.160550  0.025110  0.085090  1.0  -0.1607
  N  N1780  1  0.123370  0.996340  0.130910  1.0  -0.7604
  N  N1781  1  0.119070  0.925340  0.195670  1.0  -0.3486
  N  N1782  1  0.107250  0.953620  0.219410  1.0  -0.3671
  N  N1783  1  0.166990  0.954410  0.215970  1.0  -0.2443
  N  N1784  1  0.138460  0.999190  0.254170  1.0  -0.7753
  N  N1785  1  0.304480  0.479460  0.930230  1.0  -0.2966
  N  N1786  1  0.328980  0.467620  0.902990  1.0  -0.3268
  N  N1787  1  0.339450  0.525110  0.914910  1.0  -0.159
  N  N1788  1  0.376630  0.496340  0.869090  1.0  -0.76
  N  N1789  1  0.380930  0.425340  0.804330  1.0  -0.3484
  N  N1790  1  0.392750  0.453620  0.780590  1.0  -0.3696
  N  N1791  1  0.333010  0.454410  0.784030  1.0  -0.2456
  N  N1792  1  0.361540  0.499190  0.745830  1.0  -0.7748
  N  N1793  1  0.304480  0.979460  0.430230  1.0  -0.2966
  N  N1794  1  0.328980  0.967620  0.402990  1.0  -0.3268
  N  N1795  1  0.339450  0.025110  0.414910  1.0  -0.159
  N  N1796  1  0.376630  0.996340  0.369090  1.0  -0.76
  N  N1797  1  0.380930  0.925340  0.304330  1.0  -0.3484
  N  N1798  1  0.392750  0.953620  0.280590  1.0  -0.3696
  N  N1799  1  0.333010  0.954410  0.284030  1.0  -0.2456
  N  N1800  1  0.361540  0.999190  0.245830  1.0  -0.7748
  N  N1801  1  0.804480  0.479460  0.430230  1.0  -0.2966
  N  N1802  1  0.828980  0.467620  0.402990  1.0  -0.3268
  N  N1803  1  0.839450  0.525110  0.414910  1.0  -0.159
  N  N1804  1  0.876630  0.496340  0.369090  1.0  -0.76
  N  N1805  1  0.880930  0.425340  0.304330  1.0  -0.3484
  N  N1806  1  0.892750  0.453620  0.280590  1.0  -0.3696
  N  N1807  1  0.833010  0.454410  0.284030  1.0  -0.2456
  N  N1808  1  0.861540  0.499190  0.245830  1.0  -0.7748
  N  N1809  1  0.804480  0.979460  0.930230  1.0  -0.2966
  N  N1810  1  0.828980  0.967620  0.902990  1.0  -0.3268
  N  N1811  1  0.839450  0.025110  0.914910  1.0  -0.159
  N  N1812  1  0.876630  0.996340  0.869090  1.0  -0.76
  N  N1813  1  0.880930  0.925340  0.804330  1.0  -0.3484
  N  N1814  1  0.892750  0.953620  0.780590  1.0  -0.3696
  N  N1815  1  0.833010  0.954410  0.784030  1.0  -0.2456
  N  N1816  1  0.861540  0.999190  0.745830  1.0  -0.7748
  N  N1817  1  0.195520  0.430230  0.020540  1.0  -0.2961
  N  N1818  1  0.171020  0.402990  0.032380  1.0  -0.3248
  N  N1819  1  0.160550  0.414910  0.974890  1.0  -0.158
  N  N1820  1  0.123370  0.369090  0.003660  1.0  -0.7601
  N  N1821  1  0.119070  0.304330  0.074660  1.0  -0.3466
  N  N1822  1  0.107250  0.280590  0.046380  1.0  -0.3668
  N  N1823  1  0.166990  0.284030  0.045590  1.0  -0.2446
  N  N1824  1  0.138460  0.245830  0.000810  1.0  -0.7736
  N  N1825  1  0.195520  0.930230  0.520540  1.0  -0.2961
  N  N1826  1  0.171020  0.902990  0.532380  1.0  -0.3248
  N  N1827  1  0.160550  0.914910  0.474890  1.0  -0.158
  N  N1828  1  0.123370  0.869090  0.503660  1.0  -0.7601
  N  N1829  1  0.119070  0.804330  0.574660  1.0  -0.3466
  N  N1830  1  0.107250  0.780590  0.546380  1.0  -0.3668
  N  N1831  1  0.166990  0.784030  0.545590  1.0  -0.2446
  N  N1832  1  0.138460  0.745830  0.500810  1.0  -0.7736
  N  N1833  1  0.695520  0.430230  0.520540  1.0  -0.2961
  N  N1834  1  0.671020  0.402990  0.532380  1.0  -0.3248
  N  N1835  1  0.660550  0.414910  0.474890  1.0  -0.158
  N  N1836  1  0.623370  0.369090  0.503660  1.0  -0.7601
  N  N1837  1  0.619070  0.304330  0.574660  1.0  -0.3466
  N  N1838  1  0.607250  0.280590  0.546380  1.0  -0.3668
  N  N1839  1  0.666990  0.284030  0.545590  1.0  -0.2446
  N  N1840  1  0.638460  0.245830  0.500810  1.0  -0.7736
  N  N1841  1  0.695520  0.930230  0.020540  1.0  -0.2961
  N  N1842  1  0.671020  0.902990  0.032380  1.0  -0.3248
  N  N1843  1  0.660550  0.914910  0.974890  1.0  -0.158
  N  N1844  1  0.623370  0.869090  0.003660  1.0  -0.7601
  N  N1845  1  0.619070  0.804330  0.074660  1.0  -0.3466
  N  N1846  1  0.607250  0.780590  0.046380  1.0  -0.3668
  N  N1847  1  0.666990  0.784030  0.045590  1.0  -0.2446
  N  N1848  1  0.638460  0.745830  0.000810  1.0  -0.7736
  N  N1849  1  0.804480  0.569770  0.020540  1.0  -0.2967
  N  N1850  1  0.828980  0.597010  0.032380  1.0  -0.3236
  N  N1851  1  0.839450  0.585090  0.974890  1.0  -0.1572
  N  N1852  1  0.876630  0.630910  0.003660  1.0  -0.7595
  N  N1853  1  0.880930  0.695670  0.074660  1.0  -0.3456
  N  N1854  1  0.892750  0.719410  0.046380  1.0  -0.3702
  N  N1855  1  0.833010  0.715970  0.045590  1.0  -0.246
  N  N1856  1  0.861540  0.754170  0.000810  1.0  -0.7745
  N  N1857  1  0.804480  0.069770  0.520540  1.0  -0.2967
  N  N1858  1  0.828980  0.097010  0.532380  1.0  -0.3236
  N  N1859  1  0.839450  0.085090  0.474890  1.0  -0.1572
  N  N1860  1  0.876630  0.130910  0.503660  1.0  -0.7595
  N  N1861  1  0.880930  0.195670  0.574660  1.0  -0.3456
  N  N1862  1  0.892750  0.219410  0.546380  1.0  -0.3702
  N  N1863  1  0.833010  0.215970  0.545590  1.0  -0.246
  N  N1864  1  0.861540  0.254170  0.500810  1.0  -0.7745
  N  N1865  1  0.304480  0.569770  0.520540  1.0  -0.2967
  N  N1866  1  0.328980  0.597010  0.532380  1.0  -0.3236
  N  N1867  1  0.339450  0.585090  0.474890  1.0  -0.1572
  N  N1868  1  0.376630  0.630910  0.503660  1.0  -0.7595
  N  N1869  1  0.380930  0.695670  0.574660  1.0  -0.3456
  N  N1870  1  0.392750  0.719410  0.546380  1.0  -0.3702
  N  N1871  1  0.333010  0.715970  0.545590  1.0  -0.246
  N  N1872  1  0.361540  0.754170  0.500810  1.0  -0.7745
  N  N1873  1  0.304480  0.069770  0.020540  1.0  -0.2967
  N  N1874  1  0.328980  0.097010  0.032380  1.0  -0.3236
  N  N1875  1  0.339450  0.085090  0.974890  1.0  -0.1572
  N  N1876  1  0.376630  0.130910  0.003660  1.0  -0.7595
  N  N1877  1  0.380930  0.195670  0.074660  1.0  -0.3456
  N  N1878  1  0.392750  0.219410  0.046380  1.0  -0.3702
  N  N1879  1  0.333010  0.215970  0.045590  1.0  -0.246
  N  N1880  1  0.361540  0.254170  0.000810  1.0  -0.7745
  N  N1881  1  0.195520  0.569770  0.979460  1.0  -0.2964
  N  N1882  1  0.171020  0.597010  0.967620  1.0  -0.3234
  N  N1883  1  0.160550  0.585090  0.025110  1.0  -0.1589
  N  N1884  1  0.123370  0.630910  0.996340  1.0  -0.7596
  N  N1885  1  0.119070  0.695670  0.925340  1.0  -0.3478
  N  N1886  1  0.107250  0.719410  0.953620  1.0  -0.3675
  N  N1887  1  0.166990  0.715970  0.954410  1.0  -0.2441
  N  N1888  1  0.138460  0.754170  0.999190  1.0  -0.7746
  N  N1889  1  0.195520  0.069770  0.479460  1.0  -0.2964
  N  N1890  1  0.171020  0.097010  0.467620  1.0  -0.3234
  N  N1891  1  0.160550  0.085090  0.525110  1.0  -0.1589
  N  N1892  1  0.123370  0.130910  0.496340  1.0  -0.7596
  N  N1893  1  0.119070  0.195670  0.425340  1.0  -0.3478
  N  N1894  1  0.107250  0.219410  0.453620  1.0  -0.3675
  N  N1895  1  0.166990  0.215970  0.454410  1.0  -0.2441
  N  N1896  1  0.138460  0.254170  0.499190  1.0  -0.7746
  N  N1897  1  0.695520  0.569770  0.479460  1.0  -0.2964
  N  N1898  1  0.671020  0.597010  0.467620  1.0  -0.3234
  N  N1899  1  0.660550  0.585090  0.525110  1.0  -0.1589
  N  N1900  1  0.623370  0.630910  0.496340  1.0  -0.7596
  N  N1901  1  0.619070  0.695670  0.425340  1.0  -0.3478
  N  N1902  1  0.607250  0.719410  0.453620  1.0  -0.3675
  N  N1903  1  0.666990  0.715970  0.454410  1.0  -0.2441
  N  N1904  1  0.638460  0.754170  0.499190  1.0  -0.7746
  N  N1905  1  0.695520  0.069770  0.979460  1.0  -0.2964
  N  N1906  1  0.671020  0.097010  0.967620  1.0  -0.3234
  N  N1907  1  0.660550  0.085090  0.025110  1.0  -0.1589
  N  N1908  1  0.623370  0.130910  0.996340  1.0  -0.7596
  N  N1909  1  0.619070  0.195670  0.925340  1.0  -0.3478
  N  N1910  1  0.607250  0.219410  0.953620  1.0  -0.3675
  N  N1911  1  0.666990  0.215970  0.954410  1.0  -0.2441
  N  N1912  1  0.638460  0.254170  0.999190  1.0  -0.7746
  N  N1913  1  0.804480  0.430230  0.979460  1.0  -0.2965
  N  N1914  1  0.828980  0.402990  0.967620  1.0  -0.3234
  N  N1915  1  0.839450  0.414910  0.025110  1.0  -0.1585
  N  N1916  1  0.876630  0.369090  0.996340  1.0  -0.7607
  N  N1917  1  0.880930  0.304330  0.925340  1.0  -0.346
  N  N1918  1  0.892750  0.280590  0.953620  1.0  -0.3704
  N  N1919  1  0.833010  0.284030  0.954410  1.0  -0.2463
  N  N1920  1  0.861540  0.245830  0.999190  1.0  -0.7743
  N  N1921  1  0.804480  0.930230  0.479460  1.0  -0.2965
  N  N1922  1  0.828980  0.902990  0.467620  1.0  -0.3234
  N  N1923  1  0.839450  0.914910  0.525110  1.0  -0.1585
  N  N1924  1  0.876630  0.869090  0.496340  1.0  -0.7607
  N  N1925  1  0.880930  0.804330  0.425340  1.0  -0.346
  N  N1926  1  0.892750  0.780590  0.453620  1.0  -0.3704
  N  N1927  1  0.833010  0.784030  0.454410  1.0  -0.2463
  N  N1928  1  0.861540  0.745830  0.499190  1.0  -0.7743
  N  N1929  1  0.304480  0.430230  0.479460  1.0  -0.2965
  N  N1930  1  0.328980  0.402990  0.467620  1.0  -0.3234
  N  N1931  1  0.339450  0.414910  0.525110  1.0  -0.1585
  N  N1932  1  0.376630  0.369090  0.496340  1.0  -0.7607
  N  N1933  1  0.380930  0.304330  0.425340  1.0  -0.346
  N  N1934  1  0.392750  0.280590  0.453620  1.0  -0.3704
  N  N1935  1  0.333010  0.284030  0.454410  1.0  -0.2463
  N  N1936  1  0.361540  0.245830  0.499190  1.0  -0.7743
  N  N1937  1  0.304480  0.930230  0.979460  1.0  -0.2965
  N  N1938  1  0.328980  0.902990  0.967620  1.0  -0.3234
  N  N1939  1  0.339450  0.914910  0.025110  1.0  -0.1585
  N  N1940  1  0.376630  0.869090  0.996340  1.0  -0.7607
  N  N1941  1  0.380930  0.804330  0.925340  1.0  -0.346
  N  N1942  1  0.392750  0.780590  0.953620  1.0  -0.3704
  N  N1943  1  0.333010  0.784030  0.954410  1.0  -0.2463
  N  N1944  1  0.361540  0.745830  0.999190  1.0  -0.7743
  N  N1945  1  0.430230  0.020540  0.195520  1.0  -0.2967
  N  N1946  1  0.402990  0.032380  0.171020  1.0  -0.3279
  N  N1947  1  0.414910  0.974890  0.160550  1.0  -0.1598
  N  N1948  1  0.369090  0.003660  0.123370  1.0  -0.7626
  N  N1949  1  0.304330  0.074660  0.119070  1.0  -0.3477
  N  N1950  1  0.280590  0.046380  0.107250  1.0  -0.3661
  N  N1951  1  0.284030  0.045590  0.166990  1.0  -0.246
  N  N1952  1  0.245830  0.000810  0.138460  1.0  -0.7739
  N  N1953  1  0.430230  0.520540  0.695520  1.0  -0.2967
  N  N1954  1  0.402990  0.532380  0.671020  1.0  -0.3279
  N  N1955  1  0.414910  0.474890  0.660550  1.0  -0.1598
  N  N1956  1  0.369090  0.503660  0.623370  1.0  -0.7626
  N  N1957  1  0.304330  0.574660  0.619070  1.0  -0.3477
  N  N1958  1  0.280590  0.546380  0.607250  1.0  -0.3661
  N  N1959  1  0.284030  0.545590  0.666990  1.0  -0.246
  N  N1960  1  0.245830  0.500810  0.638460  1.0  -0.7739
  N  N1961  1  0.930230  0.020540  0.695520  1.0  -0.2967
  N  N1962  1  0.902990  0.032380  0.671020  1.0  -0.3279
  N  N1963  1  0.914910  0.974890  0.660550  1.0  -0.1598
  N  N1964  1  0.869090  0.003660  0.623370  1.0  -0.7626
  N  N1965  1  0.804330  0.074660  0.619070  1.0  -0.3477
  N  N1966  1  0.780590  0.046380  0.607250  1.0  -0.3661
  N  N1967  1  0.784030  0.045590  0.666990  1.0  -0.246
  N  N1968  1  0.745830  0.000810  0.638460  1.0  -0.7739
  N  N1969  1  0.930230  0.520540  0.195520  1.0  -0.2967
  N  N1970  1  0.902990  0.532380  0.171020  1.0  -0.3279
  N  N1971  1  0.914910  0.474890  0.160550  1.0  -0.1598
  N  N1972  1  0.869090  0.503660  0.123370  1.0  -0.7626
  N  N1973  1  0.804330  0.574660  0.119070  1.0  -0.3477
  N  N1974  1  0.780590  0.546380  0.107250  1.0  -0.3661
  N  N1975  1  0.784030  0.545590  0.166990  1.0  -0.246
  N  N1976  1  0.745830  0.500810  0.138460  1.0  -0.7739
  N  N1977  1  0.569770  0.020540  0.804480  1.0  -0.297
  N  N1978  1  0.597010  0.032380  0.828980  1.0  -0.328
  N  N1979  1  0.585090  0.974890  0.839450  1.0  -0.1586
  N  N1980  1  0.630910  0.003660  0.876630  1.0  -0.7649
  N  N1981  1  0.695670  0.074660  0.880930  1.0  -0.349
  N  N1982  1  0.719410  0.046380  0.892750  1.0  -0.3675
  N  N1983  1  0.715970  0.045590  0.833010  1.0  -0.243
  N  N1984  1  0.754170  0.000810  0.861540  1.0  -0.7749
  N  N1985  1  0.569770  0.520540  0.304480  1.0  -0.297
  N  N1986  1  0.597010  0.532380  0.328980  1.0  -0.328
  N  N1987  1  0.585090  0.474890  0.339450  1.0  -0.1586
  N  N1988  1  0.630910  0.503660  0.376630  1.0  -0.7649
  N  N1989  1  0.695670  0.574660  0.380930  1.0  -0.349
  N  N1990  1  0.719410  0.546380  0.392750  1.0  -0.3675
  N  N1991  1  0.715970  0.545590  0.333010  1.0  -0.243
  N  N1992  1  0.754170  0.500810  0.361540  1.0  -0.7749
  N  N1993  1  0.069770  0.020540  0.304480  1.0  -0.297
  N  N1994  1  0.097010  0.032380  0.328980  1.0  -0.328
  N  N1995  1  0.085090  0.974890  0.339450  1.0  -0.1586
  N  N1996  1  0.130910  0.003660  0.376630  1.0  -0.7649
  N  N1997  1  0.195670  0.074660  0.380930  1.0  -0.349
  N  N1998  1  0.219410  0.046380  0.392750  1.0  -0.3675
  N  N1999  1  0.215970  0.045590  0.333010  1.0  -0.243
  N  N2000  1  0.254170  0.000810  0.361540  1.0  -0.7749
  N  N2001  1  0.069770  0.520540  0.804480  1.0  -0.297
  N  N2002  1  0.097010  0.532380  0.828980  1.0  -0.328
  N  N2003  1  0.085090  0.474890  0.839450  1.0  -0.1586
  N  N2004  1  0.130910  0.503660  0.876630  1.0  -0.7649
  N  N2005  1  0.195670  0.574660  0.880930  1.0  -0.349
  N  N2006  1  0.219410  0.546380  0.892750  1.0  -0.3675
  N  N2007  1  0.215970  0.545590  0.833010  1.0  -0.243
  N  N2008  1  0.254170  0.500810  0.861540  1.0  -0.7749
  N  N2009  1  0.569770  0.979460  0.195520  1.0  -0.2974
  N  N2010  1  0.597010  0.967620  0.171020  1.0  -0.3276
  N  N2011  1  0.585090  0.025110  0.160550  1.0  -0.1589
  N  N2012  1  0.630910  0.996340  0.123370  1.0  -0.7636
  N  N2013  1  0.695670  0.925340  0.119070  1.0  -0.3478
  N  N2014  1  0.719410  0.953620  0.107250  1.0  -0.3659
  N  N2015  1  0.715970  0.954410  0.166990  1.0  -0.2453
  N  N2016  1  0.754170  0.999190  0.138460  1.0  -0.7756
  N  N2017  1  0.569770  0.479460  0.695520  1.0  -0.2974
  N  N2018  1  0.597010  0.467620  0.671020  1.0  -0.3276
  N  N2019  1  0.585090  0.525110  0.660550  1.0  -0.1589
  N  N2020  1  0.630910  0.496340  0.623370  1.0  -0.7636
  N  N2021  1  0.695670  0.425340  0.619070  1.0  -0.3478
  N  N2022  1  0.719410  0.453620  0.607250  1.0  -0.3659
  N  N2023  1  0.715970  0.454410  0.666990  1.0  -0.2453
  N  N2024  1  0.754170  0.499190  0.638460  1.0  -0.7756
  N  N2025  1  0.069770  0.979460  0.695520  1.0  -0.2974
  N  N2026  1  0.097010  0.967620  0.671020  1.0  -0.3276
  N  N2027  1  0.085090  0.025110  0.660550  1.0  -0.1589
  N  N2028  1  0.130910  0.996340  0.623370  1.0  -0.7636
  N  N2029  1  0.195670  0.925340  0.619070  1.0  -0.3478
  N  N2030  1  0.219410  0.953620  0.607250  1.0  -0.3659
  N  N2031  1  0.215970  0.954410  0.666990  1.0  -0.2453
  N  N2032  1  0.254170  0.999190  0.638460  1.0  -0.7756
  N  N2033  1  0.069770  0.479460  0.195520  1.0  -0.2974
  N  N2034  1  0.097010  0.467620  0.171020  1.0  -0.3276
  N  N2035  1  0.085090  0.525110  0.160550  1.0  -0.1589
  N  N2036  1  0.130910  0.496340  0.123370  1.0  -0.7636
  N  N2037  1  0.195670  0.425340  0.119070  1.0  -0.3478
  N  N2038  1  0.219410  0.453620  0.107250  1.0  -0.3659
  N  N2039  1  0.215970  0.454410  0.166990  1.0  -0.2453
  N  N2040  1  0.254170  0.499190  0.138460  1.0  -0.7756
  N  N2041  1  0.430230  0.979460  0.804480  1.0  -0.2958
  N  N2042  1  0.402990  0.967620  0.828980  1.0  -0.3273
  N  N2043  1  0.414910  0.025110  0.839450  1.0  -0.1578
  N  N2044  1  0.369090  0.996340  0.876630  1.0  -0.7645
  N  N2045  1  0.304330  0.925340  0.880930  1.0  -0.3486
  N  N2046  1  0.280590  0.953620  0.892750  1.0  -0.3666
  N  N2047  1  0.284030  0.954410  0.833010  1.0  -0.2419
  N  N2048  1  0.245830  0.999190  0.861540  1.0  -0.7742
  N  N2049  1  0.430230  0.479460  0.304480  1.0  -0.2958
  N  N2050  1  0.402990  0.467620  0.328980  1.0  -0.3273
  N  N2051  1  0.414910  0.525110  0.339450  1.0  -0.1578
  N  N2052  1  0.369090  0.496340  0.376630  1.0  -0.7645
  N  N2053  1  0.304330  0.425340  0.380930  1.0  -0.3486
  N  N2054  1  0.280590  0.453620  0.392750  1.0  -0.3666
  N  N2055  1  0.284030  0.454410  0.333010  1.0  -0.2419
  N  N2056  1  0.245830  0.499190  0.361540  1.0  -0.7742
  N  N2057  1  0.930230  0.979460  0.304480  1.0  -0.2958
  N  N2058  1  0.902990  0.967620  0.328980  1.0  -0.3273
  N  N2059  1  0.914910  0.025110  0.339450  1.0  -0.1578
  N  N2060  1  0.869090  0.996340  0.376630  1.0  -0.7645
  N  N2061  1  0.804330  0.925340  0.380930  1.0  -0.3486
  N  N2062  1  0.780590  0.953620  0.392750  1.0  -0.3666
  N  N2063  1  0.784030  0.954410  0.333010  1.0  -0.2419
  N  N2064  1  0.745830  0.999190  0.361540  1.0  -0.7742
  N  N2065  1  0.930230  0.479460  0.804480  1.0  -0.2958
  N  N2066  1  0.902990  0.467620  0.828980  1.0  -0.3273
  N  N2067  1  0.914910  0.525110  0.839450  1.0  -0.1578
  N  N2068  1  0.869090  0.496340  0.876630  1.0  -0.7645
  N  N2069  1  0.804330  0.425340  0.880930  1.0  -0.3486
  N  N2070  1  0.780590  0.453620  0.892750  1.0  -0.3666
  N  N2071  1  0.784030  0.454410  0.833010  1.0  -0.2419
  N  N2072  1  0.745830  0.499190  0.861540  1.0  -0.7742
  N  N2073  1  0.020540  0.195520  0.430230  1.0  -0.2931
  N  N2074  1  0.032380  0.171020  0.402990  1.0  -0.3285
  N  N2075  1  0.974890  0.160550  0.414910  1.0  -0.1606
  N  N2076  1  0.003660  0.123370  0.369090  1.0  -0.7638
  N  N2077  1  0.074660  0.119070  0.304330  1.0  -0.3501
  N  N2078  1  0.046380  0.107250  0.280590  1.0  -0.37
  N  N2079  1  0.045590  0.166990  0.284030  1.0  -0.2421
  N  N2080  1  0.000810  0.138460  0.245830  1.0  -0.7735
  N  N2081  1  0.020540  0.695520  0.930230  1.0  -0.2931
  N  N2082  1  0.032380  0.671020  0.902990  1.0  -0.3285
  N  N2083  1  0.974890  0.660550  0.914910  1.0  -0.1606
  N  N2084  1  0.003660  0.623370  0.869090  1.0  -0.7638
  N  N2085  1  0.074660  0.619070  0.804330  1.0  -0.3501
  N  N2086  1  0.046380  0.607250  0.780590  1.0  -0.37
  N  N2087  1  0.045590  0.666990  0.784030  1.0  -0.2421
  N  N2088  1  0.000810  0.638460  0.745830  1.0  -0.7735
  N  N2089  1  0.520540  0.195520  0.930230  1.0  -0.2931
  N  N2090  1  0.532380  0.171020  0.902990  1.0  -0.3285
  N  N2091  1  0.474890  0.160550  0.914910  1.0  -0.1606
  N  N2092  1  0.503660  0.123370  0.869090  1.0  -0.7638
  N  N2093  1  0.574660  0.119070  0.804330  1.0  -0.3501
  N  N2094  1  0.546380  0.107250  0.780590  1.0  -0.37
  N  N2095  1  0.545590  0.166990  0.784030  1.0  -0.2421
  N  N2096  1  0.500810  0.138460  0.745830  1.0  -0.7735
  N  N2097  1  0.520540  0.695520  0.430230  1.0  -0.2931
  N  N2098  1  0.532380  0.671020  0.402990  1.0  -0.3285
  N  N2099  1  0.474890  0.660550  0.414910  1.0  -0.1606
  N  N2100  1  0.503660  0.623370  0.369090  1.0  -0.7638
  N  N2101  1  0.574660  0.619070  0.304330  1.0  -0.3501
  N  N2102  1  0.546380  0.607250  0.280590  1.0  -0.37
  N  N2103  1  0.545590  0.666990  0.284030  1.0  -0.2421
  N  N2104  1  0.500810  0.638460  0.245830  1.0  -0.7735
  N  N2105  1  0.020540  0.804480  0.569770  1.0  -0.2923
  N  N2106  1  0.032380  0.828980  0.597010  1.0  -0.3292
  N  N2107  1  0.974890  0.839450  0.585090  1.0  -0.1627
  N  N2108  1  0.003660  0.876630  0.630910  1.0  -0.7636
  N  N2109  1  0.074660  0.880930  0.695670  1.0  -0.3497
  N  N2110  1  0.046380  0.892750  0.719410  1.0  -0.3693
  N  N2111  1  0.045590  0.833010  0.715970  1.0  -0.2434
  N  N2112  1  0.000810  0.861540  0.754170  1.0  -0.7724
  N  N2113  1  0.020540  0.304480  0.069770  1.0  -0.2923
  N  N2114  1  0.032380  0.328980  0.097010  1.0  -0.3292
  N  N2115  1  0.974890  0.339450  0.085090  1.0  -0.1627
  N  N2116  1  0.003660  0.376630  0.130910  1.0  -0.7636
  N  N2117  1  0.074660  0.380930  0.195670  1.0  -0.3497
  N  N2118  1  0.046380  0.392750  0.219410  1.0  -0.3693
  N  N2119  1  0.045590  0.333010  0.215970  1.0  -0.2434
  N  N2120  1  0.000810  0.361540  0.254170  1.0  -0.7724
  N  N2121  1  0.520540  0.804480  0.069770  1.0  -0.2923
  N  N2122  1  0.532380  0.828980  0.097010  1.0  -0.3292
  N  N2123  1  0.474890  0.839450  0.085090  1.0  -0.1627
  N  N2124  1  0.503660  0.876630  0.130910  1.0  -0.7636
  N  N2125  1  0.574660  0.880930  0.195670  1.0  -0.3497
  N  N2126  1  0.546380  0.892750  0.219410  1.0  -0.3693
  N  N2127  1  0.545590  0.833010  0.215970  1.0  -0.2434
  N  N2128  1  0.500810  0.861540  0.254170  1.0  -0.7724
  N  N2129  1  0.520540  0.304480  0.569770  1.0  -0.2923
  N  N2130  1  0.532380  0.328980  0.597010  1.0  -0.3292
  N  N2131  1  0.474890  0.339450  0.585090  1.0  -0.1627
  N  N2132  1  0.503660  0.376630  0.630910  1.0  -0.7636
  N  N2133  1  0.574660  0.380930  0.695670  1.0  -0.3497
  N  N2134  1  0.546380  0.392750  0.719410  1.0  -0.3693
  N  N2135  1  0.545590  0.333010  0.715970  1.0  -0.2434
  N  N2136  1  0.500810  0.361540  0.754170  1.0  -0.7724
  N  N2137  1  0.979460  0.195520  0.569770  1.0  -0.2948
  N  N2138  1  0.967620  0.171020  0.597010  1.0  -0.3301
  N  N2139  1  0.025110  0.160550  0.585090  1.0  -0.1601
  N  N2140  1  0.996340  0.123370  0.630910  1.0  -0.7628
  N  N2141  1  0.925340  0.119070  0.695670  1.0  -0.3495
  N  N2142  1  0.953620  0.107250  0.719410  1.0  -0.3692
  N  N2143  1  0.954410  0.166990  0.715970  1.0  -0.2421
  N  N2144  1  0.999190  0.138460  0.754170  1.0  -0.7743
  N  N2145  1  0.979460  0.695520  0.069770  1.0  -0.2948
  N  N2146  1  0.967620  0.671020  0.097010  1.0  -0.3301
  N  N2147  1  0.025110  0.660550  0.085090  1.0  -0.1601
  N  N2148  1  0.996340  0.623370  0.130910  1.0  -0.7628
  N  N2149  1  0.925340  0.619070  0.195670  1.0  -0.3495
  N  N2150  1  0.953620  0.607250  0.219410  1.0  -0.3692
  N  N2151  1  0.954410  0.666990  0.215970  1.0  -0.2421
  N  N2152  1  0.999190  0.638460  0.254170  1.0  -0.7743
  N  N2153  1  0.479460  0.195520  0.069770  1.0  -0.2948
  N  N2154  1  0.467620  0.171020  0.097010  1.0  -0.3301
  N  N2155  1  0.525110  0.160550  0.085090  1.0  -0.1601
  N  N2156  1  0.496340  0.123370  0.130910  1.0  -0.7628
  N  N2157  1  0.425340  0.119070  0.195670  1.0  -0.3495
  N  N2158  1  0.453620  0.107250  0.219410  1.0  -0.3692
  N  N2159  1  0.454410  0.166990  0.215970  1.0  -0.2421
  N  N2160  1  0.499190  0.138460  0.254170  1.0  -0.7743
  N  N2161  1  0.479460  0.695520  0.569770  1.0  -0.2948
  N  N2162  1  0.467620  0.671020  0.597010  1.0  -0.3301
  N  N2163  1  0.525110  0.660550  0.585090  1.0  -0.1601
  N  N2164  1  0.496340  0.623370  0.630910  1.0  -0.7628
  N  N2165  1  0.425340  0.619070  0.695670  1.0  -0.3495
  N  N2166  1  0.453620  0.607250  0.719410  1.0  -0.3692
  N  N2167  1  0.454410  0.666990  0.715970  1.0  -0.2421
  N  N2168  1  0.499190  0.638460  0.754170  1.0  -0.7743
  N  N2169  1  0.979460  0.804480  0.430230  1.0  -0.2965
  N  N2170  1  0.967620  0.828980  0.402990  1.0  -0.3294
  N  N2171  1  0.025110  0.839450  0.414910  1.0  -0.1589
  N  N2172  1  0.996340  0.876630  0.369090  1.0  -0.7625
  N  N2173  1  0.925340  0.880930  0.304330  1.0  -0.3501
  N  N2174  1  0.953620  0.892750  0.280590  1.0  -0.369
  N  N2175  1  0.954410  0.833010  0.284030  1.0  -0.2444
  N  N2176  1  0.999190  0.861540  0.245830  1.0  -0.7728
  N  N2177  1  0.979460  0.304480  0.930230  1.0  -0.2965
  N  N2178  1  0.967620  0.328980  0.902990  1.0  -0.3294
  N  N2179  1  0.025110  0.339450  0.914910  1.0  -0.1589
  N  N2180  1  0.996340  0.376630  0.869090  1.0  -0.7625
  N  N2181  1  0.925340  0.380930  0.804330  1.0  -0.3501
  N  N2182  1  0.953620  0.392750  0.780590  1.0  -0.369
  N  N2183  1  0.954410  0.333010  0.784030  1.0  -0.2444
  N  N2184  1  0.999190  0.361540  0.745830  1.0  -0.7728
  N  N2185  1  0.479460  0.804480  0.930230  1.0  -0.2965
  N  N2186  1  0.467620  0.828980  0.902990  1.0  -0.3294
  N  N2187  1  0.525110  0.839450  0.914910  1.0  -0.1589
  N  N2188  1  0.496340  0.876630  0.869090  1.0  -0.7625
  N  N2189  1  0.425340  0.880930  0.804330  1.0  -0.3501
  N  N2190  1  0.453620  0.892750  0.780590  1.0  -0.369
  N  N2191  1  0.454410  0.833010  0.784030  1.0  -0.2444
  N  N2192  1  0.499190  0.861540  0.745830  1.0  -0.7728
  N  N2193  1  0.479460  0.304480  0.430230  1.0  -0.2965
  N  N2194  1  0.467620  0.328980  0.402990  1.0  -0.3294
  N  N2195  1  0.525110  0.339450  0.414910  1.0  -0.1589
  N  N2196  1  0.496340  0.376630  0.369090  1.0  -0.7625
  N  N2197  1  0.425340  0.380930  0.304330  1.0  -0.3501
  N  N2198  1  0.453620  0.392750  0.280590  1.0  -0.369
  N  N2199  1  0.454410  0.333010  0.284030  1.0  -0.2444
  N  N2200  1  0.499190  0.361540  0.245830  1.0  -0.7728
