# generated using pymatgen
data_Cu31H72C48S24(IN24)4
_symmetry_space_group_name_H-M   'P 1'
_cell_length_a   36.62890000
_cell_length_b   36.62890000
_cell_length_c   36.62890000
_cell_angle_alpha   90.00000000
_cell_angle_beta   90.00000000
_cell_angle_gamma   90.00000000
_symmetry_Int_Tables_number   1
_chemical_formula_structural   Cu31H72C48S24(IN24)4
_chemical_formula_sum   'Cu248 H576 C384 S192 I32 N768'
_cell_volume   49144.12758220
_cell_formula_units_Z   8
loop_
 _symmetry_equiv_pos_site_id
 _symmetry_equiv_pos_as_xyz
  1  'x, y, z'
loop_
 _atom_site_type_symbol
 _atom_site_label
 _atom_site_symmetry_multiplicity
 _atom_site_fract_x
 _atom_site_fract_y
 _atom_site_fract_z
 _atom_site_occupancy
 _atom_site_charge
  Cu  Cu1  1  0.890820  0.670570  0.584860  1.0  0.329
  Cu  Cu2  1  0.953170  0.731580  0.554550  1.0  0.2913
  Cu  Cu3  1  0.890820  0.170570  0.084860  1.0  0.329
  Cu  Cu4  1  0.953170  0.231580  0.054550  1.0  0.2913
  Cu  Cu5  1  0.390820  0.670570  0.084860  1.0  0.329
  Cu  Cu6  1  0.453170  0.731580  0.054550  1.0  0.2913
  Cu  Cu7  1  0.390820  0.170570  0.584860  1.0  0.329
  Cu  Cu8  1  0.453170  0.231580  0.554550  1.0  0.2913
  Cu  Cu9  1  0.109180  0.329430  0.584860  1.0  0.329
  Cu  Cu10  1  0.046830  0.268420  0.554550  1.0  0.2901
  Cu  Cu11  1  0.109180  0.829430  0.084860  1.0  0.329
  Cu  Cu12  1  0.046830  0.768420  0.054550  1.0  0.2901
  Cu  Cu13  1  0.609180  0.329430  0.084860  1.0  0.329
  Cu  Cu14  1  0.546830  0.268420  0.054550  1.0  0.2901
  Cu  Cu15  1  0.609180  0.829430  0.584860  1.0  0.329
  Cu  Cu16  1  0.546830  0.768420  0.554550  1.0  0.2901
  Cu  Cu17  1  0.109180  0.670570  0.415140  1.0  0.3295
  Cu  Cu18  1  0.046830  0.731580  0.445450  1.0  0.2912
  Cu  Cu19  1  0.109180  0.170570  0.915140  1.0  0.3295
  Cu  Cu20  1  0.046830  0.231580  0.945450  1.0  0.2912
  Cu  Cu21  1  0.609180  0.670570  0.915140  1.0  0.3295
  Cu  Cu22  1  0.546830  0.731580  0.945450  1.0  0.2912
  Cu  Cu23  1  0.609180  0.170570  0.415140  1.0  0.3295
  Cu  Cu24  1  0.546830  0.231580  0.445450  1.0  0.2912
  Cu  Cu25  1  0.890820  0.329430  0.415140  1.0  0.3288
  Cu  Cu26  1  0.953170  0.268420  0.445450  1.0  0.2914
  Cu  Cu27  1  0.890820  0.829430  0.915140  1.0  0.3288
  Cu  Cu28  1  0.953170  0.768420  0.945450  1.0  0.2914
  Cu  Cu29  1  0.390820  0.329430  0.915140  1.0  0.3288
  Cu  Cu30  1  0.453170  0.268420  0.945450  1.0  0.2914
  Cu  Cu31  1  0.390820  0.829430  0.415140  1.0  0.3288
  Cu  Cu32  1  0.453170  0.768420  0.445450  1.0  0.2914
  Cu  Cu33  1  0.584860  0.890820  0.670570  1.0  0.329
  Cu  Cu34  1  0.554550  0.953170  0.731580  1.0  0.293
  Cu  Cu35  1  0.584860  0.390820  0.170570  1.0  0.329
  Cu  Cu36  1  0.554550  0.453170  0.231580  1.0  0.293
  Cu  Cu37  1  0.084860  0.890820  0.170570  1.0  0.329
  Cu  Cu38  1  0.054550  0.953170  0.231580  1.0  0.293
  Cu  Cu39  1  0.084860  0.390820  0.670570  1.0  0.329
  Cu  Cu40  1  0.054550  0.453170  0.731580  1.0  0.293
  Cu  Cu41  1  0.584860  0.109180  0.329430  1.0  0.328
  Cu  Cu42  1  0.554550  0.046830  0.268420  1.0  0.2914
  Cu  Cu43  1  0.584860  0.609180  0.829430  1.0  0.328
  Cu  Cu44  1  0.554550  0.546830  0.768420  1.0  0.2914
  Cu  Cu45  1  0.084860  0.109180  0.829430  1.0  0.328
  Cu  Cu46  1  0.054550  0.046830  0.768420  1.0  0.2914
  Cu  Cu47  1  0.084860  0.609180  0.329430  1.0  0.328
  Cu  Cu48  1  0.054550  0.546830  0.268420  1.0  0.2914
  Cu  Cu49  1  0.415140  0.109180  0.670570  1.0  0.3286
  Cu  Cu50  1  0.445450  0.046830  0.731580  1.0  0.2921
  Cu  Cu51  1  0.415140  0.609180  0.170570  1.0  0.3286
  Cu  Cu52  1  0.445450  0.546830  0.231580  1.0  0.2921
  Cu  Cu53  1  0.915140  0.109180  0.170570  1.0  0.3286
  Cu  Cu54  1  0.945450  0.046830  0.231580  1.0  0.2921
  Cu  Cu55  1  0.915140  0.609180  0.670570  1.0  0.3286
  Cu  Cu56  1  0.945450  0.546830  0.731580  1.0  0.2921
  Cu  Cu57  1  0.415140  0.890820  0.329430  1.0  0.3296
  Cu  Cu58  1  0.445450  0.953170  0.268420  1.0  0.2928
  Cu  Cu59  1  0.415140  0.390820  0.829430  1.0  0.3296
  Cu  Cu60  1  0.445450  0.453170  0.768420  1.0  0.2928
  Cu  Cu61  1  0.915140  0.890820  0.829430  1.0  0.3296
  Cu  Cu62  1  0.945450  0.953170  0.768420  1.0  0.2928
  Cu  Cu63  1  0.915140  0.390820  0.329430  1.0  0.3296
  Cu  Cu64  1  0.945450  0.453170  0.268420  1.0  0.2928
  Cu  Cu65  1  0.670570  0.584860  0.890820  1.0  0.3309
  Cu  Cu66  1  0.731580  0.554550  0.953170  1.0  0.2921
  Cu  Cu67  1  0.670570  0.084860  0.390820  1.0  0.3309
  Cu  Cu68  1  0.731580  0.054550  0.453170  1.0  0.2921
  Cu  Cu69  1  0.170570  0.584860  0.390820  1.0  0.3309
  Cu  Cu70  1  0.231580  0.554550  0.453170  1.0  0.2921
  Cu  Cu71  1  0.170570  0.084860  0.890820  1.0  0.3309
  Cu  Cu72  1  0.231580  0.054550  0.953170  1.0  0.2921
  Cu  Cu73  1  0.329430  0.584860  0.109180  1.0  0.3313
  Cu  Cu74  1  0.268420  0.554550  0.046830  1.0  0.2916
  Cu  Cu75  1  0.329430  0.084860  0.609180  1.0  0.3313
  Cu  Cu76  1  0.268420  0.054550  0.546830  1.0  0.2916
  Cu  Cu77  1  0.829430  0.584860  0.609180  1.0  0.3313
  Cu  Cu78  1  0.768420  0.554550  0.546830  1.0  0.2916
  Cu  Cu79  1  0.829430  0.084860  0.109180  1.0  0.3313
  Cu  Cu80  1  0.768420  0.054550  0.046830  1.0  0.2916
  Cu  Cu81  1  0.670570  0.415140  0.109180  1.0  0.3313
  Cu  Cu82  1  0.731580  0.445450  0.046830  1.0  0.292
  Cu  Cu83  1  0.670570  0.915140  0.609180  1.0  0.3313
  Cu  Cu84  1  0.731580  0.945450  0.546830  1.0  0.292
  Cu  Cu85  1  0.170570  0.415140  0.609180  1.0  0.3313
  Cu  Cu86  1  0.231580  0.445450  0.546830  1.0  0.292
  Cu  Cu87  1  0.170570  0.915140  0.109180  1.0  0.3313
  Cu  Cu88  1  0.231580  0.945450  0.046830  1.0  0.292
  Cu  Cu89  1  0.329430  0.415140  0.890820  1.0  0.3319
  Cu  Cu90  1  0.268420  0.445450  0.953170  1.0  0.2926
  Cu  Cu91  1  0.329430  0.915140  0.390820  1.0  0.3319
  Cu  Cu92  1  0.268420  0.945450  0.453170  1.0  0.2926
  Cu  Cu93  1  0.829430  0.415140  0.390820  1.0  0.3319
  Cu  Cu94  1  0.768420  0.445450  0.453170  1.0  0.2926
  Cu  Cu95  1  0.829430  0.915140  0.890820  1.0  0.3319
  Cu  Cu96  1  0.768420  0.945450  0.953170  1.0  0.2926
  Cu  Cu97  1  0.170570  0.390820  0.084860  1.0  0.3315
  Cu  Cu98  1  0.231580  0.453170  0.054550  1.0  0.2922
  Cu  Cu99  1  0.170570  0.890820  0.584860  1.0  0.3315
  Cu  Cu100  1  0.231580  0.953170  0.554550  1.0  0.2922
  Cu  Cu101  1  0.670570  0.390820  0.584860  1.0  0.3315
  Cu  Cu102  1  0.731580  0.453170  0.554550  1.0  0.2922
  Cu  Cu103  1  0.670570  0.890820  0.084860  1.0  0.3315
  Cu  Cu104  1  0.731580  0.953170  0.054550  1.0  0.2922
  Cu  Cu105  1  0.829430  0.609180  0.084860  1.0  0.3309
  Cu  Cu106  1  0.768420  0.546830  0.054550  1.0  0.2912
  Cu  Cu107  1  0.829430  0.109180  0.584860  1.0  0.3309
  Cu  Cu108  1  0.768420  0.046830  0.554550  1.0  0.2912
  Cu  Cu109  1  0.329430  0.609180  0.584860  1.0  0.331
  Cu  Cu110  1  0.268420  0.546830  0.554550  1.0  0.2912
  Cu  Cu111  1  0.329430  0.109180  0.084860  1.0  0.3309
  Cu  Cu112  1  0.268420  0.046830  0.054550  1.0  0.2912
  Cu  Cu113  1  0.170570  0.609180  0.915140  1.0  0.3309
  Cu  Cu114  1  0.231580  0.546830  0.945450  1.0  0.2917
  Cu  Cu115  1  0.170570  0.109180  0.415140  1.0  0.3309
  Cu  Cu116  1  0.231580  0.046830  0.445450  1.0  0.2917
  Cu  Cu117  1  0.670570  0.609180  0.415140  1.0  0.3309
  Cu  Cu118  1  0.731580  0.546830  0.445450  1.0  0.2917
  Cu  Cu119  1  0.670570  0.109180  0.915140  1.0  0.3309
  Cu  Cu120  1  0.731580  0.046830  0.945450  1.0  0.2917
  Cu  Cu121  1  0.829430  0.390820  0.915140  1.0  0.3322
  Cu  Cu122  1  0.768420  0.453170  0.945450  1.0  0.2929
  Cu  Cu123  1  0.829430  0.890820  0.415140  1.0  0.3322
  Cu  Cu124  1  0.768420  0.953170  0.445450  1.0  0.2929
  Cu  Cu125  1  0.329430  0.390820  0.415140  1.0  0.3322
  Cu  Cu126  1  0.268420  0.453170  0.445450  1.0  0.2929
  Cu  Cu127  1  0.329430  0.890820  0.915140  1.0  0.3322
  Cu  Cu128  1  0.268420  0.953170  0.945450  1.0  0.2929
  Cu  Cu129  1  0.390820  0.084860  0.170570  1.0  0.3284
  Cu  Cu130  1  0.453170  0.054550  0.231580  1.0  0.2925
  Cu  Cu131  1  0.390820  0.584860  0.670570  1.0  0.3284
  Cu  Cu132  1  0.453170  0.554550  0.731580  1.0  0.2925
  Cu  Cu133  1  0.890820  0.084860  0.670570  1.0  0.3284
  Cu  Cu134  1  0.953170  0.054550  0.731580  1.0  0.2925
  Cu  Cu135  1  0.890820  0.584860  0.170570  1.0  0.3284
  Cu  Cu136  1  0.953170  0.554550  0.231580  1.0  0.2925
  Cu  Cu137  1  0.609180  0.084860  0.829430  1.0  0.3286
  Cu  Cu138  1  0.546830  0.054550  0.768420  1.0  0.2913
  Cu  Cu139  1  0.609180  0.584860  0.329430  1.0  0.3287
  Cu  Cu140  1  0.546830  0.554550  0.268420  1.0  0.2913
  Cu  Cu141  1  0.109180  0.084860  0.329430  1.0  0.3286
  Cu  Cu142  1  0.046830  0.054550  0.268420  1.0  0.2913
  Cu  Cu143  1  0.109180  0.584860  0.829430  1.0  0.3286
  Cu  Cu144  1  0.046830  0.554550  0.768420  1.0  0.2913
  Cu  Cu145  1  0.609180  0.915140  0.170570  1.0  0.3292
  Cu  Cu146  1  0.546830  0.945450  0.231580  1.0  0.2921
  Cu  Cu147  1  0.609180  0.415140  0.670570  1.0  0.3292
  Cu  Cu148  1  0.546830  0.445450  0.731580  1.0  0.2921
  Cu  Cu149  1  0.109180  0.915140  0.670570  1.0  0.3292
  Cu  Cu150  1  0.046830  0.945450  0.731580  1.0  0.2921
  Cu  Cu151  1  0.109180  0.415140  0.170570  1.0  0.3292
  Cu  Cu152  1  0.046830  0.445450  0.231580  1.0  0.2921
  Cu  Cu153  1  0.390820  0.915140  0.829430  1.0  0.3289
  Cu  Cu154  1  0.453170  0.945450  0.768420  1.0  0.2925
  Cu  Cu155  1  0.390820  0.415140  0.329430  1.0  0.3289
  Cu  Cu156  1  0.453170  0.445450  0.268420  1.0  0.2925
  Cu  Cu157  1  0.890820  0.915140  0.329430  1.0  0.3289
  Cu  Cu158  1  0.953170  0.945450  0.268420  1.0  0.2925
  Cu  Cu159  1  0.890820  0.415140  0.829430  1.0  0.3289
  Cu  Cu160  1  0.953170  0.445450  0.768420  1.0  0.2925
  Cu  Cu161  1  0.084860  0.170570  0.390820  1.0  0.3287
  Cu  Cu162  1  0.054550  0.231580  0.453170  1.0  0.2918
  Cu  Cu163  1  0.084860  0.670570  0.890820  1.0  0.3287
  Cu  Cu164  1  0.054550  0.731580  0.953170  1.0  0.2918
  Cu  Cu165  1  0.584860  0.170570  0.890820  1.0  0.3287
  Cu  Cu166  1  0.554550  0.231580  0.953170  1.0  0.2918
  Cu  Cu167  1  0.584860  0.670570  0.390820  1.0  0.3287
  Cu  Cu168  1  0.554550  0.731580  0.453170  1.0  0.2918
  Cu  Cu169  1  0.084860  0.829430  0.609180  1.0  0.3286
  Cu  Cu170  1  0.054550  0.768420  0.546830  1.0  0.2907
  Cu  Cu171  1  0.084860  0.329430  0.109180  1.0  0.3286
  Cu  Cu172  1  0.054550  0.268420  0.046830  1.0  0.2907
  Cu  Cu173  1  0.584860  0.829430  0.109180  1.0  0.3286
  Cu  Cu174  1  0.554550  0.768420  0.046830  1.0  0.2907
  Cu  Cu175  1  0.584860  0.329430  0.609180  1.0  0.3286
  Cu  Cu176  1  0.554550  0.268420  0.546830  1.0  0.2907
  Cu  Cu177  1  0.915140  0.170570  0.609180  1.0  0.3296
  Cu  Cu178  1  0.945450  0.231580  0.546830  1.0  0.2912
  Cu  Cu179  1  0.915140  0.670570  0.109180  1.0  0.3296
  Cu  Cu180  1  0.945450  0.731580  0.046830  1.0  0.2912
  Cu  Cu181  1  0.415140  0.170570  0.109180  1.0  0.3296
  Cu  Cu182  1  0.445450  0.231580  0.046830  1.0  0.2912
  Cu  Cu183  1  0.415140  0.670570  0.609180  1.0  0.3296
  Cu  Cu184  1  0.445450  0.731580  0.546830  1.0  0.2912
  Cu  Cu185  1  0.915140  0.829430  0.390820  1.0  0.3291
  Cu  Cu186  1  0.945450  0.768420  0.453170  1.0  0.2912
  Cu  Cu187  1  0.915140  0.329430  0.890820  1.0  0.3291
  Cu  Cu188  1  0.945450  0.268420  0.953170  1.0  0.2912
  Cu  Cu189  1  0.415140  0.829430  0.890820  1.0  0.3291
  Cu  Cu190  1  0.445450  0.768420  0.953170  1.0  0.2912
  Cu  Cu191  1  0.415140  0.329430  0.390820  1.0  0.3291
  Cu  Cu192  1  0.445450  0.268420  0.453170  1.0  0.2912
  Cu  Cu193  1  0.854190  0.645810  0.645810  1.0  0.3445
  Cu  Cu194  1  0.854190  0.145810  0.145810  1.0  0.3445
  Cu  Cu195  1  0.145810  0.354190  0.645810  1.0  0.3451
  Cu  Cu196  1  0.145810  0.854190  0.145810  1.0  0.3451
  Cu  Cu197  1  0.145810  0.645810  0.354190  1.0  0.3465
  Cu  Cu198  1  0.145810  0.145810  0.854190  1.0  0.3465
  Cu  Cu199  1  0.854190  0.354190  0.354190  1.0  0.346
  Cu  Cu200  1  0.854190  0.854190  0.854190  1.0  0.346
  Cu  Cu201  1  0.645810  0.854190  0.645810  1.0  0.3451
  Cu  Cu202  1  0.645810  0.145810  0.354190  1.0  0.3465
  Cu  Cu203  1  0.354190  0.145810  0.645810  1.0  0.3445
  Cu  Cu204  1  0.354190  0.854190  0.354190  1.0  0.346
  Cu  Cu205  1  0.645810  0.645810  0.854190  1.0  0.3465
  Cu  Cu206  1  0.354190  0.645810  0.145810  1.0  0.3445
  Cu  Cu207  1  0.645810  0.354190  0.145810  1.0  0.345
  Cu  Cu208  1  0.354190  0.354190  0.854190  1.0  0.346
  Cu  Cu209  1  0.145810  0.354190  0.145810  1.0  0.3451
  Cu  Cu210  1  0.854190  0.645810  0.145810  1.0  0.3445
  Cu  Cu211  1  0.145810  0.645810  0.854190  1.0  0.3465
  Cu  Cu212  1  0.854190  0.354190  0.854190  1.0  0.346
  Cu  Cu213  1  0.354190  0.145810  0.145810  1.0  0.3445
  Cu  Cu214  1  0.354190  0.645810  0.645810  1.0  0.3445
  Cu  Cu215  1  0.645810  0.145810  0.854190  1.0  0.3465
  Cu  Cu216  1  0.645810  0.645810  0.354190  1.0  0.3465
  Cu  Cu217  1  0.645810  0.854190  0.145810  1.0  0.3451
  Cu  Cu218  1  0.645810  0.354190  0.645810  1.0  0.3451
  Cu  Cu219  1  0.354190  0.854190  0.854190  1.0  0.346
  Cu  Cu220  1  0.354190  0.354190  0.354190  1.0  0.346
  Cu  Cu221  1  0.145810  0.145810  0.354190  1.0  0.3465
  Cu  Cu222  1  0.145810  0.854190  0.645810  1.0  0.3451
  Cu  Cu223  1  0.854190  0.145810  0.645810  1.0  0.3445
  Cu  Cu224  1  0.854190  0.854190  0.354190  1.0  0.346
  Cu  Cu225  1  0.000000  0.750000  0.500000  1.0  0.1878
  Cu  Cu226  1  0.000000  0.250000  0.000000  1.0  0.1878
  Cu  Cu227  1  0.500000  0.750000  0.000000  1.0  0.1878
  Cu  Cu228  1  0.500000  0.250000  0.500000  1.0  0.1878
  Cu  Cu229  1  0.000000  0.250000  0.500000  1.0  0.1878
  Cu  Cu230  1  0.000000  0.750000  0.000000  1.0  0.1878
  Cu  Cu231  1  0.500000  0.250000  0.000000  1.0  0.1877
  Cu  Cu232  1  0.500000  0.750000  0.500000  1.0  0.1878
  Cu  Cu233  1  0.500000  0.000000  0.750000  1.0  0.1877
  Cu  Cu234  1  0.500000  0.500000  0.250000  1.0  0.1878
  Cu  Cu235  1  0.000000  0.000000  0.250000  1.0  0.1878
  Cu  Cu236  1  0.000000  0.500000  0.750000  1.0  0.1878
  Cu  Cu237  1  0.500000  0.000000  0.250000  1.0  0.1878
  Cu  Cu238  1  0.500000  0.500000  0.750000  1.0  0.1878
  Cu  Cu239  1  0.000000  0.000000  0.750000  1.0  0.1878
  Cu  Cu240  1  0.000000  0.500000  0.250000  1.0  0.1877
  Cu  Cu241  1  0.750000  0.500000  0.000000  1.0  0.1877
  Cu  Cu242  1  0.750000  0.000000  0.500000  1.0  0.1878
  Cu  Cu243  1  0.250000  0.500000  0.500000  1.0  0.1878
  Cu  Cu244  1  0.250000  0.000000  0.000000  1.0  0.1878
  Cu  Cu245  1  0.250000  0.500000  0.000000  1.0  0.1878
  Cu  Cu246  1  0.250000  0.000000  0.500000  1.0  0.1878
  Cu  Cu247  1  0.750000  0.500000  0.500000  1.0  0.1878
  Cu  Cu248  1  0.750000  0.000000  0.000000  1.0  0.1878
  H  H249  1  0.914000  0.653100  0.452200  1.0  0.2477
  H  H250  1  0.855600  0.620900  0.521400  1.0  0.3102
  H  H251  1  0.865400  0.613100  0.482700  1.0  0.3432
  H  H252  1  0.780700  0.689000  0.539800  1.0  0.298
  H  H253  1  0.735600  0.619200  0.493600  1.0  0.292
  H  H254  1  0.739400  0.659700  0.493100  1.0  0.3169
  H  H255  1  0.914000  0.153100  0.952200  1.0  0.2477
  H  H256  1  0.855600  0.120900  0.021400  1.0  0.3102
  H  H257  1  0.865400  0.113100  0.982700  1.0  0.3432
  H  H258  1  0.780700  0.189000  0.039800  1.0  0.2967
  H  H259  1  0.735600  0.119200  0.993600  1.0  0.292
  H  H260  1  0.739400  0.159700  0.993100  1.0  0.3169
  H  H261  1  0.414000  0.653100  0.952200  1.0  0.2477
  H  H262  1  0.355600  0.620900  0.021400  1.0  0.3102
  H  H263  1  0.365400  0.613100  0.982700  1.0  0.3432
  H  H264  1  0.280700  0.689000  0.039800  1.0  0.298
  H  H265  1  0.235600  0.619200  0.993600  1.0  0.292
  H  H266  1  0.239400  0.659700  0.993100  1.0  0.3169
  H  H267  1  0.414000  0.153100  0.452200  1.0  0.2477
  H  H268  1  0.355600  0.120900  0.521400  1.0  0.3102
  H  H269  1  0.365400  0.113100  0.482700  1.0  0.3432
  H  H270  1  0.280700  0.189000  0.539800  1.0  0.2967
  H  H271  1  0.235600  0.119200  0.493600  1.0  0.292
  H  H272  1  0.239400  0.159700  0.493100  1.0  0.3169
  H  H273  1  0.086000  0.346900  0.452200  1.0  0.2475
  H  H274  1  0.144400  0.379100  0.521400  1.0  0.3101
  H  H275  1  0.134600  0.386900  0.482700  1.0  0.344
  H  H276  1  0.219300  0.311000  0.539800  1.0  0.2959
  H  H277  1  0.264400  0.380800  0.493600  1.0  0.2916
  H  H278  1  0.260600  0.340300  0.493100  1.0  0.3149
  H  H279  1  0.086000  0.846900  0.952200  1.0  0.2475
  H  H280  1  0.144400  0.879100  0.021400  1.0  0.3101
  H  H281  1  0.134600  0.886900  0.982700  1.0  0.344
  H  H282  1  0.219300  0.811000  0.039800  1.0  0.2959
  H  H283  1  0.264400  0.880800  0.993600  1.0  0.2916
  H  H284  1  0.260600  0.840300  0.993100  1.0  0.3149
  H  H285  1  0.586000  0.346900  0.952200  1.0  0.2475
  H  H286  1  0.644400  0.379100  0.021400  1.0  0.3101
  H  H287  1  0.634600  0.386900  0.982700  1.0  0.344
  H  H288  1  0.719300  0.311000  0.039800  1.0  0.2959
  H  H289  1  0.764400  0.380800  0.993600  1.0  0.2916
  H  H290  1  0.760600  0.340300  0.993100  1.0  0.3149
  H  H291  1  0.586000  0.846900  0.452200  1.0  0.2475
  H  H292  1  0.644400  0.879100  0.521400  1.0  0.3101
  H  H293  1  0.634600  0.886900  0.482700  1.0  0.344
  H  H294  1  0.719300  0.811000  0.539800  1.0  0.2959
  H  H295  1  0.764400  0.880800  0.493600  1.0  0.2916
  H  H296  1  0.760600  0.840300  0.493100  1.0  0.3149
  H  H297  1  0.086000  0.653100  0.547800  1.0  0.2473
  H  H298  1  0.144400  0.620900  0.478600  1.0  0.3101
  H  H299  1  0.134600  0.613100  0.517300  1.0  0.3443
  H  H300  1  0.219300  0.689000  0.460200  1.0  0.2977
  H  H301  1  0.264400  0.619200  0.506400  1.0  0.2923
  H  H302  1  0.260600  0.659700  0.506900  1.0  0.3175
  H  H303  1  0.086000  0.153100  0.047800  1.0  0.2473
  H  H304  1  0.144400  0.120900  0.978600  1.0  0.3101
  H  H305  1  0.134600  0.113100  0.017300  1.0  0.3443
  H  H306  1  0.219300  0.189000  0.960200  1.0  0.2963
  H  H307  1  0.264400  0.119200  0.006400  1.0  0.2923
  H  H308  1  0.260600  0.159700  0.006900  1.0  0.3175
  H  H309  1  0.586000  0.653100  0.047800  1.0  0.2473
  H  H310  1  0.644400  0.620900  0.978600  1.0  0.3101
  H  H311  1  0.634600  0.613100  0.017300  1.0  0.3443
  H  H312  1  0.719300  0.689000  0.960200  1.0  0.2977
  H  H313  1  0.764400  0.619200  0.006400  1.0  0.2923
  H  H314  1  0.760600  0.659700  0.006900  1.0  0.3175
  H  H315  1  0.586000  0.153100  0.547800  1.0  0.2473
  H  H316  1  0.644400  0.120900  0.478600  1.0  0.3101
  H  H317  1  0.634600  0.113100  0.517300  1.0  0.3443
  H  H318  1  0.719300  0.189000  0.460200  1.0  0.2963
  H  H319  1  0.764400  0.119200  0.506400  1.0  0.2922
  H  H320  1  0.760600  0.159700  0.506900  1.0  0.3175
  H  H321  1  0.914000  0.346900  0.547800  1.0  0.2474
  H  H322  1  0.855600  0.379100  0.478600  1.0  0.3096
  H  H323  1  0.865400  0.386900  0.517300  1.0  0.3435
  H  H324  1  0.780700  0.311000  0.460200  1.0  0.2958
  H  H325  1  0.735600  0.380800  0.506400  1.0  0.2921
  H  H326  1  0.739400  0.340300  0.506900  1.0  0.3161
  H  H327  1  0.914000  0.846900  0.047800  1.0  0.2474
  H  H328  1  0.855600  0.879100  0.978600  1.0  0.3096
  H  H329  1  0.865400  0.886900  0.017300  1.0  0.3435
  H  H330  1  0.780700  0.811000  0.960200  1.0  0.2958
  H  H331  1  0.735600  0.880800  0.006400  1.0  0.2921
  H  H332  1  0.739400  0.840300  0.006900  1.0  0.3161
  H  H333  1  0.414000  0.346900  0.047800  1.0  0.2474
  H  H334  1  0.355600  0.379100  0.978600  1.0  0.3096
  H  H335  1  0.365400  0.386900  0.017300  1.0  0.3435
  H  H336  1  0.280700  0.311000  0.960200  1.0  0.2958
  H  H337  1  0.235600  0.380800  0.006400  1.0  0.2921
  H  H338  1  0.239400  0.340300  0.006900  1.0  0.3161
  H  H339  1  0.414000  0.846900  0.547800  1.0  0.2474
  H  H340  1  0.355600  0.879100  0.478600  1.0  0.3096
  H  H341  1  0.365400  0.886900  0.517300  1.0  0.3435
  H  H342  1  0.280700  0.811000  0.460200  1.0  0.2958
  H  H343  1  0.235600  0.880800  0.506400  1.0  0.2921
  H  H344  1  0.239400  0.840300  0.506900  1.0  0.3161
  H  H345  1  0.452200  0.914000  0.653100  1.0  0.2467
  H  H346  1  0.521400  0.855600  0.620900  1.0  0.3146
  H  H347  1  0.482700  0.865400  0.613100  1.0  0.3435
  H  H348  1  0.539800  0.780700  0.689000  1.0  0.2956
  H  H349  1  0.493600  0.735600  0.619200  1.0  0.2938
  H  H350  1  0.493100  0.739400  0.659700  1.0  0.3193
  H  H351  1  0.452200  0.414000  0.153100  1.0  0.2467
  H  H352  1  0.521400  0.355600  0.120900  1.0  0.3146
  H  H353  1  0.482700  0.365400  0.113100  1.0  0.3435
  H  H354  1  0.539800  0.280700  0.189000  1.0  0.2943
  H  H355  1  0.493600  0.235600  0.119200  1.0  0.2938
  H  H356  1  0.493100  0.239400  0.159700  1.0  0.3193
  H  H357  1  0.952200  0.914000  0.153100  1.0  0.2467
  H  H358  1  0.021400  0.855600  0.120900  1.0  0.3146
  H  H359  1  0.982700  0.865400  0.113100  1.0  0.3435
  H  H360  1  0.039800  0.780700  0.189000  1.0  0.2943
  H  H361  1  0.993600  0.735600  0.119200  1.0  0.2938
  H  H362  1  0.993100  0.739400  0.159700  1.0  0.3193
  H  H363  1  0.952200  0.414000  0.653100  1.0  0.2467
  H  H364  1  0.021400  0.355600  0.620900  1.0  0.3146
  H  H365  1  0.982700  0.365400  0.613100  1.0  0.3435
  H  H366  1  0.039800  0.280700  0.689000  1.0  0.2956
  H  H367  1  0.993600  0.235600  0.619200  1.0  0.2938
  H  H368  1  0.993100  0.239400  0.659700  1.0  0.3193
  H  H369  1  0.452200  0.086000  0.346900  1.0  0.2466
  H  H370  1  0.521400  0.144400  0.379100  1.0  0.3141
  H  H371  1  0.482700  0.134600  0.386900  1.0  0.3448
  H  H372  1  0.539800  0.219300  0.311000  1.0  0.2946
  H  H373  1  0.493600  0.264400  0.380800  1.0  0.2954
  H  H374  1  0.493100  0.260600  0.340300  1.0  0.3175
  H  H375  1  0.452200  0.586000  0.846900  1.0  0.2466
  H  H376  1  0.521400  0.644400  0.879100  1.0  0.3141
  H  H377  1  0.482700  0.634600  0.886900  1.0  0.3448
  H  H378  1  0.539800  0.719300  0.811000  1.0  0.2946
  H  H379  1  0.493600  0.764400  0.880800  1.0  0.2954
  H  H380  1  0.493100  0.760600  0.840300  1.0  0.3175
  H  H381  1  0.952200  0.086000  0.846900  1.0  0.2466
  H  H382  1  0.021400  0.144400  0.879100  1.0  0.3141
  H  H383  1  0.982700  0.134600  0.886900  1.0  0.3448
  H  H384  1  0.039800  0.219300  0.811000  1.0  0.2946
  H  H385  1  0.993600  0.264400  0.880800  1.0  0.2954
  H  H386  1  0.993100  0.260600  0.840300  1.0  0.3175
  H  H387  1  0.952200  0.586000  0.346900  1.0  0.2466
  H  H388  1  0.021400  0.644400  0.379100  1.0  0.3141
  H  H389  1  0.982700  0.634600  0.386900  1.0  0.3448
  H  H390  1  0.039800  0.719300  0.311000  1.0  0.2946
  H  H391  1  0.993600  0.764400  0.380800  1.0  0.2954
  H  H392  1  0.993100  0.760600  0.340300  1.0  0.3175
  H  H393  1  0.547800  0.086000  0.653100  1.0  0.2467
  H  H394  1  0.478600  0.144400  0.620900  1.0  0.3135
  H  H395  1  0.517300  0.134600  0.613100  1.0  0.3445
  H  H396  1  0.460200  0.219300  0.689000  1.0  0.2965
  H  H397  1  0.506400  0.264400  0.619200  1.0  0.2927
  H  H398  1  0.506900  0.260600  0.659700  1.0  0.3186
  H  H399  1  0.547800  0.586000  0.153100  1.0  0.2467
  H  H400  1  0.478600  0.644400  0.120900  1.0  0.3135
  H  H401  1  0.517300  0.634600  0.113100  1.0  0.3445
  H  H402  1  0.460200  0.719300  0.189000  1.0  0.295
  H  H403  1  0.506400  0.764400  0.119200  1.0  0.2927
  H  H404  1  0.506900  0.760600  0.159700  1.0  0.3186
  H  H405  1  0.047800  0.086000  0.153100  1.0  0.2467
  H  H406  1  0.978600  0.144400  0.120900  1.0  0.3135
  H  H407  1  0.017300  0.134600  0.113100  1.0  0.3445
  H  H408  1  0.960200  0.219300  0.189000  1.0  0.295
  H  H409  1  0.006400  0.264400  0.119200  1.0  0.2927
  H  H410  1  0.006900  0.260600  0.159700  1.0  0.3186
  H  H411  1  0.047800  0.586000  0.653100  1.0  0.2467
  H  H412  1  0.978600  0.644400  0.620900  1.0  0.3135
  H  H413  1  0.017300  0.634600  0.613100  1.0  0.3445
  H  H414  1  0.960200  0.719300  0.689000  1.0  0.2965
  H  H415  1  0.006400  0.764400  0.619200  1.0  0.2927
  H  H416  1  0.006900  0.760600  0.659700  1.0  0.3186
  H  H417  1  0.547800  0.914000  0.346900  1.0  0.2468
  H  H418  1  0.478600  0.855600  0.379100  1.0  0.3142
  H  H419  1  0.517300  0.865400  0.386900  1.0  0.3454
  H  H420  1  0.460200  0.780700  0.311000  1.0  0.2945
  H  H421  1  0.506400  0.735600  0.380800  1.0  0.2953
  H  H422  1  0.506900  0.739400  0.340300  1.0  0.3173
  H  H423  1  0.547800  0.414000  0.846900  1.0  0.2468
  H  H424  1  0.478600  0.355600  0.879100  1.0  0.3142
  H  H425  1  0.517300  0.365400  0.886900  1.0  0.3454
  H  H426  1  0.460200  0.280700  0.811000  1.0  0.2945
  H  H427  1  0.506400  0.235600  0.880800  1.0  0.2953
  H  H428  1  0.506900  0.239400  0.840300  1.0  0.3173
  H  H429  1  0.047800  0.914000  0.846900  1.0  0.2468
  H  H430  1  0.978600  0.855600  0.879100  1.0  0.3142
  H  H431  1  0.017300  0.865400  0.886900  1.0  0.3454
  H  H432  1  0.960200  0.780700  0.811000  1.0  0.2945
  H  H433  1  0.006400  0.735600  0.880800  1.0  0.2953
  H  H434  1  0.006900  0.739400  0.840300  1.0  0.3173
  H  H435  1  0.047800  0.414000  0.346900  1.0  0.2468
  H  H436  1  0.978600  0.355600  0.379100  1.0  0.3142
  H  H437  1  0.017300  0.365400  0.386900  1.0  0.3454
  H  H438  1  0.960200  0.280700  0.311000  1.0  0.2945
  H  H439  1  0.006400  0.235600  0.380800  1.0  0.2953
  H  H440  1  0.006900  0.239400  0.340300  1.0  0.3173
  H  H441  1  0.653100  0.452200  0.914000  1.0  0.249
  H  H442  1  0.620900  0.521400  0.855600  1.0  0.31
  H  H443  1  0.613100  0.482700  0.865400  1.0  0.3427
  H  H444  1  0.689000  0.539800  0.780700  1.0  0.294
  H  H445  1  0.619200  0.493600  0.735600  1.0  0.2937
  H  H446  1  0.659700  0.493100  0.739400  1.0  0.3156
  H  H447  1  0.653100  0.952200  0.414000  1.0  0.249
  H  H448  1  0.620900  0.021400  0.355600  1.0  0.31
  H  H449  1  0.613100  0.982700  0.365400  1.0  0.3427
  H  H450  1  0.689000  0.039800  0.280700  1.0  0.294
  H  H451  1  0.619200  0.993600  0.235600  1.0  0.2937
  H  H452  1  0.659700  0.993100  0.239400  1.0  0.3156
  H  H453  1  0.153100  0.452200  0.414000  1.0  0.249
  H  H454  1  0.120900  0.521400  0.355600  1.0  0.31
  H  H455  1  0.113100  0.482700  0.365400  1.0  0.3427
  H  H456  1  0.189000  0.539800  0.280700  1.0  0.293
  H  H457  1  0.119200  0.493600  0.235600  1.0  0.2937
  H  H458  1  0.159700  0.493100  0.239400  1.0  0.3156
  H  H459  1  0.153100  0.952200  0.914000  1.0  0.249
  H  H460  1  0.120900  0.021400  0.855600  1.0  0.31
  H  H461  1  0.113100  0.982700  0.865400  1.0  0.3427
  H  H462  1  0.189000  0.039800  0.780700  1.0  0.293
  H  H463  1  0.119200  0.993600  0.735600  1.0  0.2937
  H  H464  1  0.159700  0.993100  0.739400  1.0  0.3156
  H  H465  1  0.346900  0.452200  0.086000  1.0  0.248
  H  H466  1  0.379100  0.521400  0.144400  1.0  0.3102
  H  H467  1  0.386900  0.482700  0.134600  1.0  0.3416
  H  H468  1  0.311000  0.539800  0.219300  1.0  0.2933
  H  H469  1  0.380800  0.493600  0.264400  1.0  0.2974
  H  H470  1  0.340300  0.493100  0.260600  1.0  0.3163
  H  H471  1  0.346900  0.952200  0.586000  1.0  0.248
  H  H472  1  0.379100  0.021400  0.644400  1.0  0.3102
  H  H473  1  0.386900  0.982700  0.634600  1.0  0.3416
  H  H474  1  0.311000  0.039800  0.719300  1.0  0.2933
  H  H475  1  0.380800  0.993600  0.764400  1.0  0.2974
  H  H476  1  0.340300  0.993100  0.760600  1.0  0.3163
  H  H477  1  0.846900  0.452200  0.586000  1.0  0.248
  H  H478  1  0.879100  0.521400  0.644400  1.0  0.3102
  H  H479  1  0.886900  0.482700  0.634600  1.0  0.3416
  H  H480  1  0.811000  0.539800  0.719300  1.0  0.2933
  H  H481  1  0.880800  0.493600  0.764400  1.0  0.2974
  H  H482  1  0.840300  0.493100  0.760600  1.0  0.3163
  H  H483  1  0.846900  0.952200  0.086000  1.0  0.248
  H  H484  1  0.879100  0.021400  0.144400  1.0  0.3102
  H  H485  1  0.886900  0.982700  0.134600  1.0  0.3416
  H  H486  1  0.811000  0.039800  0.219300  1.0  0.2933
  H  H487  1  0.880800  0.993600  0.264400  1.0  0.2974
  H  H488  1  0.840300  0.993100  0.260600  1.0  0.3163
  H  H489  1  0.653100  0.547800  0.086000  1.0  0.2502
  H  H490  1  0.620900  0.478600  0.144400  1.0  0.3108
  H  H491  1  0.613100  0.517300  0.134600  1.0  0.3431
  H  H492  1  0.689000  0.460200  0.219300  1.0  0.2946
  H  H493  1  0.619200  0.506400  0.264400  1.0  0.2943
  H  H494  1  0.659700  0.506900  0.260600  1.0  0.3171
  H  H495  1  0.653100  0.047800  0.586000  1.0  0.2502
  H  H496  1  0.620900  0.978600  0.644400  1.0  0.3108
  H  H497  1  0.613100  0.017300  0.634600  1.0  0.3431
  H  H498  1  0.689000  0.960200  0.719300  1.0  0.2946
  H  H499  1  0.619200  0.006400  0.764400  1.0  0.2943
  H  H500  1  0.659700  0.006900  0.760600  1.0  0.3171
  H  H501  1  0.153100  0.547800  0.586000  1.0  0.2502
  H  H502  1  0.120900  0.478600  0.644400  1.0  0.3108
  H  H503  1  0.113100  0.517300  0.634600  1.0  0.3431
  H  H504  1  0.189000  0.460200  0.719300  1.0  0.2937
  H  H505  1  0.119200  0.506400  0.764400  1.0  0.2943
  H  H506  1  0.159700  0.506900  0.760600  1.0  0.3171
  H  H507  1  0.153100  0.047800  0.086000  1.0  0.2502
  H  H508  1  0.120900  0.978600  0.144400  1.0  0.3108
  H  H509  1  0.113100  0.017300  0.134600  1.0  0.3431
  H  H510  1  0.189000  0.960200  0.219300  1.0  0.2937
  H  H511  1  0.119200  0.006400  0.264400  1.0  0.2943
  H  H512  1  0.159700  0.006900  0.260600  1.0  0.3171
  H  H513  1  0.346900  0.547800  0.914000  1.0  0.2501
  H  H514  1  0.379100  0.478600  0.855600  1.0  0.3091
  H  H515  1  0.386900  0.517300  0.865400  1.0  0.3436
  H  H516  1  0.311000  0.460200  0.780700  1.0  0.2933
  H  H517  1  0.380800  0.506400  0.735600  1.0  0.2968
  H  H518  1  0.340300  0.506900  0.739400  1.0  0.3156
  H  H519  1  0.346900  0.047800  0.414000  1.0  0.2501
  H  H520  1  0.379100  0.978600  0.355600  1.0  0.3091
  H  H521  1  0.386900  0.017300  0.365400  1.0  0.3436
  H  H522  1  0.311000  0.960200  0.280700  1.0  0.2934
  H  H523  1  0.380800  0.006400  0.235600  1.0  0.2968
  H  H524  1  0.340300  0.006900  0.239400  1.0  0.3156
  H  H525  1  0.846900  0.547800  0.414000  1.0  0.2501
  H  H526  1  0.879100  0.478600  0.355600  1.0  0.3091
  H  H527  1  0.886900  0.517300  0.365400  1.0  0.3436
  H  H528  1  0.811000  0.460200  0.280700  1.0  0.2934
  H  H529  1  0.880800  0.506400  0.235600  1.0  0.2968
  H  H530  1  0.840300  0.506900  0.239400  1.0  0.3156
  H  H531  1  0.846900  0.047800  0.914000  1.0  0.2501
  H  H532  1  0.879100  0.978600  0.855600  1.0  0.3091
  H  H533  1  0.886900  0.017300  0.865400  1.0  0.3436
  H  H534  1  0.811000  0.960200  0.780700  1.0  0.2933
  H  H535  1  0.880800  0.006400  0.735600  1.0  0.2968
  H  H536  1  0.840300  0.006900  0.739400  1.0  0.3156
  H  H537  1  0.153100  0.414000  0.952200  1.0  0.2482
  H  H538  1  0.120900  0.355600  0.021400  1.0  0.3114
  H  H539  1  0.113100  0.365400  0.982700  1.0  0.3421
  H  H540  1  0.189000  0.280700  0.039800  1.0  0.2935
  H  H541  1  0.119200  0.235600  0.993600  1.0  0.2946
  H  H542  1  0.159700  0.239400  0.993100  1.0  0.3158
  H  H543  1  0.153100  0.914000  0.452200  1.0  0.2482
  H  H544  1  0.120900  0.855600  0.521400  1.0  0.3114
  H  H545  1  0.113100  0.865400  0.482700  1.0  0.3421
  H  H546  1  0.189000  0.780700  0.539800  1.0  0.2935
  H  H547  1  0.119200  0.735600  0.493600  1.0  0.2946
  H  H548  1  0.159700  0.739400  0.493100  1.0  0.3158
  H  H549  1  0.653100  0.414000  0.452200  1.0  0.2482
  H  H550  1  0.620900  0.355600  0.521400  1.0  0.3114
  H  H551  1  0.613100  0.365400  0.482700  1.0  0.3421
  H  H552  1  0.689000  0.280700  0.539800  1.0  0.2945
  H  H553  1  0.619200  0.235600  0.493600  1.0  0.2946
  H  H554  1  0.659700  0.239400  0.493100  1.0  0.3158
  H  H555  1  0.653100  0.914000  0.952200  1.0  0.2482
  H  H556  1  0.620900  0.855600  0.021400  1.0  0.3114
  H  H557  1  0.613100  0.865400  0.982700  1.0  0.3421
  H  H558  1  0.689000  0.780700  0.039800  1.0  0.2945
  H  H559  1  0.619200  0.735600  0.993600  1.0  0.2946
  H  H560  1  0.659700  0.739400  0.993100  1.0  0.3158
  H  H561  1  0.846900  0.586000  0.952200  1.0  0.2482
  H  H562  1  0.879100  0.644400  0.021400  1.0  0.3105
  H  H563  1  0.886900  0.634600  0.982700  1.0  0.3425
  H  H564  1  0.811000  0.719300  0.039800  1.0  0.2938
  H  H565  1  0.880800  0.764400  0.993600  1.0  0.297
  H  H566  1  0.840300  0.760600  0.993100  1.0  0.3156
  H  H567  1  0.846900  0.086000  0.452200  1.0  0.2482
  H  H568  1  0.879100  0.144400  0.521400  1.0  0.3105
  H  H569  1  0.886900  0.134600  0.482700  1.0  0.3425
  H  H570  1  0.811000  0.219300  0.539800  1.0  0.2938
  H  H571  1  0.880800  0.264400  0.493600  1.0  0.297
  H  H572  1  0.840300  0.260600  0.493100  1.0  0.3155
  H  H573  1  0.346900  0.586000  0.452200  1.0  0.2482
  H  H574  1  0.379100  0.644400  0.521400  1.0  0.3105
  H  H575  1  0.386900  0.634600  0.482700  1.0  0.3425
  H  H576  1  0.311000  0.719300  0.539800  1.0  0.2938
  H  H577  1  0.380800  0.764400  0.493600  1.0  0.297
  H  H578  1  0.340300  0.760600  0.493100  1.0  0.3155
  H  H579  1  0.346900  0.086000  0.952200  1.0  0.2482
  H  H580  1  0.379100  0.144400  0.021400  1.0  0.3105
  H  H581  1  0.386900  0.134600  0.982700  1.0  0.3425
  H  H582  1  0.311000  0.219300  0.039800  1.0  0.2938
  H  H583  1  0.380800  0.264400  0.993600  1.0  0.297
  H  H584  1  0.340300  0.260600  0.993100  1.0  0.3155
  H  H585  1  0.153100  0.586000  0.047800  1.0  0.2487
  H  H586  1  0.120900  0.644400  0.978600  1.0  0.3107
  H  H587  1  0.113100  0.634600  0.017300  1.0  0.343
  H  H588  1  0.189000  0.719300  0.960200  1.0  0.2936
  H  H589  1  0.119200  0.764400  0.006400  1.0  0.294
  H  H590  1  0.159700  0.760600  0.006900  1.0  0.3167
  H  H591  1  0.153100  0.086000  0.547800  1.0  0.2487
  H  H592  1  0.120900  0.144400  0.478600  1.0  0.3107
  H  H593  1  0.113100  0.134600  0.517300  1.0  0.343
  H  H594  1  0.189000  0.219300  0.460200  1.0  0.2936
  H  H595  1  0.119200  0.264400  0.506400  1.0  0.2941
  H  H596  1  0.159700  0.260600  0.506900  1.0  0.3167
  H  H597  1  0.653100  0.586000  0.547800  1.0  0.2487
  H  H598  1  0.620900  0.644400  0.478600  1.0  0.3107
  H  H599  1  0.613100  0.634600  0.517300  1.0  0.343
  H  H600  1  0.689000  0.719300  0.460200  1.0  0.2947
  H  H601  1  0.619200  0.764400  0.506400  1.0  0.2941
  H  H602  1  0.659700  0.760600  0.506900  1.0  0.3167
  H  H603  1  0.653100  0.086000  0.047800  1.0  0.2487
  H  H604  1  0.620900  0.144400  0.978600  1.0  0.3107
  H  H605  1  0.613100  0.134600  0.017300  1.0  0.343
  H  H606  1  0.689000  0.219300  0.960200  1.0  0.2947
  H  H607  1  0.619200  0.264400  0.006400  1.0  0.2941
  H  H608  1  0.659700  0.260600  0.006900  1.0  0.3167
  H  H609  1  0.846900  0.414000  0.047800  1.0  0.2472
  H  H610  1  0.879100  0.355600  0.978600  1.0  0.3106
  H  H611  1  0.886900  0.365400  0.017300  1.0  0.3429
  H  H612  1  0.811000  0.280700  0.960200  1.0  0.2926
  H  H613  1  0.880800  0.235600  0.006400  1.0  0.2979
  H  H614  1  0.840300  0.239400  0.006900  1.0  0.317
  H  H615  1  0.846900  0.914000  0.547800  1.0  0.2472
  H  H616  1  0.879100  0.855600  0.478600  1.0  0.3106
  H  H617  1  0.886900  0.865400  0.517300  1.0  0.3429
  H  H618  1  0.811000  0.780700  0.460200  1.0  0.2926
  H  H619  1  0.880800  0.735600  0.506400  1.0  0.2979
  H  H620  1  0.840300  0.739400  0.506900  1.0  0.317
  H  H621  1  0.346900  0.414000  0.547800  1.0  0.2472
  H  H622  1  0.379100  0.355600  0.478600  1.0  0.3106
  H  H623  1  0.386900  0.365400  0.517300  1.0  0.3429
  H  H624  1  0.311000  0.280700  0.460200  1.0  0.2926
  H  H625  1  0.380800  0.235600  0.506400  1.0  0.2979
  H  H626  1  0.340300  0.239400  0.506900  1.0  0.317
  H  H627  1  0.346900  0.914000  0.047800  1.0  0.2472
  H  H628  1  0.379100  0.855600  0.978600  1.0  0.3106
  H  H629  1  0.386900  0.865400  0.017300  1.0  0.3429
  H  H630  1  0.311000  0.780700  0.960200  1.0  0.2926
  H  H631  1  0.380800  0.735600  0.006400  1.0  0.2979
  H  H632  1  0.340300  0.739400  0.006900  1.0  0.317
  H  H633  1  0.414000  0.952200  0.153100  1.0  0.2477
  H  H634  1  0.355600  0.021400  0.120900  1.0  0.3113
  H  H635  1  0.365400  0.982700  0.113100  1.0  0.3427
  H  H636  1  0.280700  0.039800  0.189000  1.0  0.2952
  H  H637  1  0.235600  0.993600  0.119200  1.0  0.2924
  H  H638  1  0.239400  0.993100  0.159700  1.0  0.3192
  H  H639  1  0.414000  0.452200  0.653100  1.0  0.2477
  H  H640  1  0.355600  0.521400  0.620900  1.0  0.3113
  H  H641  1  0.365400  0.482700  0.613100  1.0  0.3427
  H  H642  1  0.280700  0.539800  0.689000  1.0  0.2966
  H  H643  1  0.235600  0.493600  0.619200  1.0  0.2924
  H  H644  1  0.239400  0.493100  0.659700  1.0  0.3192
  H  H645  1  0.914000  0.952200  0.653100  1.0  0.2477
  H  H646  1  0.855600  0.021400  0.620900  1.0  0.3113
  H  H647  1  0.865400  0.982700  0.613100  1.0  0.3427
  H  H648  1  0.780700  0.039800  0.689000  1.0  0.2966
  H  H649  1  0.735600  0.993600  0.619200  1.0  0.2924
  H  H650  1  0.739400  0.993100  0.659700  1.0  0.3192
  H  H651  1  0.914000  0.452200  0.153100  1.0  0.2477
  H  H652  1  0.855600  0.521400  0.120900  1.0  0.3113
  H  H653  1  0.865400  0.482700  0.113100  1.0  0.3427
  H  H654  1  0.780700  0.539800  0.189000  1.0  0.2952
  H  H655  1  0.735600  0.493600  0.119200  1.0  0.2924
  H  H656  1  0.739400  0.493100  0.159700  1.0  0.3192
  H  H657  1  0.586000  0.952200  0.846900  1.0  0.248
  H  H658  1  0.644400  0.021400  0.879100  1.0  0.3115
  H  H659  1  0.634600  0.982700  0.886900  1.0  0.344
  H  H660  1  0.719300  0.039800  0.811000  1.0  0.2949
  H  H661  1  0.764400  0.993600  0.880800  1.0  0.2947
  H  H662  1  0.760600  0.993100  0.840300  1.0  0.3175
  H  H663  1  0.586000  0.452200  0.346900  1.0  0.248
  H  H664  1  0.644400  0.521400  0.379100  1.0  0.3115
  H  H665  1  0.634600  0.482700  0.386900  1.0  0.344
  H  H666  1  0.719300  0.539800  0.311000  1.0  0.2949
  H  H667  1  0.764400  0.493600  0.380800  1.0  0.2947
  H  H668  1  0.760600  0.493100  0.340300  1.0  0.3175
  H  H669  1  0.086000  0.952200  0.346900  1.0  0.248
  H  H670  1  0.144400  0.021400  0.379100  1.0  0.3115
  H  H671  1  0.134600  0.982700  0.386900  1.0  0.344
  H  H672  1  0.219300  0.039800  0.311000  1.0  0.2949
  H  H673  1  0.264400  0.993600  0.380800  1.0  0.2947
  H  H674  1  0.260600  0.993100  0.340300  1.0  0.3175
  H  H675  1  0.086000  0.452200  0.846900  1.0  0.248
  H  H676  1  0.144400  0.521400  0.879100  1.0  0.3115
  H  H677  1  0.134600  0.482700  0.886900  1.0  0.344
  H  H678  1  0.219300  0.539800  0.811000  1.0  0.2949
  H  H679  1  0.264400  0.493600  0.880800  1.0  0.2947
  H  H680  1  0.260600  0.493100  0.840300  1.0  0.3175
  H  H681  1  0.586000  0.047800  0.153100  1.0  0.249
  H  H682  1  0.644400  0.978600  0.120900  1.0  0.3121
  H  H683  1  0.634600  0.017300  0.113100  1.0  0.3446
  H  H684  1  0.719300  0.960200  0.189000  1.0  0.2946
  H  H685  1  0.764400  0.006400  0.119200  1.0  0.2923
  H  H686  1  0.760600  0.006900  0.159700  1.0  0.3194
  H  H687  1  0.586000  0.547800  0.653100  1.0  0.249
  H  H688  1  0.644400  0.478600  0.620900  1.0  0.3121
  H  H689  1  0.634600  0.517300  0.613100  1.0  0.3446
  H  H690  1  0.719300  0.460200  0.689000  1.0  0.296
  H  H691  1  0.764400  0.506400  0.619200  1.0  0.2922
  H  H692  1  0.760600  0.506900  0.659700  1.0  0.3194
  H  H693  1  0.086000  0.047800  0.653100  1.0  0.249
  H  H694  1  0.144400  0.978600  0.620900  1.0  0.3121
  H  H695  1  0.134600  0.017300  0.613100  1.0  0.3446
  H  H696  1  0.219300  0.960200  0.689000  1.0  0.296
  H  H697  1  0.264400  0.006400  0.619200  1.0  0.2922
  H  H698  1  0.260600  0.006900  0.659700  1.0  0.3194
  H  H699  1  0.086000  0.547800  0.153100  1.0  0.249
  H  H700  1  0.144400  0.478600  0.120900  1.0  0.3121
  H  H701  1  0.134600  0.517300  0.113100  1.0  0.3446
  H  H702  1  0.219300  0.460200  0.189000  1.0  0.2946
  H  H703  1  0.264400  0.506400  0.119200  1.0  0.2922
  H  H704  1  0.260600  0.506900  0.159700  1.0  0.3194
  H  H705  1  0.414000  0.047800  0.846900  1.0  0.2492
  H  H706  1  0.355600  0.978600  0.879100  1.0  0.3119
  H  H707  1  0.365400  0.017300  0.886900  1.0  0.3442
  H  H708  1  0.280700  0.960200  0.811000  1.0  0.2953
  H  H709  1  0.235600  0.006400  0.880800  1.0  0.2947
  H  H710  1  0.239400  0.006900  0.840300  1.0  0.3177
  H  H711  1  0.414000  0.547800  0.346900  1.0  0.2492
  H  H712  1  0.355600  0.478600  0.379100  1.0  0.3119
  H  H713  1  0.365400  0.517300  0.386900  1.0  0.3442
  H  H714  1  0.280700  0.460200  0.311000  1.0  0.2953
  H  H715  1  0.235600  0.506400  0.380800  1.0  0.2947
  H  H716  1  0.239400  0.506900  0.340300  1.0  0.3177
  H  H717  1  0.914000  0.047800  0.346900  1.0  0.2492
  H  H718  1  0.855600  0.978600  0.379100  1.0  0.3119
  H  H719  1  0.865400  0.017300  0.386900  1.0  0.3442
  H  H720  1  0.780700  0.960200  0.311000  1.0  0.2953
  H  H721  1  0.735600  0.006400  0.380800  1.0  0.2947
  H  H722  1  0.739400  0.006900  0.340300  1.0  0.3177
  H  H723  1  0.914000  0.547800  0.846900  1.0  0.2492
  H  H724  1  0.855600  0.478600  0.879100  1.0  0.3119
  H  H725  1  0.865400  0.517300  0.886900  1.0  0.3442
  H  H726  1  0.780700  0.460200  0.811000  1.0  0.2953
  H  H727  1  0.735600  0.506400  0.880800  1.0  0.2947
  H  H728  1  0.739400  0.506900  0.840300  1.0  0.3177
  H  H729  1  0.952200  0.153100  0.414000  1.0  0.2471
  H  H730  1  0.021400  0.120900  0.355600  1.0  0.3119
  H  H731  1  0.982700  0.113100  0.365400  1.0  0.3436
  H  H732  1  0.039800  0.189000  0.280700  1.0  0.2965
  H  H733  1  0.993600  0.119200  0.235600  1.0  0.2925
  H  H734  1  0.993100  0.159700  0.239400  1.0  0.318
  H  H735  1  0.952200  0.653100  0.914000  1.0  0.2471
  H  H736  1  0.021400  0.620900  0.855600  1.0  0.3119
  H  H737  1  0.982700  0.613100  0.865400  1.0  0.3436
  H  H738  1  0.039800  0.689000  0.780700  1.0  0.2977
  H  H739  1  0.993600  0.619200  0.735600  1.0  0.2925
  H  H740  1  0.993100  0.659700  0.739400  1.0  0.318
  H  H741  1  0.452200  0.153100  0.914000  1.0  0.2471
  H  H742  1  0.521400  0.120900  0.855600  1.0  0.3119
  H  H743  1  0.482700  0.113100  0.865400  1.0  0.3436
  H  H744  1  0.539800  0.189000  0.780700  1.0  0.2965
  H  H745  1  0.493600  0.119200  0.735600  1.0  0.2925
  H  H746  1  0.493100  0.159700  0.739400  1.0  0.318
  H  H747  1  0.452200  0.653100  0.414000  1.0  0.2471
  H  H748  1  0.521400  0.620900  0.355600  1.0  0.3119
  H  H749  1  0.482700  0.613100  0.365400  1.0  0.3436
  H  H750  1  0.539800  0.689000  0.280700  1.0  0.2977
  H  H751  1  0.493600  0.619200  0.235600  1.0  0.2925
  H  H752  1  0.493100  0.659700  0.239400  1.0  0.318
  H  H753  1  0.952200  0.846900  0.586000  1.0  0.2467
  H  H754  1  0.021400  0.879100  0.644400  1.0  0.3114
  H  H755  1  0.982700  0.886900  0.634600  1.0  0.3437
  H  H756  1  0.039800  0.811000  0.719300  1.0  0.2959
  H  H757  1  0.993600  0.880800  0.764400  1.0  0.293
  H  H758  1  0.993100  0.840300  0.760600  1.0  0.317
  H  H759  1  0.952200  0.346900  0.086000  1.0  0.2467
  H  H760  1  0.021400  0.379100  0.144400  1.0  0.3114
  H  H761  1  0.982700  0.386900  0.134600  1.0  0.3437
  H  H762  1  0.039800  0.311000  0.219300  1.0  0.2959
  H  H763  1  0.993600  0.380800  0.264400  1.0  0.293
  H  H764  1  0.993100  0.340300  0.260600  1.0  0.317
  H  H765  1  0.452200  0.846900  0.086000  1.0  0.2467
  H  H766  1  0.521400  0.879100  0.144400  1.0  0.3114
  H  H767  1  0.482700  0.886900  0.134600  1.0  0.3437
  H  H768  1  0.539800  0.811000  0.219300  1.0  0.2959
  H  H769  1  0.493600  0.880800  0.264400  1.0  0.293
  H  H770  1  0.493100  0.840300  0.260600  1.0  0.317
  H  H771  1  0.452200  0.346900  0.586000  1.0  0.2467
  H  H772  1  0.521400  0.379100  0.644400  1.0  0.3114
  H  H773  1  0.482700  0.386900  0.634600  1.0  0.3437
  H  H774  1  0.539800  0.311000  0.719300  1.0  0.2959
  H  H775  1  0.493600  0.380800  0.764400  1.0  0.293
  H  H776  1  0.493100  0.340300  0.760600  1.0  0.317
  H  H777  1  0.047800  0.153100  0.586000  1.0  0.2479
  H  H778  1  0.978600  0.120900  0.644400  1.0  0.3122
  H  H779  1  0.017300  0.113100  0.634600  1.0  0.3444
  H  H780  1  0.960200  0.189000  0.719300  1.0  0.2966
  H  H781  1  0.006400  0.119200  0.764400  1.0  0.2927
  H  H782  1  0.006900  0.159700  0.760600  1.0  0.3177
  H  H783  1  0.047800  0.653100  0.086000  1.0  0.2479
  H  H784  1  0.978600  0.620900  0.144400  1.0  0.3122
  H  H785  1  0.017300  0.613100  0.134600  1.0  0.3444
  H  H786  1  0.960200  0.689000  0.219300  1.0  0.2978
  H  H787  1  0.006400  0.619200  0.264400  1.0  0.2927
  H  H788  1  0.006900  0.659700  0.260600  1.0  0.3177
  H  H789  1  0.547800  0.153100  0.086000  1.0  0.2479
  H  H790  1  0.478600  0.120900  0.144400  1.0  0.3122
  H  H791  1  0.517300  0.113100  0.134600  1.0  0.3444
  H  H792  1  0.460200  0.189000  0.219300  1.0  0.2966
  H  H793  1  0.506400  0.119200  0.264400  1.0  0.2927
  H  H794  1  0.506900  0.159700  0.260600  1.0  0.3177
  H  H795  1  0.547800  0.653100  0.586000  1.0  0.2479
  H  H796  1  0.478600  0.620900  0.644400  1.0  0.3122
  H  H797  1  0.517300  0.613100  0.634600  1.0  0.3444
  H  H798  1  0.460200  0.689000  0.719300  1.0  0.2978
  H  H799  1  0.506400  0.619200  0.764400  1.0  0.2927
  H  H800  1  0.506900  0.659700  0.760600  1.0  0.3177
  H  H801  1  0.047800  0.846900  0.414000  1.0  0.2478
  H  H802  1  0.978600  0.879100  0.355600  1.0  0.3111
  H  H803  1  0.017300  0.886900  0.365400  1.0  0.3443
  H  H804  1  0.960200  0.811000  0.280700  1.0  0.2959
  H  H805  1  0.006400  0.880800  0.235600  1.0  0.292
  H  H806  1  0.006900  0.840300  0.239400  1.0  0.3161
  H  H807  1  0.047800  0.346900  0.914000  1.0  0.2478
  H  H808  1  0.978600  0.379100  0.855600  1.0  0.3111
  H  H809  1  0.017300  0.386900  0.865400  1.0  0.3443
  H  H810  1  0.960200  0.311000  0.780700  1.0  0.2959
  H  H811  1  0.006400  0.380800  0.735600  1.0  0.292
  H  H812  1  0.006900  0.340300  0.739400  1.0  0.3161
  H  H813  1  0.547800  0.846900  0.914000  1.0  0.2478
  H  H814  1  0.478600  0.879100  0.855600  1.0  0.3111
  H  H815  1  0.517300  0.886900  0.865400  1.0  0.3443
  H  H816  1  0.460200  0.811000  0.780700  1.0  0.2959
  H  H817  1  0.506400  0.880800  0.735600  1.0  0.292
  H  H818  1  0.506900  0.840300  0.739400  1.0  0.3161
  H  H819  1  0.547800  0.346900  0.414000  1.0  0.2478
  H  H820  1  0.478600  0.379100  0.355600  1.0  0.3111
  H  H821  1  0.517300  0.386900  0.365400  1.0  0.3443
  H  H822  1  0.460200  0.311000  0.280700  1.0  0.2959
  H  H823  1  0.506400  0.380800  0.235600  1.0  0.292
  H  H824  1  0.506900  0.340300  0.239400  1.0  0.3161
  C  C825  1  0.937120  0.689580  0.485720  1.0  0.2078
  C  C826  1  0.895140  0.652070  0.503720  1.0  0.3831
  C  C827  1  0.806050  0.654400  0.573100  1.0  0.1991
  C  C828  1  0.769160  0.636910  0.530090  1.0  0.3628
  C  C829  1  0.937120  0.189580  0.985720  1.0  0.2078
  C  C830  1  0.895140  0.152070  0.003720  1.0  0.3831
  C  C831  1  0.806050  0.154400  0.073100  1.0  0.2026
  C  C832  1  0.769160  0.136910  0.030090  1.0  0.36
  C  C833  1  0.437120  0.689580  0.985720  1.0  0.2078
  C  C834  1  0.395140  0.652070  0.003720  1.0  0.3831
  C  C835  1  0.306050  0.654400  0.073100  1.0  0.1991
  C  C836  1  0.269160  0.636910  0.030090  1.0  0.3628
  C  C837  1  0.437120  0.189580  0.485720  1.0  0.2078
  C  C838  1  0.395140  0.152070  0.503720  1.0  0.3831
  C  C839  1  0.306050  0.154400  0.573100  1.0  0.2026
  C  C840  1  0.269160  0.136910  0.530090  1.0  0.36
  C  C841  1  0.062880  0.310420  0.485720  1.0  0.208
  C  C842  1  0.104860  0.347930  0.503720  1.0  0.3824
  C  C843  1  0.193950  0.345600  0.573100  1.0  0.2025
  C  C844  1  0.230840  0.363090  0.530090  1.0  0.3589
  C  C845  1  0.062880  0.810420  0.985720  1.0  0.208
  C  C846  1  0.104860  0.847930  0.003720  1.0  0.3824
  C  C847  1  0.193950  0.845600  0.073100  1.0  0.2025
  C  C848  1  0.230840  0.863090  0.030090  1.0  0.3589
  C  C849  1  0.562880  0.310420  0.985720  1.0  0.2079
  C  C850  1  0.604860  0.347930  0.003720  1.0  0.3824
  C  C851  1  0.693950  0.345600  0.073100  1.0  0.2025
  C  C852  1  0.730840  0.363090  0.030090  1.0  0.3589
  C  C853  1  0.562880  0.810420  0.485720  1.0  0.2079
  C  C854  1  0.604860  0.847930  0.503720  1.0  0.3824
  C  C855  1  0.693950  0.845600  0.573100  1.0  0.2025
  C  C856  1  0.730840  0.863090  0.530090  1.0  0.3589
  C  C857  1  0.062880  0.689580  0.514280  1.0  0.2092
  C  C858  1  0.104860  0.652070  0.496280  1.0  0.3836
  C  C859  1  0.193950  0.654400  0.426900  1.0  0.1977
  C  C860  1  0.230840  0.636910  0.469910  1.0  0.3624
  C  C861  1  0.062880  0.189580  0.014280  1.0  0.2092
  C  C862  1  0.104860  0.152070  0.996280  1.0  0.3836
  C  C863  1  0.193950  0.154400  0.926900  1.0  0.2017
  C  C864  1  0.230840  0.136910  0.969910  1.0  0.3594
  C  C865  1  0.562880  0.689580  0.014280  1.0  0.2092
  C  C866  1  0.604860  0.652070  0.996280  1.0  0.3836
  C  C867  1  0.693950  0.654400  0.926900  1.0  0.1977
  C  C868  1  0.730840  0.636910  0.969910  1.0  0.3624
  C  C869  1  0.562880  0.189580  0.514280  1.0  0.2092
  C  C870  1  0.604860  0.152070  0.496280  1.0  0.3836
  C  C871  1  0.693950  0.154400  0.426900  1.0  0.2017
  C  C872  1  0.730840  0.136910  0.469910  1.0  0.3594
  C  C873  1  0.937120  0.310420  0.514280  1.0  0.2073
  C  C874  1  0.895140  0.347930  0.496280  1.0  0.3837
  C  C875  1  0.806050  0.345600  0.426900  1.0  0.2025
  C  C876  1  0.769160  0.363090  0.469910  1.0  0.36
  C  C877  1  0.937120  0.810420  0.014280  1.0  0.2073
  C  C878  1  0.895140  0.847930  0.996280  1.0  0.3837
  C  C879  1  0.806050  0.845600  0.926900  1.0  0.2025
  C  C880  1  0.769160  0.863090  0.969910  1.0  0.36
  C  C881  1  0.437120  0.310420  0.014280  1.0  0.2073
  C  C882  1  0.395140  0.347930  0.996280  1.0  0.3837
  C  C883  1  0.306050  0.345600  0.926900  1.0  0.2025
  C  C884  1  0.269160  0.363090  0.969910  1.0  0.36
  C  C885  1  0.437120  0.810420  0.514280  1.0  0.2073
  C  C886  1  0.395140  0.847930  0.496280  1.0  0.3837
  C  C887  1  0.306050  0.845600  0.426900  1.0  0.2025
  C  C888  1  0.269160  0.863090  0.469910  1.0  0.36
  C  C889  1  0.485720  0.937120  0.689580  1.0  0.2069
  C  C890  1  0.503720  0.895140  0.652070  1.0  0.3815
  C  C891  1  0.573100  0.806050  0.654400  1.0  0.2013
  C  C892  1  0.530090  0.769160  0.636910  1.0  0.3629
  C  C893  1  0.485720  0.437120  0.189580  1.0  0.2069
  C  C894  1  0.503720  0.395140  0.152070  1.0  0.3815
  C  C895  1  0.573100  0.306050  0.154400  1.0  0.2048
  C  C896  1  0.530090  0.269160  0.136910  1.0  0.3598
  C  C897  1  0.985720  0.937120  0.189580  1.0  0.2069
  C  C898  1  0.003720  0.895140  0.152070  1.0  0.3815
  C  C899  1  0.073100  0.806050  0.154400  1.0  0.2048
  C  C900  1  0.030090  0.769160  0.136910  1.0  0.3598
  C  C901  1  0.985720  0.437120  0.689580  1.0  0.2069
  C  C902  1  0.003720  0.395140  0.652070  1.0  0.3815
  C  C903  1  0.073100  0.306050  0.654400  1.0  0.2013
  C  C904  1  0.030090  0.269160  0.636910  1.0  0.3629
  C  C905  1  0.485720  0.062880  0.310420  1.0  0.2065
  C  C906  1  0.503720  0.104860  0.347930  1.0  0.3834
  C  C907  1  0.573100  0.193950  0.345600  1.0  0.2046
  C  C908  1  0.530090  0.230840  0.363090  1.0  0.3612
  C  C909  1  0.485720  0.562880  0.810420  1.0  0.2065
  C  C910  1  0.503720  0.604860  0.847930  1.0  0.3834
  C  C911  1  0.573100  0.693950  0.845600  1.0  0.2046
  C  C912  1  0.530090  0.730840  0.863090  1.0  0.3612
  C  C913  1  0.985720  0.062880  0.810420  1.0  0.2065
  C  C914  1  0.003720  0.104860  0.847930  1.0  0.3834
  C  C915  1  0.073100  0.193950  0.845600  1.0  0.2046
  C  C916  1  0.030090  0.230840  0.863090  1.0  0.3612
  C  C917  1  0.985720  0.562880  0.310420  1.0  0.2065
  C  C918  1  0.003720  0.604860  0.347930  1.0  0.3834
  C  C919  1  0.073100  0.693950  0.345600  1.0  0.2046
  C  C920  1  0.030090  0.730840  0.363090  1.0  0.3612
  C  C921  1  0.514280  0.062880  0.689580  1.0  0.2075
  C  C922  1  0.496280  0.104860  0.652070  1.0  0.3815
  C  C923  1  0.426900  0.193950  0.654400  1.0  0.202
  C  C924  1  0.469910  0.230840  0.636910  1.0  0.3631
  C  C925  1  0.514280  0.562880  0.189580  1.0  0.2075
  C  C926  1  0.496280  0.604860  0.152070  1.0  0.3815
  C  C927  1  0.426900  0.693950  0.154400  1.0  0.2054
  C  C928  1  0.469910  0.730840  0.136910  1.0  0.3601
  C  C929  1  0.014280  0.062880  0.189580  1.0  0.2075
  C  C930  1  0.996280  0.104860  0.152070  1.0  0.3815
  C  C931  1  0.926900  0.193950  0.154400  1.0  0.2054
  C  C932  1  0.969910  0.230840  0.136910  1.0  0.3601
  C  C933  1  0.014280  0.562880  0.689580  1.0  0.2075
  C  C934  1  0.996280  0.604860  0.652070  1.0  0.3815
  C  C935  1  0.926900  0.693950  0.654400  1.0  0.202
  C  C936  1  0.969910  0.730840  0.636910  1.0  0.3631
  C  C937  1  0.514280  0.937120  0.310420  1.0  0.2071
  C  C938  1  0.496280  0.895140  0.347930  1.0  0.3823
  C  C939  1  0.426900  0.806050  0.345600  1.0  0.2052
  C  C940  1  0.469910  0.769160  0.363090  1.0  0.3616
  C  C941  1  0.514280  0.437120  0.810420  1.0  0.2071
  C  C942  1  0.496280  0.395140  0.847930  1.0  0.3823
  C  C943  1  0.426900  0.306050  0.845600  1.0  0.2052
  C  C944  1  0.469910  0.269160  0.863090  1.0  0.3616
  C  C945  1  0.014280  0.937120  0.810420  1.0  0.2071
  C  C946  1  0.996280  0.895140  0.847930  1.0  0.3823
  C  C947  1  0.926900  0.806050  0.845600  1.0  0.2052
  C  C948  1  0.969910  0.769160  0.863090  1.0  0.3616
  C  C949  1  0.014280  0.437120  0.310420  1.0  0.2071
  C  C950  1  0.996280  0.395140  0.347930  1.0  0.3823
  C  C951  1  0.926900  0.306050  0.345600  1.0  0.2052
  C  C952  1  0.969910  0.269160  0.363090  1.0  0.3616
  C  C953  1  0.689580  0.485720  0.937120  1.0  0.2079
  C  C954  1  0.652070  0.503720  0.895140  1.0  0.383
  C  C955  1  0.654400  0.573100  0.806050  1.0  0.1993
  C  C956  1  0.636910  0.530090  0.769160  1.0  0.3624
  C  C957  1  0.689580  0.985720  0.437120  1.0  0.2079
  C  C958  1  0.652070  0.003720  0.395140  1.0  0.383
  C  C959  1  0.654400  0.073100  0.306050  1.0  0.1993
  C  C960  1  0.636910  0.030090  0.269160  1.0  0.3624
  C  C961  1  0.189580  0.485720  0.437120  1.0  0.2079
  C  C962  1  0.152070  0.503720  0.395140  1.0  0.383
  C  C963  1  0.154400  0.573100  0.306050  1.0  0.2027
  C  C964  1  0.136910  0.530090  0.269160  1.0  0.3591
  C  C965  1  0.189580  0.985720  0.937120  1.0  0.2079
  C  C966  1  0.152070  0.003720  0.895140  1.0  0.383
  C  C967  1  0.154400  0.073100  0.806050  1.0  0.2027
  C  C968  1  0.136910  0.030090  0.769160  1.0  0.3591
  C  C969  1  0.310420  0.485720  0.062880  1.0  0.2074
  C  C970  1  0.347930  0.503720  0.104860  1.0  0.3842
  C  C971  1  0.345600  0.573100  0.193950  1.0  0.2023
  C  C972  1  0.363090  0.530090  0.230840  1.0  0.3608
  C  C973  1  0.310420  0.985720  0.562880  1.0  0.2074
  C  C974  1  0.347930  0.003720  0.604860  1.0  0.3842
  C  C975  1  0.345600  0.073100  0.693950  1.0  0.2023
  C  C976  1  0.363090  0.030090  0.730840  1.0  0.3608
  C  C977  1  0.810420  0.485720  0.562880  1.0  0.2074
  C  C978  1  0.847930  0.503720  0.604860  1.0  0.3842
  C  C979  1  0.845600  0.573100  0.693950  1.0  0.2023
  C  C980  1  0.863090  0.530090  0.730840  1.0  0.3608
  C  C981  1  0.810420  0.985720  0.062880  1.0  0.2074
  C  C982  1  0.847930  0.003720  0.104860  1.0  0.3842
  C  C983  1  0.845600  0.073100  0.193950  1.0  0.2023
  C  C984  1  0.863090  0.030090  0.230840  1.0  0.3608
  C  C985  1  0.689580  0.514280  0.062880  1.0  0.2096
  C  C986  1  0.652070  0.496280  0.104860  1.0  0.3838
  C  C987  1  0.654400  0.426900  0.193950  1.0  0.2019
  C  C988  1  0.636910  0.469910  0.230840  1.0  0.3619
  C  C989  1  0.689580  0.014280  0.562880  1.0  0.2096
  C  C990  1  0.652070  0.996280  0.604860  1.0  0.3838
  C  C991  1  0.654400  0.926900  0.693950  1.0  0.2019
  C  C992  1  0.636910  0.969910  0.730840  1.0  0.3619
  C  C993  1  0.189580  0.514280  0.562880  1.0  0.2096
  C  C994  1  0.152070  0.496280  0.604860  1.0  0.3838
  C  C995  1  0.154400  0.426900  0.693950  1.0  0.2056
  C  C996  1  0.136910  0.469910  0.730840  1.0  0.3585
  C  C997  1  0.189580  0.014280  0.062880  1.0  0.2096
  C  C998  1  0.152070  0.996280  0.104860  1.0  0.3838
  C  C999  1  0.154400  0.926900  0.193950  1.0  0.2056
  C  C1000  1  0.136910  0.969910  0.230840  1.0  0.3585
  C  C1001  1  0.310420  0.514280  0.937120  1.0  0.207
  C  C1002  1  0.347930  0.496280  0.895140  1.0  0.3821
  C  C1003  1  0.345600  0.426900  0.806050  1.0  0.2025
  C  C1004  1  0.363090  0.469910  0.769160  1.0  0.3614
  C  C1005  1  0.310420  0.014280  0.437120  1.0  0.207
  C  C1006  1  0.347930  0.996280  0.395140  1.0  0.3821
  C  C1007  1  0.345600  0.926900  0.306050  1.0  0.2025
  C  C1008  1  0.363090  0.969910  0.269160  1.0  0.3614
  C  C1009  1  0.810420  0.514280  0.437120  1.0  0.207
  C  C1010  1  0.847930  0.496280  0.395140  1.0  0.3821
  C  C1011  1  0.845600  0.426900  0.306050  1.0  0.2025
  C  C1012  1  0.863090  0.469910  0.269160  1.0  0.3614
  C  C1013  1  0.810420  0.014280  0.937120  1.0  0.207
  C  C1014  1  0.847930  0.996280  0.895140  1.0  0.3821
  C  C1015  1  0.845600  0.926900  0.806050  1.0  0.2025
  C  C1016  1  0.863090  0.969910  0.769160  1.0  0.3614
  C  C1017  1  0.189580  0.437120  0.985720  1.0  0.2106
  C  C1018  1  0.152070  0.395140  0.003720  1.0  0.384
  C  C1019  1  0.154400  0.306050  0.073100  1.0  0.207
  C  C1020  1  0.136910  0.269160  0.030090  1.0  0.3582
  C  C1021  1  0.189580  0.937120  0.485720  1.0  0.2106
  C  C1022  1  0.152070  0.895140  0.503720  1.0  0.384
  C  C1023  1  0.154400  0.806050  0.573100  1.0  0.207
  C  C1024  1  0.136910  0.769160  0.530090  1.0  0.3582
  C  C1025  1  0.689580  0.437120  0.485720  1.0  0.2106
  C  C1026  1  0.652070  0.395140  0.503720  1.0  0.384
  C  C1027  1  0.654400  0.306050  0.573100  1.0  0.2033
  C  C1028  1  0.636910  0.269160  0.530090  1.0  0.3615
  C  C1029  1  0.689580  0.937120  0.985720  1.0  0.2106
  C  C1030  1  0.652070  0.895140  0.003720  1.0  0.384
  C  C1031  1  0.654400  0.806050  0.073100  1.0  0.2033
  C  C1032  1  0.636910  0.769160  0.030090  1.0  0.3615
  C  C1033  1  0.810420  0.562880  0.985720  1.0  0.211
  C  C1034  1  0.847930  0.604860  0.003720  1.0  0.3841
  C  C1035  1  0.845600  0.693950  0.073100  1.0  0.2054
  C  C1036  1  0.863090  0.730840  0.030090  1.0  0.3605
  C  C1037  1  0.810420  0.062880  0.485720  1.0  0.211
  C  C1038  1  0.847930  0.104860  0.503720  1.0  0.3841
  C  C1039  1  0.845600  0.193950  0.573100  1.0  0.2054
  C  C1040  1  0.863090  0.230840  0.530090  1.0  0.3605
  C  C1041  1  0.310420  0.562880  0.485720  1.0  0.211
  C  C1042  1  0.347930  0.604860  0.503720  1.0  0.3841
  C  C1043  1  0.345600  0.693950  0.573100  1.0  0.2054
  C  C1044  1  0.363090  0.730840  0.530090  1.0  0.3605
  C  C1045  1  0.310420  0.062880  0.985720  1.0  0.211
  C  C1046  1  0.347930  0.104860  0.003720  1.0  0.3841
  C  C1047  1  0.345600  0.193950  0.073100  1.0  0.2054
  C  C1048  1  0.363090  0.230840  0.030090  1.0  0.3605
  C  C1049  1  0.189580  0.562880  0.014280  1.0  0.2116
  C  C1050  1  0.152070  0.604860  0.996280  1.0  0.3847
  C  C1051  1  0.154400  0.693950  0.926900  1.0  0.2049
  C  C1052  1  0.136910  0.730840  0.969910  1.0  0.3589
  C  C1053  1  0.189580  0.062880  0.514280  1.0  0.2116
  C  C1054  1  0.152070  0.104860  0.496280  1.0  0.3847
  C  C1055  1  0.154400  0.193950  0.426900  1.0  0.2049
  C  C1056  1  0.136910  0.230840  0.469910  1.0  0.3589
  C  C1057  1  0.689580  0.562880  0.514280  1.0  0.2116
  C  C1058  1  0.652070  0.604860  0.496280  1.0  0.3847
  C  C1059  1  0.654400  0.693950  0.426900  1.0  0.2009
  C  C1060  1  0.636910  0.730840  0.469910  1.0  0.3622
  C  C1061  1  0.689580  0.062880  0.014280  1.0  0.2116
  C  C1062  1  0.652070  0.104860  0.996280  1.0  0.3847
  C  C1063  1  0.654400  0.193950  0.926900  1.0  0.2009
  C  C1064  1  0.636910  0.230840  0.969910  1.0  0.3622
  C  C1065  1  0.810420  0.437120  0.014280  1.0  0.211
  C  C1066  1  0.847930  0.395140  0.996280  1.0  0.3837
  C  C1067  1  0.845600  0.306050  0.926900  1.0  0.2056
  C  C1068  1  0.863090  0.269160  0.969910  1.0  0.361
  C  C1069  1  0.810420  0.937120  0.514280  1.0  0.211
  C  C1070  1  0.847930  0.895140  0.496280  1.0  0.3837
  C  C1071  1  0.845600  0.806050  0.426900  1.0  0.2056
  C  C1072  1  0.863090  0.769160  0.469910  1.0  0.361
  C  C1073  1  0.310420  0.437120  0.514280  1.0  0.211
  C  C1074  1  0.347930  0.395140  0.496280  1.0  0.3837
  C  C1075  1  0.345600  0.306050  0.426900  1.0  0.2056
  C  C1076  1  0.363090  0.269160  0.469910  1.0  0.361
  C  C1077  1  0.310420  0.937120  0.014280  1.0  0.211
  C  C1078  1  0.347930  0.895140  0.996280  1.0  0.3837
  C  C1079  1  0.345600  0.806050  0.926900  1.0  0.2056
  C  C1080  1  0.363090  0.769160  0.969910  1.0  0.361
  C  C1081  1  0.437120  0.985720  0.189580  1.0  0.2038
  C  C1082  1  0.395140  0.003720  0.152070  1.0  0.3817
  C  C1083  1  0.306050  0.073100  0.154400  1.0  0.2027
  C  C1084  1  0.269160  0.030090  0.136910  1.0  0.3592
  C  C1085  1  0.437120  0.485720  0.689580  1.0  0.2038
  C  C1086  1  0.395140  0.503720  0.652070  1.0  0.3817
  C  C1087  1  0.306050  0.573100  0.654400  1.0  0.1995
  C  C1088  1  0.269160  0.530090  0.636910  1.0  0.3622
  C  C1089  1  0.937120  0.985720  0.689580  1.0  0.2038
  C  C1090  1  0.895140  0.003720  0.652070  1.0  0.3817
  C  C1091  1  0.806050  0.073100  0.654400  1.0  0.1995
  C  C1092  1  0.769160  0.030090  0.636910  1.0  0.3622
  C  C1093  1  0.937120  0.485720  0.189580  1.0  0.2038
  C  C1094  1  0.895140  0.503720  0.152070  1.0  0.3817
  C  C1095  1  0.806050  0.573100  0.154400  1.0  0.2027
  C  C1096  1  0.769160  0.530090  0.136910  1.0  0.3592
  C  C1097  1  0.562880  0.985720  0.810420  1.0  0.2039
  C  C1098  1  0.604860  0.003720  0.847930  1.0  0.3831
  C  C1099  1  0.693950  0.073100  0.845600  1.0  0.2009
  C  C1100  1  0.730840  0.030090  0.863090  1.0  0.36
  C  C1101  1  0.562880  0.485720  0.310420  1.0  0.2039
  C  C1102  1  0.604860  0.503720  0.347930  1.0  0.3831
  C  C1103  1  0.693950  0.573100  0.345600  1.0  0.2009
  C  C1104  1  0.730840  0.530090  0.363090  1.0  0.36
  C  C1105  1  0.062880  0.985720  0.310420  1.0  0.2039
  C  C1106  1  0.104860  0.003720  0.347930  1.0  0.3831
  C  C1107  1  0.193950  0.073100  0.345600  1.0  0.2009
  C  C1108  1  0.230840  0.030090  0.363090  1.0  0.36
  C  C1109  1  0.062880  0.485720  0.810420  1.0  0.2039
  C  C1110  1  0.104860  0.503720  0.847930  1.0  0.3831
  C  C1111  1  0.193950  0.573100  0.845600  1.0  0.2009
  C  C1112  1  0.230840  0.530090  0.863090  1.0  0.36
  C  C1113  1  0.562880  0.014280  0.189580  1.0  0.2056
  C  C1114  1  0.604860  0.996280  0.152070  1.0  0.3809
  C  C1115  1  0.693950  0.926900  0.154400  1.0  0.2025
  C  C1116  1  0.730840  0.969910  0.136910  1.0  0.3588
  C  C1117  1  0.562880  0.514280  0.689580  1.0  0.2056
  C  C1118  1  0.604860  0.496280  0.652070  1.0  0.3809
  C  C1119  1  0.693950  0.426900  0.654400  1.0  0.1987
  C  C1120  1  0.730840  0.469910  0.636910  1.0  0.3618
  C  C1121  1  0.062880  0.014280  0.689580  1.0  0.2056
  C  C1122  1  0.104860  0.996280  0.652070  1.0  0.3809
  C  C1123  1  0.193950  0.926900  0.654400  1.0  0.1987
  C  C1124  1  0.230840  0.969910  0.636910  1.0  0.3618
  C  C1125  1  0.062880  0.514280  0.189580  1.0  0.2056
  C  C1126  1  0.104860  0.496280  0.152070  1.0  0.3809
  C  C1127  1  0.193950  0.426900  0.154400  1.0  0.2025
  C  C1128  1  0.230840  0.469910  0.136910  1.0  0.3588
  C  C1129  1  0.437120  0.014280  0.810420  1.0  0.2031
  C  C1130  1  0.395140  0.996280  0.847930  1.0  0.3826
  C  C1131  1  0.306050  0.926900  0.845600  1.0  0.2041
  C  C1132  1  0.269160  0.969910  0.863090  1.0  0.3611
  C  C1133  1  0.437120  0.514280  0.310420  1.0  0.2031
  C  C1134  1  0.395140  0.496280  0.347930  1.0  0.3826
  C  C1135  1  0.306050  0.426900  0.345600  1.0  0.2041
  C  C1136  1  0.269160  0.469910  0.363090  1.0  0.3611
  C  C1137  1  0.937120  0.014280  0.310420  1.0  0.2031
  C  C1138  1  0.895140  0.996280  0.347930  1.0  0.3826
  C  C1139  1  0.806050  0.926900  0.345600  1.0  0.2041
  C  C1140  1  0.769160  0.969910  0.363090  1.0  0.3611
  C  C1141  1  0.937120  0.514280  0.810420  1.0  0.2031
  C  C1142  1  0.895140  0.496280  0.847930  1.0  0.3826
  C  C1143  1  0.806050  0.426900  0.845600  1.0  0.2041
  C  C1144  1  0.769160  0.469910  0.863090  1.0  0.3611
  C  C1145  1  0.985720  0.189580  0.437120  1.0  0.2069
  C  C1146  1  0.003720  0.152070  0.395140  1.0  0.3821
  C  C1147  1  0.073100  0.154400  0.306050  1.0  0.2011
  C  C1148  1  0.030090  0.136910  0.269160  1.0  0.3609
  C  C1149  1  0.985720  0.689580  0.937120  1.0  0.2069
  C  C1150  1  0.003720  0.652070  0.895140  1.0  0.3821
  C  C1151  1  0.073100  0.654400  0.806050  1.0  0.1978
  C  C1152  1  0.030090  0.636910  0.769160  1.0  0.3639
  C  C1153  1  0.485720  0.189580  0.937120  1.0  0.2069
  C  C1154  1  0.503720  0.152070  0.895140  1.0  0.3821
  C  C1155  1  0.573100  0.154400  0.806050  1.0  0.2011
  C  C1156  1  0.530090  0.136910  0.769160  1.0  0.3609
  C  C1157  1  0.485720  0.689580  0.437120  1.0  0.2069
  C  C1158  1  0.503720  0.652070  0.395140  1.0  0.3821
  C  C1159  1  0.573100  0.654400  0.306050  1.0  0.1978
  C  C1160  1  0.530090  0.636910  0.269160  1.0  0.3639
  C  C1161  1  0.985720  0.810420  0.562880  1.0  0.2083
  C  C1162  1  0.003720  0.847930  0.604860  1.0  0.3826
  C  C1163  1  0.073100  0.845600  0.693950  1.0  0.2033
  C  C1164  1  0.030090  0.863090  0.730840  1.0  0.3599
  C  C1165  1  0.985720  0.310420  0.062880  1.0  0.2084
  C  C1166  1  0.003720  0.347930  0.104860  1.0  0.3826
  C  C1167  1  0.073100  0.345600  0.193950  1.0  0.2033
  C  C1168  1  0.030090  0.363090  0.230840  1.0  0.3599
  C  C1169  1  0.485720  0.810420  0.062880  1.0  0.2084
  C  C1170  1  0.503720  0.847930  0.104860  1.0  0.3826
  C  C1171  1  0.573100  0.845600  0.193950  1.0  0.2033
  C  C1172  1  0.530090  0.863090  0.230840  1.0  0.3599
  C  C1173  1  0.485720  0.310420  0.562880  1.0  0.2083
  C  C1174  1  0.503720  0.347930  0.604860  1.0  0.3826
  C  C1175  1  0.573100  0.345600  0.693950  1.0  0.2033
  C  C1176  1  0.530090  0.363090  0.730840  1.0  0.3599
  C  C1177  1  0.014280  0.189580  0.562880  1.0  0.2096
  C  C1178  1  0.996280  0.152070  0.604860  1.0  0.3828
  C  C1179  1  0.926900  0.154400  0.693950  1.0  0.202
  C  C1180  1  0.969910  0.136910  0.730840  1.0  0.3609
  C  C1181  1  0.014280  0.689580  0.062880  1.0  0.2096
  C  C1182  1  0.996280  0.652070  0.104860  1.0  0.3828
  C  C1183  1  0.926900  0.654400  0.193950  1.0  0.1984
  C  C1184  1  0.969910  0.636910  0.230840  1.0  0.3639
  C  C1185  1  0.514280  0.189580  0.062880  1.0  0.2096
  C  C1186  1  0.496280  0.152070  0.104860  1.0  0.3828
  C  C1187  1  0.426900  0.154400  0.193950  1.0  0.202
  C  C1188  1  0.469910  0.136910  0.230840  1.0  0.3609
  C  C1189  1  0.514280  0.689580  0.562880  1.0  0.2096
  C  C1190  1  0.496280  0.652070  0.604860  1.0  0.3828
  C  C1191  1  0.426900  0.654400  0.693950  1.0  0.1984
  C  C1192  1  0.469910  0.636910  0.730840  1.0  0.3639
  C  C1193  1  0.014280  0.810420  0.437120  1.0  0.207
  C  C1194  1  0.996280  0.847930  0.395140  1.0  0.3813
  C  C1195  1  0.926900  0.845600  0.306050  1.0  0.2031
  C  C1196  1  0.969910  0.863090  0.269160  1.0  0.3606
  C  C1197  1  0.014280  0.310420  0.937120  1.0  0.207
  C  C1198  1  0.996280  0.347930  0.895140  1.0  0.3813
  C  C1199  1  0.926900  0.345600  0.806050  1.0  0.2031
  C  C1200  1  0.969910  0.363090  0.769160  1.0  0.3606
  C  C1201  1  0.514280  0.810420  0.937120  1.0  0.207
  C  C1202  1  0.496280  0.847930  0.895140  1.0  0.3813
  C  C1203  1  0.426900  0.845600  0.806050  1.0  0.2031
  C  C1204  1  0.469910  0.863090  0.769160  1.0  0.3606
  C  C1205  1  0.514280  0.310420  0.437120  1.0  0.207
  C  C1206  1  0.496280  0.347930  0.395140  1.0  0.3813
  C  C1207  1  0.426900  0.345600  0.306050  1.0  0.2031
  C  C1208  1  0.469910  0.363090  0.269160  1.0  0.3606
  S  S1209  1  0.968560  0.711260  0.457320  1.0  -0.1325
  S  S1210  1  0.830970  0.683080  0.601150  1.0  -0.2604
  S  S1211  1  0.968560  0.211260  0.957320  1.0  -0.1325
  S  S1212  1  0.830970  0.183080  0.101150  1.0  -0.2627
  S  S1213  1  0.468560  0.711260  0.957320  1.0  -0.1325
  S  S1214  1  0.330970  0.683080  0.101150  1.0  -0.2604
  S  S1215  1  0.468560  0.211260  0.457320  1.0  -0.1325
  S  S1216  1  0.330970  0.183080  0.601150  1.0  -0.2627
  S  S1217  1  0.031440  0.288740  0.457320  1.0  -0.1316
  S  S1218  1  0.169030  0.316920  0.601150  1.0  -0.2609
  S  S1219  1  0.031440  0.788740  0.957320  1.0  -0.1316
  S  S1220  1  0.169030  0.816920  0.101150  1.0  -0.2609
  S  S1221  1  0.531440  0.288740  0.957320  1.0  -0.1316
  S  S1222  1  0.669030  0.316920  0.101150  1.0  -0.2609
  S  S1223  1  0.531440  0.788740  0.457320  1.0  -0.1316
  S  S1224  1  0.669030  0.816920  0.601150  1.0  -0.2609
  S  S1225  1  0.031440  0.711260  0.542680  1.0  -0.1313
  S  S1226  1  0.169030  0.683080  0.398850  1.0  -0.2585
  S  S1227  1  0.031440  0.211260  0.042680  1.0  -0.1313
  S  S1228  1  0.169030  0.183080  0.898850  1.0  -0.2608
  S  S1229  1  0.531440  0.711260  0.042680  1.0  -0.1313
  S  S1230  1  0.669030  0.683080  0.898850  1.0  -0.2585
  S  S1231  1  0.531440  0.211260  0.542680  1.0  -0.1313
  S  S1232  1  0.669030  0.183080  0.398850  1.0  -0.2608
  S  S1233  1  0.968560  0.288740  0.542680  1.0  -0.1325
  S  S1234  1  0.830970  0.316920  0.398850  1.0  -0.2604
  S  S1235  1  0.968560  0.788740  0.042680  1.0  -0.1325
  S  S1236  1  0.830970  0.816920  0.898850  1.0  -0.2604
  S  S1237  1  0.468560  0.288740  0.042680  1.0  -0.1325
  S  S1238  1  0.330970  0.316920  0.898850  1.0  -0.2604
  S  S1239  1  0.468560  0.788740  0.542680  1.0  -0.1325
  S  S1240  1  0.330970  0.816920  0.398850  1.0  -0.2604
  S  S1241  1  0.457320  0.968560  0.711260  1.0  -0.1361
  S  S1242  1  0.601150  0.830970  0.683080  1.0  -0.2556
  S  S1243  1  0.457320  0.468560  0.211260  1.0  -0.1361
  S  S1244  1  0.601150  0.330970  0.183080  1.0  -0.2578
  S  S1245  1  0.957320  0.968560  0.211260  1.0  -0.1361
  S  S1246  1  0.101150  0.830970  0.183080  1.0  -0.2578
  S  S1247  1  0.957320  0.468560  0.711260  1.0  -0.1361
  S  S1248  1  0.101150  0.330970  0.683080  1.0  -0.2556
  S  S1249  1  0.457320  0.031440  0.288740  1.0  -0.1355
  S  S1250  1  0.601150  0.169030  0.316920  1.0  -0.2588
  S  S1251  1  0.457320  0.531440  0.788740  1.0  -0.1355
  S  S1252  1  0.601150  0.669030  0.816920  1.0  -0.2588
  S  S1253  1  0.957320  0.031440  0.788740  1.0  -0.1355
  S  S1254  1  0.101150  0.169030  0.816920  1.0  -0.2588
  S  S1255  1  0.957320  0.531440  0.288740  1.0  -0.1355
  S  S1256  1  0.101150  0.669030  0.316920  1.0  -0.2588
  S  S1257  1  0.542680  0.031440  0.711260  1.0  -0.1363
  S  S1258  1  0.398850  0.169030  0.683080  1.0  -0.2577
  S  S1259  1  0.542680  0.531440  0.211260  1.0  -0.1363
  S  S1260  1  0.398850  0.669030  0.183080  1.0  -0.2599
  S  S1261  1  0.042680  0.031440  0.211260  1.0  -0.1363
  S  S1262  1  0.898850  0.169030  0.183080  1.0  -0.2599
  S  S1263  1  0.042680  0.531440  0.711260  1.0  -0.1363
  S  S1264  1  0.898850  0.669030  0.683080  1.0  -0.2577
  S  S1265  1  0.542680  0.968560  0.288740  1.0  -0.1345
  S  S1266  1  0.398850  0.830970  0.316920  1.0  -0.2593
  S  S1267  1  0.542680  0.468560  0.788740  1.0  -0.1345
  S  S1268  1  0.398850  0.330970  0.816920  1.0  -0.2593
  S  S1269  1  0.042680  0.968560  0.788740  1.0  -0.1345
  S  S1270  1  0.898850  0.830970  0.816920  1.0  -0.2593
  S  S1271  1  0.042680  0.468560  0.288740  1.0  -0.1345
  S  S1272  1  0.898850  0.330970  0.316920  1.0  -0.2593
  S  S1273  1  0.711260  0.457320  0.968560  1.0  -0.1359
  S  S1274  1  0.683080  0.601150  0.830970  1.0  -0.2534
  S  S1275  1  0.711260  0.957320  0.468560  1.0  -0.1359
  S  S1276  1  0.683080  0.101150  0.330970  1.0  -0.2534
  S  S1277  1  0.211260  0.457320  0.468560  1.0  -0.1359
  S  S1278  1  0.183080  0.601150  0.330970  1.0  -0.2557
  S  S1279  1  0.211260  0.957320  0.968560  1.0  -0.1359
  S  S1280  1  0.183080  0.101150  0.830970  1.0  -0.2557
  S  S1281  1  0.288740  0.457320  0.031440  1.0  -0.1352
  S  S1282  1  0.316920  0.601150  0.169030  1.0  -0.2583
  S  S1283  1  0.288740  0.957320  0.531440  1.0  -0.1352
  S  S1284  1  0.316920  0.101150  0.669030  1.0  -0.2583
  S  S1285  1  0.788740  0.457320  0.531440  1.0  -0.1352
  S  S1286  1  0.816920  0.601150  0.669030  1.0  -0.2583
  S  S1287  1  0.788740  0.957320  0.031440  1.0  -0.1352
  S  S1288  1  0.816920  0.101150  0.169030  1.0  -0.2583
  S  S1289  1  0.711260  0.542680  0.031440  1.0  -0.1352
  S  S1290  1  0.683080  0.398850  0.169030  1.0  -0.2543
  S  S1291  1  0.711260  0.042680  0.531440  1.0  -0.1352
  S  S1292  1  0.683080  0.898850  0.669030  1.0  -0.2543
  S  S1293  1  0.211260  0.542680  0.531440  1.0  -0.1352
  S  S1294  1  0.183080  0.398850  0.669030  1.0  -0.2566
  S  S1295  1  0.211260  0.042680  0.031440  1.0  -0.1352
  S  S1296  1  0.183080  0.898850  0.169030  1.0  -0.2566
  S  S1297  1  0.288740  0.542680  0.968560  1.0  -0.1367
  S  S1298  1  0.316920  0.398850  0.830970  1.0  -0.2573
  S  S1299  1  0.288740  0.042680  0.468560  1.0  -0.1367
  S  S1300  1  0.316920  0.898850  0.330970  1.0  -0.2573
  S  S1301  1  0.788740  0.542680  0.468560  1.0  -0.1367
  S  S1302  1  0.816920  0.398850  0.330970  1.0  -0.2573
  S  S1303  1  0.788740  0.042680  0.968560  1.0  -0.1367
  S  S1304  1  0.816920  0.898850  0.830970  1.0  -0.2573
  S  S1305  1  0.211260  0.468560  0.957320  1.0  -0.1356
  S  S1306  1  0.183080  0.330970  0.101150  1.0  -0.2578
  S  S1307  1  0.211260  0.968560  0.457320  1.0  -0.1356
  S  S1308  1  0.183080  0.830970  0.601150  1.0  -0.2578
  S  S1309  1  0.711260  0.468560  0.457320  1.0  -0.1356
  S  S1310  1  0.683080  0.330970  0.601150  1.0  -0.2555
  S  S1311  1  0.711260  0.968560  0.957320  1.0  -0.1356
  S  S1312  1  0.683080  0.830970  0.101150  1.0  -0.2555
  S  S1313  1  0.788740  0.531440  0.957320  1.0  -0.1359
  S  S1314  1  0.816920  0.669030  0.101150  1.0  -0.26
  S  S1315  1  0.788740  0.031440  0.457320  1.0  -0.1359
  S  S1316  1  0.816920  0.169030  0.601150  1.0  -0.26
  S  S1317  1  0.288740  0.531440  0.457320  1.0  -0.1359
  S  S1318  1  0.316920  0.669030  0.601150  1.0  -0.26
  S  S1319  1  0.288740  0.031440  0.957320  1.0  -0.1359
  S  S1320  1  0.316920  0.169030  0.101150  1.0  -0.26
  S  S1321  1  0.211260  0.531440  0.042680  1.0  -0.1353
  S  S1322  1  0.183080  0.669030  0.898850  1.0  -0.2586
  S  S1323  1  0.211260  0.031440  0.542680  1.0  -0.1353
  S  S1324  1  0.183080  0.169030  0.398850  1.0  -0.2586
  S  S1325  1  0.711260  0.531440  0.542680  1.0  -0.1353
  S  S1326  1  0.683080  0.669030  0.398850  1.0  -0.2564
  S  S1327  1  0.711260  0.031440  0.042680  1.0  -0.1353
  S  S1328  1  0.683080  0.169030  0.898850  1.0  -0.2564
  S  S1329  1  0.788740  0.468560  0.042680  1.0  -0.1351
  S  S1330  1  0.816920  0.330970  0.898850  1.0  -0.2588
  S  S1331  1  0.788740  0.968560  0.542680  1.0  -0.1351
  S  S1332  1  0.816920  0.830970  0.398850  1.0  -0.2588
  S  S1333  1  0.288740  0.468560  0.542680  1.0  -0.1351
  S  S1334  1  0.316920  0.330970  0.398850  1.0  -0.2588
  S  S1335  1  0.288740  0.968560  0.042680  1.0  -0.1351
  S  S1336  1  0.316920  0.830970  0.898850  1.0  -0.2588
  S  S1337  1  0.468560  0.957320  0.211260  1.0  -0.1337
  S  S1338  1  0.330970  0.101150  0.183080  1.0  -0.2619
  S  S1339  1  0.468560  0.457320  0.711260  1.0  -0.1337
  S  S1340  1  0.330970  0.601150  0.683080  1.0  -0.2597
  S  S1341  1  0.968560  0.957320  0.711260  1.0  -0.1337
  S  S1342  1  0.830970  0.101150  0.683080  1.0  -0.2597
  S  S1343  1  0.968560  0.457320  0.211260  1.0  -0.1337
  S  S1344  1  0.830970  0.601150  0.183080  1.0  -0.2619
  S  S1345  1  0.531440  0.957320  0.788740  1.0  -0.1313
  S  S1346  1  0.669030  0.101150  0.816920  1.0  -0.2607
  S  S1347  1  0.531440  0.457320  0.288740  1.0  -0.1313
  S  S1348  1  0.669030  0.601150  0.316920  1.0  -0.2607
  S  S1349  1  0.031440  0.957320  0.288740  1.0  -0.1313
  S  S1350  1  0.169030  0.101150  0.316920  1.0  -0.2607
  S  S1351  1  0.031440  0.457320  0.788740  1.0  -0.1313
  S  S1352  1  0.169030  0.601150  0.816920  1.0  -0.2607
  S  S1353  1  0.531440  0.042680  0.211260  1.0  -0.1327
  S  S1354  1  0.669030  0.898850  0.183080  1.0  -0.2612
  S  S1355  1  0.531440  0.542680  0.711260  1.0  -0.1327
  S  S1356  1  0.669030  0.398850  0.683080  1.0  -0.2589
  S  S1357  1  0.031440  0.042680  0.711260  1.0  -0.1327
  S  S1358  1  0.169030  0.898850  0.683080  1.0  -0.2589
  S  S1359  1  0.031440  0.542680  0.211260  1.0  -0.1327
  S  S1360  1  0.169030  0.398850  0.183080  1.0  -0.2612
  S  S1361  1  0.468560  0.042680  0.788740  1.0  -0.1326
  S  S1362  1  0.330970  0.898850  0.816920  1.0  -0.2602
  S  S1363  1  0.468560  0.542680  0.288740  1.0  -0.1326
  S  S1364  1  0.330970  0.398850  0.316920  1.0  -0.2602
  S  S1365  1  0.968560  0.042680  0.288740  1.0  -0.1326
  S  S1366  1  0.830970  0.898850  0.316920  1.0  -0.2602
  S  S1367  1  0.968560  0.542680  0.788740  1.0  -0.1326
  S  S1368  1  0.830970  0.398850  0.816920  1.0  -0.2602
  S  S1369  1  0.957320  0.211260  0.468560  1.0  -0.1357
  S  S1370  1  0.101150  0.183080  0.330970  1.0  -0.256
  S  S1371  1  0.957320  0.711260  0.968560  1.0  -0.1357
  S  S1372  1  0.101150  0.683080  0.830970  1.0  -0.2537
  S  S1373  1  0.457320  0.211260  0.968560  1.0  -0.1357
  S  S1374  1  0.601150  0.183080  0.830970  1.0  -0.256
  S  S1375  1  0.457320  0.711260  0.468560  1.0  -0.1357
  S  S1376  1  0.601150  0.683080  0.330970  1.0  -0.2537
  S  S1377  1  0.957320  0.788740  0.531440  1.0  -0.1348
  S  S1378  1  0.101150  0.816920  0.669030  1.0  -0.2572
  S  S1379  1  0.957320  0.288740  0.031440  1.0  -0.1348
  S  S1380  1  0.101150  0.316920  0.169030  1.0  -0.2572
  S  S1381  1  0.457320  0.788740  0.031440  1.0  -0.1348
  S  S1382  1  0.601150  0.816920  0.169030  1.0  -0.2572
  S  S1383  1  0.457320  0.288740  0.531440  1.0  -0.1348
  S  S1384  1  0.601150  0.316920  0.669030  1.0  -0.2572
  S  S1385  1  0.042680  0.211260  0.531440  1.0  -0.1346
  S  S1386  1  0.898850  0.183080  0.669030  1.0  -0.2586
  S  S1387  1  0.042680  0.711260  0.031440  1.0  -0.1346
  S  S1388  1  0.898850  0.683080  0.169030  1.0  -0.2563
  S  S1389  1  0.542680  0.211260  0.031440  1.0  -0.1346
  S  S1390  1  0.398850  0.183080  0.169030  1.0  -0.2586
  S  S1391  1  0.542680  0.711260  0.531440  1.0  -0.1346
  S  S1392  1  0.398850  0.683080  0.669030  1.0  -0.2563
  S  S1393  1  0.042680  0.788740  0.468560  1.0  -0.1357
  S  S1394  1  0.898850  0.816920  0.330970  1.0  -0.2574
  S  S1395  1  0.042680  0.288740  0.968560  1.0  -0.1357
  S  S1396  1  0.898850  0.316920  0.830970  1.0  -0.2574
  S  S1397  1  0.542680  0.788740  0.968560  1.0  -0.1357
  S  S1398  1  0.398850  0.816920  0.830970  1.0  -0.2574
  S  S1399  1  0.542680  0.288740  0.468560  1.0  -0.1357
  S  S1400  1  0.398850  0.316920  0.330970  1.0  -0.2574
  I  I1401  1  0.903510  0.596490  0.596490  1.0  -0.1959
  I  I1402  1  0.903510  0.096490  0.096490  1.0  -0.1959
  I  I1403  1  0.096490  0.403510  0.596490  1.0  -0.1939
  I  I1404  1  0.096490  0.903510  0.096490  1.0  -0.1939
  I  I1405  1  0.096490  0.596490  0.403510  1.0  -0.1933
  I  I1406  1  0.096490  0.096490  0.903510  1.0  -0.1933
  I  I1407  1  0.903510  0.403510  0.403510  1.0  -0.1951
  I  I1408  1  0.903510  0.903510  0.903510  1.0  -0.1951
  I  I1409  1  0.596490  0.903510  0.596490  1.0  -0.1939
  I  I1410  1  0.596490  0.096490  0.403510  1.0  -0.1933
  I  I1411  1  0.403510  0.096490  0.596490  1.0  -0.1959
  I  I1412  1  0.403510  0.903510  0.403510  1.0  -0.1951
  I  I1413  1  0.596490  0.596490  0.903510  1.0  -0.1933
  I  I1414  1  0.403510  0.596490  0.096490  1.0  -0.1959
  I  I1415  1  0.596490  0.403510  0.096490  1.0  -0.1939
  I  I1416  1  0.403510  0.403510  0.903510  1.0  -0.1951
  I  I1417  1  0.096490  0.403510  0.096490  1.0  -0.1939
  I  I1418  1  0.903510  0.596490  0.096490  1.0  -0.1959
  I  I1419  1  0.096490  0.596490  0.903510  1.0  -0.1933
  I  I1420  1  0.903510  0.403510  0.903510  1.0  -0.1951
  I  I1421  1  0.403510  0.096490  0.096490  1.0  -0.1959
  I  I1422  1  0.403510  0.596490  0.596490  1.0  -0.1959
  I  I1423  1  0.596490  0.096490  0.903510  1.0  -0.1933
  I  I1424  1  0.596490  0.596490  0.403510  1.0  -0.1933
  I  I1425  1  0.596490  0.903510  0.096490  1.0  -0.1939
  I  I1426  1  0.596490  0.403510  0.596490  1.0  -0.1939
  I  I1427  1  0.403510  0.903510  0.903510  1.0  -0.1951
  I  I1428  1  0.403510  0.403510  0.403510  1.0  -0.1951
  I  I1429  1  0.096490  0.096490  0.403510  1.0  -0.1933
  I  I1430  1  0.096490  0.903510  0.596490  1.0  -0.1939
  I  I1431  1  0.903510  0.096490  0.596490  1.0  -0.1959
  I  I1432  1  0.903510  0.903510  0.403510  1.0  -0.1951
  N  N1433  1  0.930460  0.696390  0.519970  1.0  -0.2823
  N  N1434  1  0.902850  0.672200  0.531560  1.0  -0.3286
  N  N1435  1  0.915100  0.662130  0.473850  1.0  -0.2158
  N  N1436  1  0.868740  0.625350  0.502420  1.0  -0.7686
  N  N1437  1  0.804080  0.618430  0.574410  1.0  -0.3281
  N  N1438  1  0.780400  0.607390  0.546610  1.0  -0.3303
  N  N1439  1  0.784260  0.666667  0.545870  1.0  -0.2761
  N  N1440  1  0.745140  0.638830  0.502210  1.0  -0.7757
  N  N1441  1  0.930460  0.196390  0.019970  1.0  -0.2823
  N  N1442  1  0.902850  0.172200  0.031560  1.0  -0.3286
  N  N1443  1  0.915100  0.162130  0.973850  1.0  -0.2158
  N  N1444  1  0.868740  0.125350  0.002420  1.0  -0.7686
  N  N1445  1  0.804080  0.118430  0.074410  1.0  -0.3288
  N  N1446  1  0.780400  0.107390  0.046610  1.0  -0.3303
  N  N1447  1  0.784260  0.166600  0.045870  1.0  -0.2498
  N  N1448  1  0.745140  0.138830  0.002210  1.0  -0.7757
  N  N1449  1  0.430460  0.696390  0.019970  1.0  -0.2823
  N  N1450  1  0.402850  0.672200  0.031560  1.0  -0.3286
  N  N1451  1  0.415100  0.662130  0.973850  1.0  -0.2158
  N  N1452  1  0.368740  0.625350  0.002420  1.0  -0.7686
  N  N1453  1  0.304080  0.618430  0.074410  1.0  -0.3281
  N  N1454  1  0.280400  0.607390  0.046610  1.0  -0.3303
  N  N1455  1  0.284260  0.666667  0.045870  1.0  -0.2761
  N  N1456  1  0.245140  0.638830  0.002210  1.0  -0.7756
  N  N1457  1  0.430460  0.196390  0.519970  1.0  -0.2823
  N  N1458  1  0.402850  0.172200  0.531560  1.0  -0.3286
  N  N1459  1  0.415100  0.162130  0.473850  1.0  -0.2158
  N  N1460  1  0.368740  0.125350  0.502420  1.0  -0.7686
  N  N1461  1  0.304080  0.118430  0.574410  1.0  -0.3288
  N  N1462  1  0.280400  0.107390  0.546610  1.0  -0.3303
  N  N1463  1  0.284260  0.166600  0.545870  1.0  -0.2498
  N  N1464  1  0.245140  0.138830  0.502210  1.0  -0.7757
  N  N1465  1  0.069540  0.303610  0.519970  1.0  -0.2842
  N  N1466  1  0.097150  0.327800  0.531560  1.0  -0.3289
  N  N1467  1  0.084900  0.337870  0.473850  1.0  -0.2146
  N  N1468  1  0.131260  0.374650  0.502420  1.0  -0.7687
  N  N1469  1  0.195920  0.381570  0.574410  1.0  -0.3255
  N  N1470  1  0.219600  0.392610  0.546610  1.0  -0.3327
  N  N1471  1  0.215740  0.333400  0.545870  1.0  -0.2513
  N  N1472  1  0.254860  0.361170  0.502210  1.0  -0.7765
  N  N1473  1  0.069540  0.803610  0.019970  1.0  -0.2842
  N  N1474  1  0.097150  0.827800  0.031560  1.0  -0.3289
  N  N1475  1  0.084900  0.837870  0.973850  1.0  -0.2146
  N  N1476  1  0.131260  0.874650  0.002420  1.0  -0.7687
  N  N1477  1  0.195920  0.881570  0.074410  1.0  -0.3255
  N  N1478  1  0.219600  0.892610  0.046610  1.0  -0.3327
  N  N1479  1  0.215740  0.833400  0.045870  1.0  -0.2513
  N  N1480  1  0.254860  0.861170  0.002210  1.0  -0.7765
  N  N1481  1  0.569540  0.303610  0.019970  1.0  -0.2842
  N  N1482  1  0.597150  0.327800  0.031560  1.0  -0.3289
  N  N1483  1  0.584900  0.337870  0.973850  1.0  -0.2146
  N  N1484  1  0.631260  0.374650  0.002420  1.0  -0.7687
  N  N1485  1  0.695920  0.381570  0.074410  1.0  -0.3255
  N  N1486  1  0.719600  0.392610  0.046610  1.0  -0.3327
  N  N1487  1  0.715740  0.333400  0.045870  1.0  -0.2513
  N  N1488  1  0.754860  0.361170  0.002210  1.0  -0.7765
  N  N1489  1  0.569540  0.803610  0.519970  1.0  -0.2841
  N  N1490  1  0.597150  0.827800  0.531560  1.0  -0.3289
  N  N1491  1  0.584900  0.837870  0.473850  1.0  -0.2146
  N  N1492  1  0.631260  0.874650  0.502420  1.0  -0.7687
  N  N1493  1  0.695920  0.881570  0.574410  1.0  -0.3255
  N  N1494  1  0.719600  0.892610  0.546610  1.0  -0.3327
  N  N1495  1  0.715740  0.833400  0.545870  1.0  -0.2513
  N  N1496  1  0.754860  0.861170  0.502210  1.0  -0.7765
  N  N1497  1  0.069540  0.696390  0.480030  1.0  -0.2829
  N  N1498  1  0.097150  0.672200  0.468440  1.0  -0.3263
  N  N1499  1  0.084900  0.662130  0.526150  1.0  -0.2158
  N  N1500  1  0.131260  0.625350  0.497580  1.0  -0.7699
  N  N1501  1  0.195920  0.618430  0.425590  1.0  -0.3272
  N  N1502  1  0.219600  0.607390  0.453390  1.0  -0.3303
  N  N1503  1  0.215740  0.666667  0.454130  1.0  -0.2758
  N  N1504  1  0.254860  0.638830  0.497790  1.0  -0.7775
  N  N1505  1  0.069540  0.196390  0.980030  1.0  -0.2829
  N  N1506  1  0.097150  0.172200  0.968440  1.0  -0.3263
  N  N1507  1  0.084900  0.162130  0.026150  1.0  -0.2158
  N  N1508  1  0.131260  0.125350  0.997580  1.0  -0.7699
  N  N1509  1  0.195920  0.118430  0.925590  1.0  -0.3278
  N  N1510  1  0.219600  0.107390  0.953390  1.0  -0.3304
  N  N1511  1  0.215740  0.166600  0.954130  1.0  -0.2489
  N  N1512  1  0.254860  0.138830  0.997790  1.0  -0.7776
  N  N1513  1  0.569540  0.696390  0.980030  1.0  -0.2829
  N  N1514  1  0.597150  0.672200  0.968440  1.0  -0.3263
  N  N1515  1  0.584900  0.662130  0.026150  1.0  -0.2158
  N  N1516  1  0.631260  0.625350  0.997580  1.0  -0.7699
  N  N1517  1  0.695920  0.618430  0.925590  1.0  -0.3272
  N  N1518  1  0.719600  0.607390  0.953390  1.0  -0.3303
  N  N1519  1  0.715740  0.666667  0.954130  1.0  -0.2758
  N  N1520  1  0.754860  0.638830  0.997790  1.0  -0.7775
  N  N1521  1  0.569540  0.196390  0.480030  1.0  -0.2829
  N  N1522  1  0.597150  0.172200  0.468440  1.0  -0.3263
  N  N1523  1  0.584900  0.162130  0.526150  1.0  -0.2158
  N  N1524  1  0.631260  0.125350  0.497580  1.0  -0.7699
  N  N1525  1  0.695920  0.118430  0.425590  1.0  -0.3278
  N  N1526  1  0.719600  0.107390  0.453390  1.0  -0.3304
  N  N1527  1  0.715740  0.166600  0.454130  1.0  -0.2489
  N  N1528  1  0.754860  0.138830  0.497790  1.0  -0.7776
  N  N1529  1  0.930460  0.303610  0.480030  1.0  -0.2825
  N  N1530  1  0.902850  0.327800  0.468440  1.0  -0.3255
  N  N1531  1  0.915100  0.337870  0.526150  1.0  -0.2149
  N  N1532  1  0.868740  0.374650  0.497580  1.0  -0.7695
  N  N1533  1  0.804080  0.381570  0.425590  1.0  -0.3275
  N  N1534  1  0.780400  0.392610  0.453390  1.0  -0.3331
  N  N1535  1  0.784260  0.333400  0.454130  1.0  -0.2519
  N  N1536  1  0.745140  0.361170  0.497790  1.0  -0.776
  N  N1537  1  0.930460  0.803610  0.980030  1.0  -0.2825
  N  N1538  1  0.902850  0.827800  0.968440  1.0  -0.3255
  N  N1539  1  0.915100  0.837870  0.026150  1.0  -0.2149
  N  N1540  1  0.868740  0.874650  0.997580  1.0  -0.7695
  N  N1541  1  0.804080  0.881570  0.925590  1.0  -0.3275
  N  N1542  1  0.780400  0.892610  0.953390  1.0  -0.3331
  N  N1543  1  0.784260  0.833400  0.954130  1.0  -0.2519
  N  N1544  1  0.745140  0.861170  0.997790  1.0  -0.776
  N  N1545  1  0.430460  0.303610  0.980030  1.0  -0.2825
  N  N1546  1  0.402850  0.327800  0.968440  1.0  -0.3255
  N  N1547  1  0.415100  0.337870  0.026150  1.0  -0.2149
  N  N1548  1  0.368740  0.374650  0.997580  1.0  -0.7695
  N  N1549  1  0.304080  0.381570  0.925590  1.0  -0.3275
  N  N1550  1  0.280400  0.392610  0.953390  1.0  -0.3331
  N  N1551  1  0.284260  0.333400  0.954130  1.0  -0.2519
  N  N1552  1  0.245140  0.361170  0.997790  1.0  -0.776
  N  N1553  1  0.430460  0.803610  0.480030  1.0  -0.2825
  N  N1554  1  0.402850  0.827800  0.468440  1.0  -0.3255
  N  N1555  1  0.415100  0.837870  0.526150  1.0  -0.2149
  N  N1556  1  0.368740  0.874650  0.497580  1.0  -0.7695
  N  N1557  1  0.304080  0.881570  0.425590  1.0  -0.3275
  N  N1558  1  0.280400  0.892610  0.453390  1.0  -0.3331
  N  N1559  1  0.284260  0.833400  0.454130  1.0  -0.2519
  N  N1560  1  0.245140  0.861170  0.497790  1.0  -0.776
  N  N1561  1  0.519970  0.930460  0.696390  1.0  -0.2827
  N  N1562  1  0.531560  0.902850  0.672200  1.0  -0.3314
  N  N1563  1  0.473850  0.915100  0.662130  1.0  -0.216
  N  N1564  1  0.502420  0.868740  0.625350  1.0  -0.7694
  N  N1565  1  0.574410  0.804080  0.618430  1.0  -0.3266
  N  N1566  1  0.546610  0.780400  0.607390  1.0  -0.3273
  N  N1567  1  0.545870  0.784260  0.666667  1.0  -0.2794
  N  N1568  1  0.502210  0.745140  0.638830  1.0  -0.7749
  N  N1569  1  0.519970  0.430460  0.196390  1.0  -0.2827
  N  N1570  1  0.531560  0.402850  0.172200  1.0  -0.3314
  N  N1571  1  0.473850  0.415100  0.162130  1.0  -0.216
  N  N1572  1  0.502420  0.368740  0.125350  1.0  -0.7694
  N  N1573  1  0.574410  0.304080  0.118430  1.0  -0.3272
  N  N1574  1  0.546610  0.280400  0.107390  1.0  -0.3273
  N  N1575  1  0.545870  0.284260  0.166600  1.0  -0.2512
  N  N1576  1  0.502210  0.245140  0.138830  1.0  -0.7749
  N  N1577  1  0.019970  0.930460  0.196390  1.0  -0.2827
  N  N1578  1  0.031560  0.902850  0.172200  1.0  -0.3314
  N  N1579  1  0.973850  0.915100  0.162130  1.0  -0.216
  N  N1580  1  0.002420  0.868740  0.125350  1.0  -0.7694
  N  N1581  1  0.074410  0.804080  0.118430  1.0  -0.3272
  N  N1582  1  0.046610  0.780400  0.107390  1.0  -0.3273
  N  N1583  1  0.045870  0.784260  0.166600  1.0  -0.2514
  N  N1584  1  0.002210  0.745140  0.138830  1.0  -0.7749
  N  N1585  1  0.019970  0.430460  0.696390  1.0  -0.2827
  N  N1586  1  0.031560  0.402850  0.672200  1.0  -0.3314
  N  N1587  1  0.973850  0.415100  0.662130  1.0  -0.216
  N  N1588  1  0.002420  0.368740  0.625350  1.0  -0.7694
  N  N1589  1  0.074410  0.304080  0.618430  1.0  -0.3266
  N  N1590  1  0.046610  0.280400  0.607390  1.0  -0.3273
  N  N1591  1  0.045870  0.284260  0.666667  1.0  -0.2794
  N  N1592  1  0.002210  0.245140  0.638830  1.0  -0.7747
  N  N1593  1  0.519970  0.069540  0.303610  1.0  -0.2811
  N  N1594  1  0.531560  0.097150  0.327800  1.0  -0.3315
  N  N1595  1  0.473850  0.084900  0.337870  1.0  -0.2158
  N  N1596  1  0.502420  0.131260  0.374650  1.0  -0.7709
  N  N1597  1  0.574410  0.195920  0.381570  1.0  -0.3283
  N  N1598  1  0.546610  0.219600  0.392610  1.0  -0.3287
  N  N1599  1  0.545870  0.215740  0.333400  1.0  -0.2486
  N  N1600  1  0.502210  0.254860  0.361170  1.0  -0.7753
  N  N1601  1  0.519970  0.569540  0.803610  1.0  -0.2811
  N  N1602  1  0.531560  0.597150  0.827800  1.0  -0.3315
  N  N1603  1  0.473850  0.584900  0.837870  1.0  -0.2158
  N  N1604  1  0.502420  0.631260  0.874650  1.0  -0.7709
  N  N1605  1  0.574410  0.695920  0.881570  1.0  -0.3283
  N  N1606  1  0.546610  0.719600  0.892610  1.0  -0.3287
  N  N1607  1  0.545870  0.715740  0.833400  1.0  -0.2486
  N  N1608  1  0.502210  0.754860  0.861170  1.0  -0.7753
  N  N1609  1  0.019970  0.069540  0.803610  1.0  -0.2811
  N  N1610  1  0.031560  0.097150  0.827800  1.0  -0.3315
  N  N1611  1  0.973850  0.084900  0.837870  1.0  -0.2158
  N  N1612  1  0.002420  0.131260  0.874650  1.0  -0.7709
  N  N1613  1  0.074410  0.195920  0.881570  1.0  -0.3283
  N  N1614  1  0.046610  0.219600  0.892610  1.0  -0.3287
  N  N1615  1  0.045870  0.215740  0.833400  1.0  -0.2486
  N  N1616  1  0.002210  0.254860  0.861170  1.0  -0.7753
  N  N1617  1  0.019970  0.569540  0.303610  1.0  -0.2811
  N  N1618  1  0.031560  0.597150  0.327800  1.0  -0.3315
  N  N1619  1  0.973850  0.584900  0.337870  1.0  -0.2158
  N  N1620  1  0.002420  0.631260  0.374650  1.0  -0.7709
  N  N1621  1  0.074410  0.695920  0.381570  1.0  -0.3283
  N  N1622  1  0.046610  0.719600  0.392610  1.0  -0.3287
  N  N1623  1  0.045870  0.715740  0.333400  1.0  -0.2486
  N  N1624  1  0.002210  0.754860  0.361170  1.0  -0.7753
  N  N1625  1  0.480030  0.069540  0.696390  1.0  -0.285
  N  N1626  1  0.468440  0.097150  0.672200  1.0  -0.3322
  N  N1627  1  0.526150  0.084900  0.662130  1.0  -0.2131
  N  N1628  1  0.497580  0.131260  0.625350  1.0  -0.7693
  N  N1629  1  0.425590  0.195920  0.618430  1.0  -0.3262
  N  N1630  1  0.453390  0.219600  0.607390  1.0  -0.3274
  N  N1631  1  0.454130  0.215740  0.666667  1.0  -0.2814
  N  N1632  1  0.497790  0.254860  0.638830  1.0  -0.7767
  N  N1633  1  0.480030  0.569540  0.196390  1.0  -0.285
  N  N1634  1  0.468440  0.597150  0.172200  1.0  -0.3322
  N  N1635  1  0.526150  0.584900  0.162130  1.0  -0.2131
  N  N1636  1  0.497580  0.631260  0.125350  1.0  -0.7693
  N  N1637  1  0.425590  0.695920  0.118430  1.0  -0.3267
  N  N1638  1  0.453390  0.719600  0.107390  1.0  -0.3274
  N  N1639  1  0.454130  0.715740  0.166600  1.0  -0.2537
  N  N1640  1  0.497790  0.754860  0.138830  1.0  -0.7769
  N  N1641  1  0.980030  0.069540  0.196390  1.0  -0.285
  N  N1642  1  0.968440  0.097150  0.172200  1.0  -0.3322
  N  N1643  1  0.026150  0.084900  0.162130  1.0  -0.2131
  N  N1644  1  0.997580  0.131260  0.125350  1.0  -0.7693
  N  N1645  1  0.925590  0.195920  0.118430  1.0  -0.3267
  N  N1646  1  0.953390  0.219600  0.107390  1.0  -0.3274
  N  N1647  1  0.954130  0.215740  0.166600  1.0  -0.2537
  N  N1648  1  0.997790  0.254860  0.138830  1.0  -0.7769
  N  N1649  1  0.980030  0.569540  0.696390  1.0  -0.285
  N  N1650  1  0.968440  0.597150  0.672200  1.0  -0.3322
  N  N1651  1  0.026150  0.584900  0.662130  1.0  -0.2131
  N  N1652  1  0.997580  0.631260  0.625350  1.0  -0.7693
  N  N1653  1  0.925590  0.695920  0.618430  1.0  -0.3262
  N  N1654  1  0.953390  0.719600  0.607390  1.0  -0.3274
  N  N1655  1  0.954130  0.715740  0.666667  1.0  -0.2814
  N  N1656  1  0.997790  0.754860  0.638830  1.0  -0.7767
  N  N1657  1  0.480030  0.930460  0.303610  1.0  -0.2828
  N  N1658  1  0.468440  0.902850  0.327800  1.0  -0.3326
  N  N1659  1  0.526150  0.915100  0.337870  1.0  -0.2136
  N  N1660  1  0.497580  0.868740  0.374650  1.0  -0.7724
  N  N1661  1  0.425590  0.804080  0.381570  1.0  -0.3277
  N  N1662  1  0.453390  0.780400  0.392610  1.0  -0.3285
  N  N1663  1  0.454130  0.784260  0.333400  1.0  -0.2494
  N  N1664  1  0.497790  0.745140  0.361170  1.0  -0.7767
  N  N1665  1  0.480030  0.430460  0.803610  1.0  -0.2828
  N  N1666  1  0.468440  0.402850  0.827800  1.0  -0.3326
  N  N1667  1  0.526150  0.415100  0.837870  1.0  -0.2136
  N  N1668  1  0.497580  0.368740  0.874650  1.0  -0.7724
  N  N1669  1  0.425590  0.304080  0.881570  1.0  -0.3277
  N  N1670  1  0.453390  0.280400  0.892610  1.0  -0.3285
  N  N1671  1  0.454130  0.284260  0.833400  1.0  -0.2492
  N  N1672  1  0.497790  0.245140  0.861170  1.0  -0.7768
  N  N1673  1  0.980030  0.930460  0.803610  1.0  -0.2828
  N  N1674  1  0.968440  0.902850  0.827800  1.0  -0.3326
  N  N1675  1  0.026150  0.915100  0.837870  1.0  -0.2136
  N  N1676  1  0.997580  0.868740  0.874650  1.0  -0.7724
  N  N1677  1  0.925590  0.804080  0.881570  1.0  -0.3277
  N  N1678  1  0.953390  0.780400  0.892610  1.0  -0.3285
  N  N1679  1  0.954130  0.784260  0.833400  1.0  -0.2494
  N  N1680  1  0.997790  0.745140  0.861170  1.0  -0.7767
  N  N1681  1  0.980030  0.430460  0.303610  1.0  -0.2828
  N  N1682  1  0.968440  0.402850  0.327800  1.0  -0.3326
  N  N1683  1  0.026150  0.415100  0.337870  1.0  -0.2136
  N  N1684  1  0.997580  0.368740  0.374650  1.0  -0.7724
  N  N1685  1  0.925590  0.304080  0.381570  1.0  -0.3277
  N  N1686  1  0.953390  0.280400  0.392610  1.0  -0.3285
  N  N1687  1  0.954130  0.284260  0.333400  1.0  -0.2492
  N  N1688  1  0.997790  0.245140  0.361170  1.0  -0.7768
  N  N1689  1  0.696390  0.519970  0.930460  1.0  -0.2837
  N  N1690  1  0.672200  0.531560  0.902850  1.0  -0.3304
  N  N1691  1  0.662130  0.473850  0.915100  1.0  -0.2166
  N  N1692  1  0.625350  0.502420  0.868740  1.0  -0.7663
  N  N1693  1  0.618430  0.574410  0.804080  1.0  -0.33
  N  N1694  1  0.607390  0.546610  0.780400  1.0  -0.3265
  N  N1695  1  0.666667  0.545870  0.784260  1.0  -0.2772
  N  N1696  1  0.638830  0.502210  0.745140  1.0  -0.7763
  N  N1697  1  0.696390  0.019970  0.430460  1.0  -0.2837
  N  N1698  1  0.672200  0.031560  0.402850  1.0  -0.3304
  N  N1699  1  0.662130  0.973850  0.415100  1.0  -0.2166
  N  N1700  1  0.625350  0.002420  0.368740  1.0  -0.7663
  N  N1701  1  0.618430  0.074410  0.304080  1.0  -0.33
  N  N1702  1  0.607390  0.046610  0.280400  1.0  -0.3265
  N  N1703  1  0.666667  0.045870  0.284260  1.0  -0.2772
  N  N1704  1  0.638830  0.002210  0.245140  1.0  -0.7761
  N  N1705  1  0.196390  0.519970  0.430460  1.0  -0.2837
  N  N1706  1  0.172200  0.531560  0.402850  1.0  -0.3304
  N  N1707  1  0.162130  0.473850  0.415100  1.0  -0.2166
  N  N1708  1  0.125350  0.502420  0.368740  1.0  -0.7663
  N  N1709  1  0.118430  0.574410  0.304080  1.0  -0.3305
  N  N1710  1  0.107390  0.546610  0.280400  1.0  -0.3265
  N  N1711  1  0.166600  0.545870  0.284260  1.0  -0.2491
  N  N1712  1  0.138830  0.502210  0.245140  1.0  -0.7763
  N  N1713  1  0.196390  0.019970  0.930460  1.0  -0.2837
  N  N1714  1  0.172200  0.031560  0.902850  1.0  -0.3304
  N  N1715  1  0.162130  0.973850  0.915100  1.0  -0.2166
  N  N1716  1  0.125350  0.002420  0.868740  1.0  -0.7663
  N  N1717  1  0.118430  0.074410  0.804080  1.0  -0.3305
  N  N1718  1  0.107390  0.046610  0.780400  1.0  -0.3265
  N  N1719  1  0.166600  0.045870  0.784260  1.0  -0.2491
  N  N1720  1  0.138830  0.002210  0.745140  1.0  -0.7763
  N  N1721  1  0.303610  0.519970  0.069540  1.0  -0.2824
  N  N1722  1  0.327800  0.531560  0.097150  1.0  -0.3302
  N  N1723  1  0.337870  0.473850  0.084900  1.0  -0.2172
  N  N1724  1  0.374650  0.502420  0.131260  1.0  -0.7668
  N  N1725  1  0.381570  0.574410  0.195920  1.0  -0.329
  N  N1726  1  0.392610  0.546610  0.219600  1.0  -0.3295
  N  N1727  1  0.333400  0.545870  0.215740  1.0  -0.2529
  N  N1728  1  0.361170  0.502210  0.254860  1.0  -0.7781
  N  N1729  1  0.303610  0.019970  0.569540  1.0  -0.2824
  N  N1730  1  0.327800  0.031560  0.597150  1.0  -0.3302
  N  N1731  1  0.337870  0.973850  0.584900  1.0  -0.2172
  N  N1732  1  0.374650  0.002420  0.631260  1.0  -0.7668
  N  N1733  1  0.381570  0.074410  0.695920  1.0  -0.329
  N  N1734  1  0.392610  0.046610  0.719600  1.0  -0.3295
  N  N1735  1  0.333400  0.045870  0.715740  1.0  -0.2529
  N  N1736  1  0.361170  0.002210  0.754860  1.0  -0.7781
  N  N1737  1  0.803610  0.519970  0.569540  1.0  -0.2824
  N  N1738  1  0.827800  0.531560  0.597150  1.0  -0.3302
  N  N1739  1  0.837870  0.473850  0.584900  1.0  -0.2172
  N  N1740  1  0.874650  0.502420  0.631260  1.0  -0.7668
  N  N1741  1  0.881570  0.574410  0.695920  1.0  -0.329
  N  N1742  1  0.892610  0.546610  0.719600  1.0  -0.3295
  N  N1743  1  0.833400  0.545870  0.715740  1.0  -0.2529
  N  N1744  1  0.861170  0.502210  0.754860  1.0  -0.7781
  N  N1745  1  0.803610  0.019970  0.069540  1.0  -0.2824
  N  N1746  1  0.827800  0.031560  0.097150  1.0  -0.3302
  N  N1747  1  0.837870  0.973850  0.084900  1.0  -0.2172
  N  N1748  1  0.874650  0.002420  0.131260  1.0  -0.7668
  N  N1749  1  0.881570  0.074410  0.195920  1.0  -0.329
  N  N1750  1  0.892610  0.046610  0.219600  1.0  -0.3295
  N  N1751  1  0.833400  0.045870  0.215740  1.0  -0.2529
  N  N1752  1  0.861170  0.002210  0.254860  1.0  -0.7781
  N  N1753  1  0.696390  0.480030  0.069540  1.0  -0.2816
  N  N1754  1  0.672200  0.468440  0.097150  1.0  -0.3311
  N  N1755  1  0.662130  0.526150  0.084900  1.0  -0.2172
  N  N1756  1  0.625350  0.497580  0.131260  1.0  -0.7669
  N  N1757  1  0.618430  0.425590  0.195920  1.0  -0.3301
  N  N1758  1  0.607390  0.453390  0.219600  1.0  -0.3267
  N  N1759  1  0.666667  0.454130  0.215740  1.0  -0.2784
  N  N1760  1  0.638830  0.497790  0.254860  1.0  -0.7779
  N  N1761  1  0.696390  0.980030  0.569540  1.0  -0.2816
  N  N1762  1  0.672200  0.968440  0.597150  1.0  -0.3311
  N  N1763  1  0.662130  0.026150  0.584900  1.0  -0.2172
  N  N1764  1  0.625350  0.997580  0.631260  1.0  -0.7669
  N  N1765  1  0.618430  0.925590  0.695920  1.0  -0.3301
  N  N1766  1  0.607390  0.953390  0.719600  1.0  -0.3267
  N  N1767  1  0.666667  0.954130  0.715740  1.0  -0.2784
  N  N1768  1  0.638830  0.997790  0.754860  1.0  -0.7779
  N  N1769  1  0.196390  0.480030  0.569540  1.0  -0.2816
  N  N1770  1  0.172200  0.468440  0.597150  1.0  -0.3311
  N  N1771  1  0.162130  0.526150  0.584900  1.0  -0.2172
  N  N1772  1  0.125350  0.497580  0.631260  1.0  -0.7669
  N  N1773  1  0.118430  0.425590  0.695920  1.0  -0.3306
  N  N1774  1  0.107390  0.453390  0.719600  1.0  -0.3267
  N  N1775  1  0.166600  0.454130  0.715740  1.0  -0.2506
  N  N1776  1  0.138830  0.497790  0.754860  1.0  -0.778
  N  N1777  1  0.196390  0.980030  0.069540  1.0  -0.2816
  N  N1778  1  0.172200  0.968440  0.097150  1.0  -0.3311
  N  N1779  1  0.162130  0.026150  0.084900  1.0  -0.2172
  N  N1780  1  0.125350  0.997580  0.131260  1.0  -0.7669
  N  N1781  1  0.118430  0.925590  0.195920  1.0  -0.3306
  N  N1782  1  0.107390  0.953390  0.219600  1.0  -0.3267
  N  N1783  1  0.166600  0.954130  0.215740  1.0  -0.2504
  N  N1784  1  0.138830  0.997790  0.254860  1.0  -0.778
  N  N1785  1  0.303610  0.480030  0.930460  1.0  -0.2846
  N  N1786  1  0.327800  0.468440  0.902850  1.0  -0.3296
  N  N1787  1  0.337870  0.526150  0.915100  1.0  -0.2159
  N  N1788  1  0.374650  0.497580  0.868740  1.0  -0.7678
  N  N1789  1  0.381570  0.425590  0.804080  1.0  -0.331
  N  N1790  1  0.392610  0.453390  0.780400  1.0  -0.3284
  N  N1791  1  0.333400  0.454130  0.784260  1.0  -0.2515
  N  N1792  1  0.361170  0.497790  0.745140  1.0  -0.7783
  N  N1793  1  0.303610  0.980030  0.430460  1.0  -0.2846
  N  N1794  1  0.327800  0.968440  0.402850  1.0  -0.3296
  N  N1795  1  0.337870  0.026150  0.415100  1.0  -0.2159
  N  N1796  1  0.374650  0.997580  0.368740  1.0  -0.7678
  N  N1797  1  0.381570  0.925590  0.304080  1.0  -0.331
  N  N1798  1  0.392610  0.953390  0.280400  1.0  -0.3284
  N  N1799  1  0.333400  0.954130  0.284260  1.0  -0.2513
  N  N1800  1  0.361170  0.997790  0.245140  1.0  -0.7784
  N  N1801  1  0.803610  0.480030  0.430460  1.0  -0.2846
  N  N1802  1  0.827800  0.468440  0.402850  1.0  -0.3296
  N  N1803  1  0.837870  0.526150  0.415100  1.0  -0.2159
  N  N1804  1  0.874650  0.497580  0.368740  1.0  -0.7678
  N  N1805  1  0.881570  0.425590  0.304080  1.0  -0.331
  N  N1806  1  0.892610  0.453390  0.280400  1.0  -0.3284
  N  N1807  1  0.833400  0.454130  0.284260  1.0  -0.2513
  N  N1808  1  0.861170  0.497790  0.245140  1.0  -0.7784
  N  N1809  1  0.803610  0.980030  0.930460  1.0  -0.2846
  N  N1810  1  0.827800  0.968440  0.902850  1.0  -0.3296
  N  N1811  1  0.837870  0.026150  0.915100  1.0  -0.2159
  N  N1812  1  0.874650  0.997580  0.868740  1.0  -0.7678
  N  N1813  1  0.881570  0.925590  0.804080  1.0  -0.331
  N  N1814  1  0.892610  0.953390  0.780400  1.0  -0.3284
  N  N1815  1  0.833400  0.954130  0.784260  1.0  -0.2515
  N  N1816  1  0.861170  0.997790  0.745140  1.0  -0.7783
  N  N1817  1  0.196390  0.430460  0.019970  1.0  -0.2842
  N  N1818  1  0.172200  0.402850  0.031560  1.0  -0.3294
  N  N1819  1  0.162130  0.415100  0.973850  1.0  -0.2137
  N  N1820  1  0.125350  0.368740  0.002420  1.0  -0.7663
  N  N1821  1  0.118430  0.304080  0.074410  1.0  -0.3283
  N  N1822  1  0.107390  0.280400  0.046610  1.0  -0.3269
  N  N1823  1  0.166600  0.284260  0.045870  1.0  -0.2504
  N  N1824  1  0.138830  0.245140  0.002210  1.0  -0.7764
  N  N1825  1  0.196390  0.930460  0.519970  1.0  -0.2842
  N  N1826  1  0.172200  0.902850  0.531560  1.0  -0.3294
  N  N1827  1  0.162130  0.915100  0.473850  1.0  -0.2137
  N  N1828  1  0.125350  0.868740  0.502420  1.0  -0.7663
  N  N1829  1  0.118430  0.804080  0.574410  1.0  -0.3283
  N  N1830  1  0.107390  0.780400  0.546610  1.0  -0.3269
  N  N1831  1  0.166600  0.784260  0.545870  1.0  -0.2506
  N  N1832  1  0.138830  0.745140  0.502210  1.0  -0.7764
  N  N1833  1  0.696390  0.430460  0.519970  1.0  -0.2842
  N  N1834  1  0.672200  0.402850  0.531560  1.0  -0.3294
  N  N1835  1  0.662130  0.415100  0.473850  1.0  -0.2137
  N  N1836  1  0.625350  0.368740  0.502420  1.0  -0.7663
  N  N1837  1  0.618430  0.304080  0.574410  1.0  -0.3278
  N  N1838  1  0.607390  0.280400  0.546610  1.0  -0.3269
  N  N1839  1  0.666667  0.284260  0.545870  1.0  -0.2785
  N  N1840  1  0.638830  0.245140  0.502210  1.0  -0.7762
  N  N1841  1  0.696390  0.930460  0.019970  1.0  -0.2842
  N  N1842  1  0.672200  0.902850  0.031560  1.0  -0.3294
  N  N1843  1  0.662130  0.915100  0.973850  1.0  -0.2137
  N  N1844  1  0.625350  0.868740  0.002420  1.0  -0.7663
  N  N1845  1  0.618430  0.804080  0.074410  1.0  -0.3278
  N  N1846  1  0.607390  0.780400  0.046610  1.0  -0.3269
  N  N1847  1  0.666667  0.784260  0.045870  1.0  -0.2785
  N  N1848  1  0.638830  0.745140  0.002210  1.0  -0.7764
  N  N1849  1  0.803610  0.569540  0.019970  1.0  -0.2851
  N  N1850  1  0.827800  0.597150  0.031560  1.0  -0.3284
  N  N1851  1  0.837870  0.584900  0.973850  1.0  -0.2124
  N  N1852  1  0.874650  0.631260  0.002420  1.0  -0.7662
  N  N1853  1  0.881570  0.695920  0.074410  1.0  -0.3278
  N  N1854  1  0.892610  0.719600  0.046610  1.0  -0.3297
  N  N1855  1  0.833400  0.715740  0.045870  1.0  -0.253
  N  N1856  1  0.861170  0.754860  0.002210  1.0  -0.7775
  N  N1857  1  0.803610  0.069540  0.519970  1.0  -0.2851
  N  N1858  1  0.827800  0.097150  0.531560  1.0  -0.3284
  N  N1859  1  0.837870  0.084900  0.473850  1.0  -0.2124
  N  N1860  1  0.874650  0.131260  0.502420  1.0  -0.7662
  N  N1861  1  0.881570  0.195920  0.574410  1.0  -0.3278
  N  N1862  1  0.892610  0.219600  0.546610  1.0  -0.3297
  N  N1863  1  0.833400  0.215740  0.545870  1.0  -0.253
  N  N1864  1  0.861170  0.254860  0.502210  1.0  -0.7775
  N  N1865  1  0.303610  0.569540  0.519970  1.0  -0.2851
  N  N1866  1  0.327800  0.597150  0.531560  1.0  -0.3284
  N  N1867  1  0.337870  0.584900  0.473850  1.0  -0.2124
  N  N1868  1  0.374650  0.631260  0.502420  1.0  -0.7662
  N  N1869  1  0.381570  0.695920  0.574410  1.0  -0.3278
  N  N1870  1  0.392610  0.719600  0.546610  1.0  -0.3297
  N  N1871  1  0.333400  0.715740  0.545870  1.0  -0.253
  N  N1872  1  0.361170  0.754860  0.502210  1.0  -0.7775
  N  N1873  1  0.303610  0.069540  0.019970  1.0  -0.2851
  N  N1874  1  0.327800  0.097150  0.031560  1.0  -0.3284
  N  N1875  1  0.337870  0.084900  0.973850  1.0  -0.2124
  N  N1876  1  0.374650  0.131260  0.002420  1.0  -0.7662
  N  N1877  1  0.381570  0.195920  0.074410  1.0  -0.3278
  N  N1878  1  0.392610  0.219600  0.046610  1.0  -0.3297
  N  N1879  1  0.333400  0.215740  0.045870  1.0  -0.253
  N  N1880  1  0.361170  0.254860  0.002210  1.0  -0.7775
  N  N1881  1  0.196390  0.569540  0.980030  1.0  -0.2825
  N  N1882  1  0.172200  0.597150  0.968440  1.0  -0.3263
  N  N1883  1  0.162130  0.584900  0.026150  1.0  -0.2142
  N  N1884  1  0.125350  0.631260  0.997580  1.0  -0.7665
  N  N1885  1  0.118430  0.695920  0.925590  1.0  -0.3292
  N  N1886  1  0.107390  0.719600  0.953390  1.0  -0.3268
  N  N1887  1  0.166600  0.715740  0.954130  1.0  -0.2507
  N  N1888  1  0.138830  0.754860  0.997790  1.0  -0.7774
  N  N1889  1  0.196390  0.069540  0.480030  1.0  -0.2825
  N  N1890  1  0.172200  0.097150  0.468440  1.0  -0.3263
  N  N1891  1  0.162130  0.084900  0.526150  1.0  -0.2142
  N  N1892  1  0.125350  0.131260  0.497580  1.0  -0.7665
  N  N1893  1  0.118430  0.195920  0.425590  1.0  -0.3292
  N  N1894  1  0.107390  0.219600  0.453390  1.0  -0.3268
  N  N1895  1  0.166600  0.215740  0.454130  1.0  -0.2507
  N  N1896  1  0.138830  0.254860  0.497790  1.0  -0.7774
  N  N1897  1  0.696390  0.569540  0.480030  1.0  -0.2825
  N  N1898  1  0.672200  0.597150  0.468440  1.0  -0.3263
  N  N1899  1  0.662130  0.584900  0.526150  1.0  -0.2142
  N  N1900  1  0.625350  0.631260  0.497580  1.0  -0.7665
  N  N1901  1  0.618430  0.695920  0.425590  1.0  -0.3288
  N  N1902  1  0.607390  0.719600  0.453390  1.0  -0.3268
  N  N1903  1  0.666667  0.715740  0.454130  1.0  -0.2788
  N  N1904  1  0.638830  0.754860  0.497790  1.0  -0.7773
  N  N1905  1  0.696390  0.069540  0.980030  1.0  -0.2825
  N  N1906  1  0.672200  0.097150  0.968440  1.0  -0.3263
  N  N1907  1  0.662130  0.084900  0.026150  1.0  -0.2142
  N  N1908  1  0.625350  0.131260  0.997580  1.0  -0.7665
  N  N1909  1  0.618430  0.195920  0.925590  1.0  -0.3288
  N  N1910  1  0.607390  0.219600  0.953390  1.0  -0.3268
  N  N1911  1  0.666667  0.215740  0.954130  1.0  -0.2788
  N  N1912  1  0.638830  0.254860  0.997790  1.0  -0.7773
  N  N1913  1  0.803610  0.430460  0.980030  1.0  -0.2837
  N  N1914  1  0.827800  0.402850  0.968440  1.0  -0.3257
  N  N1915  1  0.837870  0.415100  0.026150  1.0  -0.2131
  N  N1916  1  0.874650  0.368740  0.997580  1.0  -0.7683
  N  N1917  1  0.881570  0.304080  0.925590  1.0  -0.3279
  N  N1918  1  0.892610  0.280400  0.953390  1.0  -0.3293
  N  N1919  1  0.833400  0.284260  0.954130  1.0  -0.2525
  N  N1920  1  0.861170  0.245140  0.997790  1.0  -0.7777
  N  N1921  1  0.803610  0.930460  0.480030  1.0  -0.2837
  N  N1922  1  0.827800  0.902850  0.468440  1.0  -0.3257
  N  N1923  1  0.837870  0.915100  0.526150  1.0  -0.2131
  N  N1924  1  0.874650  0.868740  0.497580  1.0  -0.7683
  N  N1925  1  0.881570  0.804080  0.425590  1.0  -0.3279
  N  N1926  1  0.892610  0.780400  0.453390  1.0  -0.3293
  N  N1927  1  0.833400  0.784260  0.454130  1.0  -0.2527
  N  N1928  1  0.861170  0.745140  0.497790  1.0  -0.7777
  N  N1929  1  0.303610  0.430460  0.480030  1.0  -0.2837
  N  N1930  1  0.327800  0.402850  0.468440  1.0  -0.3257
  N  N1931  1  0.337870  0.415100  0.526150  1.0  -0.2131
  N  N1932  1  0.374650  0.368740  0.497580  1.0  -0.7683
  N  N1933  1  0.381570  0.304080  0.425590  1.0  -0.3279
  N  N1934  1  0.392610  0.280400  0.453390  1.0  -0.3293
  N  N1935  1  0.333400  0.284260  0.454130  1.0  -0.2525
  N  N1936  1  0.361170  0.245140  0.497790  1.0  -0.7777
  N  N1937  1  0.303610  0.930460  0.980030  1.0  -0.2837
  N  N1938  1  0.327800  0.902850  0.968440  1.0  -0.3257
  N  N1939  1  0.337870  0.915100  0.026150  1.0  -0.2131
  N  N1940  1  0.374650  0.868740  0.997580  1.0  -0.7683
  N  N1941  1  0.381570  0.804080  0.925590  1.0  -0.3279
  N  N1942  1  0.392610  0.780400  0.953390  1.0  -0.3293
  N  N1943  1  0.333400  0.784260  0.954130  1.0  -0.2527
  N  N1944  1  0.361170  0.745140  0.997790  1.0  -0.7777
  N  N1945  1  0.430460  0.019970  0.196390  1.0  -0.2842
  N  N1946  1  0.402850  0.031560  0.172200  1.0  -0.33
  N  N1947  1  0.415100  0.973850  0.162130  1.0  -0.2161
  N  N1948  1  0.368740  0.002420  0.125350  1.0  -0.7688
  N  N1949  1  0.304080  0.074410  0.118430  1.0  -0.328
  N  N1950  1  0.280400  0.046610  0.107390  1.0  -0.3273
  N  N1951  1  0.284260  0.045870  0.166600  1.0  -0.2535
  N  N1952  1  0.245140  0.002210  0.138830  1.0  -0.7766
  N  N1953  1  0.430460  0.519970  0.696390  1.0  -0.2842
  N  N1954  1  0.402850  0.531560  0.672200  1.0  -0.33
  N  N1955  1  0.415100  0.473850  0.662130  1.0  -0.2161
  N  N1956  1  0.368740  0.502420  0.625350  1.0  -0.7688
  N  N1957  1  0.304080  0.574410  0.618430  1.0  -0.3275
  N  N1958  1  0.280400  0.546610  0.607390  1.0  -0.3273
  N  N1959  1  0.284260  0.545870  0.666667  1.0  -0.2814
  N  N1960  1  0.245140  0.502210  0.638830  1.0  -0.7764
  N  N1961  1  0.930460  0.019970  0.696390  1.0  -0.2842
  N  N1962  1  0.902850  0.031560  0.672200  1.0  -0.33
  N  N1963  1  0.915100  0.973850  0.662130  1.0  -0.2161
  N  N1964  1  0.868740  0.002420  0.625350  1.0  -0.7688
  N  N1965  1  0.804080  0.074410  0.618430  1.0  -0.3275
  N  N1966  1  0.780400  0.046610  0.607390  1.0  -0.3273
  N  N1967  1  0.784260  0.045870  0.666667  1.0  -0.2814
  N  N1968  1  0.745140  0.002210  0.638830  1.0  -0.7766
  N  N1969  1  0.930460  0.519970  0.196390  1.0  -0.2842
  N  N1970  1  0.902850  0.531560  0.172200  1.0  -0.33
  N  N1971  1  0.915100  0.473850  0.162130  1.0  -0.2161
  N  N1972  1  0.868740  0.502420  0.125350  1.0  -0.7688
  N  N1973  1  0.804080  0.574410  0.118430  1.0  -0.328
  N  N1974  1  0.780400  0.546610  0.107390  1.0  -0.3273
  N  N1975  1  0.784260  0.545870  0.166600  1.0  -0.2535
  N  N1976  1  0.745140  0.502210  0.138830  1.0  -0.7766
  N  N1977  1  0.569540  0.019970  0.803610  1.0  -0.2837
  N  N1978  1  0.597150  0.031560  0.827800  1.0  -0.3303
  N  N1979  1  0.584900  0.973850  0.837870  1.0  -0.2146
  N  N1980  1  0.631260  0.002420  0.874650  1.0  -0.7714
  N  N1981  1  0.695920  0.074410  0.881570  1.0  -0.3276
  N  N1982  1  0.719600  0.046610  0.892610  1.0  -0.3285
  N  N1983  1  0.715740  0.045870  0.833400  1.0  -0.2494
  N  N1984  1  0.754860  0.002210  0.861170  1.0  -0.7777
  N  N1985  1  0.569540  0.519970  0.303610  1.0  -0.2837
  N  N1986  1  0.597150  0.531560  0.327800  1.0  -0.3303
  N  N1987  1  0.584900  0.473850  0.337870  1.0  -0.2146
  N  N1988  1  0.631260  0.502420  0.374650  1.0  -0.7714
  N  N1989  1  0.695920  0.574410  0.381570  1.0  -0.3276
  N  N1990  1  0.719600  0.546610  0.392610  1.0  -0.3285
  N  N1991  1  0.715740  0.545870  0.333400  1.0  -0.2494
  N  N1992  1  0.754860  0.502210  0.361170  1.0  -0.7777
  N  N1993  1  0.069540  0.019970  0.303610  1.0  -0.2837
  N  N1994  1  0.097150  0.031560  0.327800  1.0  -0.3303
  N  N1995  1  0.084900  0.973850  0.337870  1.0  -0.2146
  N  N1996  1  0.131260  0.002420  0.374650  1.0  -0.7714
  N  N1997  1  0.195920  0.074410  0.381570  1.0  -0.3276
  N  N1998  1  0.219600  0.046610  0.392610  1.0  -0.3285
  N  N1999  1  0.215740  0.045870  0.333400  1.0  -0.2494
  N  N2000  1  0.254860  0.002210  0.361170  1.0  -0.7777
  N  N2001  1  0.069540  0.519970  0.803610  1.0  -0.2837
  N  N2002  1  0.097150  0.531560  0.827800  1.0  -0.3303
  N  N2003  1  0.084900  0.473850  0.837870  1.0  -0.2146
  N  N2004  1  0.131260  0.502420  0.874650  1.0  -0.7714
  N  N2005  1  0.195920  0.574410  0.881570  1.0  -0.3276
  N  N2006  1  0.219600  0.546610  0.892610  1.0  -0.3285
  N  N2007  1  0.215740  0.545870  0.833400  1.0  -0.2494
  N  N2008  1  0.254860  0.502210  0.861170  1.0  -0.7777
  N  N2009  1  0.569540  0.980030  0.196390  1.0  -0.285
  N  N2010  1  0.597150  0.968440  0.172200  1.0  -0.3304
  N  N2011  1  0.584900  0.026150  0.162130  1.0  -0.2147
  N  N2012  1  0.631260  0.997580  0.125350  1.0  -0.7698
  N  N2013  1  0.695920  0.925590  0.118430  1.0  -0.328
  N  N2014  1  0.719600  0.953390  0.107390  1.0  -0.3266
  N  N2015  1  0.715740  0.954130  0.166600  1.0  -0.2525
  N  N2016  1  0.754860  0.997790  0.138830  1.0  -0.7782
  N  N2017  1  0.569540  0.480030  0.696390  1.0  -0.285
  N  N2018  1  0.597150  0.468440  0.672200  1.0  -0.3304
  N  N2019  1  0.584900  0.526150  0.662130  1.0  -0.2147
  N  N2020  1  0.631260  0.497580  0.625350  1.0  -0.7698
  N  N2021  1  0.695920  0.425590  0.618430  1.0  -0.3274
  N  N2022  1  0.719600  0.453390  0.607390  1.0  -0.3266
  N  N2023  1  0.715740  0.454130  0.666667  1.0  -0.2806
  N  N2024  1  0.754860  0.497790  0.638830  1.0  -0.778
  N  N2025  1  0.069540  0.980030  0.696390  1.0  -0.285
  N  N2026  1  0.097150  0.968440  0.672200  1.0  -0.3304
  N  N2027  1  0.084900  0.026150  0.662130  1.0  -0.2147
  N  N2028  1  0.131260  0.997580  0.625350  1.0  -0.7698
  N  N2029  1  0.195920  0.925590  0.618430  1.0  -0.3274
  N  N2030  1  0.219600  0.953390  0.607390  1.0  -0.3266
  N  N2031  1  0.215740  0.954130  0.666667  1.0  -0.2806
  N  N2032  1  0.254860  0.997790  0.638830  1.0  -0.778
  N  N2033  1  0.069540  0.480030  0.196390  1.0  -0.285
  N  N2034  1  0.097150  0.468440  0.172200  1.0  -0.3304
  N  N2035  1  0.084900  0.526150  0.162130  1.0  -0.2147
  N  N2036  1  0.131260  0.497580  0.125350  1.0  -0.7698
  N  N2037  1  0.195920  0.425590  0.118430  1.0  -0.328
  N  N2038  1  0.219600  0.453390  0.107390  1.0  -0.3266
  N  N2039  1  0.215740  0.454130  0.166600  1.0  -0.2523
  N  N2040  1  0.254860  0.497790  0.138830  1.0  -0.7782
  N  N2041  1  0.430460  0.980030  0.803610  1.0  -0.2833
  N  N2042  1  0.402850  0.968440  0.827800  1.0  -0.3306
  N  N2043  1  0.415100  0.026150  0.837870  1.0  -0.2155
  N  N2044  1  0.368740  0.997580  0.874650  1.0  -0.7718
  N  N2045  1  0.304080  0.925590  0.881570  1.0  -0.3299
  N  N2046  1  0.280400  0.953390  0.892610  1.0  -0.3281
  N  N2047  1  0.284260  0.954130  0.833400  1.0  -0.2485
  N  N2048  1  0.245140  0.997790  0.861170  1.0  -0.7772
  N  N2049  1  0.430460  0.480030  0.303610  1.0  -0.2833
  N  N2050  1  0.402850  0.468440  0.327800  1.0  -0.3306
  N  N2051  1  0.415100  0.526150  0.337870  1.0  -0.2155
  N  N2052  1  0.368740  0.497580  0.374650  1.0  -0.7718
  N  N2053  1  0.304080  0.425590  0.381570  1.0  -0.3299
  N  N2054  1  0.280400  0.453390  0.392610  1.0  -0.3281
  N  N2055  1  0.284260  0.454130  0.333400  1.0  -0.2485
  N  N2056  1  0.245140  0.497790  0.361170  1.0  -0.7772
  N  N2057  1  0.930460  0.980030  0.303610  1.0  -0.2833
  N  N2058  1  0.902850  0.968440  0.327800  1.0  -0.3306
  N  N2059  1  0.915100  0.026150  0.337870  1.0  -0.2155
  N  N2060  1  0.868740  0.997580  0.374650  1.0  -0.7718
  N  N2061  1  0.804080  0.925590  0.381570  1.0  -0.3299
  N  N2062  1  0.780400  0.953390  0.392610  1.0  -0.3281
  N  N2063  1  0.784260  0.954130  0.333400  1.0  -0.2487
  N  N2064  1  0.745140  0.997790  0.361170  1.0  -0.7771
  N  N2065  1  0.930460  0.480030  0.803610  1.0  -0.2833
  N  N2066  1  0.902850  0.468440  0.827800  1.0  -0.3306
  N  N2067  1  0.915100  0.526150  0.837870  1.0  -0.2155
  N  N2068  1  0.868740  0.497580  0.874650  1.0  -0.7718
  N  N2069  1  0.804080  0.425590  0.881570  1.0  -0.3299
  N  N2070  1  0.780400  0.453390  0.892610  1.0  -0.3281
  N  N2071  1  0.784260  0.454130  0.833400  1.0  -0.2487
  N  N2072  1  0.745140  0.497790  0.861170  1.0  -0.7771
  N  N2073  1  0.019970  0.196390  0.430460  1.0  -0.2809
  N  N2074  1  0.031560  0.172200  0.402850  1.0  -0.3311
  N  N2075  1  0.973850  0.162130  0.415100  1.0  -0.2172
  N  N2076  1  0.002420  0.125350  0.368740  1.0  -0.7697
  N  N2077  1  0.074410  0.118430  0.304080  1.0  -0.3294
  N  N2078  1  0.046610  0.107390  0.280400  1.0  -0.3301
  N  N2079  1  0.045870  0.166600  0.284260  1.0  -0.2474
  N  N2080  1  0.002210  0.138830  0.245140  1.0  -0.7757
  N  N2081  1  0.019970  0.696390  0.930460  1.0  -0.2809
  N  N2082  1  0.031560  0.672200  0.902850  1.0  -0.3311
  N  N2083  1  0.973850  0.662130  0.915100  1.0  -0.2172
  N  N2084  1  0.002420  0.625350  0.868740  1.0  -0.7697
  N  N2085  1  0.074410  0.618430  0.804080  1.0  -0.3288
  N  N2086  1  0.046610  0.607390  0.780400  1.0  -0.33
  N  N2087  1  0.045870  0.666667  0.784260  1.0  -0.274
  N  N2088  1  0.002210  0.638830  0.745140  1.0  -0.7757
  N  N2089  1  0.519970  0.196390  0.930460  1.0  -0.2809
  N  N2090  1  0.531560  0.172200  0.902850  1.0  -0.3311
  N  N2091  1  0.473850  0.162130  0.915100  1.0  -0.2172
  N  N2092  1  0.502420  0.125350  0.868740  1.0  -0.7697
  N  N2093  1  0.574410  0.118430  0.804080  1.0  -0.3294
  N  N2094  1  0.546610  0.107390  0.780400  1.0  -0.3301
  N  N2095  1  0.545870  0.166600  0.784260  1.0  -0.2474
  N  N2096  1  0.502210  0.138830  0.745140  1.0  -0.7757
  N  N2097  1  0.519970  0.696390  0.430460  1.0  -0.2809
  N  N2098  1  0.531560  0.672200  0.402850  1.0  -0.3311
  N  N2099  1  0.473850  0.662130  0.415100  1.0  -0.2172
  N  N2100  1  0.502420  0.625350  0.368740  1.0  -0.7697
  N  N2101  1  0.574410  0.618430  0.304080  1.0  -0.3288
  N  N2102  1  0.546610  0.607390  0.280400  1.0  -0.33
  N  N2103  1  0.545870  0.666667  0.284260  1.0  -0.274
  N  N2104  1  0.502210  0.638830  0.245140  1.0  -0.7756
  N  N2105  1  0.019970  0.803610  0.569540  1.0  -0.2799
  N  N2106  1  0.031560  0.827800  0.597150  1.0  -0.3313
  N  N2107  1  0.973850  0.837870  0.584900  1.0  -0.2179
  N  N2108  1  0.002420  0.874650  0.631260  1.0  -0.7699
  N  N2109  1  0.074410  0.881570  0.695920  1.0  -0.3293
  N  N2110  1  0.046610  0.892610  0.719600  1.0  -0.3328
  N  N2111  1  0.045870  0.833400  0.715740  1.0  -0.25
  N  N2112  1  0.002210  0.861170  0.754860  1.0  -0.7749
  N  N2113  1  0.019970  0.303610  0.069540  1.0  -0.2799
  N  N2114  1  0.031560  0.327800  0.097150  1.0  -0.3313
  N  N2115  1  0.973850  0.337870  0.084900  1.0  -0.2179
  N  N2116  1  0.002420  0.374650  0.131260  1.0  -0.7699
  N  N2117  1  0.074410  0.381570  0.195920  1.0  -0.3293
  N  N2118  1  0.046610  0.392610  0.219600  1.0  -0.3328
  N  N2119  1  0.045870  0.333400  0.215740  1.0  -0.25
  N  N2120  1  0.002210  0.361170  0.254860  1.0  -0.7749
  N  N2121  1  0.519970  0.803610  0.069540  1.0  -0.2799
  N  N2122  1  0.531560  0.827800  0.097150  1.0  -0.3313
  N  N2123  1  0.473850  0.837870  0.084900  1.0  -0.2179
  N  N2124  1  0.502420  0.874650  0.131260  1.0  -0.7699
  N  N2125  1  0.574410  0.881570  0.195920  1.0  -0.3293
  N  N2126  1  0.546610  0.892610  0.219600  1.0  -0.3328
  N  N2127  1  0.545870  0.833400  0.215740  1.0  -0.25
  N  N2128  1  0.502210  0.861170  0.254860  1.0  -0.7749
  N  N2129  1  0.519970  0.303610  0.569540  1.0  -0.2799
  N  N2130  1  0.531560  0.327800  0.597150  1.0  -0.3313
  N  N2131  1  0.473850  0.337870  0.584900  1.0  -0.2179
  N  N2132  1  0.502420  0.374650  0.631260  1.0  -0.7699
  N  N2133  1  0.574410  0.381570  0.695920  1.0  -0.3293
  N  N2134  1  0.546610  0.392610  0.719600  1.0  -0.3328
  N  N2135  1  0.545870  0.333400  0.715740  1.0  -0.25
  N  N2136  1  0.502210  0.361170  0.754860  1.0  -0.7749
  N  N2137  1  0.980030  0.196390  0.569540  1.0  -0.2808
  N  N2138  1  0.968440  0.172200  0.597150  1.0  -0.3329
  N  N2139  1  0.026150  0.162130  0.584900  1.0  -0.2163
  N  N2140  1  0.997580  0.125350  0.631260  1.0  -0.7702
  N  N2141  1  0.925590  0.118430  0.695920  1.0  -0.3284
  N  N2142  1  0.953390  0.107390  0.719600  1.0  -0.3305
  N  N2143  1  0.954130  0.166600  0.715740  1.0  -0.2491
  N  N2144  1  0.997790  0.138830  0.754860  1.0  -0.7776
  N  N2145  1  0.980030  0.696390  0.069540  1.0  -0.2808
  N  N2146  1  0.968440  0.672200  0.097150  1.0  -0.3329
  N  N2147  1  0.026150  0.662130  0.084900  1.0  -0.2163
  N  N2148  1  0.997580  0.625350  0.131260  1.0  -0.7702
  N  N2149  1  0.925590  0.618430  0.195920  1.0  -0.3279
  N  N2150  1  0.953390  0.607390  0.219600  1.0  -0.3305
  N  N2151  1  0.954130  0.666667  0.215740  1.0  -0.275
  N  N2152  1  0.997790  0.638830  0.254860  1.0  -0.7774
  N  N2153  1  0.480030  0.196390  0.069540  1.0  -0.2808
  N  N2154  1  0.468440  0.172200  0.097150  1.0  -0.3329
  N  N2155  1  0.526150  0.162130  0.084900  1.0  -0.2163
  N  N2156  1  0.497580  0.125350  0.131260  1.0  -0.7702
  N  N2157  1  0.425590  0.118430  0.195920  1.0  -0.3284
  N  N2158  1  0.453390  0.107390  0.219600  1.0  -0.3305
  N  N2159  1  0.454130  0.166600  0.215740  1.0  -0.2491
  N  N2160  1  0.497790  0.138830  0.254860  1.0  -0.7776
  N  N2161  1  0.480030  0.696390  0.569540  1.0  -0.2808
  N  N2162  1  0.468440  0.672200  0.597150  1.0  -0.3329
  N  N2163  1  0.526150  0.662130  0.584900  1.0  -0.2163
  N  N2164  1  0.497580  0.625350  0.631260  1.0  -0.7702
  N  N2165  1  0.425590  0.618430  0.695920  1.0  -0.3279
  N  N2166  1  0.453390  0.607390  0.719600  1.0  -0.3305
  N  N2167  1  0.454130  0.666667  0.715740  1.0  -0.275
  N  N2168  1  0.497790  0.638830  0.754860  1.0  -0.7774
  N  N2169  1  0.980030  0.803610  0.430460  1.0  -0.2835
  N  N2170  1  0.968440  0.827800  0.402850  1.0  -0.3322
  N  N2171  1  0.026150  0.837870  0.415100  1.0  -0.2151
  N  N2172  1  0.997580  0.874650  0.368740  1.0  -0.7694
  N  N2173  1  0.925590  0.881570  0.304080  1.0  -0.3281
  N  N2174  1  0.953390  0.892610  0.280400  1.0  -0.3328
  N  N2175  1  0.954130  0.833400  0.284260  1.0  -0.2502
  N  N2176  1  0.997790  0.861170  0.245140  1.0  -0.7764
  N  N2177  1  0.980030  0.303610  0.930460  1.0  -0.2835
  N  N2178  1  0.968440  0.327800  0.902850  1.0  -0.3322
  N  N2179  1  0.026150  0.337870  0.915100  1.0  -0.2151
  N  N2180  1  0.997580  0.374650  0.868740  1.0  -0.7694
  N  N2181  1  0.925590  0.381570  0.804080  1.0  -0.3281
  N  N2182  1  0.953390  0.392610  0.780400  1.0  -0.3328
  N  N2183  1  0.954130  0.333400  0.784260  1.0  -0.2502
  N  N2184  1  0.997790  0.361170  0.745140  1.0  -0.7764
  N  N2185  1  0.480030  0.803610  0.930460  1.0  -0.2835
  N  N2186  1  0.468440  0.827800  0.902850  1.0  -0.3322
  N  N2187  1  0.526150  0.837870  0.915100  1.0  -0.2151
  N  N2188  1  0.497580  0.874650  0.868740  1.0  -0.7694
  N  N2189  1  0.425590  0.881570  0.804080  1.0  -0.3281
  N  N2190  1  0.453390  0.892610  0.780400  1.0  -0.3328
  N  N2191  1  0.454130  0.833400  0.784260  1.0  -0.2502
  N  N2192  1  0.497790  0.861170  0.745140  1.0  -0.7764
  N  N2193  1  0.480030  0.303610  0.430460  1.0  -0.2835
  N  N2194  1  0.468440  0.327800  0.402850  1.0  -0.3322
  N  N2195  1  0.526150  0.337870  0.415100  1.0  -0.2151
  N  N2196  1  0.497580  0.374650  0.368740  1.0  -0.7694
  N  N2197  1  0.425590  0.381570  0.304080  1.0  -0.3281
  N  N2198  1  0.453390  0.392610  0.280400  1.0  -0.3328
  N  N2199  1  0.454130  0.333400  0.284260  1.0  -0.2502
  N  N2200  1  0.497790  0.361170  0.245140  1.0  -0.7764
