# generated using pymatgen
data_Cu5H18C42(N2O5)4
_symmetry_space_group_name_H-M   'P 1'
_cell_length_a   27.67000000
_cell_length_b   29.29700000
_cell_length_c   25.91200000
_cell_angle_alpha   90.00000000
_cell_angle_beta   90.00000000
_cell_angle_gamma   90.00000000
_symmetry_Int_Tables_number   1
_chemical_formula_structural   Cu5H18C42(N2O5)4
_chemical_formula_sum   'Cu40 H144 C336 N64 O160'
_cell_volume   21005.51071688
_cell_formula_units_Z   8
loop_
 _symmetry_equiv_pos_site_id
 _symmetry_equiv_pos_as_xyz
  1  'x, y, z'
loop_
 _atom_site_type_symbol
 _atom_site_label
 _atom_site_symmetry_multiplicity
 _atom_site_fract_x
 _atom_site_fract_y
 _atom_site_fract_z
 _atom_site_occupancy
 _atom_site_charge
  Cu  Cu1  1  0.254450  0.368950  0.015680  1.0  0.8858
  Cu  Cu2  1  0.248310  0.484890  0.010220  1.0  0.384
  Cu  Cu3  1  0.245080  0.721890  0.959320  1.0  0.95
  Cu  Cu4  1  0.745550  0.631050  0.515680  1.0  0.886
  Cu  Cu5  1  0.751690  0.515110  0.510220  1.0  0.3836
  Cu  Cu6  1  0.754920  0.278110  0.459320  1.0  0.9465
  Cu  Cu7  1  0.745550  0.868950  0.484320  1.0  0.8857
  Cu  Cu8  1  0.751690  0.984890  0.489780  1.0  0.3867
  Cu  Cu9  1  0.754920  0.221890  0.540680  1.0  0.9465
  Cu  Cu10  1  0.254450  0.131050  0.984320  1.0  0.8855
  Cu  Cu11  1  0.248310  0.015110  0.989780  1.0  0.3843
  Cu  Cu12  1  0.245080  0.778110  0.040680  1.0  0.946
  Cu  Cu13  1  0.745550  0.631050  0.984320  1.0  0.8857
  Cu  Cu14  1  0.751690  0.515110  0.989780  1.0  0.3851
  Cu  Cu15  1  0.754920  0.278110  0.040680  1.0  0.9459
  Cu  Cu16  1  0.254450  0.368950  0.484320  1.0  0.8855
  Cu  Cu17  1  0.248310  0.484890  0.489780  1.0  0.3855
  Cu  Cu18  1  0.245080  0.721890  0.540680  1.0  0.9468
  Cu  Cu19  1  0.254450  0.131050  0.515680  1.0  0.8858
  Cu  Cu20  1  0.248310  0.015110  0.510220  1.0  0.384
  Cu  Cu21  1  0.245080  0.778110  0.459320  1.0  0.9472
  Cu  Cu22  1  0.745550  0.868950  0.015680  1.0  0.8859
  Cu  Cu23  1  0.751690  0.984890  0.010220  1.0  0.3834
  Cu  Cu24  1  0.754920  0.221890  0.959320  1.0  0.9493
  Cu  Cu25  1  0.995700  0.627280  0.250000  1.0  0.9071
  Cu  Cu26  1  0.027380  0.712560  0.250000  1.0  0.8969
  Cu  Cu27  1  0.477530  0.732810  0.250000  1.0  0.8844
  Cu  Cu28  1  0.508890  0.647670  0.250000  1.0  0.9607
  Cu  Cu29  1  0.004300  0.372720  0.750000  1.0  0.9055
  Cu  Cu30  1  0.972620  0.287440  0.750000  1.0  0.8983
  Cu  Cu31  1  0.522470  0.267190  0.750000  1.0  0.8867
  Cu  Cu32  1  0.491110  0.352330  0.750000  1.0  0.9573
  Cu  Cu33  1  0.004300  0.127280  0.250000  1.0  0.9503
  Cu  Cu34  1  0.972620  0.212560  0.250000  1.0  0.8965
  Cu  Cu35  1  0.522470  0.232810  0.250000  1.0  0.8833
  Cu  Cu36  1  0.491110  0.147670  0.250000  1.0  0.9597
  Cu  Cu37  1  0.995700  0.872720  0.750000  1.0  0.9478
  Cu  Cu38  1  0.027380  0.787440  0.750000  1.0  0.8984
  Cu  Cu39  1  0.477530  0.767190  0.750000  1.0  0.8864
  Cu  Cu40  1  0.508890  0.852330  0.750000  1.0  0.9572
  H  H41  1  0.122000  0.401400  0.124000  1.0  0.1128
  H  H42  1  0.094400  0.571300  0.143100  1.0  0.1067
  H  H43  1  0.124900  0.702900  0.122000  1.0  0.106
  H  H44  1  0.180800  0.609400  0.025300  1.0  0.1119
  H  H45  1  0.185600  0.236600  0.056900  1.0  0.096
  H  H46  1  0.116200  0.139600  0.134800  1.0  0.107
  H  H47  1  0.075900  0.270300  0.149400  1.0  0.1099
  H  H48  1  0.386600  0.449700  0.122100  1.0  0.1471
  H  H49  1  0.316900  0.246700  0.042200  1.0  0.1173
  H  H50  1  0.390700  0.155400  0.124400  1.0  0.085
  H  H51  1  0.414200  0.288900  0.148000  1.0  0.1007
  H  H52  1  0.410200  0.590700  0.154100  1.0  0.1084
  H  H53  1  0.368600  0.718700  0.123600  1.0  0.1168
  H  H54  1  0.316000  0.616400  0.038400  1.0  0.1138
  H  H55  1  0.109200  0.324600  0.096500  1.0  0.2564
  H  H56  1  0.331600  0.321300  0.056200  1.0  0.2546
  H  H57  1  0.160300  0.532500  0.037800  1.0  0.2691
  H  H58  1  0.390400  0.533300  0.092900  1.0  0.2883
  H  H59  1  0.878000  0.598600  0.624000  1.0  0.1121
  H  H60  1  0.905600  0.428700  0.643100  1.0  0.1061
  H  H61  1  0.875100  0.297100  0.622000  1.0  0.1066
  H  H62  1  0.819200  0.390600  0.525300  1.0  0.1123
  H  H63  1  0.814400  0.763400  0.556900  1.0  0.0965
  H  H64  1  0.883800  0.860400  0.634800  1.0  0.1064
  H  H65  1  0.924100  0.729700  0.649400  1.0  0.1098
  H  H66  1  0.613400  0.550300  0.622100  1.0  0.1469
  H  H67  1  0.683100  0.753300  0.542200  1.0  0.1174
  H  H68  1  0.609300  0.844600  0.624400  1.0  0.0847
  H  H69  1  0.585800  0.711100  0.648000  1.0  0.1018
  H  H70  1  0.589800  0.409300  0.654100  1.0  0.1084
  H  H71  1  0.631400  0.281300  0.623600  1.0  0.1171
  H  H72  1  0.684000  0.383600  0.538400  1.0  0.1142
  H  H73  1  0.890800  0.675400  0.596500  1.0  0.2567
  H  H74  1  0.668400  0.678700  0.556200  1.0  0.2547
  H  H75  1  0.839700  0.467500  0.537800  1.0  0.2683
  H  H76  1  0.609600  0.466700  0.592900  1.0  0.2871
  H  H77  1  0.878000  0.901400  0.376000  1.0  0.1122
  H  H78  1  0.905600  0.071300  0.356900  1.0  0.1069
  H  H79  1  0.875100  0.202900  0.378000  1.0  0.1061
  H  H80  1  0.819200  0.109400  0.474700  1.0  0.1122
  H  H81  1  0.814400  0.736600  0.443100  1.0  0.0965
  H  H82  1  0.883800  0.639600  0.365200  1.0  0.1066
  H  H83  1  0.924100  0.770300  0.350600  1.0  0.11
  H  H84  1  0.613400  0.949700  0.377900  1.0  0.1479
  H  H85  1  0.683100  0.746700  0.457800  1.0  0.1164
  H  H86  1  0.609300  0.655400  0.375600  1.0  0.0855
  H  H87  1  0.585800  0.788900  0.352000  1.0  0.1014
  H  H88  1  0.589800  0.090700  0.345900  1.0  0.1079
  H  H89  1  0.631400  0.218700  0.376400  1.0  0.117
  H  H90  1  0.684000  0.116400  0.461600  1.0  0.1145
  H  H91  1  0.890800  0.824600  0.403500  1.0  0.257
  H  H92  1  0.668400  0.821300  0.443800  1.0  0.2545
  H  H93  1  0.839700  0.032500  0.462200  1.0  0.2697
  H  H94  1  0.609600  0.033300  0.407100  1.0  0.2875
  H  H95  1  0.122000  0.098600  0.876000  1.0  0.1124
  H  H96  1  0.094400  0.928700  0.856900  1.0  0.1067
  H  H97  1  0.124900  0.797100  0.878000  1.0  0.1071
  H  H98  1  0.180800  0.890600  0.974700  1.0  0.1122
  H  H99  1  0.185600  0.263400  0.943100  1.0  0.0963
  H  H100  1  0.116200  0.360400  0.865200  1.0  0.1055
  H  H101  1  0.075900  0.229700  0.850600  1.0  0.1104
  H  H102  1  0.386600  0.050300  0.877900  1.0  0.1473
  H  H103  1  0.316900  0.253300  0.957800  1.0  0.1162
  H  H104  1  0.390700  0.344600  0.875600  1.0  0.0848
  H  H105  1  0.414200  0.211100  0.852000  1.0  0.1011
  H  H106  1  0.410200  0.909300  0.845900  1.0  0.1084
  H  H107  1  0.368600  0.781300  0.876400  1.0  0.1173
  H  H108  1  0.316000  0.883600  0.961600  1.0  0.1144
  H  H109  1  0.109200  0.175400  0.903500  1.0  0.2572
  H  H110  1  0.331600  0.178700  0.943800  1.0  0.255
  H  H111  1  0.160300  0.967500  0.962200  1.0  0.2705
  H  H112  1  0.390400  0.966700  0.907100  1.0  0.2897
  H  H113  1  0.878000  0.598600  0.876000  1.0  0.1125
  H  H114  1  0.905600  0.428700  0.856900  1.0  0.1065
  H  H115  1  0.875100  0.297100  0.878000  1.0  0.107
  H  H116  1  0.819200  0.390600  0.974700  1.0  0.1122
  H  H117  1  0.814400  0.763400  0.943100  1.0  0.0964
  H  H118  1  0.883800  0.860400  0.865200  1.0  0.106
  H  H119  1  0.924100  0.729700  0.850600  1.0  0.1105
  H  H120  1  0.613400  0.550300  0.877900  1.0  0.1479
  H  H121  1  0.683100  0.753300  0.957800  1.0  0.1166
  H  H122  1  0.609300  0.844600  0.875600  1.0  0.0851
  H  H123  1  0.585800  0.711100  0.852000  1.0  0.1011
  H  H124  1  0.589800  0.409300  0.845900  1.0  0.1084
  H  H125  1  0.631400  0.281300  0.876400  1.0  0.1172
  H  H126  1  0.684000  0.383600  0.961600  1.0  0.1144
  H  H127  1  0.890800  0.675400  0.903500  1.0  0.2569
  H  H128  1  0.668400  0.678700  0.943800  1.0  0.2549
  H  H129  1  0.839700  0.467500  0.962200  1.0  0.2696
  H  H130  1  0.609600  0.466700  0.907100  1.0  0.2875
  H  H131  1  0.122000  0.401400  0.376000  1.0  0.1122
  H  H132  1  0.094400  0.571300  0.356900  1.0  0.1068
  H  H133  1  0.124900  0.702900  0.378000  1.0  0.1064
  H  H134  1  0.180800  0.609400  0.474700  1.0  0.1124
  H  H135  1  0.185600  0.236600  0.443100  1.0  0.0961
  H  H136  1  0.116200  0.139600  0.365200  1.0  0.1072
  H  H137  1  0.075900  0.270300  0.350600  1.0  0.1103
  H  H138  1  0.386600  0.449700  0.377900  1.0  0.1474
  H  H139  1  0.316900  0.246700  0.457800  1.0  0.1166
  H  H140  1  0.390700  0.155400  0.375600  1.0  0.0854
  H  H141  1  0.414200  0.288900  0.352000  1.0  0.1006
  H  H142  1  0.410200  0.590700  0.345900  1.0  0.1082
  H  H143  1  0.368600  0.718700  0.376400  1.0  0.117
  H  H144  1  0.316000  0.616400  0.461600  1.0  0.1141
  H  H145  1  0.109200  0.324600  0.403500  1.0  0.2559
  H  H146  1  0.331600  0.321300  0.443800  1.0  0.2548
  H  H147  1  0.160300  0.532500  0.462200  1.0  0.2708
  H  H148  1  0.390400  0.533300  0.407100  1.0  0.2886
  H  H149  1  0.122000  0.098600  0.624000  1.0  0.1129
  H  H150  1  0.094400  0.928700  0.643100  1.0  0.1066
  H  H151  1  0.124900  0.797100  0.622000  1.0  0.1069
  H  H152  1  0.180800  0.890600  0.525300  1.0  0.1119
  H  H153  1  0.185600  0.263400  0.556900  1.0  0.0961
  H  H154  1  0.116200  0.360400  0.634800  1.0  0.1056
  H  H155  1  0.075900  0.229700  0.649400  1.0  0.1101
  H  H156  1  0.386600  0.050300  0.622100  1.0  0.1469
  H  H157  1  0.316900  0.253300  0.542200  1.0  0.1168
  H  H158  1  0.390700  0.344600  0.624400  1.0  0.0845
  H  H159  1  0.414200  0.211100  0.648000  1.0  0.1014
  H  H160  1  0.410200  0.909300  0.654100  1.0  0.1085
  H  H161  1  0.368600  0.781300  0.623600  1.0  0.1171
  H  H162  1  0.316000  0.883600  0.538400  1.0  0.1143
  H  H163  1  0.109200  0.175400  0.596500  1.0  0.2576
  H  H164  1  0.331600  0.178700  0.556200  1.0  0.2544
  H  H165  1  0.160300  0.967500  0.537800  1.0  0.2687
  H  H166  1  0.390400  0.966700  0.592900  1.0  0.2894
  H  H167  1  0.878000  0.901400  0.124000  1.0  0.112
  H  H168  1  0.905600  0.071300  0.143100  1.0  0.1068
  H  H169  1  0.875100  0.202900  0.122000  1.0  0.1058
  H  H170  1  0.819200  0.109400  0.025300  1.0  0.1121
  H  H171  1  0.814400  0.736600  0.056900  1.0  0.0967
  H  H172  1  0.883800  0.639600  0.134800  1.0  0.1063
  H  H173  1  0.924100  0.770300  0.149400  1.0  0.1096
  H  H174  1  0.613400  0.949700  0.122100  1.0  0.1469
  H  H175  1  0.683100  0.746700  0.042200  1.0  0.1172
  H  H176  1  0.609300  0.655400  0.124400  1.0  0.0852
  H  H177  1  0.585800  0.788900  0.148000  1.0  0.1018
  H  H178  1  0.589800  0.090700  0.154100  1.0  0.1082
  H  H179  1  0.631400  0.218700  0.123600  1.0  0.1168
  H  H180  1  0.684000  0.116400  0.038400  1.0  0.1141
  H  H181  1  0.890800  0.824600  0.096500  1.0  0.2571
  H  H182  1  0.668400  0.821300  0.056200  1.0  0.2549
  H  H183  1  0.839700  0.032500  0.037800  1.0  0.2684
  H  H184  1  0.609600  0.033300  0.092900  1.0  0.2872
  C  C185  1  0.153600  0.455900  0.074100  1.0  0.0642
  C  C186  1  0.143200  0.408800  0.097400  1.0  -0.0941
  C  C187  1  0.170400  0.382600  0.072100  1.0  0.2426
  C  C188  1  0.142100  0.499100  0.097500  1.0  0.506
  C  C189  1  0.138800  0.580900  0.079400  1.0  0.2269
  C  C190  1  0.109900  0.593600  0.123700  1.0  -0.0491
  C  C191  1  0.105600  0.640200  0.137200  1.0  -0.0814
  C  C192  1  0.128300  0.672610  0.112100  1.0  -0.0476
  C  C193  1  0.157700  0.661200  0.070300  1.0  -0.1431
  C  C194  1  0.161900  0.616000  0.054100  1.0  -0.0922
  C  C195  1  0.071300  0.650800  0.180500  1.0  0.65
  C  C196  1  0.184400  0.697400  0.039300  1.0  0.6645
  C  C197  1  0.174300  0.332300  0.081100  1.0  0.4202
  C  C198  1  0.132400  0.262000  0.103300  1.0  0.1729
  C  C199  1  0.161600  0.228100  0.080100  1.0  -0.0755
  C  C200  1  0.154900  0.182900  0.091500  1.0  -0.1258
  C  C201  1  0.119400  0.170100  0.125500  1.0  0.0078
  C  C202  1  0.088000  0.202400  0.146300  1.0  -0.1943
  C  C203  1  0.096100  0.248300  0.134900  1.0  -0.0901
  C  C204  1  0.185900  0.147800  0.067300  1.0  0.7109
  C  C205  1  0.049000  0.189400  0.184400  1.0  0.6911
  C  C206  1  0.331300  0.475400  0.069500  1.0  0.0695
  C  C207  1  0.361200  0.444000  0.099400  1.0  -0.0392
  C  C208  1  0.339500  0.401400  0.083300  1.0  0.097
  C  C209  1  0.358000  0.357000  0.105500  1.0  0.6433
  C  C210  1  0.364400  0.275100  0.095500  1.0  0.1868
  C  C211  1  0.339000  0.240300  0.068300  1.0  -0.1364
  C  C212  1  0.349800  0.195500  0.083900  1.0  -0.1335
  C  C213  1  0.383100  0.185900  0.118400  1.0  -0.0344
  C  C214  1  0.407600  0.219200  0.146000  1.0  -0.1692
  C  C215  1  0.397600  0.265300  0.131900  1.0  -0.0855
  C  C216  1  0.443700  0.207500  0.182800  1.0  0.6927
  C  C217  1  0.322600  0.157300  0.053500  1.0  0.6364
  C  C218  1  0.328000  0.521500  0.067900  1.0  0.5932
  C  C219  1  0.364600  0.594500  0.092300  1.0  0.2033
  C  C220  1  0.393400  0.611100  0.133300  1.0  -0.1141
  C  C221  1  0.396800  0.657400  0.142600  1.0  -0.1402
  C  C222  1  0.368000  0.687800  0.115700  1.0  0.0246
  C  C223  1  0.338700  0.671800  0.077200  1.0  -0.0948
  C  C224  1  0.336200  0.626200  0.064800  1.0  -0.0296
  C  C225  1  0.308400  0.704700  0.046700  1.0  0.6814
  C  C226  1  0.433200  0.671500  0.181400  1.0  0.6668
  C  C227  1  0.846400  0.544100  0.574100  1.0  0.0649
  C  C228  1  0.856800  0.591200  0.597400  1.0  -0.0911
  C  C229  1  0.829600  0.617400  0.572100  1.0  0.2421
  C  C230  1  0.857900  0.500900  0.597500  1.0  0.5069
  C  C231  1  0.861200  0.419100  0.579400  1.0  0.228
  C  C232  1  0.890100  0.406400  0.623700  1.0  -0.0487
  C  C233  1  0.894400  0.359800  0.637200  1.0  -0.0807
  C  C234  1  0.871700  0.327390  0.612100  1.0  -0.0476
  C  C235  1  0.842300  0.338800  0.570300  1.0  -0.1431
  C  C236  1  0.838100  0.384000  0.554100  1.0  -0.0925
  C  C237  1  0.928700  0.349200  0.680500  1.0  0.6499
  C  C238  1  0.815600  0.302600  0.539300  1.0  0.6665
  C  C239  1  0.825700  0.667700  0.581100  1.0  0.4193
  C  C240  1  0.867600  0.738000  0.603300  1.0  0.1731
  C  C241  1  0.838400  0.771900  0.580100  1.0  -0.0758
  C  C242  1  0.845100  0.817100  0.591500  1.0  -0.1272
  C  C243  1  0.880600  0.829900  0.625500  1.0  0.0085
  C  C244  1  0.912000  0.797600  0.646300  1.0  -0.1936
  C  C245  1  0.903900  0.751700  0.634900  1.0  -0.0898
  C  C246  1  0.814100  0.852200  0.567300  1.0  0.7134
  C  C247  1  0.951000  0.810600  0.684400  1.0  0.6911
  C  C248  1  0.668700  0.524600  0.569500  1.0  0.0685
  C  C249  1  0.638800  0.556000  0.599400  1.0  -0.041
  C  C250  1  0.660500  0.598600  0.583300  1.0  0.0935
  C  C251  1  0.642000  0.643000  0.605500  1.0  0.6414
  C  C252  1  0.635600  0.724900  0.595500  1.0  0.1883
  C  C253  1  0.661000  0.759700  0.568300  1.0  -0.1349
  C  C254  1  0.650200  0.804500  0.583900  1.0  -0.1318
  C  C255  1  0.616900  0.814100  0.618400  1.0  -0.0338
  C  C256  1  0.592400  0.780800  0.646000  1.0  -0.1689
  C  C257  1  0.602400  0.734700  0.631900  1.0  -0.0863
  C  C258  1  0.556300  0.792500  0.682800  1.0  0.6928
  C  C259  1  0.677400  0.842700  0.553500  1.0  0.6374
  C  C260  1  0.672000  0.478500  0.567900  1.0  0.5942
  C  C261  1  0.635400  0.405500  0.592300  1.0  0.2038
  C  C262  1  0.606600  0.388900  0.633300  1.0  -0.115
  C  C263  1  0.603200  0.342600  0.642600  1.0  -0.1405
  C  C264  1  0.632000  0.312200  0.615700  1.0  0.0245
  C  C265  1  0.661300  0.328200  0.577200  1.0  -0.0953
  C  C266  1  0.663800  0.373800  0.564800  1.0  -0.0306
  C  C267  1  0.691600  0.295300  0.546700  1.0  0.6819
  C  C268  1  0.566800  0.328500  0.681400  1.0  0.6663
  C  C269  1  0.846400  0.955900  0.425900  1.0  0.0638
  C  C270  1  0.856800  0.908800  0.402600  1.0  -0.0903
  C  C271  1  0.829600  0.882600  0.427900  1.0  0.2425
  C  C272  1  0.857900  0.999100  0.402500  1.0  0.5052
  C  C273  1  0.861200  0.080900  0.420600  1.0  0.2271
  C  C274  1  0.890100  0.093600  0.376300  1.0  -0.0478
  C  C275  1  0.894400  0.140200  0.362800  1.0  -0.0809
  C  C276  1  0.871700  0.172610  0.387900  1.0  -0.0477
  C  C277  1  0.842300  0.161200  0.429700  1.0  -0.1423
  C  C278  1  0.838100  0.116000  0.445900  1.0  -0.0919
  C  C279  1  0.928700  0.150800  0.319500  1.0  0.6499
  C  C280  1  0.815600  0.197400  0.460700  1.0  0.6666
  C  C281  1  0.825700  0.832300  0.418900  1.0  0.418
  C  C282  1  0.867600  0.762000  0.396700  1.0  0.1735
  C  C283  1  0.838400  0.728100  0.419900  1.0  -0.0757
  C  C284  1  0.845100  0.682900  0.408500  1.0  -0.1276
  C  C285  1  0.880600  0.670100  0.374500  1.0  0.0084
  C  C286  1  0.912000  0.702400  0.353700  1.0  -0.194
  C  C287  1  0.903900  0.748300  0.365100  1.0  -0.0898
  C  C288  1  0.814100  0.647800  0.432700  1.0  0.7106
  C  C289  1  0.951000  0.689400  0.315600  1.0  0.6908
  C  C290  1  0.668700  0.975400  0.430500  1.0  0.0687
  C  C291  1  0.638800  0.944000  0.400600  1.0  -0.0407
  C  C292  1  0.660500  0.901400  0.416700  1.0  0.0917
  C  C293  1  0.642000  0.857000  0.394500  1.0  0.6438
  C  C294  1  0.635600  0.775100  0.404500  1.0  0.1884
  C  C295  1  0.661000  0.740300  0.431700  1.0  -0.1337
  C  C296  1  0.650200  0.695500  0.416100  1.0  -0.1319
  C  C297  1  0.616900  0.685900  0.381600  1.0  -0.0356
  C  C298  1  0.592400  0.719200  0.354000  1.0  -0.1689
  C  C299  1  0.602400  0.765300  0.368100  1.0  -0.0866
  C  C300  1  0.556300  0.707500  0.317200  1.0  0.6929
  C  C301  1  0.677400  0.657300  0.446500  1.0  0.6354
  C  C302  1  0.672000  0.021500  0.432100  1.0  0.5945
  C  C303  1  0.635400  0.094500  0.407700  1.0  0.2043
  C  C304  1  0.606600  0.111100  0.366700  1.0  -0.1138
  C  C305  1  0.603200  0.157400  0.357400  1.0  -0.1409
  C  C306  1  0.632000  0.187800  0.384300  1.0  0.0239
  C  C307  1  0.661300  0.171800  0.422800  1.0  -0.095
  C  C308  1  0.663800  0.126200  0.435200  1.0  -0.0312
  C  C309  1  0.691600  0.204700  0.453300  1.0  0.6817
  C  C310  1  0.566800  0.171500  0.318600  1.0  0.6666
  C  C311  1  0.153600  0.044100  0.925900  1.0  0.0639
  C  C312  1  0.143200  0.091200  0.902600  1.0  -0.0922
  C  C313  1  0.170400  0.117400  0.927900  1.0  0.2418
  C  C314  1  0.142100  0.000900  0.902500  1.0  0.5041
  C  C315  1  0.138800  0.919100  0.920600  1.0  0.2267
  C  C316  1  0.109900  0.906400  0.876300  1.0  -0.0479
  C  C317  1  0.105600  0.859800  0.862800  1.0  -0.081
  C  C318  1  0.128300  0.827390  0.887900  1.0  -0.0478
  C  C319  1  0.157700  0.838800  0.929700  1.0  -0.144
  C  C320  1  0.161900  0.884000  0.945900  1.0  -0.091
  C  C321  1  0.071300  0.849200  0.819500  1.0  0.6499
  C  C322  1  0.184400  0.802600  0.960700  1.0  0.6652
  C  C323  1  0.174300  0.167700  0.918900  1.0  0.4202
  C  C324  1  0.132400  0.238000  0.896700  1.0  0.1732
  C  C325  1  0.161600  0.271900  0.919900  1.0  -0.0754
  C  C326  1  0.154900  0.317100  0.908500  1.0  -0.1262
  C  C327  1  0.119400  0.329900  0.874500  1.0  0.0084
  C  C328  1  0.088000  0.297600  0.853700  1.0  -0.1938
  C  C329  1  0.096100  0.251700  0.865100  1.0  -0.0898
  C  C330  1  0.185900  0.352200  0.932700  1.0  0.712
  C  C331  1  0.049000  0.310600  0.815600  1.0  0.6911
  C  C332  1  0.331300  0.024600  0.930500  1.0  0.0691
  C  C333  1  0.361200  0.056000  0.900600  1.0  -0.0392
  C  C334  1  0.339500  0.098600  0.916700  1.0  0.0968
  C  C335  1  0.358000  0.143000  0.894500  1.0  0.6407
  C  C336  1  0.364400  0.224900  0.904500  1.0  0.1878
  C  C337  1  0.339000  0.259700  0.931700  1.0  -0.1349
  C  C338  1  0.349800  0.304500  0.916100  1.0  -0.1338
  C  C339  1  0.383100  0.314100  0.881600  1.0  -0.0338
  C  C340  1  0.407600  0.280800  0.854000  1.0  -0.1691
  C  C341  1  0.397600  0.234700  0.868100  1.0  -0.0853
  C  C342  1  0.443700  0.292500  0.817200  1.0  0.6929
  C  C343  1  0.322600  0.342700  0.946500  1.0  0.639
  C  C344  1  0.328000  0.978500  0.932100  1.0  0.5924
  C  C345  1  0.364600  0.905500  0.907700  1.0  0.2039
  C  C346  1  0.393400  0.888900  0.866700  1.0  -0.1142
  C  C347  1  0.396800  0.842600  0.857400  1.0  -0.1411
  C  C348  1  0.368000  0.812200  0.884300  1.0  0.0237
  C  C349  1  0.338700  0.828200  0.922800  1.0  -0.095
  C  C350  1  0.336200  0.873800  0.935200  1.0  -0.0303
  C  C351  1  0.308400  0.795300  0.953300  1.0  0.6819
  C  C352  1  0.433200  0.828500  0.818600  1.0  0.6661
  C  C353  1  0.846400  0.544100  0.925900  1.0  0.0647
  C  C354  1  0.856800  0.591200  0.902600  1.0  -0.091
  C  C355  1  0.829600  0.617400  0.927900  1.0  0.2417
  C  C356  1  0.857900  0.500900  0.902500  1.0  0.505
  C  C357  1  0.861200  0.419100  0.920600  1.0  0.2273
  C  C358  1  0.890100  0.406400  0.876300  1.0  -0.0474
  C  C359  1  0.894400  0.359800  0.862800  1.0  -0.0805
  C  C360  1  0.871700  0.327390  0.887900  1.0  -0.0477
  C  C361  1  0.842300  0.338800  0.929700  1.0  -0.1431
  C  C362  1  0.838100  0.384000  0.945900  1.0  -0.0918
  C  C363  1  0.928700  0.349200  0.819500  1.0  0.6498
  C  C364  1  0.815600  0.302600  0.960700  1.0  0.6671
  C  C365  1  0.825700  0.667700  0.918900  1.0  0.4186
  C  C366  1  0.867600  0.738000  0.896700  1.0  0.1737
  C  C367  1  0.838400  0.771900  0.919900  1.0  -0.0754
  C  C368  1  0.845100  0.817100  0.908500  1.0  -0.1272
  C  C369  1  0.880600  0.829900  0.874500  1.0  0.0087
  C  C370  1  0.912000  0.797600  0.853700  1.0  -0.1936
  C  C371  1  0.903900  0.751700  0.865100  1.0  -0.0896
  C  C372  1  0.814100  0.852200  0.932700  1.0  0.7124
  C  C373  1  0.951000  0.810600  0.815600  1.0  0.691
  C  C374  1  0.668700  0.524600  0.930500  1.0  0.0682
  C  C375  1  0.638800  0.556000  0.900600  1.0  -0.0407
  C  C376  1  0.660500  0.598600  0.916700  1.0  0.0922
  C  C377  1  0.642000  0.643000  0.894500  1.0  0.6416
  C  C378  1  0.635600  0.724900  0.904500  1.0  0.1888
  C  C379  1  0.661000  0.759700  0.931700  1.0  -0.1333
  C  C380  1  0.650200  0.804500  0.916100  1.0  -0.132
  C  C381  1  0.616900  0.814100  0.881600  1.0  -0.034
  C  C382  1  0.592400  0.780800  0.854000  1.0  -0.1687
  C  C383  1  0.602400  0.734700  0.868100  1.0  -0.0858
  C  C384  1  0.556300  0.792500  0.817200  1.0  0.6928
  C  C385  1  0.677400  0.842700  0.946500  1.0  0.6389
  C  C386  1  0.672000  0.478500  0.932100  1.0  0.594
  C  C387  1  0.635400  0.405500  0.907700  1.0  0.2042
  C  C388  1  0.606600  0.388900  0.866700  1.0  -0.1138
  C  C389  1  0.603200  0.342600  0.857400  1.0  -0.1414
  C  C390  1  0.632000  0.312200  0.884300  1.0  0.024
  C  C391  1  0.661300  0.328200  0.922800  1.0  -0.0953
  C  C392  1  0.663800  0.373800  0.935200  1.0  -0.0313
  C  C393  1  0.691600  0.295300  0.953300  1.0  0.6821
  C  C394  1  0.566800  0.328500  0.818600  1.0  0.666
  C  C395  1  0.153600  0.455900  0.425900  1.0  0.064
  C  C396  1  0.143200  0.408800  0.402600  1.0  -0.0922
  C  C397  1  0.170400  0.382600  0.427900  1.0  0.2423
  C  C398  1  0.142100  0.499100  0.402500  1.0  0.5043
  C  C399  1  0.138800  0.580900  0.420600  1.0  0.2265
  C  C400  1  0.109900  0.593600  0.376300  1.0  -0.0482
  C  C401  1  0.105600  0.640200  0.362800  1.0  -0.0814
  C  C402  1  0.128300  0.672610  0.387900  1.0  -0.0479
  C  C403  1  0.157700  0.661200  0.429700  1.0  -0.1432
  C  C404  1  0.161900  0.616000  0.445900  1.0  -0.0908
  C  C405  1  0.071300  0.650800  0.319500  1.0  0.65
  C  C406  1  0.184400  0.697400  0.460700  1.0  0.6649
  C  C407  1  0.174300  0.332300  0.418900  1.0  0.4198
  C  C408  1  0.132400  0.262000  0.396700  1.0  0.1732
  C  C409  1  0.161600  0.228100  0.419900  1.0  -0.0756
  C  C410  1  0.154900  0.182900  0.408500  1.0  -0.1264
  C  C411  1  0.119400  0.170100  0.374500  1.0  0.0085
  C  C412  1  0.088000  0.202400  0.353700  1.0  -0.1946
  C  C413  1  0.096100  0.248300  0.365100  1.0  -0.0898
  C  C414  1  0.185900  0.147800  0.432700  1.0  0.7104
  C  C415  1  0.049000  0.189400  0.315600  1.0  0.691
  C  C416  1  0.331300  0.475400  0.430500  1.0  0.0693
  C  C417  1  0.361200  0.444000  0.400600  1.0  -0.039
  C  C418  1  0.339500  0.401400  0.416700  1.0  0.0966
  C  C419  1  0.358000  0.357000  0.394500  1.0  0.6428
  C  C420  1  0.364400  0.275100  0.404500  1.0  0.1875
  C  C421  1  0.339000  0.240300  0.431700  1.0  -0.1349
  C  C422  1  0.349800  0.195500  0.416100  1.0  -0.1336
  C  C423  1  0.383100  0.185900  0.381600  1.0  -0.0351
  C  C424  1  0.407600  0.219200  0.354000  1.0  -0.1692
  C  C425  1  0.397600  0.265300  0.368100  1.0  -0.0866
  C  C426  1  0.443700  0.207500  0.317200  1.0  0.6925
  C  C427  1  0.322600  0.157300  0.446500  1.0  0.6366
  C  C428  1  0.328000  0.521500  0.432100  1.0  0.593
  C  C429  1  0.364600  0.594500  0.407700  1.0  0.2036
  C  C430  1  0.393400  0.611100  0.366700  1.0  -0.1141
  C  C431  1  0.396800  0.657400  0.357400  1.0  -0.1406
  C  C432  1  0.368000  0.687800  0.384300  1.0  0.0238
  C  C433  1  0.338700  0.671800  0.422800  1.0  -0.0947
  C  C434  1  0.336200  0.626200  0.435200  1.0  -0.0302
  C  C435  1  0.308400  0.704700  0.453300  1.0  0.6815
  C  C436  1  0.433200  0.671500  0.318600  1.0  0.6666
  C  C437  1  0.153600  0.044100  0.574100  1.0  0.0641
  C  C438  1  0.143200  0.091200  0.597400  1.0  -0.0937
  C  C439  1  0.170400  0.117400  0.572100  1.0  0.2423
  C  C440  1  0.142100  0.000900  0.597500  1.0  0.5056
  C  C441  1  0.138800  0.919100  0.579400  1.0  0.2272
  C  C442  1  0.109900  0.906400  0.623700  1.0  -0.0493
  C  C443  1  0.105600  0.859800  0.637200  1.0  -0.0811
  C  C444  1  0.128300  0.827390  0.612100  1.0  -0.0478
  C  C445  1  0.157700  0.838800  0.570300  1.0  -0.144
  C  C446  1  0.161900  0.884000  0.554100  1.0  -0.0922
  C  C447  1  0.071300  0.849200  0.680500  1.0  0.65
  C  C448  1  0.184400  0.802600  0.539300  1.0  0.6646
  C  C449  1  0.174300  0.167700  0.581100  1.0  0.4206
  C  C450  1  0.132400  0.238000  0.603300  1.0  0.1728
  C  C451  1  0.161600  0.271900  0.580100  1.0  -0.0755
  C  C452  1  0.154900  0.317100  0.591500  1.0  -0.1263
  C  C453  1  0.119400  0.329900  0.625500  1.0  0.0081
  C  C454  1  0.088000  0.297600  0.646300  1.0  -0.1937
  C  C455  1  0.096100  0.251700  0.634900  1.0  -0.09
  C  C456  1  0.185900  0.352200  0.567300  1.0  0.7127
  C  C457  1  0.049000  0.310600  0.684400  1.0  0.6912
  C  C458  1  0.331300  0.024600  0.569500  1.0  0.0693
  C  C459  1  0.361200  0.056000  0.599400  1.0  -0.039
  C  C460  1  0.339500  0.098600  0.583300  1.0  0.0971
  C  C461  1  0.358000  0.143000  0.605500  1.0  0.6427
  C  C462  1  0.364400  0.224900  0.595500  1.0  0.1873
  C  C463  1  0.339000  0.259700  0.568300  1.0  -0.1363
  C  C464  1  0.349800  0.304500  0.583900  1.0  -0.1333
  C  C465  1  0.383100  0.314100  0.618400  1.0  -0.0332
  C  C466  1  0.407600  0.280800  0.646000  1.0  -0.1693
  C  C467  1  0.397600  0.234700  0.631900  1.0  -0.0852
  C  C468  1  0.443700  0.292500  0.682800  1.0  0.6929
  C  C469  1  0.322600  0.342700  0.553500  1.0  0.6381
  C  C470  1  0.328000  0.978500  0.567900  1.0  0.5927
  C  C471  1  0.364600  0.905500  0.592300  1.0  0.2035
  C  C472  1  0.393400  0.888900  0.633300  1.0  -0.115
  C  C473  1  0.396800  0.842600  0.642600  1.0  -0.1402
  C  C474  1  0.368000  0.812200  0.615700  1.0  0.0243
  C  C475  1  0.338700  0.828200  0.577200  1.0  -0.095
  C  C476  1  0.336200  0.873800  0.564800  1.0  -0.0297
  C  C477  1  0.308400  0.795300  0.546700  1.0  0.6819
  C  C478  1  0.433200  0.828500  0.681400  1.0  0.6664
  C  C479  1  0.846400  0.955900  0.074100  1.0  0.0642
  C  C480  1  0.856800  0.908800  0.097400  1.0  -0.0912
  C  C481  1  0.829600  0.882600  0.072100  1.0  0.2427
  C  C482  1  0.857900  0.999100  0.097500  1.0  0.5074
  C  C483  1  0.861200  0.080900  0.079400  1.0  0.2276
  C  C484  1  0.890100  0.093600  0.123700  1.0  -0.0487
  C  C485  1  0.894400  0.140200  0.137200  1.0  -0.081
  C  C486  1  0.871700  0.172610  0.112100  1.0  -0.0474
  C  C487  1  0.842300  0.161200  0.070300  1.0  -0.1422
  C  C488  1  0.838100  0.116000  0.054100  1.0  -0.0926
  C  C489  1  0.928700  0.150800  0.180500  1.0  0.6499
  C  C490  1  0.815600  0.197400  0.039300  1.0  0.6662
  C  C491  1  0.825700  0.832300  0.081100  1.0  0.4188
  C  C492  1  0.867600  0.762000  0.103300  1.0  0.1729
  C  C493  1  0.838400  0.728100  0.080100  1.0  -0.076
  C  C494  1  0.845100  0.682900  0.091500  1.0  -0.1269
  C  C495  1  0.880600  0.670100  0.125500  1.0  0.0079
  C  C496  1  0.912000  0.702400  0.146300  1.0  -0.1938
  C  C497  1  0.903900  0.748300  0.134900  1.0  -0.09
  C  C498  1  0.814100  0.647800  0.067300  1.0  0.7112
  C  C499  1  0.951000  0.689400  0.184400  1.0  0.6911
  C  C500  1  0.668700  0.975400  0.069500  1.0  0.0689
  C  C501  1  0.638800  0.944000  0.099400  1.0  -0.0413
  C  C502  1  0.660500  0.901400  0.083300  1.0  0.0932
  C  C503  1  0.642000  0.857000  0.105500  1.0  0.6421
  C  C504  1  0.635600  0.775100  0.095500  1.0  0.188
  C  C505  1  0.661000  0.740300  0.068300  1.0  -0.1355
  C  C506  1  0.650200  0.695500  0.083900  1.0  -0.1318
  C  C507  1  0.616900  0.685900  0.118400  1.0  -0.0353
  C  C508  1  0.592400  0.719200  0.146000  1.0  -0.1688
  C  C509  1  0.602400  0.765300  0.131900  1.0  -0.086
  C  C510  1  0.556300  0.707500  0.182800  1.0  0.6929
  C  C511  1  0.677400  0.657300  0.053500  1.0  0.6348
  C  C512  1  0.672000  0.021500  0.067900  1.0  0.5946
  C  C513  1  0.635400  0.094500  0.092300  1.0  0.2039
  C  C514  1  0.606600  0.111100  0.133300  1.0  -0.114
  C  C515  1  0.603200  0.157400  0.142600  1.0  -0.1406
  C  C516  1  0.632000  0.187800  0.115700  1.0  0.0247
  C  C517  1  0.661300  0.171800  0.077200  1.0  -0.0951
  C  C518  1  0.663800  0.126200  0.064800  1.0  -0.0305
  C  C519  1  0.691600  0.204700  0.046700  1.0  0.6816
  C  C520  1  0.566800  0.171500  0.181400  1.0  0.6667
  N  N521  1  0.202700  0.404440  0.045800  1.0  -0.2042
  N  N522  1  0.192700  0.448560  0.045600  1.0  -0.1972
  N  N523  1  0.302500  0.405590  0.054400  1.0  -0.2882
  N  N524  1  0.296400  0.450270  0.046600  1.0  -0.2462
  N  N525  1  0.135600  0.309300  0.093700  1.0  -0.3683
  N  N526  1  0.349500  0.319320  0.083300  1.0  -0.3314
  N  N527  1  0.148400  0.537190  0.068000  1.0  -0.2423
  N  N528  1  0.364100  0.547400  0.085200  1.0  -0.4226
  N  N529  1  0.797300  0.595560  0.545800  1.0  -0.2045
  N  N530  1  0.807300  0.551440  0.545600  1.0  -0.1993
  N  N531  1  0.697500  0.594410  0.554400  1.0  -0.2887
  N  N532  1  0.703600  0.549730  0.546600  1.0  -0.249
  N  N533  1  0.864400  0.690700  0.593700  1.0  -0.366
  N  N534  1  0.650500  0.680680  0.583300  1.0  -0.3315
  N  N535  1  0.851600  0.462810  0.568000  1.0  -0.2409
  N  N536  1  0.635900  0.452600  0.585200  1.0  -0.424
  N  N537  1  0.797300  0.904440  0.454200  1.0  -0.2036
  N  N538  1  0.807300  0.948560  0.454400  1.0  -0.1973
  N  N539  1  0.697500  0.905590  0.445600  1.0  -0.2892
  N  N540  1  0.703600  0.950270  0.453400  1.0  -0.2496
  N  N541  1  0.864400  0.809300  0.406300  1.0  -0.3662
  N  N542  1  0.650500  0.819320  0.416700  1.0  -0.3313
  N  N543  1  0.851600  0.037190  0.432000  1.0  -0.241
  N  N544  1  0.635900  0.047400  0.414800  1.0  -0.4236
  N  N545  1  0.202700  0.095560  0.954200  1.0  -0.204
  N  N546  1  0.192700  0.051440  0.954400  1.0  -0.1957
  N  N547  1  0.302500  0.094410  0.945600  1.0  -0.2883
  N  N548  1  0.296400  0.049730  0.953400  1.0  -0.2476
  N  N549  1  0.135600  0.190700  0.906300  1.0  -0.3681
  N  N550  1  0.349500  0.180680  0.916700  1.0  -0.331
  N  N551  1  0.148400  0.962810  0.932000  1.0  -0.2421
  N  N552  1  0.364100  0.952600  0.914800  1.0  -0.4235
  N  N553  1  0.797300  0.595560  0.954200  1.0  -0.204
  N  N554  1  0.807300  0.551440  0.954400  1.0  -0.1977
  N  N555  1  0.697500  0.594410  0.945600  1.0  -0.2892
  N  N556  1  0.703600  0.549730  0.953400  1.0  -0.249
  N  N557  1  0.864400  0.690700  0.906300  1.0  -0.3656
  N  N558  1  0.650500  0.680680  0.916700  1.0  -0.3312
  N  N559  1  0.851600  0.462810  0.932000  1.0  -0.241
  N  N560  1  0.635900  0.452600  0.914800  1.0  -0.4244
  N  N561  1  0.202700  0.404440  0.454200  1.0  -0.2038
  N  N562  1  0.192700  0.448560  0.454400  1.0  -0.1959
  N  N563  1  0.302500  0.405590  0.445600  1.0  -0.2885
  N  N564  1  0.296400  0.450270  0.453400  1.0  -0.2479
  N  N565  1  0.135600  0.309300  0.406300  1.0  -0.3679
  N  N566  1  0.349500  0.319320  0.416700  1.0  -0.3314
  N  N567  1  0.148400  0.537190  0.432000  1.0  -0.2421
  N  N568  1  0.364100  0.547400  0.414800  1.0  -0.4228
  N  N569  1  0.202700  0.095560  0.545800  1.0  -0.2045
  N  N570  1  0.192700  0.051440  0.545600  1.0  -0.198
  N  N571  1  0.302500  0.094410  0.554400  1.0  -0.2881
  N  N572  1  0.296400  0.049730  0.546600  1.0  -0.2473
  N  N573  1  0.135600  0.190700  0.593700  1.0  -0.3683
  N  N574  1  0.349500  0.180680  0.583300  1.0  -0.3313
  N  N575  1  0.148400  0.962810  0.568000  1.0  -0.2422
  N  N576  1  0.364100  0.952600  0.585200  1.0  -0.4233
  N  N577  1  0.797300  0.904440  0.045800  1.0  -0.2038
  N  N578  1  0.807300  0.948560  0.045600  1.0  -0.198
  N  N579  1  0.697500  0.905590  0.054400  1.0  -0.2889
  N  N580  1  0.703600  0.950270  0.046600  1.0  -0.2484
  N  N581  1  0.864400  0.809300  0.093700  1.0  -0.3668
  N  N582  1  0.650500  0.819320  0.083300  1.0  -0.3314
  N  N583  1  0.851600  0.037190  0.068000  1.0  -0.2408
  N  N584  1  0.635900  0.047400  0.085200  1.0  -0.4233
  O  O585  1  0.217900  0.314750  0.072400  1.0  -0.6201
  O  O586  1  0.292700  0.537250  0.040400  1.0  -0.6021
  O  O587  1  0.114000  0.497700  0.135000  1.0  -0.4696
  O  O588  1  0.381900  0.361200  0.143800  1.0  -0.4188
  O  O589  1  0.022050  0.221710  0.199400  1.0  -0.5659
  O  O590  1  0.049050  0.148930  0.197800  1.0  -0.5662
  O  O591  1  0.184100  0.107180  0.082000  1.0  -0.4712
  O  O592  1  0.212710  0.161600  0.031500  1.0  -0.6107
  O  O593  1  0.303170  0.169930  0.011600  1.0  -0.6845
  O  O594  1  0.322100  0.119470  0.072000  1.0  -0.4815
  O  O595  1  0.447300  0.167250  0.196400  1.0  -0.5664
  O  O596  1  0.471650  0.240340  0.197200  1.0  -0.5894
  O  O597  1  0.461100  0.641070  0.197600  1.0  -0.5937
  O  O598  1  0.432760  0.712270  0.195800  1.0  -0.5678
  O  O599  1  0.296910  0.741560  0.069800  1.0  -0.5725
  O  O600  1  0.291300  0.690500  0.005600  1.0  -0.6068
  O  O601  1  0.195200  0.689090  0.996100  1.0  -0.5311
  O  O602  1  0.197950  0.732650  0.067400  1.0  -0.5837
  O  O603  1  0.071880  0.691140  0.195900  1.0  -0.5651
  O  O604  1  0.044110  0.618640  0.197300  1.0  -0.5784
  O  O605  1  0.782100  0.685250  0.572400  1.0  -0.621
  O  O606  1  0.707300  0.462750  0.540400  1.0  -0.6024
  O  O607  1  0.886000  0.502300  0.635000  1.0  -0.4687
  O  O608  1  0.618100  0.638800  0.643800  1.0  -0.4186
  O  O609  1  0.977950  0.778290  0.699400  1.0  -0.5682
  O  O610  1  0.950950  0.851070  0.697800  1.0  -0.564
  O  O611  1  0.815900  0.892820  0.582000  1.0  -0.4702
  O  O612  1  0.787290  0.838400  0.531500  1.0  -0.6101
  O  O613  1  0.696830  0.830070  0.511600  1.0  -0.6851
  O  O614  1  0.677900  0.880530  0.572000  1.0  -0.4786
  O  O615  1  0.552700  0.832750  0.696400  1.0  -0.5635
  O  O616  1  0.528350  0.759660  0.697200  1.0  -0.5901
  O  O617  1  0.538900  0.358930  0.697600  1.0  -0.5937
  O  O618  1  0.567240  0.287730  0.695800  1.0  -0.5683
  O  O619  1  0.703090  0.258440  0.569800  1.0  -0.5744
  O  O620  1  0.708700  0.309500  0.505600  1.0  -0.6075
  O  O621  1  0.804800  0.310910  0.496100  1.0  -0.5308
  O  O622  1  0.802050  0.267350  0.567400  1.0  -0.5849
  O  O623  1  0.928120  0.308860  0.695900  1.0  -0.5667
  O  O624  1  0.955890  0.381360  0.697300  1.0  -0.5781
  O  O625  1  0.782100  0.814750  0.427600  1.0  -0.6182
  O  O626  1  0.707300  0.037250  0.459600  1.0  -0.6024
  O  O627  1  0.886000  0.997700  0.365000  1.0  -0.4656
  O  O628  1  0.618100  0.861200  0.356200  1.0  -0.4187
  O  O629  1  0.977950  0.721710  0.300600  1.0  -0.5663
  O  O630  1  0.950950  0.648930  0.302200  1.0  -0.5645
  O  O631  1  0.815900  0.607180  0.418000  1.0  -0.479
  O  O632  1  0.787290  0.661600  0.468500  1.0  -0.6115
  O  O633  1  0.696830  0.669930  0.488400  1.0  -0.685
  O  O634  1  0.677900  0.619470  0.428000  1.0  -0.4766
  O  O635  1  0.552700  0.667250  0.303600  1.0  -0.5656
  O  O636  1  0.528350  0.740340  0.302800  1.0  -0.5893
  O  O637  1  0.538900  0.141070  0.302400  1.0  -0.5934
  O  O638  1  0.567240  0.212270  0.304200  1.0  -0.5671
  O  O639  1  0.703090  0.241560  0.430200  1.0  -0.5744
  O  O640  1  0.708700  0.190500  0.494400  1.0  -0.6037
  O  O641  1  0.804800  0.189090  0.503900  1.0  -0.5289
  O  O642  1  0.802050  0.232650  0.432600  1.0  -0.5845
  O  O643  1  0.928120  0.191140  0.304100  1.0  -0.5658
  O  O644  1  0.955890  0.118640  0.302700  1.0  -0.5785
  O  O645  1  0.217900  0.185250  0.927600  1.0  -0.6201
  O  O646  1  0.292700  0.962750  0.959600  1.0  -0.6002
  O  O647  1  0.114000  0.002300  0.865000  1.0  -0.4654
  O  O648  1  0.381900  0.138800  0.856200  1.0  -0.4182
  O  O649  1  0.022050  0.278290  0.800600  1.0  -0.5676
  O  O650  1  0.049050  0.351070  0.802200  1.0  -0.5637
  O  O651  1  0.184100  0.392820  0.918000  1.0  -0.4808
  O  O652  1  0.212710  0.338400  0.968500  1.0  -0.6122
  O  O653  1  0.303170  0.330070  0.988400  1.0  -0.6848
  O  O654  1  0.322100  0.380530  0.928000  1.0  -0.4783
  O  O655  1  0.447300  0.332750  0.803600  1.0  -0.5642
  O  O656  1  0.471650  0.259660  0.802800  1.0  -0.5899
  O  O657  1  0.461100  0.858930  0.802400  1.0  -0.5942
  O  O658  1  0.432760  0.787730  0.804200  1.0  -0.5684
  O  O659  1  0.296910  0.758440  0.930200  1.0  -0.5732
  O  O660  1  0.291300  0.809500  0.994400  1.0  -0.6043
  O  O661  1  0.195200  0.810910  0.003900  1.0  -0.5311
  O  O662  1  0.197950  0.767350  0.932600  1.0  -0.5859
  O  O663  1  0.071880  0.808860  0.804100  1.0  -0.5668
  O  O664  1  0.044110  0.881360  0.802700  1.0  -0.578
  O  O665  1  0.782100  0.685250  0.927600  1.0  -0.6189
  O  O666  1  0.707300  0.462750  0.959600  1.0  -0.6013
  O  O667  1  0.886000  0.502300  0.865000  1.0  -0.4649
  O  O668  1  0.618100  0.638800  0.856200  1.0  -0.4179
  O  O669  1  0.977950  0.778290  0.800600  1.0  -0.5681
  O  O670  1  0.950950  0.851070  0.802200  1.0  -0.5642
  O  O671  1  0.815900  0.892820  0.918000  1.0  -0.4736
  O  O672  1  0.787290  0.838400  0.968500  1.0  -0.6117
  O  O673  1  0.696830  0.830070  0.988400  1.0  -0.6853
  O  O674  1  0.677900  0.880530  0.928000  1.0  -0.4833
  O  O675  1  0.552700  0.832750  0.803600  1.0  -0.5634
  O  O676  1  0.528350  0.759660  0.802800  1.0  -0.5897
  O  O677  1  0.538900  0.358930  0.802400  1.0  -0.5939
  O  O678  1  0.567240  0.287730  0.804200  1.0  -0.5682
  O  O679  1  0.703090  0.258440  0.930200  1.0  -0.5733
  O  O680  1  0.708700  0.309500  0.994400  1.0  -0.6046
  O  O681  1  0.804800  0.310910  0.003900  1.0  -0.53
  O  O682  1  0.802050  0.267350  0.932600  1.0  -0.5851
  O  O683  1  0.928120  0.308860  0.804100  1.0  -0.5667
  O  O684  1  0.955890  0.381360  0.802700  1.0  -0.5783
  O  O685  1  0.217900  0.314750  0.427600  1.0  -0.6193
  O  O686  1  0.292700  0.537250  0.459600  1.0  -0.6008
  O  O687  1  0.114000  0.497700  0.365000  1.0  -0.4659
  O  O688  1  0.381900  0.361200  0.356200  1.0  -0.419
  O  O689  1  0.022050  0.221710  0.300600  1.0  -0.566
  O  O690  1  0.049050  0.148930  0.302200  1.0  -0.566
  O  O691  1  0.184100  0.107180  0.418000  1.0  -0.4716
  O  O692  1  0.212710  0.161600  0.468500  1.0  -0.6119
  O  O693  1  0.303170  0.169930  0.488400  1.0  -0.6845
  O  O694  1  0.322100  0.119470  0.428000  1.0  -0.4792
  O  O695  1  0.447300  0.167250  0.303600  1.0  -0.5663
  O  O696  1  0.471650  0.240340  0.302800  1.0  -0.5894
  O  O697  1  0.461100  0.641070  0.302400  1.0  -0.5936
  O  O698  1  0.432760  0.712270  0.304200  1.0  -0.5683
  O  O699  1  0.296910  0.741560  0.430200  1.0  -0.574
  O  O700  1  0.291300  0.690500  0.494400  1.0  -0.6039
  O  O701  1  0.195200  0.689090  0.503900  1.0  -0.5306
  O  O702  1  0.197950  0.732650  0.432600  1.0  -0.5852
  O  O703  1  0.071880  0.691140  0.304100  1.0  -0.5647
  O  O704  1  0.044110  0.618640  0.302700  1.0  -0.5785
  O  O705  1  0.217900  0.185250  0.572400  1.0  -0.6212
  O  O706  1  0.292700  0.962750  0.540400  1.0  -0.6012
  O  O707  1  0.114000  0.002300  0.635000  1.0  -0.4695
  O  O708  1  0.381900  0.138800  0.643800  1.0  -0.418
  O  O709  1  0.022050  0.278290  0.699400  1.0  -0.5677
  O  O710  1  0.049050  0.351070  0.697800  1.0  -0.5641
  O  O711  1  0.184100  0.392820  0.582000  1.0  -0.477
  O  O712  1  0.212710  0.338400  0.531500  1.0  -0.6105
  O  O713  1  0.303170  0.330070  0.511600  1.0  -0.6843
  O  O714  1  0.322100  0.380530  0.572000  1.0  -0.4772
  O  O715  1  0.447300  0.332750  0.696400  1.0  -0.5644
  O  O716  1  0.471650  0.259660  0.697200  1.0  -0.5898
  O  O717  1  0.461100  0.858930  0.697600  1.0  -0.5945
  O  O718  1  0.432760  0.787730  0.695800  1.0  -0.5683
  O  O719  1  0.296910  0.758440  0.569800  1.0  -0.5737
  O  O720  1  0.291300  0.809500  0.505600  1.0  -0.607
  O  O721  1  0.195200  0.810910  0.496100  1.0  -0.5307
  O  O722  1  0.197950  0.767350  0.567400  1.0  -0.5853
  O  O723  1  0.071880  0.808860  0.695900  1.0  -0.5669
  O  O724  1  0.044110  0.881360  0.697300  1.0  -0.5782
  O  O725  1  0.782100  0.814750  0.072400  1.0  -0.6197
  O  O726  1  0.707300  0.037250  0.040400  1.0  -0.6038
  O  O727  1  0.886000  0.997700  0.135000  1.0  -0.4694
  O  O728  1  0.618100  0.861200  0.143800  1.0  -0.4188
  O  O729  1  0.977950  0.721710  0.199400  1.0  -0.5663
  O  O730  1  0.950950  0.648930  0.197800  1.0  -0.5651
  O  O731  1  0.815900  0.607180  0.082000  1.0  -0.4784
  O  O732  1  0.787290  0.661600  0.031500  1.0  -0.6102
  O  O733  1  0.696830  0.669930  0.011600  1.0  -0.6851
  O  O734  1  0.677900  0.619470  0.072000  1.0  -0.4751
  O  O735  1  0.552700  0.667250  0.196400  1.0  -0.5662
  O  O736  1  0.528350  0.740340  0.197200  1.0  -0.5891
  O  O737  1  0.538900  0.141070  0.197600  1.0  -0.5937
  O  O738  1  0.567240  0.212270  0.195800  1.0  -0.5669
  O  O739  1  0.703090  0.241560  0.069800  1.0  -0.5736
  O  O740  1  0.708700  0.190500  0.005600  1.0  -0.6067
  O  O741  1  0.804800  0.189090  0.996100  1.0  -0.5307
  O  O742  1  0.802050  0.232650  0.067400  1.0  -0.583
  O  O743  1  0.928120  0.191140  0.195900  1.0  -0.5658
  O  O744  1  0.955890  0.118640  0.197300  1.0  -0.5789
