# generated using pymatgen
data_CuH2C6(O2F)2
_symmetry_space_group_name_H-M   'P 1'
_cell_length_a   26.31360000
_cell_length_b   26.31360000
_cell_length_c   26.31360000
_cell_angle_alpha   90.00000000
_cell_angle_beta   90.00000000
_cell_angle_gamma   90.00000000
_symmetry_Int_Tables_number   1
_chemical_formula_structural   CuH2C6(O2F)2
_chemical_formula_sum   'Cu48 H96 C288 O192 F96'
_cell_volume   18219.68254786
_cell_formula_units_Z   48
loop_
 _symmetry_equiv_pos_site_id
 _symmetry_equiv_pos_as_xyz
  1  'x, y, z'
loop_
 _atom_site_type_symbol
 _atom_site_label
 _atom_site_symmetry_multiplicity
 _atom_site_fract_x
 _atom_site_fract_y
 _atom_site_fract_z
 _atom_site_occupancy
 _atom_site_charge
  Cu  Cu1  1  0.000000  0.214480  0.214480  1.0  0.918
  Cu  Cu2  1  0.000000  0.714480  0.714480  1.0  0.918
  Cu  Cu3  1  0.500000  0.214480  0.714480  1.0  0.918
  Cu  Cu4  1  0.500000  0.714480  0.214480  1.0  0.918
  Cu  Cu5  1  0.000000  0.785520  0.214480  1.0  0.9194
  Cu  Cu6  1  0.000000  0.285520  0.714480  1.0  0.9194
  Cu  Cu7  1  0.500000  0.785520  0.714480  1.0  0.9194
  Cu  Cu8  1  0.500000  0.285520  0.214480  1.0  0.9194
  Cu  Cu9  1  0.000000  0.214480  0.785520  1.0  0.9176
  Cu  Cu10  1  0.000000  0.714480  0.285520  1.0  0.9176
  Cu  Cu11  1  0.500000  0.214480  0.285520  1.0  0.9176
  Cu  Cu12  1  0.500000  0.714480  0.785520  1.0  0.9176
  Cu  Cu13  1  0.000000  0.785520  0.785520  1.0  0.9191
  Cu  Cu14  1  0.000000  0.285520  0.285520  1.0  0.9191
  Cu  Cu15  1  0.500000  0.785520  0.285520  1.0  0.9191
  Cu  Cu16  1  0.500000  0.285520  0.785520  1.0  0.9191
  Cu  Cu17  1  0.214480  0.000000  0.214480  1.0  0.9184
  Cu  Cu18  1  0.214480  0.500000  0.714480  1.0  0.9184
  Cu  Cu19  1  0.714480  0.000000  0.714480  1.0  0.9184
  Cu  Cu20  1  0.714480  0.500000  0.214480  1.0  0.9184
  Cu  Cu21  1  0.214480  0.000000  0.785520  1.0  0.9169
  Cu  Cu22  1  0.214480  0.500000  0.285520  1.0  0.9169
  Cu  Cu23  1  0.714480  0.000000  0.285520  1.0  0.9169
  Cu  Cu24  1  0.714480  0.500000  0.785520  1.0  0.9169
  Cu  Cu25  1  0.785520  0.000000  0.214480  1.0  0.9168
  Cu  Cu26  1  0.785520  0.500000  0.714480  1.0  0.9168
  Cu  Cu27  1  0.285520  0.000000  0.714480  1.0  0.9168
  Cu  Cu28  1  0.285520  0.500000  0.214480  1.0  0.9168
  Cu  Cu29  1  0.785520  0.000000  0.785520  1.0  0.9167
  Cu  Cu30  1  0.785520  0.500000  0.285520  1.0  0.9167
  Cu  Cu31  1  0.285520  0.000000  0.285520  1.0  0.9167
  Cu  Cu32  1  0.285520  0.500000  0.785520  1.0  0.9167
  Cu  Cu33  1  0.214480  0.214480  0.000000  1.0  0.9211
  Cu  Cu34  1  0.214480  0.714480  0.500000  1.0  0.9211
  Cu  Cu35  1  0.714480  0.214480  0.500000  1.0  0.9211
  Cu  Cu36  1  0.714480  0.714480  0.000000  1.0  0.9211
  Cu  Cu37  1  0.785520  0.214480  0.000000  1.0  0.9198
  Cu  Cu38  1  0.785520  0.714480  0.500000  1.0  0.9198
  Cu  Cu39  1  0.285520  0.214480  0.500000  1.0  0.9198
  Cu  Cu40  1  0.285520  0.714480  0.000000  1.0  0.9198
  Cu  Cu41  1  0.214480  0.785520  0.000000  1.0  0.9216
  Cu  Cu42  1  0.214480  0.285520  0.500000  1.0  0.9216
  Cu  Cu43  1  0.714480  0.785520  0.500000  1.0  0.9216
  Cu  Cu44  1  0.714480  0.285520  0.000000  1.0  0.9216
  Cu  Cu45  1  0.785520  0.785520  0.000000  1.0  0.9217
  Cu  Cu46  1  0.785520  0.285520  0.500000  1.0  0.9217
  Cu  Cu47  1  0.285520  0.785520  0.500000  1.0  0.9217
  Cu  Cu48  1  0.285520  0.285520  0.000000  1.0  0.9217
  H  H49  1  0.119700  0.229200  0.380300  1.0  0.2781
  H  H50  1  0.119700  0.729200  0.880300  1.0  0.2781
  H  H51  1  0.880300  0.770800  0.380300  1.0  0.2794
  H  H52  1  0.880300  0.270800  0.880300  1.0  0.2794
  H  H53  1  0.380300  0.270800  0.380300  1.0  0.2794
  H  H54  1  0.880300  0.229200  0.619700  1.0  0.2773
  H  H55  1  0.880300  0.729200  0.119700  1.0  0.2773
  H  H56  1  0.380300  0.229200  0.119700  1.0  0.2773
  H  H57  1  0.119700  0.770800  0.619700  1.0  0.2781
  H  H58  1  0.119700  0.270800  0.119700  1.0  0.2781
  H  H59  1  0.380300  0.119700  0.229200  1.0  0.2725
  H  H60  1  0.380300  0.619700  0.729200  1.0  0.2725
  H  H61  1  0.380300  0.880300  0.770800  1.0  0.2724
  H  H62  1  0.380300  0.380300  0.270800  1.0  0.2724
  H  H63  1  0.619700  0.880300  0.229200  1.0  0.2725
  H  H64  1  0.619700  0.380300  0.729200  1.0  0.2725
  H  H65  1  0.119700  0.380300  0.229200  1.0  0.2725
  H  H66  1  0.619700  0.119700  0.770800  1.0  0.2729
  H  H67  1  0.619700  0.619700  0.270800  1.0  0.2729
  H  H68  1  0.119700  0.119700  0.270800  1.0  0.2729
  H  H69  1  0.229200  0.380300  0.119700  1.0  0.2766
  H  H70  1  0.729200  0.380300  0.619700  1.0  0.2766
  H  H71  1  0.770800  0.380300  0.880300  1.0  0.2766
  H  H72  1  0.270800  0.380300  0.380300  1.0  0.2766
  H  H73  1  0.229200  0.619700  0.880300  1.0  0.2771
  H  H74  1  0.229200  0.119700  0.380300  1.0  0.2771
  H  H75  1  0.729200  0.619700  0.380300  1.0  0.2771
  H  H76  1  0.770800  0.619700  0.119700  1.0  0.2757
  H  H77  1  0.270800  0.619700  0.619700  1.0  0.2757
  H  H78  1  0.270800  0.119700  0.119700  1.0  0.2757
  H  H79  1  0.229200  0.119700  0.619700  1.0  0.277
  H  H80  1  0.729200  0.119700  0.119700  1.0  0.277
  H  H81  1  0.770800  0.880300  0.619700  1.0  0.2757
  H  H82  1  0.770800  0.380300  0.119700  1.0  0.2757
  H  H83  1  0.270800  0.880300  0.119700  1.0  0.2757
  H  H84  1  0.229200  0.880300  0.380300  1.0  0.2765
  H  H85  1  0.729200  0.880300  0.880300  1.0  0.2765
  H  H86  1  0.729200  0.380300  0.380300  1.0  0.2765
  H  H87  1  0.770800  0.119700  0.380300  1.0  0.2763
  H  H88  1  0.270800  0.119700  0.880300  1.0  0.2763
  H  H89  1  0.119700  0.380300  0.770800  1.0  0.2733
  H  H90  1  0.119700  0.880300  0.270800  1.0  0.2733
  H  H91  1  0.880300  0.380300  0.229200  1.0  0.2724
  H  H92  1  0.880300  0.880300  0.729200  1.0  0.2724
  H  H93  1  0.380300  0.380300  0.729200  1.0  0.2724
  H  H94  1  0.880300  0.619700  0.770800  1.0  0.2726
  H  H95  1  0.880300  0.119700  0.270800  1.0  0.2726
  H  H96  1  0.380300  0.119700  0.770800  1.0  0.2726
  H  H97  1  0.119700  0.619700  0.229200  1.0  0.2717
  H  H98  1  0.119700  0.119700  0.729200  1.0  0.2717
  H  H99  1  0.380300  0.229200  0.880300  1.0  0.2779
  H  H100  1  0.380300  0.729200  0.380300  1.0  0.2779
  H  H101  1  0.380300  0.770800  0.119700  1.0  0.2786
  H  H102  1  0.380300  0.270800  0.619700  1.0  0.2786
  H  H103  1  0.619700  0.229200  0.119700  1.0  0.2775
  H  H104  1  0.619700  0.729200  0.619700  1.0  0.2775
  H  H105  1  0.119700  0.729200  0.119700  1.0  0.2775
  H  H106  1  0.619700  0.770800  0.880300  1.0  0.2794
  H  H107  1  0.619700  0.270800  0.380300  1.0  0.2794
  H  H108  1  0.119700  0.770800  0.380300  1.0  0.2794
  H  H109  1  0.880300  0.770800  0.619700  1.0  0.2786
  H  H110  1  0.880300  0.270800  0.119700  1.0  0.2786
  H  H111  1  0.119700  0.229200  0.619700  1.0  0.2775
  H  H112  1  0.119700  0.270800  0.880300  1.0  0.2794
  H  H113  1  0.880300  0.229200  0.380300  1.0  0.2779
  H  H114  1  0.880300  0.729200  0.880300  1.0  0.2779
  H  H115  1  0.619700  0.880300  0.770800  1.0  0.2733
  H  H116  1  0.619700  0.380300  0.270800  1.0  0.2733
  H  H117  1  0.619700  0.119700  0.229200  1.0  0.2717
  H  H118  1  0.619700  0.619700  0.729200  1.0  0.2717
  H  H119  1  0.380300  0.619700  0.270800  1.0  0.2726
  H  H120  1  0.380300  0.880300  0.229200  1.0  0.2724
  H  H121  1  0.770800  0.619700  0.880300  1.0  0.2763
  H  H122  1  0.270800  0.619700  0.380300  1.0  0.2763
  H  H123  1  0.229200  0.619700  0.119700  1.0  0.277
  H  H124  1  0.729200  0.619700  0.619700  1.0  0.277
  H  H125  1  0.270800  0.380300  0.619700  1.0  0.2757
  H  H126  1  0.229200  0.380300  0.880300  1.0  0.2765
  H  H127  1  0.770800  0.880300  0.380300  1.0  0.2766
  H  H128  1  0.270800  0.880300  0.880300  1.0  0.2766
  H  H129  1  0.729200  0.119700  0.880300  1.0  0.2771
  H  H130  1  0.770800  0.119700  0.619700  1.0  0.2757
  H  H131  1  0.229200  0.880300  0.619700  1.0  0.2766
  H  H132  1  0.729200  0.880300  0.119700  1.0  0.2766
  H  H133  1  0.880300  0.619700  0.229200  1.0  0.2725
  H  H134  1  0.880300  0.119700  0.729200  1.0  0.2725
  H  H135  1  0.119700  0.619700  0.770800  1.0  0.2729
  H  H136  1  0.119700  0.880300  0.729200  1.0  0.2725
  H  H137  1  0.880300  0.380300  0.770800  1.0  0.2724
  H  H138  1  0.880300  0.880300  0.270800  1.0  0.2724
  H  H139  1  0.619700  0.770800  0.119700  1.0  0.2781
  H  H140  1  0.619700  0.270800  0.619700  1.0  0.2781
  H  H141  1  0.619700  0.229200  0.880300  1.0  0.2781
  H  H142  1  0.619700  0.729200  0.380300  1.0  0.2781
  H  H143  1  0.380300  0.770800  0.880300  1.0  0.2794
  H  H144  1  0.380300  0.729200  0.619700  1.0  0.2773
  C  C145  1  0.068000  0.203000  0.297000  1.0  0.7032
  C  C146  1  0.111600  0.177800  0.322200  1.0  -0.0093
  C  C147  1  0.568000  0.203000  0.797000  1.0  0.7032
  C  C148  1  0.611600  0.177800  0.822200  1.0  -0.0093
  C  C149  1  0.932000  0.797000  0.297000  1.0  0.7026
  C  C150  1  0.888400  0.822200  0.322200  1.0  -0.0078
  C  C151  1  0.432000  0.797000  0.797000  1.0  0.7026
  C  C152  1  0.388400  0.822200  0.822200  1.0  -0.0078
  C  C153  1  0.432000  0.297000  0.297000  1.0  0.7026
  C  C154  1  0.388400  0.322200  0.322200  1.0  -0.0078
  C  C155  1  0.932000  0.203000  0.703000  1.0  0.7031
  C  C156  1  0.888400  0.177800  0.677800  1.0  -0.0084
  C  C157  1  0.432000  0.203000  0.203000  1.0  0.7031
  C  C158  1  0.388400  0.177800  0.177800  1.0  -0.0084
  C  C159  1  0.068000  0.797000  0.703000  1.0  0.7032
  C  C160  1  0.111600  0.822200  0.677800  1.0  -0.0092
  C  C161  1  0.068000  0.297000  0.203000  1.0  0.7032
  C  C162  1  0.111600  0.322200  0.177800  1.0  -0.0092
  C  C163  1  0.568000  0.797000  0.203000  1.0  0.7032
  C  C164  1  0.611600  0.822200  0.177800  1.0  -0.0092
  C  C165  1  0.297000  0.068000  0.203000  1.0  0.7025
  C  C166  1  0.322200  0.111600  0.177800  1.0  -0.0075
  C  C167  1  0.297000  0.568000  0.703000  1.0  0.7025
  C  C168  1  0.322200  0.611600  0.677800  1.0  -0.0075
  C  C169  1  0.297000  0.932000  0.797000  1.0  0.7027
  C  C170  1  0.322200  0.888400  0.822200  1.0  -0.006
  C  C171  1  0.297000  0.432000  0.297000  1.0  0.7027
  C  C172  1  0.322200  0.388400  0.322200  1.0  -0.006
  C  C173  1  0.703000  0.932000  0.203000  1.0  0.703
  C  C174  1  0.677800  0.888400  0.177800  1.0  -0.005
  C  C175  1  0.703000  0.432000  0.703000  1.0  0.703
  C  C176  1  0.677800  0.388400  0.677800  1.0  -0.005
  C  C177  1  0.203000  0.432000  0.203000  1.0  0.703
  C  C178  1  0.177800  0.388400  0.177800  1.0  -0.005
  C  C179  1  0.703000  0.068000  0.797000  1.0  0.7026
  C  C180  1  0.677800  0.111600  0.822200  1.0  -0.0059
  C  C181  1  0.703000  0.568000  0.297000  1.0  0.7026
  C  C182  1  0.677800  0.611600  0.322200  1.0  -0.0059
  C  C183  1  0.203000  0.068000  0.297000  1.0  0.7026
  C  C184  1  0.177800  0.111600  0.322200  1.0  -0.0059
  C  C185  1  0.203000  0.297000  0.068000  1.0  0.7059
  C  C186  1  0.177800  0.322200  0.111600  1.0  -0.0052
  C  C187  1  0.203000  0.797000  0.568000  1.0  0.7059
  C  C188  1  0.177800  0.822200  0.611600  1.0  -0.0052
  C  C189  1  0.797000  0.297000  0.932000  1.0  0.7052
  C  C190  1  0.822200  0.322200  0.888400  1.0  -0.0081
  C  C191  1  0.797000  0.797000  0.432000  1.0  0.7052
  C  C192  1  0.822200  0.822200  0.388400  1.0  -0.0081
  C  C193  1  0.297000  0.297000  0.432000  1.0  0.7052
  C  C194  1  0.322200  0.322200  0.388400  1.0  -0.0081
  C  C195  1  0.203000  0.703000  0.932000  1.0  0.7059
  C  C196  1  0.177800  0.677800  0.888400  1.0  -0.0068
  C  C197  1  0.203000  0.203000  0.432000  1.0  0.7059
  C  C198  1  0.177800  0.177800  0.388400  1.0  -0.0068
  C  C199  1  0.797000  0.703000  0.068000  1.0  0.706
  C  C200  1  0.822200  0.677800  0.111600  1.0  -0.0069
  C  C201  1  0.797000  0.203000  0.568000  1.0  0.706
  C  C202  1  0.822200  0.177800  0.611600  1.0  -0.0069
  C  C203  1  0.297000  0.203000  0.068000  1.0  0.706
  C  C204  1  0.322200  0.177800  0.111600  1.0  -0.0069
  C  C205  1  0.203000  0.068000  0.703000  1.0  0.7025
  C  C206  1  0.177800  0.111600  0.677800  1.0  -0.006
  C  C207  1  0.203000  0.568000  0.203000  1.0  0.7025
  C  C208  1  0.177800  0.611600  0.177800  1.0  -0.006
  C  C209  1  0.797000  0.932000  0.703000  1.0  0.703
  C  C210  1  0.822200  0.888400  0.677800  1.0  -0.0062
  C  C211  1  0.797000  0.432000  0.203000  1.0  0.703
  C  C212  1  0.822200  0.388400  0.177800  1.0  -0.0062
  C  C213  1  0.297000  0.932000  0.203000  1.0  0.703
  C  C214  1  0.322200  0.888400  0.177800  1.0  -0.0062
  C  C215  1  0.203000  0.932000  0.297000  1.0  0.7031
  C  C216  1  0.177800  0.888400  0.322200  1.0  -0.0049
  C  C217  1  0.203000  0.432000  0.797000  1.0  0.7031
  C  C218  1  0.177800  0.388400  0.822200  1.0  -0.0049
  C  C219  1  0.797000  0.068000  0.297000  1.0  0.7023
  C  C220  1  0.822200  0.111600  0.322200  1.0  -0.0073
  C  C221  1  0.797000  0.568000  0.797000  1.0  0.7023
  C  C222  1  0.822200  0.611600  0.822200  1.0  -0.0073
  C  C223  1  0.297000  0.568000  0.297000  1.0  0.7023
  C  C224  1  0.322200  0.611600  0.322200  1.0  -0.0073
  C  C225  1  0.068000  0.297000  0.797000  1.0  0.7031
  C  C226  1  0.111600  0.322200  0.822200  1.0  -0.0092
  C  C227  1  0.568000  0.297000  0.297000  1.0  0.7031
  C  C228  1  0.611600  0.322200  0.322200  1.0  -0.0092
  C  C229  1  0.932000  0.297000  0.203000  1.0  0.7028
  C  C230  1  0.888400  0.322200  0.177800  1.0  -0.008
  C  C231  1  0.432000  0.297000  0.703000  1.0  0.7028
  C  C232  1  0.388400  0.322200  0.677800  1.0  -0.008
  C  C233  1  0.932000  0.703000  0.797000  1.0  0.7029
  C  C234  1  0.888400  0.677800  0.822200  1.0  -0.0081
  C  C235  1  0.932000  0.203000  0.297000  1.0  0.7029
  C  C236  1  0.888400  0.177800  0.322200  1.0  -0.0081
  C  C237  1  0.432000  0.703000  0.297000  1.0  0.7029
  C  C238  1  0.388400  0.677800  0.322200  1.0  -0.0081
  C  C239  1  0.068000  0.703000  0.203000  1.0  0.7033
  C  C240  1  0.111600  0.677800  0.177800  1.0  -0.0093
  C  C241  1  0.568000  0.703000  0.703000  1.0  0.7033
  C  C242  1  0.611600  0.677800  0.677800  1.0  -0.0093
  C  C243  1  0.568000  0.203000  0.203000  1.0  0.7033
  C  C244  1  0.611600  0.177800  0.177800  1.0  -0.0093
  C  C245  1  0.297000  0.203000  0.932000  1.0  0.7057
  C  C246  1  0.322200  0.177800  0.888400  1.0  -0.0085
  C  C247  1  0.297000  0.703000  0.432000  1.0  0.7057
  C  C248  1  0.322200  0.677800  0.388400  1.0  -0.0085
  C  C249  1  0.297000  0.797000  0.068000  1.0  0.7059
  C  C250  1  0.322200  0.822200  0.111600  1.0  -0.0065
  C  C251  1  0.297000  0.297000  0.568000  1.0  0.7059
  C  C252  1  0.322200  0.322200  0.611600  1.0  -0.0065
  C  C253  1  0.703000  0.203000  0.068000  1.0  0.7059
  C  C254  1  0.677800  0.177800  0.111600  1.0  -0.0055
  C  C255  1  0.703000  0.703000  0.568000  1.0  0.7059
  C  C256  1  0.677800  0.677800  0.611600  1.0  -0.0055
  C  C257  1  0.203000  0.203000  0.568000  1.0  0.7059
  C  C258  1  0.177800  0.177800  0.611600  1.0  -0.0055
  C  C259  1  0.703000  0.797000  0.932000  1.0  0.7055
  C  C260  1  0.677800  0.822200  0.888400  1.0  -0.0067
  C  C261  1  0.703000  0.297000  0.432000  1.0  0.7055
  C  C262  1  0.677800  0.322200  0.388400  1.0  -0.0067
  C  C263  1  0.203000  0.297000  0.932000  1.0  0.7055
  C  C264  1  0.177800  0.322200  0.888400  1.0  -0.0067
  C  C265  1  0.932000  0.797000  0.703000  1.0  0.7028
  C  C266  1  0.888400  0.822200  0.677800  1.0  -0.008
  C  C267  1  0.432000  0.797000  0.203000  1.0  0.7028
  C  C268  1  0.388400  0.822200  0.177800  1.0  -0.008
  C  C269  1  0.068000  0.203000  0.703000  1.0  0.7033
  C  C270  1  0.111600  0.177800  0.677800  1.0  -0.0093
  C  C271  1  0.068000  0.797000  0.297000  1.0  0.7031
  C  C272  1  0.111600  0.822200  0.322200  1.0  -0.0092
  C  C273  1  0.568000  0.797000  0.797000  1.0  0.7031
  C  C274  1  0.611600  0.822200  0.822200  1.0  -0.0092
  C  C275  1  0.432000  0.203000  0.797000  1.0  0.7029
  C  C276  1  0.388400  0.177800  0.822200  1.0  -0.0081
  C  C277  1  0.703000  0.932000  0.797000  1.0  0.7031
  C  C278  1  0.677800  0.888400  0.822200  1.0  -0.0049
  C  C279  1  0.703000  0.432000  0.297000  1.0  0.7031
  C  C280  1  0.677800  0.388400  0.322200  1.0  -0.0049
  C  C281  1  0.703000  0.068000  0.203000  1.0  0.7025
  C  C282  1  0.677800  0.111600  0.177800  1.0  -0.006
  C  C283  1  0.703000  0.568000  0.703000  1.0  0.7025
  C  C284  1  0.677800  0.611600  0.677800  1.0  -0.006
  C  C285  1  0.297000  0.068000  0.797000  1.0  0.7023
  C  C286  1  0.322200  0.111600  0.822200  1.0  -0.0073
  C  C287  1  0.297000  0.432000  0.703000  1.0  0.703
  C  C288  1  0.322200  0.388400  0.677800  1.0  -0.0062
  C  C289  1  0.797000  0.703000  0.932000  1.0  0.7057
  C  C290  1  0.822200  0.677800  0.888400  1.0  -0.0085
  C  C291  1  0.797000  0.203000  0.432000  1.0  0.7057
  C  C292  1  0.822200  0.177800  0.388400  1.0  -0.0085
  C  C293  1  0.203000  0.703000  0.068000  1.0  0.7059
  C  C294  1  0.177800  0.677800  0.111600  1.0  -0.0055
  C  C295  1  0.797000  0.297000  0.068000  1.0  0.7059
  C  C296  1  0.822200  0.322200  0.111600  1.0  -0.0065
  C  C297  1  0.797000  0.797000  0.568000  1.0  0.7059
  C  C298  1  0.822200  0.822200  0.611600  1.0  -0.0065
  C  C299  1  0.203000  0.797000  0.432000  1.0  0.7055
  C  C300  1  0.177800  0.822200  0.388400  1.0  -0.0067
  C  C301  1  0.797000  0.932000  0.297000  1.0  0.7027
  C  C302  1  0.822200  0.888400  0.322200  1.0  -0.006
  C  C303  1  0.797000  0.432000  0.797000  1.0  0.7027
  C  C304  1  0.822200  0.388400  0.822200  1.0  -0.006
  C  C305  1  0.203000  0.568000  0.797000  1.0  0.7026
  C  C306  1  0.177800  0.611600  0.822200  1.0  -0.0059
  C  C307  1  0.797000  0.068000  0.703000  1.0  0.7025
  C  C308  1  0.822200  0.111600  0.677800  1.0  -0.0075
  C  C309  1  0.797000  0.568000  0.203000  1.0  0.7025
  C  C310  1  0.822200  0.611600  0.177800  1.0  -0.0075
  C  C311  1  0.203000  0.932000  0.703000  1.0  0.703
  C  C312  1  0.177800  0.888400  0.677800  1.0  -0.005
  C  C313  1  0.932000  0.703000  0.203000  1.0  0.7031
  C  C314  1  0.888400  0.677800  0.177800  1.0  -0.0084
  C  C315  1  0.432000  0.703000  0.703000  1.0  0.7031
  C  C316  1  0.388400  0.677800  0.677800  1.0  -0.0084
  C  C317  1  0.068000  0.703000  0.797000  1.0  0.7032
  C  C318  1  0.111600  0.677800  0.822200  1.0  -0.0093
  C  C319  1  0.568000  0.703000  0.297000  1.0  0.7032
  C  C320  1  0.611600  0.677800  0.322200  1.0  -0.0093
  C  C321  1  0.568000  0.297000  0.703000  1.0  0.7032
  C  C322  1  0.611600  0.322200  0.677800  1.0  -0.0092
  C  C323  1  0.932000  0.297000  0.797000  1.0  0.7026
  C  C324  1  0.888400  0.322200  0.822200  1.0  -0.0078
  C  C325  1  0.703000  0.797000  0.068000  1.0  0.7059
  C  C326  1  0.677800  0.822200  0.111600  1.0  -0.0052
  C  C327  1  0.703000  0.297000  0.568000  1.0  0.7059
  C  C328  1  0.677800  0.322200  0.611600  1.0  -0.0052
  C  C329  1  0.703000  0.203000  0.932000  1.0  0.7059
  C  C330  1  0.677800  0.177800  0.888400  1.0  -0.0068
  C  C331  1  0.703000  0.703000  0.432000  1.0  0.7059
  C  C332  1  0.677800  0.677800  0.388400  1.0  -0.0068
  C  C333  1  0.297000  0.797000  0.932000  1.0  0.7052
  C  C334  1  0.322200  0.822200  0.888400  1.0  -0.0081
  C  C335  1  0.297000  0.703000  0.568000  1.0  0.706
  C  C336  1  0.322200  0.677800  0.611600  1.0  -0.0069
  C  C337  1  0.134150  0.199500  0.365850  1.0  -0.1093
  C  C338  1  0.134150  0.699500  0.865850  1.0  -0.1093
  C  C339  1  0.865850  0.800500  0.365850  1.0  -0.1116
  C  C340  1  0.865850  0.300500  0.865850  1.0  -0.1116
  C  C341  1  0.365850  0.300500  0.365850  1.0  -0.1116
  C  C342  1  0.865850  0.199500  0.634150  1.0  -0.1117
  C  C343  1  0.865850  0.699500  0.134150  1.0  -0.1117
  C  C344  1  0.365850  0.199500  0.134150  1.0  -0.1117
  C  C345  1  0.134150  0.800500  0.634150  1.0  -0.1086
  C  C346  1  0.134150  0.300500  0.134150  1.0  -0.1086
  C  C347  1  0.365850  0.134150  0.199500  1.0  -0.1139
  C  C348  1  0.365850  0.634150  0.699500  1.0  -0.1139
  C  C349  1  0.365850  0.865850  0.800500  1.0  -0.1152
  C  C350  1  0.365850  0.365850  0.300500  1.0  -0.1152
  C  C351  1  0.634150  0.865850  0.199500  1.0  -0.1118
  C  C352  1  0.634150  0.365850  0.699500  1.0  -0.1118
  C  C353  1  0.134150  0.365850  0.199500  1.0  -0.1118
  C  C354  1  0.634150  0.134150  0.800500  1.0  -0.1126
  C  C355  1  0.634150  0.634150  0.300500  1.0  -0.1126
  C  C356  1  0.134150  0.134150  0.300500  1.0  -0.1126
  C  C357  1  0.199500  0.365850  0.134150  1.0  -0.1105
  C  C358  1  0.699500  0.365850  0.634150  1.0  -0.1105
  C  C359  1  0.800500  0.365850  0.865850  1.0  -0.1104
  C  C360  1  0.300500  0.365850  0.365850  1.0  -0.1104
  C  C361  1  0.199500  0.634150  0.865850  1.0  -0.1105
  C  C362  1  0.199500  0.134150  0.365850  1.0  -0.1105
  C  C363  1  0.699500  0.634150  0.365850  1.0  -0.1105
  C  C364  1  0.800500  0.634150  0.134150  1.0  -0.1098
  C  C365  1  0.300500  0.634150  0.634150  1.0  -0.1098
  C  C366  1  0.300500  0.134150  0.134150  1.0  -0.1098
  C  C367  1  0.199500  0.134150  0.634150  1.0  -0.1101
  C  C368  1  0.699500  0.134150  0.134150  1.0  -0.1101
  C  C369  1  0.800500  0.865850  0.634150  1.0  -0.1097
  C  C370  1  0.800500  0.365850  0.134150  1.0  -0.1097
  C  C371  1  0.300500  0.865850  0.134150  1.0  -0.1097
  C  C372  1  0.199500  0.865850  0.365850  1.0  -0.1109
  C  C373  1  0.699500  0.865850  0.865850  1.0  -0.1109
  C  C374  1  0.699500  0.365850  0.365850  1.0  -0.1109
  C  C375  1  0.800500  0.134150  0.365850  1.0  -0.1105
  C  C376  1  0.300500  0.134150  0.865850  1.0  -0.1105
  C  C377  1  0.134150  0.365850  0.800500  1.0  -0.1126
  C  C378  1  0.134150  0.865850  0.300500  1.0  -0.1126
  C  C379  1  0.865850  0.365850  0.199500  1.0  -0.1144
  C  C380  1  0.865850  0.865850  0.699500  1.0  -0.1144
  C  C381  1  0.365850  0.365850  0.699500  1.0  -0.1144
  C  C382  1  0.865850  0.634150  0.800500  1.0  -0.1147
  C  C383  1  0.865850  0.134150  0.300500  1.0  -0.1147
  C  C384  1  0.365850  0.134150  0.800500  1.0  -0.1147
  C  C385  1  0.134150  0.634150  0.199500  1.0  -0.1118
  C  C386  1  0.134150  0.134150  0.699500  1.0  -0.1118
  C  C387  1  0.365850  0.199500  0.865850  1.0  -0.1119
  C  C388  1  0.365850  0.699500  0.365850  1.0  -0.1119
  C  C389  1  0.365850  0.800500  0.134150  1.0  -0.1105
  C  C390  1  0.365850  0.300500  0.634150  1.0  -0.1105
  C  C391  1  0.634150  0.199500  0.134150  1.0  -0.1088
  C  C392  1  0.634150  0.699500  0.634150  1.0  -0.1088
  C  C393  1  0.134150  0.699500  0.134150  1.0  -0.1088
  C  C394  1  0.634150  0.800500  0.865850  1.0  -0.1099
  C  C395  1  0.634150  0.300500  0.365850  1.0  -0.1099
  C  C396  1  0.134150  0.800500  0.365850  1.0  -0.1099
  C  C397  1  0.865850  0.800500  0.634150  1.0  -0.1105
  C  C398  1  0.865850  0.300500  0.134150  1.0  -0.1105
  C  C399  1  0.134150  0.199500  0.634150  1.0  -0.1088
  C  C400  1  0.134150  0.300500  0.865850  1.0  -0.1099
  C  C401  1  0.865850  0.199500  0.365850  1.0  -0.1119
  C  C402  1  0.865850  0.699500  0.865850  1.0  -0.1119
  C  C403  1  0.634150  0.865850  0.800500  1.0  -0.1126
  C  C404  1  0.634150  0.365850  0.300500  1.0  -0.1126
  C  C405  1  0.634150  0.134150  0.199500  1.0  -0.1118
  C  C406  1  0.634150  0.634150  0.699500  1.0  -0.1118
  C  C407  1  0.365850  0.634150  0.300500  1.0  -0.1147
  C  C408  1  0.365850  0.865850  0.199500  1.0  -0.1144
  C  C409  1  0.800500  0.634150  0.865850  1.0  -0.1105
  C  C410  1  0.300500  0.634150  0.365850  1.0  -0.1105
  C  C411  1  0.199500  0.634150  0.134150  1.0  -0.1101
  C  C412  1  0.699500  0.634150  0.634150  1.0  -0.1101
  C  C413  1  0.300500  0.365850  0.634150  1.0  -0.1097
  C  C414  1  0.199500  0.365850  0.865850  1.0  -0.1109
  C  C415  1  0.800500  0.865850  0.365850  1.0  -0.1104
  C  C416  1  0.300500  0.865850  0.865850  1.0  -0.1104
  C  C417  1  0.699500  0.134150  0.865850  1.0  -0.1105
  C  C418  1  0.800500  0.134150  0.634150  1.0  -0.1098
  C  C419  1  0.199500  0.865850  0.634150  1.0  -0.1105
  C  C420  1  0.699500  0.865850  0.134150  1.0  -0.1105
  C  C421  1  0.865850  0.634150  0.199500  1.0  -0.1139
  C  C422  1  0.865850  0.134150  0.699500  1.0  -0.1139
  C  C423  1  0.134150  0.634150  0.800500  1.0  -0.1126
  C  C424  1  0.134150  0.865850  0.699500  1.0  -0.1118
  C  C425  1  0.865850  0.365850  0.800500  1.0  -0.1152
  C  C426  1  0.865850  0.865850  0.300500  1.0  -0.1152
  C  C427  1  0.634150  0.800500  0.134150  1.0  -0.1086
  C  C428  1  0.634150  0.300500  0.634150  1.0  -0.1086
  C  C429  1  0.634150  0.199500  0.865850  1.0  -0.1093
  C  C430  1  0.634150  0.699500  0.365850  1.0  -0.1093
  C  C431  1  0.365850  0.800500  0.865850  1.0  -0.1116
  C  C432  1  0.365850  0.699500  0.634150  1.0  -0.1117
  O  O433  1  0.051910  0.182530  0.256880  1.0  -0.5626
  O  O434  1  0.051910  0.682530  0.756880  1.0  -0.5626
  O  O435  1  0.551910  0.182530  0.756880  1.0  -0.5626
  O  O436  1  0.551910  0.682530  0.256880  1.0  -0.5626
  O  O437  1  0.948090  0.817470  0.256880  1.0  -0.5647
  O  O438  1  0.948090  0.317470  0.756880  1.0  -0.5647
  O  O439  1  0.448090  0.817470  0.756880  1.0  -0.5647
  O  O440  1  0.448090  0.317470  0.256880  1.0  -0.5647
  O  O441  1  0.948090  0.182530  0.743120  1.0  -0.5635
  O  O442  1  0.948090  0.682530  0.243120  1.0  -0.5635
  O  O443  1  0.448090  0.182530  0.243120  1.0  -0.5635
  O  O444  1  0.448090  0.682530  0.743120  1.0  -0.5635
  O  O445  1  0.051910  0.817470  0.743120  1.0  -0.5632
  O  O446  1  0.051910  0.317470  0.243120  1.0  -0.5632
  O  O447  1  0.551910  0.817470  0.243120  1.0  -0.5632
  O  O448  1  0.551910  0.317470  0.743120  1.0  -0.5632
  O  O449  1  0.256880  0.051910  0.182530  1.0  -0.5653
  O  O450  1  0.256880  0.551910  0.682530  1.0  -0.5653
  O  O451  1  0.756880  0.051910  0.682530  1.0  -0.5653
  O  O452  1  0.756880  0.551910  0.182530  1.0  -0.5653
  O  O453  1  0.256880  0.948090  0.817470  1.0  -0.5636
  O  O454  1  0.256880  0.448090  0.317470  1.0  -0.5636
  O  O455  1  0.756880  0.948090  0.317470  1.0  -0.5636
  O  O456  1  0.756880  0.448090  0.817470  1.0  -0.5636
  O  O457  1  0.743120  0.948090  0.182530  1.0  -0.5664
  O  O458  1  0.743120  0.448090  0.682530  1.0  -0.5664
  O  O459  1  0.243120  0.948090  0.682530  1.0  -0.5664
  O  O460  1  0.243120  0.448090  0.182530  1.0  -0.5664
  O  O461  1  0.743120  0.051910  0.817470  1.0  -0.5652
  O  O462  1  0.743120  0.551910  0.317470  1.0  -0.5652
  O  O463  1  0.243120  0.051910  0.317470  1.0  -0.5652
  O  O464  1  0.243120  0.551910  0.817470  1.0  -0.5652
  O  O465  1  0.182530  0.256880  0.051910  1.0  -0.5628
  O  O466  1  0.182530  0.756880  0.551910  1.0  -0.5628
  O  O467  1  0.682530  0.256880  0.551910  1.0  -0.5628
  O  O468  1  0.682530  0.756880  0.051910  1.0  -0.5628
  O  O469  1  0.817470  0.256880  0.948090  1.0  -0.5663
  O  O470  1  0.817470  0.756880  0.448090  1.0  -0.5663
  O  O471  1  0.317470  0.256880  0.448090  1.0  -0.5663
  O  O472  1  0.317470  0.756880  0.948090  1.0  -0.5663
  O  O473  1  0.182530  0.743120  0.948090  1.0  -0.5626
  O  O474  1  0.182530  0.243120  0.448090  1.0  -0.5626
  O  O475  1  0.682530  0.743120  0.448090  1.0  -0.5626
  O  O476  1  0.682530  0.243120  0.948090  1.0  -0.5626
  O  O477  1  0.817470  0.743120  0.051910  1.0  -0.5654
  O  O478  1  0.817470  0.243120  0.551910  1.0  -0.5654
  O  O479  1  0.317470  0.743120  0.551910  1.0  -0.5654
  O  O480  1  0.317470  0.243120  0.051910  1.0  -0.5654
  O  O481  1  0.182530  0.051910  0.743120  1.0  -0.5637
  O  O482  1  0.182530  0.551910  0.243120  1.0  -0.5637
  O  O483  1  0.682530  0.051910  0.243120  1.0  -0.5637
  O  O484  1  0.682530  0.551910  0.743120  1.0  -0.5637
  O  O485  1  0.817470  0.948090  0.743120  1.0  -0.5646
  O  O486  1  0.817470  0.448090  0.243120  1.0  -0.5646
  O  O487  1  0.317470  0.948090  0.243120  1.0  -0.5646
  O  O488  1  0.317470  0.448090  0.743120  1.0  -0.5646
  O  O489  1  0.182530  0.948090  0.256880  1.0  -0.5627
  O  O490  1  0.182530  0.448090  0.756880  1.0  -0.5627
  O  O491  1  0.682530  0.948090  0.756880  1.0  -0.5627
  O  O492  1  0.682530  0.448090  0.256880  1.0  -0.5627
  O  O493  1  0.817470  0.051910  0.256880  1.0  -0.5659
  O  O494  1  0.817470  0.551910  0.756880  1.0  -0.5659
  O  O495  1  0.317470  0.051910  0.756880  1.0  -0.5659
  O  O496  1  0.317470  0.551910  0.256880  1.0  -0.5659
  O  O497  1  0.051910  0.256880  0.817470  1.0  -0.5644
  O  O498  1  0.051910  0.756880  0.317470  1.0  -0.5644
  O  O499  1  0.551910  0.256880  0.317470  1.0  -0.5644
  O  O500  1  0.551910  0.756880  0.817470  1.0  -0.5644
  O  O501  1  0.948090  0.256880  0.182530  1.0  -0.5652
  O  O502  1  0.948090  0.756880  0.682530  1.0  -0.5652
  O  O503  1  0.448090  0.256880  0.682530  1.0  -0.5652
  O  O504  1  0.448090  0.756880  0.182530  1.0  -0.5652
  O  O505  1  0.948090  0.743120  0.817470  1.0  -0.5641
  O  O506  1  0.948090  0.243120  0.317470  1.0  -0.5641
  O  O507  1  0.448090  0.743120  0.317470  1.0  -0.5641
  O  O508  1  0.448090  0.243120  0.817470  1.0  -0.5641
  O  O509  1  0.051910  0.743120  0.182530  1.0  -0.5657
  O  O510  1  0.051910  0.243120  0.682530  1.0  -0.5657
  O  O511  1  0.551910  0.743120  0.682530  1.0  -0.5657
  O  O512  1  0.551910  0.243120  0.182530  1.0  -0.5657
  O  O513  1  0.256880  0.182530  0.948090  1.0  -0.5632
  O  O514  1  0.256880  0.682530  0.448090  1.0  -0.5632
  O  O515  1  0.756880  0.182530  0.448090  1.0  -0.5632
  O  O516  1  0.756880  0.682530  0.948090  1.0  -0.5632
  O  O517  1  0.256880  0.817470  0.051910  1.0  -0.5629
  O  O518  1  0.256880  0.317470  0.551910  1.0  -0.5629
  O  O519  1  0.756880  0.817470  0.551910  1.0  -0.5629
  O  O520  1  0.756880  0.317470  0.051910  1.0  -0.5629
  O  O521  1  0.743120  0.182530  0.051910  1.0  -0.5641
  O  O522  1  0.743120  0.682530  0.551910  1.0  -0.5641
  O  O523  1  0.243120  0.182530  0.551910  1.0  -0.5641
  O  O524  1  0.243120  0.682530  0.051910  1.0  -0.5641
  O  O525  1  0.743120  0.817470  0.948090  1.0  -0.5644
  O  O526  1  0.743120  0.317470  0.448090  1.0  -0.5644
  O  O527  1  0.243120  0.817470  0.448090  1.0  -0.5644
  O  O528  1  0.243120  0.317470  0.948090  1.0  -0.5644
  O  O529  1  0.948090  0.817470  0.743120  1.0  -0.5638
  O  O530  1  0.948090  0.317470  0.243120  1.0  -0.5638
  O  O531  1  0.448090  0.817470  0.243120  1.0  -0.5638
  O  O532  1  0.448090  0.317470  0.743120  1.0  -0.5638
  O  O533  1  0.051910  0.182530  0.743120  1.0  -0.563
  O  O534  1  0.051910  0.682530  0.243120  1.0  -0.563
  O  O535  1  0.551910  0.182530  0.243120  1.0  -0.563
  O  O536  1  0.551910  0.682530  0.743120  1.0  -0.563
  O  O537  1  0.051910  0.817470  0.256880  1.0  -0.5639
  O  O538  1  0.051910  0.317470  0.756880  1.0  -0.5639
  O  O539  1  0.551910  0.817470  0.756880  1.0  -0.5639
  O  O540  1  0.551910  0.317470  0.256880  1.0  -0.5639
  O  O541  1  0.948090  0.182530  0.256880  1.0  -0.5633
  O  O542  1  0.948090  0.682530  0.756880  1.0  -0.5633
  O  O543  1  0.448090  0.182530  0.756880  1.0  -0.5633
  O  O544  1  0.448090  0.682530  0.256880  1.0  -0.5633
  O  O545  1  0.743120  0.948090  0.817470  1.0  -0.5644
  O  O546  1  0.743120  0.448090  0.317470  1.0  -0.5644
  O  O547  1  0.243120  0.948090  0.317470  1.0  -0.5644
  O  O548  1  0.243120  0.448090  0.817470  1.0  -0.5644
  O  O549  1  0.743120  0.051910  0.182530  1.0  -0.5669
  O  O550  1  0.743120  0.551910  0.682530  1.0  -0.5669
  O  O551  1  0.243120  0.051910  0.682530  1.0  -0.5669
  O  O552  1  0.243120  0.551910  0.182530  1.0  -0.5669
  O  O553  1  0.256880  0.051910  0.817470  1.0  -0.5644
  O  O554  1  0.256880  0.551910  0.317470  1.0  -0.5644
  O  O555  1  0.756880  0.051910  0.317470  1.0  -0.5644
  O  O556  1  0.756880  0.551910  0.817470  1.0  -0.5644
  O  O557  1  0.256880  0.948090  0.182530  1.0  -0.5647
  O  O558  1  0.256880  0.448090  0.682530  1.0  -0.5647
  O  O559  1  0.756880  0.948090  0.682530  1.0  -0.5647
  O  O560  1  0.756880  0.448090  0.182530  1.0  -0.5647
  O  O561  1  0.817470  0.743120  0.948090  1.0  -0.5661
  O  O562  1  0.817470  0.243120  0.448090  1.0  -0.5661
  O  O563  1  0.317470  0.743120  0.448090  1.0  -0.5661
  O  O564  1  0.317470  0.243120  0.948090  1.0  -0.5661
  O  O565  1  0.182530  0.743120  0.051910  1.0  -0.5622
  O  O566  1  0.182530  0.243120  0.551910  1.0  -0.5622
  O  O567  1  0.682530  0.743120  0.551910  1.0  -0.5622
  O  O568  1  0.682530  0.243120  0.051910  1.0  -0.5622
  O  O569  1  0.817470  0.256880  0.051910  1.0  -0.5657
  O  O570  1  0.817470  0.756880  0.551910  1.0  -0.5657
  O  O571  1  0.317470  0.256880  0.551910  1.0  -0.5657
  O  O572  1  0.317470  0.756880  0.051910  1.0  -0.5657
  O  O573  1  0.182530  0.256880  0.948090  1.0  -0.5627
  O  O574  1  0.182530  0.756880  0.448090  1.0  -0.5627
  O  O575  1  0.682530  0.256880  0.448090  1.0  -0.5627
  O  O576  1  0.682530  0.756880  0.948090  1.0  -0.5627
  O  O577  1  0.817470  0.948090  0.256880  1.0  -0.5655
  O  O578  1  0.817470  0.448090  0.756880  1.0  -0.5655
  O  O579  1  0.317470  0.948090  0.756880  1.0  -0.5655
  O  O580  1  0.317470  0.448090  0.256880  1.0  -0.5655
  O  O581  1  0.182530  0.051910  0.256880  1.0  -0.5636
  O  O582  1  0.182530  0.551910  0.756880  1.0  -0.5636
  O  O583  1  0.682530  0.051910  0.756880  1.0  -0.5636
  O  O584  1  0.682530  0.551910  0.256880  1.0  -0.5636
  O  O585  1  0.817470  0.051910  0.743120  1.0  -0.5657
  O  O586  1  0.817470  0.551910  0.243120  1.0  -0.5657
  O  O587  1  0.317470  0.051910  0.243120  1.0  -0.5657
  O  O588  1  0.317470  0.551910  0.743120  1.0  -0.5657
  O  O589  1  0.182530  0.948090  0.743120  1.0  -0.5622
  O  O590  1  0.182530  0.448090  0.243120  1.0  -0.5622
  O  O591  1  0.682530  0.948090  0.243120  1.0  -0.5622
  O  O592  1  0.682530  0.448090  0.743120  1.0  -0.5622
  O  O593  1  0.948090  0.743120  0.182530  1.0  -0.5663
  O  O594  1  0.948090  0.243120  0.682530  1.0  -0.5663
  O  O595  1  0.448090  0.743120  0.682530  1.0  -0.5663
  O  O596  1  0.448090  0.243120  0.182530  1.0  -0.5663
  O  O597  1  0.051910  0.743120  0.817470  1.0  -0.564
  O  O598  1  0.051910  0.243120  0.317470  1.0  -0.564
  O  O599  1  0.551910  0.743120  0.317470  1.0  -0.564
  O  O600  1  0.551910  0.243120  0.817470  1.0  -0.564
  O  O601  1  0.051910  0.256880  0.182530  1.0  -0.5649
  O  O602  1  0.051910  0.756880  0.682530  1.0  -0.5649
  O  O603  1  0.551910  0.256880  0.682530  1.0  -0.5649
  O  O604  1  0.551910  0.756880  0.182530  1.0  -0.5649
  O  O605  1  0.948090  0.256880  0.817470  1.0  -0.5645
  O  O606  1  0.948090  0.756880  0.317470  1.0  -0.5645
  O  O607  1  0.448090  0.256880  0.317470  1.0  -0.5645
  O  O608  1  0.448090  0.756880  0.817470  1.0  -0.5645
  O  O609  1  0.743120  0.817470  0.051910  1.0  -0.5641
  O  O610  1  0.743120  0.317470  0.551910  1.0  -0.5641
  O  O611  1  0.243120  0.817470  0.551910  1.0  -0.5641
  O  O612  1  0.243120  0.317470  0.051910  1.0  -0.5641
  O  O613  1  0.743120  0.182530  0.948090  1.0  -0.5648
  O  O614  1  0.743120  0.682530  0.448090  1.0  -0.5648
  O  O615  1  0.243120  0.182530  0.448090  1.0  -0.5648
  O  O616  1  0.243120  0.682530  0.948090  1.0  -0.5648
  O  O617  1  0.256880  0.817470  0.948090  1.0  -0.5632
  O  O618  1  0.256880  0.317470  0.448090  1.0  -0.5632
  O  O619  1  0.756880  0.817470  0.448090  1.0  -0.5632
  O  O620  1  0.756880  0.317470  0.948090  1.0  -0.5632
  O  O621  1  0.256880  0.182530  0.051910  1.0  -0.5627
  O  O622  1  0.256880  0.682530  0.551910  1.0  -0.5627
  O  O623  1  0.756880  0.182530  0.551910  1.0  -0.5627
  O  O624  1  0.756880  0.682530  0.051910  1.0  -0.5627
  F  F625  1  0.109600  0.247700  0.390400  1.0  -0.1911
  F  F626  1  0.109600  0.747700  0.890400  1.0  -0.1911
  F  F627  1  0.890400  0.752300  0.390400  1.0  -0.191
  F  F628  1  0.890400  0.252300  0.890400  1.0  -0.191
  F  F629  1  0.390400  0.252300  0.390400  1.0  -0.191
  F  F630  1  0.890400  0.247700  0.609600  1.0  -0.1934
  F  F631  1  0.890400  0.747700  0.109600  1.0  -0.1934
  F  F632  1  0.390400  0.247700  0.109600  1.0  -0.1934
  F  F633  1  0.109600  0.752300  0.609600  1.0  -0.1882
  F  F634  1  0.109600  0.252300  0.109600  1.0  -0.1882
  F  F635  1  0.390400  0.109600  0.247700  1.0  -0.1932
  F  F636  1  0.390400  0.609600  0.747700  1.0  -0.1932
  F  F637  1  0.390400  0.890400  0.752300  1.0  -0.1951
  F  F638  1  0.390400  0.390400  0.252300  1.0  -0.1951
  F  F639  1  0.609600  0.890400  0.247700  1.0  -0.192
  F  F640  1  0.609600  0.390400  0.747700  1.0  -0.192
  F  F641  1  0.109600  0.390400  0.247700  1.0  -0.192
  F  F642  1  0.609600  0.109600  0.752300  1.0  -0.1912
  F  F643  1  0.609600  0.609600  0.252300  1.0  -0.1912
  F  F644  1  0.109600  0.109600  0.252300  1.0  -0.1912
  F  F645  1  0.247700  0.390400  0.109600  1.0  -0.1964
  F  F646  1  0.747700  0.390400  0.609600  1.0  -0.1964
  F  F647  1  0.752300  0.390400  0.890400  1.0  -0.1886
  F  F648  1  0.252300  0.390400  0.390400  1.0  -0.1886
  F  F649  1  0.247700  0.609600  0.890400  1.0  -0.1953
  F  F650  1  0.247700  0.109600  0.390400  1.0  -0.1953
  F  F651  1  0.747700  0.609600  0.390400  1.0  -0.1953
  F  F652  1  0.752300  0.609600  0.109600  1.0  -0.188
  F  F653  1  0.252300  0.609600  0.609600  1.0  -0.188
  F  F654  1  0.252300  0.109600  0.109600  1.0  -0.188
  F  F655  1  0.247700  0.109600  0.609600  1.0  -0.1953
  F  F656  1  0.747700  0.109600  0.109600  1.0  -0.1953
  F  F657  1  0.752300  0.890400  0.609600  1.0  -0.1902
  F  F658  1  0.752300  0.390400  0.109600  1.0  -0.1902
  F  F659  1  0.252300  0.890400  0.109600  1.0  -0.1902
  F  F660  1  0.247700  0.890400  0.390400  1.0  -0.1973
  F  F661  1  0.747700  0.890400  0.890400  1.0  -0.1973
  F  F662  1  0.747700  0.390400  0.390400  1.0  -0.1973
  F  F663  1  0.752300  0.109600  0.390400  1.0  -0.1861
  F  F664  1  0.252300  0.109600  0.890400  1.0  -0.1861
  F  F665  1  0.109600  0.390400  0.752300  1.0  -0.1938
  F  F666  1  0.109600  0.890400  0.252300  1.0  -0.1938
  F  F667  1  0.890400  0.390400  0.247700  1.0  -0.1946
  F  F668  1  0.890400  0.890400  0.747700  1.0  -0.1946
  F  F669  1  0.390400  0.390400  0.747700  1.0  -0.1946
  F  F670  1  0.890400  0.609600  0.752300  1.0  -0.1933
  F  F671  1  0.890400  0.109600  0.252300  1.0  -0.1933
  F  F672  1  0.390400  0.109600  0.752300  1.0  -0.1933
  F  F673  1  0.109600  0.609600  0.247700  1.0  -0.1895
  F  F674  1  0.109600  0.109600  0.747700  1.0  -0.1895
  F  F675  1  0.390400  0.247700  0.890400  1.0  -0.1932
  F  F676  1  0.390400  0.747700  0.390400  1.0  -0.1932
  F  F677  1  0.390400  0.752300  0.109600  1.0  -0.1915
  F  F678  1  0.390400  0.252300  0.609600  1.0  -0.1915
  F  F679  1  0.609600  0.247700  0.109600  1.0  -0.1917
  F  F680  1  0.609600  0.747700  0.609600  1.0  -0.1917
  F  F681  1  0.109600  0.747700  0.109600  1.0  -0.1917
  F  F682  1  0.609600  0.752300  0.890400  1.0  -0.188
  F  F683  1  0.609600  0.252300  0.390400  1.0  -0.188
  F  F684  1  0.109600  0.752300  0.390400  1.0  -0.188
  F  F685  1  0.890400  0.752300  0.609600  1.0  -0.1915
  F  F686  1  0.890400  0.252300  0.109600  1.0  -0.1915
  F  F687  1  0.109600  0.247700  0.609600  1.0  -0.1917
  F  F688  1  0.109600  0.252300  0.890400  1.0  -0.188
  F  F689  1  0.890400  0.247700  0.390400  1.0  -0.1932
  F  F690  1  0.890400  0.747700  0.890400  1.0  -0.1932
  F  F691  1  0.609600  0.890400  0.752300  1.0  -0.1938
  F  F692  1  0.609600  0.390400  0.252300  1.0  -0.1938
  F  F693  1  0.609600  0.109600  0.247700  1.0  -0.1895
  F  F694  1  0.609600  0.609600  0.747700  1.0  -0.1895
  F  F695  1  0.390400  0.609600  0.252300  1.0  -0.1933
  F  F696  1  0.390400  0.890400  0.247700  1.0  -0.1946
  F  F697  1  0.752300  0.609600  0.890400  1.0  -0.1861
  F  F698  1  0.252300  0.609600  0.390400  1.0  -0.1861
  F  F699  1  0.247700  0.609600  0.109600  1.0  -0.1953
  F  F700  1  0.747700  0.609600  0.609600  1.0  -0.1953
  F  F701  1  0.252300  0.390400  0.609600  1.0  -0.1902
  F  F702  1  0.247700  0.390400  0.890400  1.0  -0.1973
  F  F703  1  0.752300  0.890400  0.390400  1.0  -0.1886
  F  F704  1  0.252300  0.890400  0.890400  1.0  -0.1886
  F  F705  1  0.747700  0.109600  0.890400  1.0  -0.1953
  F  F706  1  0.752300  0.109600  0.609600  1.0  -0.188
  F  F707  1  0.247700  0.890400  0.609600  1.0  -0.1964
  F  F708  1  0.747700  0.890400  0.109600  1.0  -0.1964
  F  F709  1  0.890400  0.609600  0.247700  1.0  -0.1932
  F  F710  1  0.890400  0.109600  0.747700  1.0  -0.1932
  F  F711  1  0.109600  0.609600  0.752300  1.0  -0.1912
  F  F712  1  0.109600  0.890400  0.747700  1.0  -0.192
  F  F713  1  0.890400  0.390400  0.752300  1.0  -0.1951
  F  F714  1  0.890400  0.890400  0.252300  1.0  -0.1951
  F  F715  1  0.609600  0.752300  0.109600  1.0  -0.1882
  F  F716  1  0.609600  0.252300  0.609600  1.0  -0.1882
  F  F717  1  0.609600  0.247700  0.890400  1.0  -0.1911
  F  F718  1  0.609600  0.747700  0.390400  1.0  -0.1911
  F  F719  1  0.390400  0.752300  0.890400  1.0  -0.191
  F  F720  1  0.390400  0.747700  0.609600  1.0  -0.1934
