# generated using pymatgen
data_Cd3H42C46(N3O2)4
_symmetry_space_group_name_H-M   'P 1'
_cell_length_a   46.64000000
_cell_length_b   12.44700000
_cell_length_c   31.37000000
_cell_angle_alpha   90.00000000
_cell_angle_beta   131.26300000
_cell_angle_gamma   90.00000000
_symmetry_Int_Tables_number   1
_chemical_formula_structural   Cd3H42C46(N3O2)4
_chemical_formula_sum   'Cd24 H336 C368 N96 O64'
_cell_volume   13689.15468361
_cell_formula_units_Z   8
loop_
 _symmetry_equiv_pos_site_id
 _symmetry_equiv_pos_as_xyz
  1  'x, y, z'
loop_
 _atom_site_type_symbol
 _atom_site_label
 _atom_site_symmetry_multiplicity
 _atom_site_fract_x
 _atom_site_fract_y
 _atom_site_fract_z
 _atom_site_occupancy
 _atom_site_charge
  Cd  Cd1  1  0.377540  0.626070  0.395460  1.0  0.9977
  Cd  Cd2  1  0.086890  0.468010  0.070840  1.0  0.9366
  Cd  Cd3  1  0.139590  0.804890  0.120800  1.0  0.9711
  Cd  Cd4  1  0.877540  0.126070  0.395460  1.0  0.9977
  Cd  Cd5  1  0.586890  0.968010  0.070840  1.0  0.9366
  Cd  Cd6  1  0.639590  0.304890  0.120800  1.0  0.9711
  Cd  Cd7  1  0.622460  0.626070  0.104540  1.0  0.997
  Cd  Cd8  1  0.913110  0.468010  0.429160  1.0  0.9358
  Cd  Cd9  1  0.860410  0.804890  0.379200  1.0  0.9705
  Cd  Cd10  1  0.122460  0.126070  0.104540  1.0  0.997
  Cd  Cd11  1  0.413110  0.968010  0.429160  1.0  0.9358
  Cd  Cd12  1  0.360410  0.304890  0.379200  1.0  0.9705
  Cd  Cd13  1  0.622460  0.373930  0.604540  1.0  0.9971
  Cd  Cd14  1  0.913110  0.531990  0.929160  1.0  0.9359
  Cd  Cd15  1  0.860410  0.195110  0.879200  1.0  0.9703
  Cd  Cd16  1  0.122460  0.873930  0.604540  1.0  0.9971
  Cd  Cd17  1  0.413110  0.031990  0.929160  1.0  0.9359
  Cd  Cd18  1  0.360410  0.695110  0.879200  1.0  0.9703
  Cd  Cd19  1  0.377540  0.373930  0.895460  1.0  0.998
  Cd  Cd20  1  0.086890  0.531990  0.570840  1.0  0.9367
  Cd  Cd21  1  0.139590  0.195110  0.620800  1.0  0.9714
  Cd  Cd22  1  0.877540  0.873930  0.895460  1.0  0.998
  Cd  Cd23  1  0.586890  0.031990  0.570840  1.0  0.9367
  Cd  Cd24  1  0.639590  0.695110  0.620800  1.0  0.9714
  H  H25  1  0.034900  0.459100  0.936100  1.0  0.0791
  H  H26  1  0.146800  0.415800  0.207800  1.0  0.0733
  H  H27  1  0.329000  0.696400  0.267200  1.0  0.0819
  H  H28  1  0.035400  0.434700  0.862700  1.0  0.1079
  H  H29  1  0.150900  0.393400  0.286600  1.0  0.1148
  H  H30  1  0.320500  0.666000  0.187700  1.0  0.1072
  H  H31  1  0.206100  0.637300  0.209900  1.0  0.1268
  H  H32  1  0.211100  0.607400  0.166800  1.0  0.1309
  H  H33  1  0.466900  0.417800  0.555600  1.0  0.1235
  H  H34  1  0.486300  0.481000  0.537200  1.0  0.0997
  H  H35  1  0.223200  0.457400  0.245200  1.0  0.0888
  H  H36  1  0.231000  0.434300  0.204600  1.0  0.0818
  H  H37  1  0.525500  0.328600  0.596200  1.0  0.0915
  H  H38  1  0.492100  0.250100  0.551600  1.0  0.0937
  H  H39  1  0.150400  0.386900  0.981100  1.0  0.1299
  H  H40  1  0.040600  0.471200  0.185600  1.0  0.1017
  H  H41  1  0.413300  0.474800  0.278200  1.0  0.1194
  H  H42  1  0.280600  0.559400  0.253100  1.0  0.111
  H  H43  1  0.272100  0.588100  0.292400  1.0  0.1102
  H  H44  1  0.496900  0.310800  0.483100  1.0  0.098
  H  H45  1  0.532600  0.379300  0.531000  1.0  0.0766
  H  H46  1  0.144900  0.413100  0.049500  1.0  0.0655
  H  H47  1  0.040700  0.506500  0.112800  1.0  0.0633
  H  H48  1  0.419600  0.507900  0.354800  1.0  0.076
  H  H49  1  0.069300  0.392800  0.829200  1.0  0.0759
  H  H50  1  0.073600  0.430600  0.284900  1.0  0.109
  H  H51  1  0.337100  0.569100  0.136400  1.0  0.0728
  H  H52  1  0.169500  0.296000  0.872000  1.0  0.1026
  H  H53  1  0.164600  0.260100  0.420100  1.0  0.0782
  H  H54  1  0.416500  0.392300  0.156000  1.0  0.0782
  H  H55  1  0.195900  0.200200  0.758800  1.0  0.0638
  H  H56  1  0.094100  0.702100  0.000000  1.0  0.0657
  H  H57  1  0.438200  0.655600  0.531700  1.0  0.0776
  H  H58  1  0.198500  0.240800  0.834700  1.0  0.1113
  H  H59  1  0.093700  0.669200  0.926900  1.0  0.0881
  H  H60  1  0.444800  0.640600  0.610300  1.0  0.106
  H  H61  1  0.086600  0.301300  0.719600  1.0  0.0971
  H  H62  1  0.193000  0.827000  0.013100  1.0  0.1274
  H  H63  1  0.333800  0.569200  0.509100  1.0  0.0945
  H  H64  1  0.085800  0.252000  0.648000  1.0  0.0907
  H  H65  1  0.190400  0.857400  0.082000  1.0  0.0776
  H  H66  1  0.329100  0.586200  0.435200  1.0  0.0786
  H  H67  1  0.534900  0.959100  0.936100  1.0  0.0791
  H  H68  1  0.646800  0.915800  0.207800  1.0  0.0733
  H  H69  1  0.829000  0.196400  0.267200  1.0  0.0819
  H  H70  1  0.535400  0.934700  0.862700  1.0  0.1079
  H  H71  1  0.650900  0.893400  0.286600  1.0  0.1148
  H  H72  1  0.820500  0.166000  0.187700  1.0  0.1072
  H  H73  1  0.706100  0.137300  0.209900  1.0  0.1268
  H  H74  1  0.711100  0.107400  0.166800  1.0  0.1309
  H  H75  1  0.966900  0.917800  0.555600  1.0  0.1235
  H  H76  1  0.986300  0.981000  0.537200  1.0  0.0997
  H  H77  1  0.723200  0.957400  0.245200  1.0  0.0888
  H  H78  1  0.731000  0.934300  0.204600  1.0  0.0818
  H  H79  1  0.025500  0.828600  0.596200  1.0  0.0915
  H  H80  1  0.992100  0.750100  0.551600  1.0  0.0937
  H  H81  1  0.650400  0.886900  0.981100  1.0  0.1299
  H  H82  1  0.540600  0.971200  0.185600  1.0  0.1017
  H  H83  1  0.913300  0.974800  0.278200  1.0  0.1194
  H  H84  1  0.780600  0.059400  0.253100  1.0  0.111
  H  H85  1  0.772100  0.088100  0.292400  1.0  0.1102
  H  H86  1  0.996900  0.810800  0.483100  1.0  0.098
  H  H87  1  0.032600  0.879300  0.531000  1.0  0.0766
  H  H88  1  0.644900  0.913100  0.049500  1.0  0.0655
  H  H89  1  0.540700  0.006500  0.112800  1.0  0.0633
  H  H90  1  0.919600  0.007900  0.354800  1.0  0.076
  H  H91  1  0.569300  0.892800  0.829200  1.0  0.0759
  H  H92  1  0.573600  0.930600  0.284900  1.0  0.109
  H  H93  1  0.837100  0.069100  0.136400  1.0  0.0728
  H  H94  1  0.669500  0.796000  0.872000  1.0  0.1026
  H  H95  1  0.664600  0.760100  0.420100  1.0  0.0782
  H  H96  1  0.916500  0.892300  0.156000  1.0  0.0782
  H  H97  1  0.695900  0.700200  0.758800  1.0  0.0638
  H  H98  1  0.594100  0.202100  0.000000  1.0  0.0657
  H  H99  1  0.938200  0.155600  0.531700  1.0  0.0776
  H  H100  1  0.698500  0.740800  0.834700  1.0  0.1113
  H  H101  1  0.593700  0.169200  0.926900  1.0  0.0881
  H  H102  1  0.944800  0.140600  0.610300  1.0  0.106
  H  H103  1  0.586600  0.801300  0.719600  1.0  0.0971
  H  H104  1  0.693000  0.327000  0.013100  1.0  0.1274
  H  H105  1  0.833800  0.069200  0.509100  1.0  0.0945
  H  H106  1  0.585800  0.752000  0.648000  1.0  0.0907
  H  H107  1  0.690400  0.357400  0.082000  1.0  0.0776
  H  H108  1  0.829100  0.086200  0.435200  1.0  0.0786
  H  H109  1  0.965100  0.459100  0.563900  1.0  0.0797
  H  H110  1  0.853200  0.415800  0.292200  1.0  0.0725
  H  H111  1  0.671000  0.696400  0.232800  1.0  0.0818
  H  H112  1  0.964600  0.434700  0.637300  1.0  0.1078
  H  H113  1  0.849100  0.393400  0.213400  1.0  0.1143
  H  H114  1  0.679500  0.666000  0.312300  1.0  0.1074
  H  H115  1  0.793900  0.637300  0.290100  1.0  0.1255
  H  H116  1  0.788900  0.607400  0.333200  1.0  0.1311
  H  H117  1  0.533100  0.417800  0.944400  1.0  0.1241
  H  H118  1  0.513700  0.481000  0.962800  1.0  0.101
  H  H119  1  0.776800  0.457400  0.254800  1.0  0.0883
  H  H120  1  0.769000  0.434300  0.295400  1.0  0.0821
  H  H121  1  0.474500  0.328600  0.903800  1.0  0.0915
  H  H122  1  0.507900  0.250100  0.948400  1.0  0.0925
  H  H123  1  0.849600  0.386900  0.518900  1.0  0.1304
  H  H124  1  0.959400  0.471200  0.314400  1.0  0.1023
  H  H125  1  0.586700  0.474800  0.221800  1.0  0.1193
  H  H126  1  0.719400  0.559400  0.246900  1.0  0.1119
  H  H127  1  0.727900  0.588100  0.207600  1.0  0.1106
  H  H128  1  0.503100  0.310800  0.016900  1.0  0.0989
  H  H129  1  0.467400  0.379300  0.969000  1.0  0.0774
  H  H130  1  0.855100  0.413100  0.450500  1.0  0.0651
  H  H131  1  0.959300  0.506500  0.387200  1.0  0.0637
  H  H132  1  0.580400  0.507900  0.145200  1.0  0.0756
  H  H133  1  0.930700  0.392800  0.670800  1.0  0.0762
  H  H134  1  0.926400  0.430600  0.215100  1.0  0.1086
  H  H135  1  0.662900  0.569100  0.363600  1.0  0.0731
  H  H136  1  0.830500  0.296000  0.628000  1.0  0.1029
  H  H137  1  0.835400  0.260100  0.079900  1.0  0.0782
  H  H138  1  0.583500  0.392300  0.344000  1.0  0.0779
  H  H139  1  0.804100  0.200200  0.741200  1.0  0.0629
  H  H140  1  0.905900  0.702100  0.500000  1.0  0.0658
  H  H141  1  0.561800  0.655600  0.968300  1.0  0.0772
  H  H142  1  0.801500  0.240800  0.665300  1.0  0.1117
  H  H143  1  0.906300  0.669200  0.573100  1.0  0.0881
  H  H144  1  0.555200  0.640600  0.889700  1.0  0.1061
  H  H145  1  0.913400  0.301300  0.780400  1.0  0.0973
  H  H146  1  0.807000  0.827000  0.486900  1.0  0.1275
  H  H147  1  0.666200  0.569200  0.990900  1.0  0.0941
  H  H148  1  0.914200  0.252000  0.852000  1.0  0.0911
  H  H149  1  0.809600  0.857400  0.418000  1.0  0.0778
  H  H150  1  0.670900  0.586200  0.064800  1.0  0.0788
  H  H151  1  0.465100  0.959100  0.563900  1.0  0.0797
  H  H152  1  0.353200  0.915800  0.292200  1.0  0.0725
  H  H153  1  0.171000  0.196400  0.232800  1.0  0.0818
  H  H154  1  0.464600  0.934700  0.637300  1.0  0.1078
  H  H155  1  0.349100  0.893400  0.213400  1.0  0.1143
  H  H156  1  0.179500  0.166000  0.312300  1.0  0.1074
  H  H157  1  0.293900  0.137300  0.290100  1.0  0.1255
  H  H158  1  0.288900  0.107400  0.333200  1.0  0.1311
  H  H159  1  0.033100  0.917800  0.944400  1.0  0.1241
  H  H160  1  0.013700  0.981000  0.962800  1.0  0.101
  H  H161  1  0.276800  0.957400  0.254800  1.0  0.0883
  H  H162  1  0.269000  0.934300  0.295400  1.0  0.0821
  H  H163  1  0.974500  0.828600  0.903800  1.0  0.0915
  H  H164  1  0.007900  0.750100  0.948400  1.0  0.0925
  H  H165  1  0.349600  0.886900  0.518900  1.0  0.1304
  H  H166  1  0.459400  0.971200  0.314400  1.0  0.1023
  H  H167  1  0.086700  0.974800  0.221800  1.0  0.1193
  H  H168  1  0.219400  0.059400  0.246900  1.0  0.1119
  H  H169  1  0.227900  0.088100  0.207600  1.0  0.1106
  H  H170  1  0.003100  0.810800  0.016900  1.0  0.0989
  H  H171  1  0.967400  0.879300  0.969000  1.0  0.0774
  H  H172  1  0.355100  0.913100  0.450500  1.0  0.0651
  H  H173  1  0.459300  0.006500  0.387200  1.0  0.0637
  H  H174  1  0.080400  0.007900  0.145200  1.0  0.0756
  H  H175  1  0.430700  0.892800  0.670800  1.0  0.0762
  H  H176  1  0.426400  0.930600  0.215100  1.0  0.1086
  H  H177  1  0.162900  0.069100  0.363600  1.0  0.0731
  H  H178  1  0.330500  0.796000  0.628000  1.0  0.1029
  H  H179  1  0.335400  0.760100  0.079900  1.0  0.0782
  H  H180  1  0.083500  0.892300  0.344000  1.0  0.0779
  H  H181  1  0.304100  0.700200  0.741200  1.0  0.0629
  H  H182  1  0.405900  0.202100  0.500000  1.0  0.0658
  H  H183  1  0.061800  0.155600  0.968300  1.0  0.0772
  H  H184  1  0.301500  0.740800  0.665300  1.0  0.1117
  H  H185  1  0.406300  0.169200  0.573100  1.0  0.0881
  H  H186  1  0.055200  0.140600  0.889700  1.0  0.1061
  H  H187  1  0.413400  0.801300  0.780400  1.0  0.0973
  H  H188  1  0.307000  0.327000  0.486900  1.0  0.1275
  H  H189  1  0.166200  0.069200  0.990900  1.0  0.0941
  H  H190  1  0.414200  0.752000  0.852000  1.0  0.0911
  H  H191  1  0.309600  0.357400  0.418000  1.0  0.0778
  H  H192  1  0.170900  0.086200  0.064800  1.0  0.0788
  H  H193  1  0.965100  0.540900  0.063900  1.0  0.0796
  H  H194  1  0.853200  0.584200  0.792200  1.0  0.0738
  H  H195  1  0.671000  0.303600  0.732800  1.0  0.082
  H  H196  1  0.964600  0.565300  0.137300  1.0  0.1078
  H  H197  1  0.849100  0.606600  0.713400  1.0  0.1143
  H  H198  1  0.679500  0.334000  0.812300  1.0  0.1074
  H  H199  1  0.793900  0.362700  0.790100  1.0  0.1249
  H  H200  1  0.788900  0.392600  0.833200  1.0  0.1312
  H  H201  1  0.533100  0.582200  0.444400  1.0  0.124
  H  H202  1  0.513700  0.519000  0.462800  1.0  0.1017
  H  H203  1  0.776800  0.542600  0.754800  1.0  0.0882
  H  H204  1  0.769000  0.565700  0.795400  1.0  0.0795
  H  H205  1  0.474500  0.671400  0.403800  1.0  0.0917
  H  H206  1  0.507900  0.749900  0.448400  1.0  0.0954
  H  H207  1  0.849600  0.613100  0.018900  1.0  0.1303
  H  H208  1  0.959400  0.528800  0.814400  1.0  0.1023
  H  H209  1  0.586700  0.525200  0.721800  1.0  0.1197
  H  H210  1  0.719400  0.440600  0.746900  1.0  0.112
  H  H211  1  0.727900  0.411900  0.707600  1.0  0.1113
  H  H212  1  0.503100  0.689200  0.516900  1.0  0.0981
  H  H213  1  0.467400  0.620700  0.469000  1.0  0.0785
  H  H214  1  0.855100  0.586900  0.950500  1.0  0.0649
  H  H215  1  0.959300  0.493500  0.887200  1.0  0.064
  H  H216  1  0.580400  0.492100  0.645200  1.0  0.0757
  H  H217  1  0.930700  0.607200  0.170800  1.0  0.0762
  H  H218  1  0.926400  0.569400  0.715100  1.0  0.1088
  H  H219  1  0.662900  0.430900  0.863600  1.0  0.0731
  H  H220  1  0.830500  0.704000  0.128000  1.0  0.1028
  H  H221  1  0.835400  0.739900  0.579900  1.0  0.0782
  H  H222  1  0.583500  0.607700  0.844000  1.0  0.0778
  H  H223  1  0.804100  0.799800  0.241200  1.0  0.0629
  H  H224  1  0.905900  0.297900  0.000000  1.0  0.0654
  H  H225  1  0.561800  0.344400  0.468300  1.0  0.0773
  H  H226  1  0.801500  0.759200  0.165300  1.0  0.1118
  H  H227  1  0.906300  0.330800  0.073100  1.0  0.0879
  H  H228  1  0.555200  0.359400  0.389700  1.0  0.1063
  H  H229  1  0.913400  0.698700  0.280400  1.0  0.0973
  H  H230  1  0.807000  0.173000  0.986900  1.0  0.1275
  H  H231  1  0.666200  0.430800  0.490900  1.0  0.0941
  H  H232  1  0.914200  0.748000  0.352000  1.0  0.0909
  H  H233  1  0.809600  0.142600  0.918000  1.0  0.0775
  H  H234  1  0.670900  0.413800  0.564800  1.0  0.0787
  H  H235  1  0.465100  0.040900  0.063900  1.0  0.0796
  H  H236  1  0.353200  0.084200  0.792200  1.0  0.0738
  H  H237  1  0.171000  0.803600  0.732800  1.0  0.082
  H  H238  1  0.464600  0.065300  0.137300  1.0  0.1078
  H  H239  1  0.349100  0.106600  0.713400  1.0  0.1143
  H  H240  1  0.179500  0.834000  0.812300  1.0  0.1074
  H  H241  1  0.293900  0.862700  0.790100  1.0  0.1249
  H  H242  1  0.288900  0.892600  0.833200  1.0  0.1312
  H  H243  1  0.033100  0.082200  0.444400  1.0  0.124
  H  H244  1  0.013700  0.019000  0.462800  1.0  0.1017
  H  H245  1  0.276800  0.042600  0.754800  1.0  0.0882
  H  H246  1  0.269000  0.065700  0.795400  1.0  0.0795
  H  H247  1  0.974500  0.171400  0.403800  1.0  0.0917
  H  H248  1  0.007900  0.249900  0.448400  1.0  0.0954
  H  H249  1  0.349600  0.113100  0.018900  1.0  0.1303
  H  H250  1  0.459400  0.028800  0.814400  1.0  0.1023
  H  H251  1  0.086700  0.025200  0.721800  1.0  0.1197
  H  H252  1  0.219400  0.940600  0.746900  1.0  0.112
  H  H253  1  0.227900  0.911900  0.707600  1.0  0.1113
  H  H254  1  0.003100  0.189200  0.516900  1.0  0.0981
  H  H255  1  0.967400  0.120700  0.469000  1.0  0.0785
  H  H256  1  0.355100  0.086900  0.950500  1.0  0.0649
  H  H257  1  0.459300  0.993500  0.887200  1.0  0.064
  H  H258  1  0.080400  0.992100  0.645200  1.0  0.0757
  H  H259  1  0.430700  0.107200  0.170800  1.0  0.0762
  H  H260  1  0.426400  0.069400  0.715100  1.0  0.1088
  H  H261  1  0.162900  0.930900  0.863600  1.0  0.0731
  H  H262  1  0.330500  0.204000  0.128000  1.0  0.1028
  H  H263  1  0.335400  0.239900  0.579900  1.0  0.0782
  H  H264  1  0.083500  0.107700  0.844000  1.0  0.0778
  H  H265  1  0.304100  0.299800  0.241200  1.0  0.0629
  H  H266  1  0.405900  0.797900  0.000000  1.0  0.0654
  H  H267  1  0.061800  0.844400  0.468300  1.0  0.0773
  H  H268  1  0.301500  0.259200  0.165300  1.0  0.1118
  H  H269  1  0.406300  0.830800  0.073100  1.0  0.0879
  H  H270  1  0.055200  0.859400  0.389700  1.0  0.1063
  H  H271  1  0.413400  0.198700  0.280400  1.0  0.0973
  H  H272  1  0.307000  0.673000  0.986900  1.0  0.1275
  H  H273  1  0.166200  0.930800  0.490900  1.0  0.0941
  H  H274  1  0.414200  0.248000  0.352000  1.0  0.0909
  H  H275  1  0.309600  0.642600  0.918000  1.0  0.0775
  H  H276  1  0.170900  0.913800  0.564800  1.0  0.0787
  H  H277  1  0.034900  0.540900  0.436100  1.0  0.0791
  H  H278  1  0.146800  0.584200  0.707800  1.0  0.0718
  H  H279  1  0.329000  0.303600  0.767200  1.0  0.0822
  H  H280  1  0.035400  0.565300  0.362700  1.0  0.1079
  H  H281  1  0.150900  0.606600  0.786600  1.0  0.1147
  H  H282  1  0.320500  0.334000  0.687700  1.0  0.1072
  H  H283  1  0.206100  0.362700  0.709900  1.0  0.1268
  H  H284  1  0.211100  0.392600  0.666800  1.0  0.1311
  H  H285  1  0.466900  0.582200  0.055600  1.0  0.1236
  H  H286  1  0.486300  0.519000  0.037200  1.0  0.1011
  H  H287  1  0.223200  0.542600  0.745200  1.0  0.0881
  H  H288  1  0.231000  0.565700  0.704600  1.0  0.0798
  H  H289  1  0.525500  0.671400  0.096200  1.0  0.0917
  H  H290  1  0.492100  0.749900  0.051600  1.0  0.0935
  H  H291  1  0.150400  0.613100  0.481100  1.0  0.13
  H  H292  1  0.040600  0.528800  0.685600  1.0  0.1016
  H  H293  1  0.413300  0.525200  0.778200  1.0  0.1195
  H  H294  1  0.280600  0.440600  0.753100  1.0  0.1111
  H  H295  1  0.272100  0.411900  0.792400  1.0  0.112
  H  H296  1  0.496900  0.689200  0.983100  1.0  0.0978
  H  H297  1  0.532600  0.620700  0.031000  1.0  0.0778
  H  H298  1  0.144900  0.586900  0.549500  1.0  0.065
  H  H299  1  0.040700  0.493500  0.612800  1.0  0.0636
  H  H300  1  0.419600  0.492100  0.854800  1.0  0.0758
  H  H301  1  0.069300  0.607200  0.329200  1.0  0.0759
  H  H302  1  0.073600  0.569400  0.784900  1.0  0.1089
  H  H303  1  0.337100  0.430900  0.636400  1.0  0.0727
  H  H304  1  0.169500  0.704000  0.372000  1.0  0.1027
  H  H305  1  0.164600  0.739900  0.920100  1.0  0.0783
  H  H306  1  0.416500  0.607700  0.656000  1.0  0.0784
  H  H307  1  0.195900  0.799800  0.258800  1.0  0.0637
  H  H308  1  0.094100  0.297900  0.500000  1.0  0.0651
  H  H309  1  0.438200  0.344400  0.031700  1.0  0.0775
  H  H310  1  0.198500  0.759200  0.334700  1.0  0.1113
  H  H311  1  0.093700  0.330800  0.426900  1.0  0.0879
  H  H312  1  0.444800  0.359400  0.110300  1.0  0.106
  H  H313  1  0.086600  0.698700  0.219600  1.0  0.0971
  H  H314  1  0.193000  0.173000  0.513100  1.0  0.1276
  H  H315  1  0.333800  0.430800  0.009100  1.0  0.0944
  H  H316  1  0.085800  0.748000  0.148000  1.0  0.0907
  H  H317  1  0.190400  0.142600  0.582000  1.0  0.0778
  H  H318  1  0.329100  0.413800  0.935200  1.0  0.0781
  H  H319  1  0.534900  0.040900  0.436100  1.0  0.0791
  H  H320  1  0.646800  0.084200  0.707800  1.0  0.0718
  H  H321  1  0.829000  0.803600  0.767200  1.0  0.0822
  H  H322  1  0.535400  0.065300  0.362700  1.0  0.1079
  H  H323  1  0.650900  0.106600  0.786600  1.0  0.1147
  H  H324  1  0.820500  0.834000  0.687700  1.0  0.1072
  H  H325  1  0.706100  0.862700  0.709900  1.0  0.1268
  H  H326  1  0.711100  0.892600  0.666800  1.0  0.1311
  H  H327  1  0.966900  0.082200  0.055600  1.0  0.1236
  H  H328  1  0.986300  0.019000  0.037200  1.0  0.1011
  H  H329  1  0.723200  0.042600  0.745200  1.0  0.0881
  H  H330  1  0.731000  0.065700  0.704600  1.0  0.0798
  H  H331  1  0.025500  0.171400  0.096200  1.0  0.0917
  H  H332  1  0.992100  0.249900  0.051600  1.0  0.0935
  H  H333  1  0.650400  0.113100  0.481100  1.0  0.13
  H  H334  1  0.540600  0.028800  0.685600  1.0  0.1016
  H  H335  1  0.913300  0.025200  0.778200  1.0  0.1195
  H  H336  1  0.780600  0.940600  0.753100  1.0  0.1111
  H  H337  1  0.772100  0.911900  0.792400  1.0  0.112
  H  H338  1  0.996900  0.189200  0.983100  1.0  0.0978
  H  H339  1  0.032600  0.120700  0.031000  1.0  0.0778
  H  H340  1  0.644900  0.086900  0.549500  1.0  0.065
  H  H341  1  0.540700  0.993500  0.612800  1.0  0.0636
  H  H342  1  0.919600  0.992100  0.854800  1.0  0.0758
  H  H343  1  0.569300  0.107200  0.329200  1.0  0.0759
  H  H344  1  0.573600  0.069400  0.784900  1.0  0.1089
  H  H345  1  0.837100  0.930900  0.636400  1.0  0.0727
  H  H346  1  0.669500  0.204000  0.372000  1.0  0.1027
  H  H347  1  0.664600  0.239900  0.920100  1.0  0.0783
  H  H348  1  0.916500  0.107700  0.656000  1.0  0.0784
  H  H349  1  0.695900  0.299800  0.258800  1.0  0.0637
  H  H350  1  0.594100  0.797900  0.500000  1.0  0.0651
  H  H351  1  0.938200  0.844400  0.031700  1.0  0.0775
  H  H352  1  0.698500  0.259200  0.334700  1.0  0.1113
  H  H353  1  0.593700  0.830800  0.426900  1.0  0.0879
  H  H354  1  0.944800  0.859400  0.110300  1.0  0.106
  H  H355  1  0.586600  0.198700  0.219600  1.0  0.0971
  H  H356  1  0.693000  0.673000  0.513100  1.0  0.1276
  H  H357  1  0.833800  0.930800  0.009100  1.0  0.0944
  H  H358  1  0.585800  0.248000  0.148000  1.0  0.0907
  H  H359  1  0.690400  0.642600  0.582000  1.0  0.0778
  H  H360  1  0.829100  0.913800  0.935200  1.0  0.0781
  C  C361  1  0.058000  0.446700  0.945000  1.0  0.1513
  C  C362  1  0.125300  0.429000  0.203300  1.0  0.1376
  C  C363  1  0.346100  0.651500  0.269900  1.0  0.1299
  C  C364  1  0.161500  0.549500  0.143200  1.0  0.7204
  C  C365  1  0.438200  0.402400  0.471500  1.0  0.7189
  C  C366  1  0.058100  0.430000  0.900200  1.0  -0.1014
  C  C367  1  0.128000  0.412600  0.251300  1.0  -0.1574
  C  C368  1  0.340400  0.632000  0.221400  1.0  -0.113
  C  C369  1  0.203400  0.579400  0.186800  1.0  -0.3747
  C  C370  1  0.474000  0.413800  0.532600  1.0  -0.3726
  C  C371  1  0.092800  0.407200  0.912700  1.0  0.0152
  C  C372  1  0.095400  0.426200  0.243000  1.0  -0.0131
  C  C373  1  0.364400  0.561200  0.222500  1.0  -0.0443
  C  C374  1  0.231500  0.489600  0.226800  1.0  -0.0754
  C  C375  1  0.504100  0.317900  0.556100  1.0  -0.1469
  C  C376  1  0.126900  0.401500  0.970500  1.0  -0.1716
  C  C377  1  0.062700  0.460700  0.191400  1.0  -0.1203
  C  C378  1  0.395600  0.517900  0.274900  1.0  -0.1348
  C  C379  1  0.272100  0.530000  0.271800  1.0  -0.3646
  C  C380  1  0.518700  0.313700  0.523500  1.0  -0.3099
  C  C381  1  0.123000  0.419500  0.011500  1.0  0.155
  C  C382  1  0.062800  0.480200  0.147100  1.0  0.1638
  C  C383  1  0.399400  0.540300  0.320700  1.0  0.1497
  C  C384  1  0.300300  0.446500  0.313700  1.0  0.6658
  C  C385  1  0.543700  0.220500  0.539300  1.0  0.719
  C  C386  1  0.092000  0.385000  0.866500  1.0  0.1532
  C  C387  1  0.093700  0.405800  0.288100  1.0  0.1083
  C  C388  1  0.357900  0.538100  0.170500  1.0  0.1478
  C  C389  1  0.146200  0.301700  0.835100  1.0  0.0935
  C  C390  1  0.144000  0.283000  0.416300  1.0  0.1475
  C  C391  1  0.394600  0.417600  0.121100  1.0  0.1575
  C  C392  1  0.173500  0.218800  0.750800  1.0  0.1462
  C  C393  1  0.113900  0.728500  0.002900  1.0  0.158
  C  C394  1  0.416800  0.639700  0.527200  1.0  0.1534
  C  C395  1  0.175500  0.244500  0.797500  1.0  -0.1254
  C  C396  1  0.113800  0.707200  0.958700  1.0  -0.0591
  C  C397  1  0.421000  0.629100  0.574600  1.0  -0.1352
  C  C398  1  0.143000  0.274300  0.786000  1.0  -0.0741
  C  C399  1  0.143200  0.741900  0.961900  1.0  -0.0559
  C  C400  1  0.389800  0.601000  0.569600  1.0  -0.0319
  C  C401  1  0.109100  0.278900  0.728700  1.0  -0.0841
  C  C402  1  0.172700  0.801000  0.009300  1.0  -0.1536
  C  C403  1  0.355400  0.587100  0.514700  1.0  -0.1425
  C  C404  1  0.108700  0.250400  0.685400  1.0  0.141
  C  C405  1  0.170500  0.818800  0.050200  1.0  0.1594
  C  C406  1  0.352700  0.598600  0.470900  1.0  0.1807
  C  C407  1  0.558000  0.946700  0.945000  1.0  0.1513
  C  C408  1  0.625300  0.929000  0.203300  1.0  0.1376
  C  C409  1  0.846100  0.151500  0.269900  1.0  0.1299
  C  C410  1  0.661500  0.049500  0.143200  1.0  0.7204
  C  C411  1  0.938200  0.902400  0.471500  1.0  0.7189
  C  C412  1  0.558100  0.930000  0.900200  1.0  -0.1014
  C  C413  1  0.628000  0.912600  0.251300  1.0  -0.1574
  C  C414  1  0.840400  0.132000  0.221400  1.0  -0.113
  C  C415  1  0.703400  0.079400  0.186800  1.0  -0.3747
  C  C416  1  0.974000  0.913800  0.532600  1.0  -0.3726
  C  C417  1  0.592800  0.907200  0.912700  1.0  0.0152
  C  C418  1  0.595400  0.926200  0.243000  1.0  -0.0131
  C  C419  1  0.864400  0.061200  0.222500  1.0  -0.0443
  C  C420  1  0.731500  0.989600  0.226800  1.0  -0.0754
  C  C421  1  0.004100  0.817900  0.556100  1.0  -0.1469
  C  C422  1  0.626900  0.901500  0.970500  1.0  -0.1716
  C  C423  1  0.562700  0.960700  0.191400  1.0  -0.1203
  C  C424  1  0.895600  0.017900  0.274900  1.0  -0.1348
  C  C425  1  0.772100  0.030000  0.271800  1.0  -0.3646
  C  C426  1  0.018700  0.813700  0.523500  1.0  -0.3099
  C  C427  1  0.623000  0.919500  0.011500  1.0  0.155
  C  C428  1  0.562800  0.980200  0.147100  1.0  0.1638
  C  C429  1  0.899400  0.040300  0.320700  1.0  0.1497
  C  C430  1  0.800300  0.946500  0.313700  1.0  0.6658
  C  C431  1  0.043700  0.720500  0.539300  1.0  0.719
  C  C432  1  0.592000  0.885000  0.866500  1.0  0.1532
  C  C433  1  0.593700  0.905800  0.288100  1.0  0.1083
  C  C434  1  0.857900  0.038100  0.170500  1.0  0.1478
  C  C435  1  0.646200  0.801700  0.835100  1.0  0.0935
  C  C436  1  0.644000  0.783000  0.416300  1.0  0.1475
  C  C437  1  0.894600  0.917600  0.121100  1.0  0.1575
  C  C438  1  0.673500  0.718800  0.750800  1.0  0.1462
  C  C439  1  0.613900  0.228500  0.002900  1.0  0.158
  C  C440  1  0.916800  0.139700  0.527200  1.0  0.1534
  C  C441  1  0.675500  0.744500  0.797500  1.0  -0.1254
  C  C442  1  0.613800  0.207200  0.958700  1.0  -0.0591
  C  C443  1  0.921000  0.129100  0.574600  1.0  -0.1352
  C  C444  1  0.643000  0.774300  0.786000  1.0  -0.0741
  C  C445  1  0.643200  0.241900  0.961900  1.0  -0.0559
  C  C446  1  0.889800  0.101000  0.569600  1.0  -0.0319
  C  C447  1  0.609100  0.778900  0.728700  1.0  -0.0841
  C  C448  1  0.672700  0.301000  0.009300  1.0  -0.1536
  C  C449  1  0.855400  0.087100  0.514700  1.0  -0.1425
  C  C450  1  0.608700  0.750400  0.685400  1.0  0.141
  C  C451  1  0.670500  0.318800  0.050200  1.0  0.1594
  C  C452  1  0.852700  0.098600  0.470900  1.0  0.1807
  C  C453  1  0.942000  0.446700  0.555000  1.0  0.1516
  C  C454  1  0.874700  0.429000  0.296700  1.0  0.1386
  C  C455  1  0.653900  0.651500  0.230100  1.0  0.1296
  C  C456  1  0.838500  0.549500  0.356800  1.0  0.7203
  C  C457  1  0.561800  0.402400  0.028500  1.0  0.7177
  C  C458  1  0.941900  0.430000  0.599800  1.0  -0.0998
  C  C459  1  0.872000  0.412600  0.248700  1.0  -0.1587
  C  C460  1  0.659600  0.632000  0.278600  1.0  -0.114
  C  C461  1  0.796600  0.579400  0.313200  1.0  -0.3762
  C  C462  1  0.526000  0.413800  0.967400  1.0  -0.3717
  C  C463  1  0.907200  0.407200  0.587300  1.0  0.0149
  C  C464  1  0.904600  0.426200  0.257000  1.0  -0.015
  C  C465  1  0.635600  0.561200  0.277500  1.0  -0.0418
  C  C466  1  0.768500  0.489600  0.273200  1.0  -0.0748
  C  C467  1  0.495900  0.317900  0.943900  1.0  -0.1467
  C  C468  1  0.873100  0.401500  0.529500  1.0  -0.1708
  C  C469  1  0.937300  0.460700  0.308600  1.0  -0.1232
  C  C470  1  0.604400  0.517900  0.225100  1.0  -0.1333
  C  C471  1  0.727900  0.530000  0.228200  1.0  -0.3645
  C  C472  1  0.481300  0.313700  0.976500  1.0  -0.3075
  C  C473  1  0.877000  0.419500  0.488500  1.0  0.1544
  C  C474  1  0.937200  0.480200  0.352900  1.0  0.1648
  C  C475  1  0.600600  0.540300  0.179300  1.0  0.149
  C  C476  1  0.699700  0.446500  0.186300  1.0  0.666
  C  C477  1  0.456300  0.220500  0.960700  1.0  0.7189
  C  C478  1  0.908000  0.385000  0.633500  1.0  0.1534
  C  C479  1  0.906300  0.405800  0.211900  1.0  0.1058
  C  C480  1  0.642100  0.538100  0.329500  1.0  0.1484
  C  C481  1  0.853800  0.301700  0.664900  1.0  0.0916
  C  C482  1  0.856000  0.283000  0.083700  1.0  0.1467
  C  C483  1  0.605400  0.417600  0.378900  1.0  0.1559
  C  C484  1  0.826500  0.218800  0.749200  1.0  0.1462
  C  C485  1  0.886100  0.728500  0.497100  1.0  0.1583
  C  C486  1  0.583200  0.639700  0.972800  1.0  0.1539
  C  C487  1  0.824500  0.244500  0.702500  1.0  -0.1283
  C  C488  1  0.886200  0.707200  0.541300  1.0  -0.0588
  C  C489  1  0.579000  0.629100  0.925400  1.0  -0.1353
  C  C490  1  0.857000  0.274300  0.714000  1.0  -0.076
  C  C491  1  0.856800  0.741900  0.538100  1.0  -0.0534
  C  C492  1  0.610200  0.601000  0.930400  1.0  -0.0334
  C  C493  1  0.890900  0.278900  0.771300  1.0  -0.0856
  C  C494  1  0.827300  0.801000  0.490700  1.0  -0.1538
  C  C495  1  0.644600  0.587100  0.985300  1.0  -0.1432
  C  C496  1  0.891300  0.250400  0.814600  1.0  0.1416
  C  C497  1  0.829500  0.818800  0.449800  1.0  0.1584
  C  C498  1  0.647300  0.598600  0.029100  1.0  0.1804
  C  C499  1  0.442000  0.946700  0.555000  1.0  0.1516
  C  C500  1  0.374700  0.929000  0.296700  1.0  0.1386
  C  C501  1  0.153900  0.151500  0.230100  1.0  0.1296
  C  C502  1  0.338500  0.049500  0.356800  1.0  0.7203
  C  C503  1  0.061800  0.902400  0.028500  1.0  0.7177
  C  C504  1  0.441900  0.930000  0.599800  1.0  -0.0998
  C  C505  1  0.372000  0.912600  0.248700  1.0  -0.1587
  C  C506  1  0.159600  0.132000  0.278600  1.0  -0.114
  C  C507  1  0.296600  0.079400  0.313200  1.0  -0.3762
  C  C508  1  0.026000  0.913800  0.967400  1.0  -0.3717
  C  C509  1  0.407200  0.907200  0.587300  1.0  0.0149
  C  C510  1  0.404600  0.926200  0.257000  1.0  -0.015
  C  C511  1  0.135600  0.061200  0.277500  1.0  -0.0418
  C  C512  1  0.268500  0.989600  0.273200  1.0  -0.0748
  C  C513  1  0.995900  0.817900  0.943900  1.0  -0.1467
  C  C514  1  0.373100  0.901500  0.529500  1.0  -0.1708
  C  C515  1  0.437300  0.960700  0.308600  1.0  -0.1232
  C  C516  1  0.104400  0.017900  0.225100  1.0  -0.1333
  C  C517  1  0.227900  0.030000  0.228200  1.0  -0.3645
  C  C518  1  0.981300  0.813700  0.976500  1.0  -0.3075
  C  C519  1  0.377000  0.919500  0.488500  1.0  0.1544
  C  C520  1  0.437200  0.980200  0.352900  1.0  0.1648
  C  C521  1  0.100600  0.040300  0.179300  1.0  0.149
  C  C522  1  0.199700  0.946500  0.186300  1.0  0.666
  C  C523  1  0.956300  0.720500  0.960700  1.0  0.7189
  C  C524  1  0.408000  0.885000  0.633500  1.0  0.1534
  C  C525  1  0.406300  0.905800  0.211900  1.0  0.1058
  C  C526  1  0.142100  0.038100  0.329500  1.0  0.1484
  C  C527  1  0.353800  0.801700  0.664900  1.0  0.0916
  C  C528  1  0.356000  0.783000  0.083700  1.0  0.1467
  C  C529  1  0.105400  0.917600  0.378900  1.0  0.1559
  C  C530  1  0.326500  0.718800  0.749200  1.0  0.1462
  C  C531  1  0.386100  0.228500  0.497100  1.0  0.1583
  C  C532  1  0.083200  0.139700  0.972800  1.0  0.1539
  C  C533  1  0.324500  0.744500  0.702500  1.0  -0.1283
  C  C534  1  0.386200  0.207200  0.541300  1.0  -0.0588
  C  C535  1  0.079000  0.129100  0.925400  1.0  -0.1353
  C  C536  1  0.357000  0.774300  0.714000  1.0  -0.076
  C  C537  1  0.356800  0.241900  0.538100  1.0  -0.0534
  C  C538  1  0.110200  0.101000  0.930400  1.0  -0.0334
  C  C539  1  0.390900  0.778900  0.771300  1.0  -0.0856
  C  C540  1  0.327300  0.301000  0.490700  1.0  -0.1538
  C  C541  1  0.144600  0.087100  0.985300  1.0  -0.1432
  C  C542  1  0.391300  0.750400  0.814600  1.0  0.1416
  C  C543  1  0.329500  0.318800  0.449800  1.0  0.1584
  C  C544  1  0.147300  0.098600  0.029100  1.0  0.1804
  C  C545  1  0.942000  0.553300  0.055000  1.0  0.1513
  C  C546  1  0.874700  0.571000  0.796700  1.0  0.1383
  C  C547  1  0.653900  0.348500  0.730100  1.0  0.1293
  C  C548  1  0.838500  0.450500  0.856800  1.0  0.7204
  C  C549  1  0.561800  0.597600  0.528500  1.0  0.7175
  C  C550  1  0.941900  0.570000  0.099800  1.0  -0.0997
  C  C551  1  0.872000  0.587400  0.748700  1.0  -0.1589
  C  C552  1  0.659600  0.368000  0.778600  1.0  -0.1138
  C  C553  1  0.796600  0.420600  0.813200  1.0  -0.3769
  C  C554  1  0.526000  0.586200  0.467400  1.0  -0.3734
  C  C555  1  0.907200  0.592800  0.087300  1.0  0.0147
  C  C556  1  0.904600  0.573800  0.757000  1.0  -0.0135
  C  C557  1  0.635600  0.438800  0.777500  1.0  -0.0418
  C  C558  1  0.768500  0.510400  0.773200  1.0  -0.0758
  C  C559  1  0.495900  0.682100  0.443900  1.0  -0.1471
  C  C560  1  0.873100  0.598500  0.029500  1.0  -0.1713
  C  C561  1  0.937300  0.539300  0.808600  1.0  -0.1234
  C  C562  1  0.604400  0.482100  0.725100  1.0  -0.1325
  C  C563  1  0.727900  0.470000  0.728200  1.0  -0.3657
  C  C564  1  0.481300  0.686300  0.476500  1.0  -0.3084
  C  C565  1  0.877000  0.580500  0.988500  1.0  0.1544
  C  C566  1  0.937200  0.519800  0.852900  1.0  0.1651
  C  C567  1  0.600600  0.459700  0.679300  1.0  0.1493
  C  C568  1  0.699700  0.553500  0.686300  1.0  0.6666
  C  C569  1  0.456300  0.779500  0.460700  1.0  0.7182
  C  C570  1  0.908000  0.615000  0.133500  1.0  0.1532
  C  C571  1  0.906300  0.594200  0.711900  1.0  0.1057
  C  C572  1  0.642100  0.461900  0.829500  1.0  0.1483
  C  C573  1  0.853800  0.698300  0.164900  1.0  0.0918
  C  C574  1  0.856000  0.717000  0.583700  1.0  0.1456
  C  C575  1  0.605400  0.582400  0.878900  1.0  0.1561
  C  C576  1  0.826500  0.781200  0.249200  1.0  0.1459
  C  C577  1  0.886100  0.271500  0.997100  1.0  0.1584
  C  C578  1  0.583200  0.360300  0.472800  1.0  0.154
  C  C579  1  0.824500  0.755500  0.202500  1.0  -0.1287
  C  C580  1  0.886200  0.292800  0.041300  1.0  -0.0589
  C  C581  1  0.579000  0.370900  0.425400  1.0  -0.1353
  C  C582  1  0.857000  0.725700  0.214000  1.0  -0.0764
  C  C583  1  0.856800  0.258100  0.038100  1.0  -0.0534
  C  C584  1  0.610200  0.399000  0.430400  1.0  -0.0328
  C  C585  1  0.890900  0.721100  0.271300  1.0  -0.0856
  C  C586  1  0.827300  0.199000  0.990700  1.0  -0.1552
  C  C587  1  0.644600  0.412900  0.485300  1.0  -0.1431
  C  C588  1  0.891300  0.749600  0.314600  1.0  0.1416
  C  C589  1  0.829500  0.181200  0.949800  1.0  0.158
  C  C590  1  0.647300  0.401400  0.529100  1.0  0.1805
  C  C591  1  0.442000  0.053300  0.055000  1.0  0.1513
  C  C592  1  0.374700  0.071000  0.796700  1.0  0.1383
  C  C593  1  0.153900  0.848500  0.730100  1.0  0.1293
  C  C594  1  0.338500  0.950500  0.856800  1.0  0.7204
  C  C595  1  0.061800  0.097600  0.528500  1.0  0.7175
  C  C596  1  0.441900  0.070000  0.099800  1.0  -0.0997
  C  C597  1  0.372000  0.087400  0.748700  1.0  -0.1589
  C  C598  1  0.159600  0.868000  0.778600  1.0  -0.1138
  C  C599  1  0.296600  0.920600  0.813200  1.0  -0.3769
  C  C600  1  0.026000  0.086200  0.467400  1.0  -0.3734
  C  C601  1  0.407200  0.092800  0.087300  1.0  0.0147
  C  C602  1  0.404600  0.073800  0.757000  1.0  -0.0135
  C  C603  1  0.135600  0.938800  0.777500  1.0  -0.0418
  C  C604  1  0.268500  0.010400  0.773200  1.0  -0.0758
  C  C605  1  0.995900  0.182100  0.443900  1.0  -0.1471
  C  C606  1  0.373100  0.098500  0.029500  1.0  -0.1713
  C  C607  1  0.437300  0.039300  0.808600  1.0  -0.1234
  C  C608  1  0.104400  0.982100  0.725100  1.0  -0.1325
  C  C609  1  0.227900  0.970000  0.728200  1.0  -0.3657
  C  C610  1  0.981300  0.186300  0.476500  1.0  -0.3084
  C  C611  1  0.377000  0.080500  0.988500  1.0  0.1544
  C  C612  1  0.437200  0.019800  0.852900  1.0  0.1651
  C  C613  1  0.100600  0.959700  0.679300  1.0  0.1493
  C  C614  1  0.199700  0.053500  0.686300  1.0  0.6666
  C  C615  1  0.956300  0.279500  0.460700  1.0  0.7182
  C  C616  1  0.408000  0.115000  0.133500  1.0  0.1532
  C  C617  1  0.406300  0.094200  0.711900  1.0  0.1057
  C  C618  1  0.142100  0.961900  0.829500  1.0  0.1483
  C  C619  1  0.353800  0.198300  0.164900  1.0  0.0918
  C  C620  1  0.356000  0.217000  0.583700  1.0  0.1456
  C  C621  1  0.105400  0.082400  0.878900  1.0  0.1561
  C  C622  1  0.326500  0.281200  0.249200  1.0  0.1459
  C  C623  1  0.386100  0.771500  0.997100  1.0  0.1584
  C  C624  1  0.083200  0.860300  0.472800  1.0  0.154
  C  C625  1  0.324500  0.255500  0.202500  1.0  -0.1287
  C  C626  1  0.386200  0.792800  0.041300  1.0  -0.0589
  C  C627  1  0.079000  0.870900  0.425400  1.0  -0.1353
  C  C628  1  0.357000  0.225700  0.214000  1.0  -0.0764
  C  C629  1  0.356800  0.758100  0.038100  1.0  -0.0534
  C  C630  1  0.110200  0.899000  0.430400  1.0  -0.0328
  C  C631  1  0.390900  0.221100  0.271300  1.0  -0.0856
  C  C632  1  0.327300  0.699000  0.990700  1.0  -0.1552
  C  C633  1  0.144600  0.912900  0.485300  1.0  -0.1431
  C  C634  1  0.391300  0.249600  0.314600  1.0  0.1416
  C  C635  1  0.329500  0.681200  0.949800  1.0  0.158
  C  C636  1  0.147300  0.901400  0.529100  1.0  0.1805
  C  C637  1  0.058000  0.553300  0.445000  1.0  0.1512
  C  C638  1  0.125300  0.571000  0.703300  1.0  0.1375
  C  C639  1  0.346100  0.348500  0.769900  1.0  0.1304
  C  C640  1  0.161500  0.450500  0.643200  1.0  0.7205
  C  C641  1  0.438200  0.597600  0.971500  1.0  0.7194
  C  C642  1  0.058100  0.570000  0.400200  1.0  -0.1016
  C  C643  1  0.128000  0.587400  0.751300  1.0  -0.1574
  C  C644  1  0.340400  0.368000  0.721400  1.0  -0.1126
  C  C645  1  0.203400  0.420600  0.686800  1.0  -0.3752
  C  C646  1  0.474000  0.586200  0.032600  1.0  -0.3739
  C  C647  1  0.092800  0.592800  0.412700  1.0  0.015
  C  C648  1  0.095400  0.573800  0.743000  1.0  -0.0126
  C  C649  1  0.364400  0.438800  0.722500  1.0  -0.044
  C  C650  1  0.231500  0.510400  0.726800  1.0  -0.0765
  C  C651  1  0.504100  0.682100  0.056100  1.0  -0.1474
  C  C652  1  0.126900  0.598500  0.470500  1.0  -0.1721
  C  C653  1  0.062700  0.539300  0.691400  1.0  -0.1204
  C  C654  1  0.395600  0.482100  0.774900  1.0  -0.1343
  C  C655  1  0.272100  0.470000  0.771800  1.0  -0.3648
  C  C656  1  0.518700  0.686300  0.023500  1.0  -0.3095
  C  C657  1  0.123000  0.580500  0.511500  1.0  0.1549
  C  C658  1  0.062800  0.519800  0.647100  1.0  0.1638
  C  C659  1  0.399400  0.459700  0.820700  1.0  0.1497
  C  C660  1  0.300300  0.553500  0.813700  1.0  0.666
  C  C661  1  0.543700  0.779500  0.039300  1.0  0.7182
  C  C662  1  0.092000  0.615000  0.366500  1.0  0.153
  C  C663  1  0.093700  0.594200  0.788100  1.0  0.1073
  C  C664  1  0.357900  0.461900  0.670500  1.0  0.1477
  C  C665  1  0.146200  0.698300  0.335100  1.0  0.0937
  C  C666  1  0.144000  0.717000  0.916300  1.0  0.1461
  C  C667  1  0.394600  0.582400  0.621100  1.0  0.1579
  C  C668  1  0.173500  0.781200  0.250800  1.0  0.1464
  C  C669  1  0.113900  0.271500  0.502900  1.0  0.158
  C  C670  1  0.416800  0.360300  0.027200  1.0  0.1533
  C  C671  1  0.175500  0.755500  0.297500  1.0  -0.1258
  C  C672  1  0.113800  0.292800  0.458700  1.0  -0.0593
  C  C673  1  0.421000  0.370900  0.074600  1.0  -0.1348
  C  C674  1  0.143000  0.725700  0.286000  1.0  -0.0741
  C  C675  1  0.143200  0.258100  0.461900  1.0  -0.0561
  C  C676  1  0.389800  0.399000  0.069600  1.0  -0.0319
  C  C677  1  0.109100  0.721100  0.228700  1.0  -0.084
  C  C678  1  0.172700  0.199000  0.509300  1.0  -0.1543
  C  C679  1  0.355400  0.412900  0.014700  1.0  -0.1421
  C  C680  1  0.108700  0.749600  0.185400  1.0  0.141
  C  C681  1  0.170500  0.181200  0.550200  1.0  0.1594
  C  C682  1  0.352700  0.401400  0.970900  1.0  0.1808
  C  C683  1  0.558000  0.053300  0.445000  1.0  0.1512
  C  C684  1  0.625300  0.071000  0.703300  1.0  0.1375
  C  C685  1  0.846100  0.848500  0.769900  1.0  0.1304
  C  C686  1  0.661500  0.950500  0.643200  1.0  0.7205
  C  C687  1  0.938200  0.097600  0.971500  1.0  0.7194
  C  C688  1  0.558100  0.070000  0.400200  1.0  -0.1016
  C  C689  1  0.628000  0.087400  0.751300  1.0  -0.1574
  C  C690  1  0.840400  0.868000  0.721400  1.0  -0.1126
  C  C691  1  0.703400  0.920600  0.686800  1.0  -0.3752
  C  C692  1  0.974000  0.086200  0.032600  1.0  -0.3739
  C  C693  1  0.592800  0.092800  0.412700  1.0  0.015
  C  C694  1  0.595400  0.073800  0.743000  1.0  -0.0126
  C  C695  1  0.864400  0.938800  0.722500  1.0  -0.044
  C  C696  1  0.731500  0.010400  0.726800  1.0  -0.0765
  C  C697  1  0.004100  0.182100  0.056100  1.0  -0.1474
  C  C698  1  0.626900  0.098500  0.470500  1.0  -0.1721
  C  C699  1  0.562700  0.039300  0.691400  1.0  -0.1204
  C  C700  1  0.895600  0.982100  0.774900  1.0  -0.1343
  C  C701  1  0.772100  0.970000  0.771800  1.0  -0.3648
  C  C702  1  0.018700  0.186300  0.023500  1.0  -0.3095
  C  C703  1  0.623000  0.080500  0.511500  1.0  0.1549
  C  C704  1  0.562800  0.019800  0.647100  1.0  0.1638
  C  C705  1  0.899400  0.959700  0.820700  1.0  0.1497
  C  C706  1  0.800300  0.053500  0.813700  1.0  0.666
  C  C707  1  0.043700  0.279500  0.039300  1.0  0.7182
  C  C708  1  0.592000  0.115000  0.366500  1.0  0.153
  C  C709  1  0.593700  0.094200  0.788100  1.0  0.1073
  C  C710  1  0.857900  0.961900  0.670500  1.0  0.1477
  C  C711  1  0.646200  0.198300  0.335100  1.0  0.0937
  C  C712  1  0.644000  0.217000  0.916300  1.0  0.1461
  C  C713  1  0.894600  0.082400  0.621100  1.0  0.1579
  C  C714  1  0.673500  0.281200  0.250800  1.0  0.1464
  C  C715  1  0.613900  0.771500  0.502900  1.0  0.158
  C  C716  1  0.916800  0.860300  0.027200  1.0  0.1533
  C  C717  1  0.675500  0.255500  0.297500  1.0  -0.1258
  C  C718  1  0.613800  0.792800  0.458700  1.0  -0.0593
  C  C719  1  0.921000  0.870900  0.074600  1.0  -0.1348
  C  C720  1  0.643000  0.225700  0.286000  1.0  -0.0741
  C  C721  1  0.643200  0.758100  0.461900  1.0  -0.0561
  C  C722  1  0.889800  0.899000  0.069600  1.0  -0.0319
  C  C723  1  0.609100  0.221100  0.228700  1.0  -0.084
  C  C724  1  0.672700  0.699000  0.509300  1.0  -0.1543
  C  C725  1  0.855400  0.912900  0.014700  1.0  -0.1421
  C  C726  1  0.608700  0.249600  0.185400  1.0  0.141
  C  C727  1  0.670500  0.681200  0.550200  1.0  0.1594
  C  C728  1  0.852700  0.901400  0.970900  1.0  0.1808
  N  N729  1  0.090600  0.444600  0.000400  1.0  -0.3547
  N  N730  1  0.092900  0.462800  0.151900  1.0  -0.3744
  N  N731  1  0.375700  0.607800  0.321700  1.0  -0.3789
  N  N732  1  0.121800  0.355300  0.875900  1.0  -0.233
  N  N733  1  0.122000  0.351200  0.332400  1.0  -0.2751
  N  N734  1  0.379900  0.476800  0.171400  1.0  -0.2162
  N  N735  1  0.115100  0.334900  0.825500  1.0  -0.2865
  N  N736  1  0.117100  0.335300  0.372300  1.0  -0.2773
  N  N737  1  0.369500  0.467300  0.118500  1.0  -0.2017
  N  N738  1  0.141100  0.220300  0.696600  1.0  -0.3662
  N  N739  1  0.141400  0.784900  0.048600  1.0  -0.3779
  N  N740  1  0.382500  0.627800  0.473800  1.0  -0.3921
  N  N741  1  0.590600  0.944600  0.000400  1.0  -0.3547
  N  N742  1  0.592900  0.962800  0.151900  1.0  -0.3744
  N  N743  1  0.875700  0.107800  0.321700  1.0  -0.3789
  N  N744  1  0.621800  0.855300  0.875900  1.0  -0.233
  N  N745  1  0.622000  0.851200  0.332400  1.0  -0.2751
  N  N746  1  0.879900  0.976800  0.171400  1.0  -0.2162
  N  N747  1  0.615100  0.834900  0.825500  1.0  -0.2865
  N  N748  1  0.617100  0.835300  0.372300  1.0  -0.2773
  N  N749  1  0.869500  0.967300  0.118500  1.0  -0.2017
  N  N750  1  0.641100  0.720300  0.696600  1.0  -0.3662
  N  N751  1  0.641400  0.284900  0.048600  1.0  -0.3779
  N  N752  1  0.882500  0.127800  0.473800  1.0  -0.3921
  N  N753  1  0.909400  0.444600  0.499600  1.0  -0.3538
  N  N754  1  0.907100  0.462800  0.348100  1.0  -0.3746
  N  N755  1  0.624300  0.607800  0.178300  1.0  -0.3756
  N  N756  1  0.878200  0.355300  0.624100  1.0  -0.231
  N  N757  1  0.878000  0.351200  0.167600  1.0  -0.2773
  N  N758  1  0.620100  0.476800  0.328600  1.0  -0.2159
  N  N759  1  0.884900  0.334900  0.674500  1.0  -0.2871
  N  N760  1  0.882900  0.335300  0.127700  1.0  -0.2788
  N  N761  1  0.630500  0.467300  0.381500  1.0  -0.2037
  N  N762  1  0.858900  0.220300  0.803400  1.0  -0.365
  N  N763  1  0.858600  0.784900  0.451400  1.0  -0.3777
  N  N764  1  0.617500  0.627800  0.026200  1.0  -0.3938
  N  N765  1  0.409400  0.944600  0.499600  1.0  -0.3538
  N  N766  1  0.407100  0.962800  0.348100  1.0  -0.3746
  N  N767  1  0.124300  0.107800  0.178300  1.0  -0.3756
  N  N768  1  0.378200  0.855300  0.624100  1.0  -0.231
  N  N769  1  0.378000  0.851200  0.167600  1.0  -0.2773
  N  N770  1  0.120100  0.976800  0.328600  1.0  -0.2159
  N  N771  1  0.384900  0.834900  0.674500  1.0  -0.2871
  N  N772  1  0.382900  0.835300  0.127700  1.0  -0.2788
  N  N773  1  0.130500  0.967300  0.381500  1.0  -0.2037
  N  N774  1  0.358900  0.720300  0.803400  1.0  -0.365
  N  N775  1  0.358600  0.284900  0.451400  1.0  -0.3777
  N  N776  1  0.117500  0.127800  0.026200  1.0  -0.3938
  N  N777  1  0.909400  0.555400  0.999600  1.0  -0.3552
  N  N778  1  0.907100  0.537200  0.848100  1.0  -0.3743
  N  N779  1  0.624300  0.392200  0.678300  1.0  -0.3766
  N  N780  1  0.878200  0.644700  0.124100  1.0  -0.2306
  N  N781  1  0.878000  0.648800  0.667600  1.0  -0.2778
  N  N782  1  0.620100  0.523200  0.828600  1.0  -0.2155
  N  N783  1  0.884900  0.665100  0.174500  1.0  -0.2866
  N  N784  1  0.882900  0.664700  0.627700  1.0  -0.2794
  N  N785  1  0.630500  0.532700  0.881500  1.0  -0.2034
  N  N786  1  0.858900  0.779700  0.303400  1.0  -0.3654
  N  N787  1  0.858600  0.215100  0.951400  1.0  -0.3787
  N  N788  1  0.617500  0.372200  0.526200  1.0  -0.3932
  N  N789  1  0.409400  0.055400  0.999600  1.0  -0.3552
  N  N790  1  0.407100  0.037200  0.848100  1.0  -0.3743
  N  N791  1  0.124300  0.892200  0.678300  1.0  -0.3766
  N  N792  1  0.378200  0.144700  0.124100  1.0  -0.2306
  N  N793  1  0.378000  0.148800  0.667600  1.0  -0.2778
  N  N794  1  0.120100  0.023200  0.828600  1.0  -0.2155
  N  N795  1  0.384900  0.165100  0.174500  1.0  -0.2866
  N  N796  1  0.382900  0.164700  0.627700  1.0  -0.2794
  N  N797  1  0.130500  0.032700  0.881500  1.0  -0.2034
  N  N798  1  0.358900  0.279700  0.303400  1.0  -0.3654
  N  N799  1  0.358600  0.715100  0.951400  1.0  -0.3787
  N  N800  1  0.117500  0.872200  0.526200  1.0  -0.3932
  N  N801  1  0.090600  0.555400  0.500400  1.0  -0.3541
  N  N802  1  0.092900  0.537200  0.651900  1.0  -0.3751
  N  N803  1  0.375700  0.392200  0.821700  1.0  -0.378
  N  N804  1  0.121800  0.644700  0.375900  1.0  -0.233
  N  N805  1  0.122000  0.648800  0.832400  1.0  -0.2759
  N  N806  1  0.379900  0.523200  0.671400  1.0  -0.2158
  N  N807  1  0.115100  0.665100  0.325500  1.0  -0.2863
  N  N808  1  0.117100  0.664700  0.872300  1.0  -0.2778
  N  N809  1  0.369500  0.532700  0.618500  1.0  -0.2025
  N  N810  1  0.141100  0.779700  0.196600  1.0  -0.3656
  N  N811  1  0.141400  0.215100  0.548600  1.0  -0.3774
  N  N812  1  0.382500  0.372200  0.973800  1.0  -0.3927
  N  N813  1  0.590600  0.055400  0.500400  1.0  -0.3541
  N  N814  1  0.592900  0.037200  0.651900  1.0  -0.3751
  N  N815  1  0.875700  0.892200  0.821700  1.0  -0.378
  N  N816  1  0.621800  0.144700  0.375900  1.0  -0.233
  N  N817  1  0.622000  0.148800  0.832400  1.0  -0.2759
  N  N818  1  0.879900  0.023200  0.671400  1.0  -0.2158
  N  N819  1  0.615100  0.165100  0.325500  1.0  -0.2863
  N  N820  1  0.617100  0.164700  0.872300  1.0  -0.2778
  N  N821  1  0.869500  0.032700  0.618500  1.0  -0.2025
  N  N822  1  0.641100  0.279700  0.196600  1.0  -0.3656
  N  N823  1  0.641400  0.715100  0.548600  1.0  -0.3774
  N  N824  1  0.882500  0.872200  0.973800  1.0  -0.3927
  O  O825  1  0.136400  0.621500  0.115900  1.0  -0.6403
  O  O826  1  0.421900  0.488600  0.443400  1.0  -0.6764
  O  O827  1  0.153600  0.449800  0.136100  1.0  -0.6362
  O  O828  1  0.424900  0.308900  0.449600  1.0  -0.6203
  O  O829  1  0.335700  0.480300  0.356600  1.0  -0.6999
  O  O830  1  0.579800  0.231900  0.567500  1.0  -0.7231
  O  O831  1  0.207200  0.847500  0.191900  1.0  -0.6177
  O  O832  1  0.529600  0.125100  0.525900  1.0  -0.6043
  O  O833  1  0.636400  0.121500  0.115900  1.0  -0.6403
  O  O834  1  0.921900  0.988600  0.443400  1.0  -0.6764
  O  O835  1  0.653600  0.949800  0.136100  1.0  -0.6362
  O  O836  1  0.924900  0.808900  0.449600  1.0  -0.6203
  O  O837  1  0.835700  0.980300  0.356600  1.0  -0.6999
  O  O838  1  0.079800  0.731900  0.567500  1.0  -0.7231
  O  O839  1  0.707200  0.347500  0.191900  1.0  -0.6177
  O  O840  1  0.029600  0.625100  0.525900  1.0  -0.6043
  O  O841  1  0.863600  0.621500  0.384100  1.0  -0.6385
  O  O842  1  0.578100  0.488600  0.056600  1.0  -0.6756
  O  O843  1  0.846400  0.449800  0.363900  1.0  -0.6364
  O  O844  1  0.575100  0.308900  0.050400  1.0  -0.6209
  O  O845  1  0.664300  0.480300  0.143400  1.0  -0.7034
  O  O846  1  0.420200  0.231900  0.932500  1.0  -0.7245
  O  O847  1  0.792800  0.847500  0.308100  1.0  -0.6159
  O  O848  1  0.470400  0.125100  0.974100  1.0  -0.6056
  O  O849  1  0.363600  0.121500  0.384100  1.0  -0.6385
  O  O850  1  0.078100  0.988600  0.056600  1.0  -0.6756
  O  O851  1  0.346400  0.949800  0.363900  1.0  -0.6364
  O  O852  1  0.075100  0.808900  0.050400  1.0  -0.6209
  O  O853  1  0.164300  0.980300  0.143400  1.0  -0.7034
  O  O854  1  0.920200  0.731900  0.932500  1.0  -0.7245
  O  O855  1  0.292800  0.347500  0.308100  1.0  -0.6159
  O  O856  1  0.970400  0.625100  0.974100  1.0  -0.6056
  O  O857  1  0.863600  0.378500  0.884100  1.0  -0.6389
  O  O858  1  0.578100  0.511400  0.556600  1.0  -0.676
  O  O859  1  0.846400  0.550200  0.863900  1.0  -0.6389
  O  O860  1  0.575100  0.691100  0.550400  1.0  -0.6211
  O  O861  1  0.664300  0.519700  0.643400  1.0  -0.7011
  O  O862  1  0.420200  0.768100  0.432500  1.0  -0.7233
  O  O863  1  0.792800  0.152500  0.808100  1.0  -0.6165
  O  O864  1  0.470400  0.874900  0.474100  1.0  -0.6055
  O  O865  1  0.363600  0.878500  0.884100  1.0  -0.6389
  O  O866  1  0.078100  0.011400  0.556600  1.0  -0.676
  O  O867  1  0.346400  0.050200  0.863900  1.0  -0.6389
  O  O868  1  0.075100  0.191100  0.550400  1.0  -0.6211
  O  O869  1  0.164300  0.019700  0.643400  1.0  -0.7011
  O  O870  1  0.920200  0.268100  0.432500  1.0  -0.7233
  O  O871  1  0.292800  0.652500  0.808100  1.0  -0.6165
  O  O872  1  0.970400  0.374900  0.474100  1.0  -0.6055
  O  O873  1  0.136400  0.378500  0.615900  1.0  -0.641
  O  O874  1  0.421900  0.511400  0.943400  1.0  -0.6772
  O  O875  1  0.153600  0.550200  0.636100  1.0  -0.6382
  O  O876  1  0.424900  0.691100  0.949600  1.0  -0.6199
  O  O877  1  0.335700  0.519700  0.856600  1.0  -0.7046
  O  O878  1  0.579800  0.768100  0.067500  1.0  -0.7237
  O  O879  1  0.207200  0.152500  0.691900  1.0  -0.6155
  O  O880  1  0.529600  0.874900  0.025900  1.0  -0.6062
  O  O881  1  0.636400  0.878500  0.615900  1.0  -0.641
  O  O882  1  0.921900  0.011400  0.943400  1.0  -0.6772
  O  O883  1  0.653600  0.050200  0.636100  1.0  -0.6382
  O  O884  1  0.924900  0.191100  0.949600  1.0  -0.6199
  O  O885  1  0.835700  0.019700  0.856600  1.0  -0.7046
  O  O886  1  0.079800  0.268100  0.067500  1.0  -0.7237
  O  O887  1  0.707200  0.652500  0.691900  1.0  -0.6155
  O  O888  1  0.029600  0.374900  0.025900  1.0  -0.6062
