# generated using pymatgen
data_ZnH20C22(NO)4
_symmetry_space_group_name_H-M   'P 1'
_cell_length_a   12.09350000
_cell_length_b   34.00510000
_cell_length_c   31.94580000
_cell_angle_alpha   90.00000000
_cell_angle_beta   93.56400000
_cell_angle_gamma   90.00000000
_symmetry_Int_Tables_number   1
_chemical_formula_structural   ZnH20C22(NO)4
_chemical_formula_sum   'Zn16 H320 C352 N64 O64'
_cell_volume   13112.00444700
_cell_formula_units_Z   16
loop_
 _symmetry_equiv_pos_site_id
 _symmetry_equiv_pos_as_xyz
  1  'x, y, z'
loop_
 _atom_site_type_symbol
 _atom_site_label
 _atom_site_symmetry_multiplicity
 _atom_site_fract_x
 _atom_site_fract_y
 _atom_site_fract_z
 _atom_site_occupancy
 _atom_site_charge
  Zn  Zn1  1  0.826870  0.665790  0.549660  1.0  0.8755
  Zn  Zn2  1  0.423160  0.423250  0.655110  1.0  0.9139
  Zn  Zn3  1  0.326870  0.165790  0.549660  1.0  0.8755
  Zn  Zn4  1  0.923160  0.923250  0.655110  1.0  0.9139
  Zn  Zn5  1  0.173130  0.665790  0.950340  1.0  0.8766
  Zn  Zn6  1  0.576840  0.423250  0.844890  1.0  0.9144
  Zn  Zn7  1  0.673130  0.165790  0.950340  1.0  0.8766
  Zn  Zn8  1  0.076840  0.923250  0.844890  1.0  0.9144
  Zn  Zn9  1  0.173130  0.334210  0.450340  1.0  0.8767
  Zn  Zn10  1  0.576840  0.576750  0.344890  1.0  0.9143
  Zn  Zn11  1  0.673130  0.834210  0.450340  1.0  0.8767
  Zn  Zn12  1  0.076840  0.076750  0.344890  1.0  0.9143
  Zn  Zn13  1  0.826870  0.334210  0.049660  1.0  0.8753
  Zn  Zn14  1  0.423160  0.576750  0.155110  1.0  0.9139
  Zn  Zn15  1  0.326870  0.834210  0.049660  1.0  0.8753
  Zn  Zn16  1  0.923160  0.076750  0.155110  1.0  0.9139
  H  H17  1  0.767300  0.659600  0.457800  1.0  0.07
  H  H18  1  0.846300  0.642200  0.396800  1.0  0.1113
  H  H19  1  0.129300  0.615900  0.466600  1.0  0.1162
  H  H20  1  0.040700  0.633300  0.525300  1.0  0.0777
  H  H21  1  0.214200  0.626400  0.396100  1.0  0.0833
  H  H22  1  0.177100  0.585400  0.415600  1.0  0.0781
  H  H23  1  0.271800  0.576000  0.355000  1.0  0.073
  H  H24  1  0.148900  0.558400  0.350000  1.0  0.0927
  H  H25  1  0.046100  0.639300  0.288700  1.0  0.0713
  H  H26  1  0.113600  0.661200  0.326600  1.0  0.0735
  H  H27  1  0.937800  0.642800  0.347300  1.0  0.0791
  H  H28  1  0.962300  0.597700  0.336300  1.0  0.084
  H  H29  1  0.166600  0.648900  0.246500  1.0  0.109
  H  H30  1  0.265800  0.638300  0.189000  1.0  0.0712
  H  H31  1  0.395300  0.542200  0.239000  1.0  0.0772
  H  H32  1  0.306400  0.551600  0.298500  1.0  0.0975
  H  H33  1  0.601300  0.637600  0.512900  1.0  0.0755
  H  H34  1  0.429200  0.662000  0.495800  1.0  0.1112
  H  H35  1  0.543800  0.770200  0.528200  1.0  0.1029
  H  H36  1  0.713100  0.743300  0.542300  1.0  0.0757
  H  H37  1  0.373700  0.782700  0.538300  1.0  0.0829
  H  H38  1  0.374100  0.790900  0.489300  1.0  0.0986
  H  H39  1  0.277700  0.704000  0.460200  1.0  0.0969
  H  H40  1  0.268700  0.687300  0.506200  1.0  0.0589
  H  H41  1  0.199600  0.720400  0.620200  1.0  0.1121
  H  H42  1  0.281000  0.777200  0.652000  1.0  0.1129
  H  H43  1  0.175900  0.833500  0.658200  1.0  0.0789
  H  H44  1  0.917400  0.781900  0.597200  1.0  0.0918
  H  H45  1  0.738800  0.623400  0.670100  1.0  0.1061
  H  H46  1  0.652700  0.592400  0.724400  1.0  0.0989
  H  H47  1  0.569600  0.531400  0.714200  1.0  0.0969
  H  H48  1  0.657100  0.531100  0.594500  1.0  0.0928
  H  H49  1  0.205100  0.462300  0.653200  1.0  0.0784
  H  H50  1  0.059700  0.480100  0.608100  1.0  0.1337
  H  H51  1  0.238600  0.442700  0.512900  1.0  0.1044
  H  H52  1  0.375300  0.423600  0.561500  1.0  0.0787
  H  H53  1  0.112400  0.451900  0.474000  1.0  0.0809
  H  H54  1  0.979900  0.454200  0.468100  1.0  0.0644
  H  H55  1  0.876700  0.480800  0.524800  1.0  0.0745
  H  H56  1  0.941400  0.495300  0.567300  1.0  0.0879
  H  H57  1  0.267300  0.159600  0.457800  1.0  0.07
  H  H58  1  0.346300  0.142200  0.396800  1.0  0.1113
  H  H59  1  0.629300  0.115900  0.466600  1.0  0.1162
  H  H60  1  0.540700  0.133300  0.525300  1.0  0.0777
  H  H61  1  0.714200  0.126400  0.396100  1.0  0.0833
  H  H62  1  0.677100  0.085400  0.415600  1.0  0.0781
  H  H63  1  0.771800  0.076000  0.355000  1.0  0.073
  H  H64  1  0.648900  0.058400  0.350000  1.0  0.0927
  H  H65  1  0.546100  0.139300  0.288700  1.0  0.0714
  H  H66  1  0.613600  0.161200  0.326600  1.0  0.0734
  H  H67  1  0.437800  0.142800  0.347300  1.0  0.0791
  H  H68  1  0.462300  0.097700  0.336300  1.0  0.084
  H  H69  1  0.666667  0.148900  0.246500  1.0  0.1081
  H  H70  1  0.765800  0.138300  0.189000  1.0  0.0712
  H  H71  1  0.895300  0.042200  0.239000  1.0  0.0772
  H  H72  1  0.806400  0.051600  0.298500  1.0  0.0975
  H  H73  1  0.101300  0.137600  0.512900  1.0  0.0755
  H  H74  1  0.929200  0.162000  0.495800  1.0  0.1112
  H  H75  1  0.043800  0.270200  0.528200  1.0  0.1029
  H  H76  1  0.213100  0.243300  0.542300  1.0  0.0757
  H  H77  1  0.873700  0.282700  0.538300  1.0  0.0829
  H  H78  1  0.874100  0.290900  0.489300  1.0  0.0986
  H  H79  1  0.777700  0.204000  0.460200  1.0  0.0969
  H  H80  1  0.768700  0.187300  0.506200  1.0  0.0589
  H  H81  1  0.699600  0.220400  0.620200  1.0  0.1121
  H  H82  1  0.781000  0.277200  0.652000  1.0  0.1129
  H  H83  1  0.675900  0.333500  0.658200  1.0  0.0789
  H  H84  1  0.417400  0.281900  0.597200  1.0  0.0918
  H  H85  1  0.238800  0.123400  0.670100  1.0  0.1061
  H  H86  1  0.152700  0.092400  0.724400  1.0  0.0989
  H  H87  1  0.069600  0.031400  0.714200  1.0  0.0969
  H  H88  1  0.157100  0.031100  0.594500  1.0  0.0928
  H  H89  1  0.705100  0.962300  0.653200  1.0  0.0784
  H  H90  1  0.559700  0.980100  0.608100  1.0  0.1337
  H  H91  1  0.738600  0.942700  0.512900  1.0  0.1044
  H  H92  1  0.875300  0.923600  0.561500  1.0  0.0787
  H  H93  1  0.612400  0.951900  0.474000  1.0  0.0809
  H  H94  1  0.479900  0.954200  0.468100  1.0  0.0644
  H  H95  1  0.376700  0.980800  0.524800  1.0  0.0745
  H  H96  1  0.441400  0.995300  0.567300  1.0  0.0879
  H  H97  1  0.232700  0.659600  0.042200  1.0  0.0704
  H  H98  1  0.153700  0.642200  0.103200  1.0  0.1111
  H  H99  1  0.870700  0.615900  0.033400  1.0  0.1158
  H  H100  1  0.959300  0.633300  0.974700  1.0  0.0782
  H  H101  1  0.785800  0.626400  0.103900  1.0  0.0847
  H  H102  1  0.822900  0.585400  0.084400  1.0  0.0791
  H  H103  1  0.728200  0.576000  0.145000  1.0  0.0712
  H  H104  1  0.851100  0.558400  0.150000  1.0  0.0919
  H  H105  1  0.953900  0.639300  0.211300  1.0  0.0702
  H  H106  1  0.886400  0.661200  0.173400  1.0  0.0735
  H  H107  1  0.062200  0.642800  0.152700  1.0  0.0785
  H  H108  1  0.037700  0.597700  0.163700  1.0  0.0849
  H  H109  1  0.833400  0.648900  0.253500  1.0  0.1083
  H  H110  1  0.734200  0.638300  0.311000  1.0  0.0713
  H  H111  1  0.604700  0.542200  0.261000  1.0  0.077
  H  H112  1  0.693600  0.551600  0.201500  1.0  0.0973
  H  H113  1  0.398700  0.637600  0.987100  1.0  0.075
  H  H114  1  0.570800  0.662000  0.004200  1.0  0.1111
  H  H115  1  0.456200  0.770200  0.971800  1.0  0.1027
  H  H116  1  0.286900  0.743300  0.957700  1.0  0.0757
  H  H117  1  0.626300  0.782700  0.961700  1.0  0.0803
  H  H118  1  0.625900  0.790900  0.010700  1.0  0.0991
  H  H119  1  0.722300  0.704000  0.039800  1.0  0.0978
  H  H120  1  0.731300  0.687300  0.993800  1.0  0.0587
  H  H121  1  0.800400  0.720400  0.879800  1.0  0.1118
  H  H122  1  0.719000  0.777200  0.848000  1.0  0.1128
  H  H123  1  0.824100  0.833500  0.841800  1.0  0.0783
  H  H124  1  0.082600  0.781900  0.902800  1.0  0.0912
  H  H125  1  0.261200  0.623400  0.829900  1.0  0.1058
  H  H126  1  0.347300  0.592400  0.775600  1.0  0.0982
  H  H127  1  0.430400  0.531400  0.785800  1.0  0.0965
  H  H128  1  0.342900  0.531100  0.905500  1.0  0.0926
  H  H129  1  0.794900  0.462300  0.846800  1.0  0.0789
  H  H130  1  0.940300  0.480100  0.891900  1.0  0.134
  H  H131  1  0.761400  0.442700  0.987100  1.0  0.1045
  H  H132  1  0.624700  0.423600  0.938500  1.0  0.0787
  H  H133  1  0.887600  0.451900  0.026000  1.0  0.0816
  H  H134  1  0.020100  0.454200  0.031900  1.0  0.0651
  H  H135  1  0.123300  0.480800  0.975200  1.0  0.0704
  H  H136  1  0.058600  0.495300  0.932700  1.0  0.089
  H  H137  1  0.732700  0.159600  0.042200  1.0  0.0704
  H  H138  1  0.653700  0.142200  0.103200  1.0  0.1111
  H  H139  1  0.370700  0.115900  0.033400  1.0  0.1158
  H  H140  1  0.459300  0.133300  0.974700  1.0  0.0782
  H  H141  1  0.285800  0.126400  0.103900  1.0  0.0847
  H  H142  1  0.322900  0.085400  0.084400  1.0  0.0791
  H  H143  1  0.228200  0.076000  0.145000  1.0  0.0712
  H  H144  1  0.351100  0.058400  0.150000  1.0  0.0919
  H  H145  1  0.453900  0.139300  0.211300  1.0  0.0703
  H  H146  1  0.386400  0.161200  0.173400  1.0  0.0735
  H  H147  1  0.562200  0.142800  0.152700  1.0  0.0786
  H  H148  1  0.537700  0.097700  0.163700  1.0  0.0849
  H  H149  1  0.333400  0.148900  0.253500  1.0  0.1083
  H  H150  1  0.234200  0.138300  0.311000  1.0  0.0713
  H  H151  1  0.104700  0.042200  0.261000  1.0  0.077
  H  H152  1  0.193600  0.051600  0.201500  1.0  0.0973
  H  H153  1  0.898700  0.137600  0.987100  1.0  0.075
  H  H154  1  0.070800  0.162000  0.004200  1.0  0.1111
  H  H155  1  0.956200  0.270200  0.971800  1.0  0.1027
  H  H156  1  0.786900  0.243300  0.957700  1.0  0.0757
  H  H157  1  0.126300  0.282700  0.961700  1.0  0.0803
  H  H158  1  0.125900  0.290900  0.010700  1.0  0.0991
  H  H159  1  0.222300  0.204000  0.039800  1.0  0.0978
  H  H160  1  0.231300  0.187300  0.993800  1.0  0.0587
  H  H161  1  0.300400  0.220400  0.879800  1.0  0.1118
  H  H162  1  0.219000  0.277200  0.848000  1.0  0.1128
  H  H163  1  0.324100  0.333500  0.841800  1.0  0.0783
  H  H164  1  0.582600  0.281900  0.902800  1.0  0.0912
  H  H165  1  0.761200  0.123400  0.829900  1.0  0.1058
  H  H166  1  0.847300  0.092400  0.775600  1.0  0.0982
  H  H167  1  0.930400  0.031400  0.785800  1.0  0.0965
  H  H168  1  0.842900  0.031100  0.905500  1.0  0.0926
  H  H169  1  0.294900  0.962300  0.846800  1.0  0.0789
  H  H170  1  0.440300  0.980100  0.891900  1.0  0.134
  H  H171  1  0.261400  0.942700  0.987100  1.0  0.1045
  H  H172  1  0.124700  0.923600  0.938500  1.0  0.0787
  H  H173  1  0.387600  0.951900  0.026000  1.0  0.0816
  H  H174  1  0.520100  0.954200  0.031900  1.0  0.0651
  H  H175  1  0.623300  0.980800  0.975200  1.0  0.0704
  H  H176  1  0.558600  0.995300  0.932700  1.0  0.089
  H  H177  1  0.232700  0.340400  0.542200  1.0  0.0704
  H  H178  1  0.153700  0.357800  0.603200  1.0  0.1113
  H  H179  1  0.870700  0.384100  0.533400  1.0  0.1163
  H  H180  1  0.959300  0.366700  0.474700  1.0  0.0784
  H  H181  1  0.785800  0.373600  0.603900  1.0  0.0838
  H  H182  1  0.822900  0.414600  0.584400  1.0  0.0795
  H  H183  1  0.728200  0.424000  0.645000  1.0  0.0717
  H  H184  1  0.851100  0.441600  0.650000  1.0  0.0924
  H  H185  1  0.953900  0.360700  0.711300  1.0  0.0706
  H  H186  1  0.886400  0.338800  0.673400  1.0  0.0705
  H  H187  1  0.062200  0.357200  0.652700  1.0  0.0776
  H  H188  1  0.037700  0.402300  0.663700  1.0  0.0834
  H  H189  1  0.833400  0.351100  0.753500  1.0  0.1092
  H  H190  1  0.734200  0.361700  0.811000  1.0  0.0714
  H  H191  1  0.604700  0.457800  0.761000  1.0  0.0774
  H  H192  1  0.693600  0.448400  0.701500  1.0  0.0981
  H  H193  1  0.398700  0.362400  0.487100  1.0  0.0744
  H  H194  1  0.570800  0.338000  0.504200  1.0  0.1113
  H  H195  1  0.456200  0.229800  0.471800  1.0  0.1022
  H  H196  1  0.286900  0.256700  0.457700  1.0  0.0756
  H  H197  1  0.626300  0.217300  0.461700  1.0  0.0807
  H  H198  1  0.625900  0.209100  0.510700  1.0  0.1001
  H  H199  1  0.722300  0.296000  0.539800  1.0  0.0978
  H  H200  1  0.731300  0.312700  0.493800  1.0  0.06
  H  H201  1  0.800400  0.279600  0.379800  1.0  0.1129
  H  H202  1  0.719000  0.222800  0.348000  1.0  0.1125
  H  H203  1  0.824100  0.166500  0.341800  1.0  0.079
  H  H204  1  0.082600  0.218100  0.402800  1.0  0.0908
  H  H205  1  0.261200  0.376600  0.329900  1.0  0.106
  H  H206  1  0.347300  0.407600  0.275600  1.0  0.0983
  H  H207  1  0.430400  0.468600  0.285800  1.0  0.0966
  H  H208  1  0.342900  0.468900  0.405500  1.0  0.0923
  H  H209  1  0.794900  0.537700  0.346800  1.0  0.0789
  H  H210  1  0.940300  0.519900  0.391900  1.0  0.1315
  H  H211  1  0.761400  0.557300  0.487100  1.0  0.1043
  H  H212  1  0.624700  0.576400  0.438500  1.0  0.0785
  H  H213  1  0.887600  0.548100  0.526000  1.0  0.0816
  H  H214  1  0.020100  0.545800  0.531900  1.0  0.065
  H  H215  1  0.123300  0.519200  0.475200  1.0  0.0709
  H  H216  1  0.058600  0.504700  0.432700  1.0  0.0884
  H  H217  1  0.732700  0.840400  0.542200  1.0  0.0704
  H  H218  1  0.653700  0.857800  0.603200  1.0  0.1113
  H  H219  1  0.370700  0.884100  0.533400  1.0  0.1163
  H  H220  1  0.459300  0.866700  0.474700  1.0  0.0784
  H  H221  1  0.285800  0.873600  0.603900  1.0  0.0838
  H  H222  1  0.322900  0.914600  0.584400  1.0  0.0795
  H  H223  1  0.228200  0.924000  0.645000  1.0  0.0717
  H  H224  1  0.351100  0.941600  0.650000  1.0  0.0924
  H  H225  1  0.453900  0.860700  0.711300  1.0  0.0707
  H  H226  1  0.386400  0.838800  0.673400  1.0  0.0705
  H  H227  1  0.562200  0.857200  0.652700  1.0  0.0776
  H  H228  1  0.537700  0.902300  0.663700  1.0  0.0834
  H  H229  1  0.333400  0.851100  0.753500  1.0  0.1092
  H  H230  1  0.234200  0.861700  0.811000  1.0  0.0714
  H  H231  1  0.104700  0.957800  0.761000  1.0  0.0774
  H  H232  1  0.193600  0.948400  0.701500  1.0  0.0981
  H  H233  1  0.898700  0.862400  0.487100  1.0  0.0744
  H  H234  1  0.070800  0.838000  0.504200  1.0  0.1113
  H  H235  1  0.956200  0.729800  0.471800  1.0  0.1022
  H  H236  1  0.786900  0.756700  0.457700  1.0  0.0756
  H  H237  1  0.126300  0.717300  0.461700  1.0  0.0807
  H  H238  1  0.125900  0.709100  0.510700  1.0  0.1001
  H  H239  1  0.222300  0.796000  0.539800  1.0  0.0978
  H  H240  1  0.231300  0.812700  0.493800  1.0  0.06
  H  H241  1  0.300400  0.779600  0.379800  1.0  0.1129
  H  H242  1  0.219000  0.722800  0.348000  1.0  0.1125
  H  H243  1  0.324100  0.666500  0.341800  1.0  0.0789
  H  H244  1  0.582600  0.718100  0.402800  1.0  0.0908
  H  H245  1  0.761200  0.876600  0.329900  1.0  0.106
  H  H246  1  0.847300  0.907600  0.275600  1.0  0.0983
  H  H247  1  0.930400  0.968600  0.285800  1.0  0.0966
  H  H248  1  0.842900  0.968900  0.405500  1.0  0.0923
  H  H249  1  0.294900  0.037700  0.346800  1.0  0.0789
  H  H250  1  0.440300  0.019900  0.391900  1.0  0.1315
  H  H251  1  0.261400  0.057300  0.487100  1.0  0.1043
  H  H252  1  0.124700  0.076400  0.438500  1.0  0.0785
  H  H253  1  0.387600  0.048100  0.526000  1.0  0.0816
  H  H254  1  0.520100  0.045800  0.531900  1.0  0.065
  H  H255  1  0.623300  0.019200  0.475200  1.0  0.0709
  H  H256  1  0.558600  0.004700  0.432700  1.0  0.0884
  H  H257  1  0.767300  0.340400  0.957800  1.0  0.07
  H  H258  1  0.846300  0.357800  0.896800  1.0  0.1108
  H  H259  1  0.129300  0.384100  0.966600  1.0  0.1161
  H  H260  1  0.040700  0.366700  0.025300  1.0  0.0781
  H  H261  1  0.214200  0.373600  0.896100  1.0  0.0851
  H  H262  1  0.177100  0.414600  0.915600  1.0  0.0771
  H  H263  1  0.271800  0.424000  0.855000  1.0  0.073
  H  H264  1  0.148900  0.441600  0.850000  1.0  0.0919
  H  H265  1  0.046100  0.360700  0.788700  1.0  0.0711
  H  H266  1  0.113600  0.338800  0.826600  1.0  0.0715
  H  H267  1  0.937800  0.357200  0.847300  1.0  0.0775
  H  H268  1  0.962300  0.402300  0.836300  1.0  0.0845
  H  H269  1  0.166600  0.351100  0.746500  1.0  0.1088
  H  H270  1  0.265800  0.361700  0.689000  1.0  0.0716
  H  H271  1  0.395300  0.457800  0.739000  1.0  0.0768
  H  H272  1  0.306400  0.448400  0.798500  1.0  0.098
  H  H273  1  0.601300  0.362400  0.012900  1.0  0.0749
  H  H274  1  0.429200  0.338000  0.995800  1.0  0.1119
  H  H275  1  0.543800  0.229800  0.028200  1.0  0.1025
  H  H276  1  0.713100  0.256700  0.042300  1.0  0.0761
  H  H277  1  0.373700  0.217300  0.038300  1.0  0.0833
  H  H278  1  0.374100  0.209100  0.989300  1.0  0.0986
  H  H279  1  0.277700  0.296000  0.960200  1.0  0.0972
  H  H280  1  0.268700  0.312700  0.006200  1.0  0.0597
  H  H281  1  0.199600  0.279600  0.120200  1.0  0.1127
  H  H282  1  0.281000  0.222800  0.152000  1.0  0.1133
  H  H283  1  0.175900  0.166500  0.158200  1.0  0.0791
  H  H284  1  0.917400  0.218100  0.097200  1.0  0.092
  H  H285  1  0.738800  0.376600  0.170100  1.0  0.1062
  H  H286  1  0.652700  0.407600  0.224400  1.0  0.0992
  H  H287  1  0.569600  0.468600  0.214200  1.0  0.097
  H  H288  1  0.657100  0.468900  0.094500  1.0  0.0924
  H  H289  1  0.205100  0.537700  0.153200  1.0  0.0794
  H  H290  1  0.059700  0.519900  0.108100  1.0  0.1325
  H  H291  1  0.238600  0.557300  0.012900  1.0  0.1044
  H  H292  1  0.375300  0.576400  0.061500  1.0  0.0784
  H  H293  1  0.112400  0.548100  0.974000  1.0  0.0822
  H  H294  1  0.979900  0.545800  0.968100  1.0  0.0635
  H  H295  1  0.876700  0.519200  0.024800  1.0  0.0745
  H  H296  1  0.941400  0.504700  0.067300  1.0  0.0881
  H  H297  1  0.267300  0.840400  0.957800  1.0  0.07
  H  H298  1  0.346300  0.857800  0.896800  1.0  0.1108
  H  H299  1  0.629300  0.884100  0.966600  1.0  0.1161
  H  H300  1  0.540700  0.866700  0.025300  1.0  0.0781
  H  H301  1  0.714200  0.873600  0.896100  1.0  0.0851
  H  H302  1  0.677100  0.914600  0.915600  1.0  0.0771
  H  H303  1  0.771800  0.924000  0.855000  1.0  0.073
  H  H304  1  0.648900  0.941600  0.850000  1.0  0.092
  H  H305  1  0.546100  0.860700  0.788700  1.0  0.0712
  H  H306  1  0.613600  0.838800  0.826600  1.0  0.0714
  H  H307  1  0.437800  0.857200  0.847300  1.0  0.0775
  H  H308  1  0.462300  0.902300  0.836300  1.0  0.0845
  H  H309  1  0.666667  0.851100  0.746500  1.0  0.1079
  H  H310  1  0.765800  0.861700  0.689000  1.0  0.0716
  H  H311  1  0.895300  0.957800  0.739000  1.0  0.0768
  H  H312  1  0.806400  0.948400  0.798500  1.0  0.098
  H  H313  1  0.101300  0.862400  0.012900  1.0  0.0749
  H  H314  1  0.929200  0.838000  0.995800  1.0  0.1119
  H  H315  1  0.043800  0.729800  0.028200  1.0  0.1025
  H  H316  1  0.213100  0.756700  0.042300  1.0  0.0761
  H  H317  1  0.873700  0.717300  0.038300  1.0  0.0833
  H  H318  1  0.874100  0.709100  0.989300  1.0  0.0986
  H  H319  1  0.777700  0.796000  0.960200  1.0  0.0972
  H  H320  1  0.768700  0.812700  0.006200  1.0  0.0597
  H  H321  1  0.699600  0.779600  0.120200  1.0  0.1127
  H  H322  1  0.781000  0.722800  0.152000  1.0  0.1133
  H  H323  1  0.675900  0.666500  0.158200  1.0  0.0791
  H  H324  1  0.417400  0.718100  0.097200  1.0  0.092
  H  H325  1  0.238800  0.876600  0.170100  1.0  0.1062
  H  H326  1  0.152700  0.907600  0.224400  1.0  0.0992
  H  H327  1  0.069600  0.968600  0.214200  1.0  0.097
  H  H328  1  0.157100  0.968900  0.094500  1.0  0.0924
  H  H329  1  0.705100  0.037700  0.153200  1.0  0.0794
  H  H330  1  0.559700  0.019900  0.108100  1.0  0.1325
  H  H331  1  0.738600  0.057300  0.012900  1.0  0.1044
  H  H332  1  0.875300  0.076400  0.061500  1.0  0.0784
  H  H333  1  0.612400  0.048100  0.974000  1.0  0.0822
  H  H334  1  0.479900  0.045800  0.968100  1.0  0.0635
  H  H335  1  0.376700  0.019200  0.024800  1.0  0.0745
  H  H336  1  0.441400  0.004700  0.067300  1.0  0.0881
  C  C337  1  0.841800  0.650570  0.459460  1.0  0.1715
  C  C338  1  0.888600  0.640340  0.422790  1.0  -0.2417
  C  C339  1  0.997400  0.627300  0.423850  1.0  0.1067
  C  C340  1  0.054700  0.624800  0.463950  1.0  -0.2536
  C  C341  1  0.001200  0.635330  0.498780  1.0  0.1628
  C  C342  1  0.164500  0.603450  0.391400  1.0  0.0028
  C  C343  1  0.192300  0.583080  0.352840  1.0  0.0052
  C  C344  1  0.082000  0.635600  0.317090  1.0  0.009
  C  C345  1  0.996700  0.622630  0.346510  1.0  -0.0285
  C  C346  1  0.225500  0.601590  0.280200  1.0  0.2508
  C  C347  1  0.214600  0.626810  0.245950  1.0  -0.2532
  C  C348  1  0.273000  0.619910  0.211440  1.0  0.1618
  C  C349  1  0.348600  0.564560  0.240520  1.0  0.1608
  C  C350  1  0.295500  0.569830  0.276100  1.0  -0.238
  C  C351  1  0.589000  0.665040  0.516080  1.0  0.1518
  C  C352  1  0.486200  0.679330  0.506220  1.0  -0.2603
  C  C353  1  0.462800  0.719660  0.511230  1.0  0.1921
  C  C354  1  0.553100  0.742650  0.524880  1.0  -0.2433
  C  C355  1  0.653600  0.726400  0.533430  1.0  0.1716
  C  C356  1  0.336900  0.775650  0.510800  1.0  -0.0411
  C  C357  1  0.265400  0.711800  0.489400  1.0  -0.0464
  C  C358  1  0.994900  0.710080  0.585890  1.0  0.6897
  C  C359  1  0.049600  0.745720  0.605510  1.0  -0.1522
  C  C360  1  0.158100  0.743980  0.621890  1.0  -0.0415
  C  C361  1  0.206000  0.777690  0.641150  1.0  -0.1327
  C  C362  1  0.143900  0.811200  0.644180  1.0  -0.063
  C  C363  1  0.038400  0.813340  0.627730  1.0  -0.1124
  C  C364  1  0.991700  0.780590  0.608600  1.0  -0.044
  C  C365  1  0.971300  0.849930  0.632550  1.0  0.647
  C  C366  1  0.750600  0.600960  0.589050  1.0  0.6794
  C  C367  1  0.704500  0.580670  0.626290  1.0  -0.1757
  C  C368  1  0.704200  0.598510  0.665500  1.0  -0.0539
  C  C369  1  0.653500  0.579950  0.697770  1.0  -0.1371
  C  C370  1  0.604300  0.543780  0.691820  1.0  -0.0585
  C  C371  1  0.605200  0.525210  0.652950  1.0  -0.1784
  C  C372  1  0.655600  0.543820  0.620950  1.0  -0.0308
  C  C373  1  0.549100  0.486730  0.645700  1.0  0.6543
  C  C374  1  0.211100  0.457610  0.624100  1.0  0.1635
  C  C375  1  0.123700  0.468530  0.597510  1.0  -0.2572
  C  C376  1  0.129700  0.462460  0.554410  1.0  0.1622
  C  C377  1  0.228300  0.446280  0.541870  1.0  -0.2313
  C  C378  1  0.310500  0.435520  0.571200  1.0  0.1619
  C  C379  1  0.046700  0.467510  0.480650  1.0  0.0342
  C  C380  1  0.945400  0.493600  0.536510  1.0  0.0399
  C  C381  1  0.341800  0.150570  0.459460  1.0  0.1715
  C  C382  1  0.388600  0.140340  0.422790  1.0  -0.2417
  C  C383  1  0.497400  0.127300  0.423850  1.0  0.1067
  C  C384  1  0.554700  0.124800  0.463950  1.0  -0.2536
  C  C385  1  0.501200  0.135330  0.498780  1.0  0.1628
  C  C386  1  0.664500  0.103450  0.391400  1.0  0.0028
  C  C387  1  0.692300  0.083080  0.352840  1.0  0.0052
  C  C388  1  0.582000  0.135600  0.317090  1.0  0.009
  C  C389  1  0.496700  0.122630  0.346510  1.0  -0.0285
  C  C390  1  0.725500  0.101590  0.280200  1.0  0.251
  C  C391  1  0.714600  0.126810  0.245950  1.0  -0.253
  C  C392  1  0.773000  0.119910  0.211440  1.0  0.1619
  C  C393  1  0.848600  0.064560  0.240520  1.0  0.1608
  C  C394  1  0.795500  0.069830  0.276100  1.0  -0.238
  C  C395  1  0.089000  0.165040  0.516080  1.0  0.1518
  C  C396  1  0.986200  0.179330  0.506220  1.0  -0.2603
  C  C397  1  0.962800  0.219660  0.511230  1.0  0.1921
  C  C398  1  0.053100  0.242650  0.524880  1.0  -0.2433
  C  C399  1  0.153600  0.226400  0.533430  1.0  0.1716
  C  C400  1  0.836900  0.275650  0.510800  1.0  -0.0411
  C  C401  1  0.765400  0.211800  0.489400  1.0  -0.0464
  C  C402  1  0.494900  0.210080  0.585890  1.0  0.6897
  C  C403  1  0.549600  0.245720  0.605510  1.0  -0.1522
  C  C404  1  0.658100  0.243980  0.621890  1.0  -0.0415
  C  C405  1  0.706000  0.277690  0.641150  1.0  -0.1327
  C  C406  1  0.643900  0.311200  0.644180  1.0  -0.063
  C  C407  1  0.538400  0.313340  0.627730  1.0  -0.1124
  C  C408  1  0.491700  0.280590  0.608600  1.0  -0.044
  C  C409  1  0.471300  0.349930  0.632550  1.0  0.647
  C  C410  1  0.250600  0.100960  0.589050  1.0  0.6794
  C  C411  1  0.204500  0.080670  0.626290  1.0  -0.1757
  C  C412  1  0.204200  0.098510  0.665500  1.0  -0.0539
  C  C413  1  0.153500  0.079950  0.697770  1.0  -0.1371
  C  C414  1  0.104300  0.043780  0.691820  1.0  -0.0585
  C  C415  1  0.105200  0.025210  0.652950  1.0  -0.1784
  C  C416  1  0.155600  0.043820  0.620950  1.0  -0.0308
  C  C417  1  0.049100  0.986730  0.645700  1.0  0.6543
  C  C418  1  0.711100  0.957610  0.624100  1.0  0.1635
  C  C419  1  0.623700  0.968530  0.597510  1.0  -0.2572
  C  C420  1  0.629700  0.962460  0.554410  1.0  0.1622
  C  C421  1  0.728300  0.946280  0.541870  1.0  -0.2313
  C  C422  1  0.810500  0.935520  0.571200  1.0  0.1619
  C  C423  1  0.546700  0.967510  0.480650  1.0  0.0342
  C  C424  1  0.445400  0.993600  0.536510  1.0  0.0399
  C  C425  1  0.158200  0.650570  0.040540  1.0  0.1701
  C  C426  1  0.111400  0.640340  0.077210  1.0  -0.242
  C  C427  1  0.002600  0.627300  0.076150  1.0  0.1066
  C  C428  1  0.945300  0.624800  0.036050  1.0  -0.2525
  C  C429  1  0.998800  0.635330  0.001220  1.0  0.1635
  C  C430  1  0.835500  0.603450  0.108600  1.0  0.0034
  C  C431  1  0.807700  0.583080  0.147160  1.0  0.0063
  C  C432  1  0.918000  0.635600  0.182910  1.0  0.0096
  C  C433  1  0.003300  0.622630  0.153490  1.0  -0.0253
  C  C434  1  0.774500  0.601590  0.219800  1.0  0.2501
  C  C435  1  0.785400  0.626810  0.254050  1.0  -0.2537
  C  C436  1  0.727000  0.619910  0.288560  1.0  0.1617
  C  C437  1  0.651400  0.564560  0.259480  1.0  0.1623
  C  C438  1  0.704500  0.569830  0.223900  1.0  -0.2382
  C  C439  1  0.411000  0.665040  0.983920  1.0  0.1512
  C  C440  1  0.513800  0.679330  0.993780  1.0  -0.2617
  C  C441  1  0.537200  0.719660  0.988770  1.0  0.1917
  C  C442  1  0.446900  0.742650  0.975120  1.0  -0.2434
  C  C443  1  0.346400  0.726400  0.966570  1.0  0.1703
  C  C444  1  0.663100  0.775650  0.989200  1.0  -0.04
  C  C445  1  0.734600  0.711800  0.010600  1.0  -0.0461
  C  C446  1  0.005100  0.710080  0.914110  1.0  0.6893
  C  C447  1  0.950400  0.745720  0.894490  1.0  -0.1565
  C  C448  1  0.841900  0.743980  0.878110  1.0  -0.042
  C  C449  1  0.794000  0.777690  0.858850  1.0  -0.1349
  C  C450  1  0.856100  0.811200  0.855820  1.0  -0.0609
  C  C451  1  0.961600  0.813340  0.872270  1.0  -0.1134
  C  C452  1  0.008300  0.780590  0.891400  1.0  -0.0379
  C  C453  1  0.028700  0.849930  0.867450  1.0  0.6465
  C  C454  1  0.249400  0.600960  0.910950  1.0  0.6785
  C  C455  1  0.295500  0.580670  0.873710  1.0  -0.1759
  C  C456  1  0.295800  0.598510  0.834500  1.0  -0.0547
  C  C457  1  0.346500  0.579950  0.802230  1.0  -0.1391
  C  C458  1  0.395700  0.543780  0.808180  1.0  -0.0595
  C  C459  1  0.394800  0.525210  0.847050  1.0  -0.1787
  C  C460  1  0.344400  0.543820  0.879050  1.0  -0.0332
  C  C461  1  0.450900  0.486730  0.854300  1.0  0.6536
  C  C462  1  0.788900  0.457610  0.875900  1.0  0.1639
  C  C463  1  0.876300  0.468530  0.902490  1.0  -0.2558
  C  C464  1  0.870300  0.462460  0.945590  1.0  0.1618
  C  C465  1  0.771700  0.446280  0.958130  1.0  -0.23
  C  C466  1  0.689500  0.435520  0.928800  1.0  0.1641
  C  C467  1  0.953300  0.467510  0.019350  1.0  0.0362
  C  C468  1  0.054600  0.493600  0.963490  1.0  0.0369
  C  C469  1  0.658200  0.150570  0.040540  1.0  0.1701
  C  C470  1  0.611400  0.140340  0.077210  1.0  -0.242
  C  C471  1  0.502600  0.127300  0.076150  1.0  0.1066
  C  C472  1  0.445300  0.124800  0.036050  1.0  -0.2525
  C  C473  1  0.498800  0.135330  0.001220  1.0  0.1635
  C  C474  1  0.335500  0.103450  0.108600  1.0  0.0034
  C  C475  1  0.307700  0.083080  0.147160  1.0  0.0063
  C  C476  1  0.418000  0.135600  0.182910  1.0  0.0096
  C  C477  1  0.503300  0.122630  0.153490  1.0  -0.0253
  C  C478  1  0.274500  0.101590  0.219800  1.0  0.2501
  C  C479  1  0.285400  0.126810  0.254050  1.0  -0.2537
  C  C480  1  0.227000  0.119910  0.288560  1.0  0.1617
  C  C481  1  0.151400  0.064560  0.259480  1.0  0.1623
  C  C482  1  0.204500  0.069830  0.223900  1.0  -0.2382
  C  C483  1  0.911000  0.165040  0.983920  1.0  0.1512
  C  C484  1  0.013800  0.179330  0.993780  1.0  -0.2617
  C  C485  1  0.037200  0.219660  0.988770  1.0  0.1917
  C  C486  1  0.946900  0.242650  0.975120  1.0  -0.2434
  C  C487  1  0.846400  0.226400  0.966570  1.0  0.1703
  C  C488  1  0.163100  0.275650  0.989200  1.0  -0.04
  C  C489  1  0.234600  0.211800  0.010600  1.0  -0.0461
  C  C490  1  0.505100  0.210080  0.914110  1.0  0.6893
  C  C491  1  0.450400  0.245720  0.894490  1.0  -0.1565
  C  C492  1  0.341900  0.243980  0.878110  1.0  -0.042
  C  C493  1  0.294000  0.277690  0.858850  1.0  -0.1349
  C  C494  1  0.356100  0.311200  0.855820  1.0  -0.0609
  C  C495  1  0.461600  0.313340  0.872270  1.0  -0.1134
  C  C496  1  0.508300  0.280590  0.891400  1.0  -0.0379
  C  C497  1  0.528700  0.349930  0.867450  1.0  0.6465
  C  C498  1  0.749400  0.100960  0.910950  1.0  0.6785
  C  C499  1  0.795500  0.080670  0.873710  1.0  -0.1759
  C  C500  1  0.795800  0.098510  0.834500  1.0  -0.0547
  C  C501  1  0.846500  0.079950  0.802230  1.0  -0.1391
  C  C502  1  0.895700  0.043780  0.808180  1.0  -0.0595
  C  C503  1  0.894800  0.025210  0.847050  1.0  -0.1787
  C  C504  1  0.844400  0.043820  0.879050  1.0  -0.0332
  C  C505  1  0.950900  0.986730  0.854300  1.0  0.6536
  C  C506  1  0.288900  0.957610  0.875900  1.0  0.1639
  C  C507  1  0.376300  0.968530  0.902490  1.0  -0.2558
  C  C508  1  0.370300  0.962460  0.945590  1.0  0.1618
  C  C509  1  0.271700  0.946280  0.958130  1.0  -0.23
  C  C510  1  0.189500  0.935520  0.928800  1.0  0.1641
  C  C511  1  0.453300  0.967510  0.019350  1.0  0.0362
  C  C512  1  0.554600  0.993600  0.963490  1.0  0.0369
  C  C513  1  0.158200  0.349430  0.540540  1.0  0.1703
  C  C514  1  0.111400  0.359660  0.577210  1.0  -0.242
  C  C515  1  0.002600  0.372700  0.576150  1.0  0.106
  C  C516  1  0.945300  0.375200  0.536050  1.0  -0.2524
  C  C517  1  0.998800  0.364670  0.501220  1.0  0.1634
  C  C518  1  0.835500  0.396550  0.608600  1.0  0.0032
  C  C519  1  0.807700  0.416920  0.647160  1.0  0.0061
  C  C520  1  0.918000  0.364400  0.682910  1.0  0.0095
  C  C521  1  0.003300  0.377370  0.653490  1.0  -0.0252
  C  C522  1  0.774500  0.398410  0.719800  1.0  0.2499
  C  C523  1  0.785400  0.373190  0.754050  1.0  -0.2542
  C  C524  1  0.727000  0.380090  0.788560  1.0  0.1631
  C  C525  1  0.651400  0.435440  0.759480  1.0  0.1628
  C  C526  1  0.704500  0.430170  0.723900  1.0  -0.2395
  C  C527  1  0.411000  0.334960  0.483920  1.0  0.151
  C  C528  1  0.513800  0.320670  0.493780  1.0  -0.2602
  C  C529  1  0.537200  0.280340  0.488770  1.0  0.1921
  C  C530  1  0.446900  0.257350  0.475120  1.0  -0.2446
  C  C531  1  0.346400  0.273600  0.466570  1.0  0.171
  C  C532  1  0.663100  0.224350  0.489200  1.0  -0.0386
  C  C533  1  0.734600  0.288200  0.510600  1.0  -0.0461
  C  C534  1  0.005100  0.289920  0.414110  1.0  0.6902
  C  C535  1  0.950400  0.254280  0.394490  1.0  -0.1526
  C  C536  1  0.841900  0.256020  0.378110  1.0  -0.043
  C  C537  1  0.794000  0.222310  0.358850  1.0  -0.1354
  C  C538  1  0.856100  0.188800  0.355820  1.0  -0.061
  C  C539  1  0.961600  0.186660  0.372270  1.0  -0.1144
  C  C540  1  0.008300  0.219410  0.391400  1.0  -0.0385
  C  C541  1  0.028700  0.150070  0.367450  1.0  0.6469
  C  C542  1  0.249400  0.399040  0.410950  1.0  0.6786
  C  C543  1  0.295500  0.419330  0.373710  1.0  -0.1762
  C  C544  1  0.295800  0.401490  0.334500  1.0  -0.0536
  C  C545  1  0.346500  0.420050  0.302230  1.0  -0.1392
  C  C546  1  0.395700  0.456220  0.308180  1.0  -0.0598
  C  C547  1  0.394800  0.474790  0.347050  1.0  -0.1779
  C  C548  1  0.344400  0.456180  0.379050  1.0  -0.0329
  C  C549  1  0.450900  0.513270  0.354300  1.0  0.6536
  C  C550  1  0.788900  0.542390  0.375900  1.0  0.1639
  C  C551  1  0.876300  0.531470  0.402490  1.0  -0.2568
  C  C552  1  0.870300  0.537540  0.445590  1.0  0.162
  C  C553  1  0.771700  0.553720  0.458130  1.0  -0.2303
  C  C554  1  0.689500  0.564480  0.428800  1.0  0.1641
  C  C555  1  0.953300  0.532490  0.519350  1.0  0.0366
  C  C556  1  0.054600  0.506400  0.463490  1.0  0.0368
  C  C557  1  0.658200  0.849430  0.540540  1.0  0.1703
  C  C558  1  0.611400  0.859660  0.577210  1.0  -0.242
  C  C559  1  0.502600  0.872700  0.576150  1.0  0.106
  C  C560  1  0.445300  0.875200  0.536050  1.0  -0.2524
  C  C561  1  0.498800  0.864670  0.501220  1.0  0.1634
  C  C562  1  0.335500  0.896550  0.608600  1.0  0.0032
  C  C563  1  0.307700  0.916920  0.647160  1.0  0.0061
  C  C564  1  0.418000  0.864400  0.682910  1.0  0.0095
  C  C565  1  0.503300  0.877370  0.653490  1.0  -0.0252
  C  C566  1  0.274500  0.898410  0.719800  1.0  0.2499
  C  C567  1  0.285400  0.873190  0.754050  1.0  -0.2542
  C  C568  1  0.227000  0.880090  0.788560  1.0  0.1631
  C  C569  1  0.151400  0.935440  0.759480  1.0  0.1628
  C  C570  1  0.204500  0.930170  0.723900  1.0  -0.2395
  C  C571  1  0.911000  0.834960  0.483920  1.0  0.151
  C  C572  1  0.013800  0.820670  0.493780  1.0  -0.2602
  C  C573  1  0.037200  0.780340  0.488770  1.0  0.1921
  C  C574  1  0.946900  0.757350  0.475120  1.0  -0.2446
  C  C575  1  0.846400  0.773600  0.466570  1.0  0.171
  C  C576  1  0.163100  0.724350  0.489200  1.0  -0.0386
  C  C577  1  0.234600  0.788200  0.510600  1.0  -0.0461
  C  C578  1  0.505100  0.789920  0.414110  1.0  0.6902
  C  C579  1  0.450400  0.754280  0.394490  1.0  -0.1526
  C  C580  1  0.341900  0.756020  0.378110  1.0  -0.043
  C  C581  1  0.294000  0.722310  0.358850  1.0  -0.1354
  C  C582  1  0.356100  0.688800  0.355820  1.0  -0.061
  C  C583  1  0.461600  0.686660  0.372270  1.0  -0.1144
  C  C584  1  0.508300  0.719410  0.391400  1.0  -0.0385
  C  C585  1  0.528700  0.650070  0.367450  1.0  0.6469
  C  C586  1  0.749400  0.899040  0.410950  1.0  0.6786
  C  C587  1  0.795500  0.919330  0.373710  1.0  -0.1762
  C  C588  1  0.795800  0.901490  0.334500  1.0  -0.0536
  C  C589  1  0.846500  0.920050  0.302230  1.0  -0.1392
  C  C590  1  0.895700  0.956220  0.308180  1.0  -0.0598
  C  C591  1  0.894800  0.974790  0.347050  1.0  -0.1779
  C  C592  1  0.844400  0.956180  0.379050  1.0  -0.0329
  C  C593  1  0.950900  0.013270  0.354300  1.0  0.6536
  C  C594  1  0.288900  0.042390  0.375900  1.0  0.1639
  C  C595  1  0.376300  0.031470  0.402490  1.0  -0.2568
  C  C596  1  0.370300  0.037540  0.445590  1.0  0.162
  C  C597  1  0.271700  0.053720  0.458130  1.0  -0.2303
  C  C598  1  0.189500  0.064480  0.428800  1.0  0.1641
  C  C599  1  0.453300  0.032490  0.519350  1.0  0.0366
  C  C600  1  0.554600  0.006400  0.463490  1.0  0.0368
  C  C601  1  0.841800  0.349430  0.959460  1.0  0.1722
  C  C602  1  0.888600  0.359660  0.922790  1.0  -0.242
  C  C603  1  0.997400  0.372700  0.923850  1.0  0.1062
  C  C604  1  0.054700  0.375200  0.963950  1.0  -0.2533
  C  C605  1  0.001200  0.364670  0.998780  1.0  0.1629
  C  C606  1  0.164500  0.396550  0.891400  1.0  0.0026
  C  C607  1  0.192300  0.416920  0.852840  1.0  0.0054
  C  C608  1  0.082000  0.364400  0.817090  1.0  0.0093
  C  C609  1  0.996700  0.377370  0.846510  1.0  -0.0287
  C  C610  1  0.225500  0.398410  0.780200  1.0  0.2505
  C  C611  1  0.214600  0.373190  0.745950  1.0  -0.254
  C  C612  1  0.273000  0.380090  0.711440  1.0  0.1628
  C  C613  1  0.348600  0.435440  0.740520  1.0  0.1615
  C  C614  1  0.295500  0.430170  0.776100  1.0  -0.2391
  C  C615  1  0.589000  0.334960  0.016080  1.0  0.1519
  C  C616  1  0.486200  0.320670  0.006220  1.0  -0.2628
  C  C617  1  0.462800  0.280340  0.011230  1.0  0.1917
  C  C618  1  0.553100  0.257350  0.024880  1.0  -0.2426
  C  C619  1  0.653600  0.273600  0.033430  1.0  0.1719
  C  C620  1  0.336900  0.224350  0.010800  1.0  -0.039
  C  C621  1  0.265400  0.288200  0.989400  1.0  -0.0462
  C  C622  1  0.994900  0.289920  0.085890  1.0  0.6901
  C  C623  1  0.049600  0.254280  0.105510  1.0  -0.1538
  C  C624  1  0.158100  0.256020  0.121890  1.0  -0.0391
  C  C625  1  0.206000  0.222310  0.141150  1.0  -0.131
  C  C626  1  0.143900  0.188800  0.144180  1.0  -0.0625
  C  C627  1  0.038400  0.186660  0.127730  1.0  -0.1134
  C  C628  1  0.991700  0.219410  0.108600  1.0  -0.0438
  C  C629  1  0.971300  0.150070  0.132550  1.0  0.6473
  C  C630  1  0.750600  0.399040  0.089050  1.0  0.6793
  C  C631  1  0.704500  0.419330  0.126290  1.0  -0.176
  C  C632  1  0.704200  0.401490  0.165500  1.0  -0.0537
  C  C633  1  0.653500  0.420050  0.197770  1.0  -0.1385
  C  C634  1  0.604300  0.456220  0.191820  1.0  -0.0589
  C  C635  1  0.605200  0.474790  0.152950  1.0  -0.1774
  C  C636  1  0.655600  0.456180  0.120950  1.0  -0.0306
  C  C637  1  0.549100  0.513270  0.145700  1.0  0.6541
  C  C638  1  0.211100  0.542390  0.124100  1.0  0.1627
  C  C639  1  0.123700  0.531470  0.097510  1.0  -0.2591
  C  C640  1  0.129700  0.537540  0.054410  1.0  0.1628
  C  C641  1  0.228300  0.553720  0.041870  1.0  -0.231
  C  C642  1  0.310500  0.564480  0.071200  1.0  0.1616
  C  C643  1  0.046700  0.532490  0.980650  1.0  0.0349
  C  C644  1  0.945400  0.506400  0.036510  1.0  0.039
  C  C645  1  0.341800  0.849430  0.959460  1.0  0.1722
  C  C646  1  0.388600  0.859660  0.922790  1.0  -0.242
  C  C647  1  0.497400  0.872700  0.923850  1.0  0.1062
  C  C648  1  0.554700  0.875200  0.963950  1.0  -0.2533
  C  C649  1  0.501200  0.864670  0.998780  1.0  0.1629
  C  C650  1  0.664500  0.896550  0.891400  1.0  0.0026
  C  C651  1  0.692300  0.916920  0.852840  1.0  0.0054
  C  C652  1  0.582000  0.864400  0.817090  1.0  0.0093
  C  C653  1  0.496700  0.877370  0.846510  1.0  -0.0287
  C  C654  1  0.725500  0.898410  0.780200  1.0  0.2508
  C  C655  1  0.714600  0.873190  0.745950  1.0  -0.2532
  C  C656  1  0.773000  0.880090  0.711440  1.0  0.1629
  C  C657  1  0.848600  0.935440  0.740520  1.0  0.1615
  C  C658  1  0.795500  0.930170  0.776100  1.0  -0.2391
  C  C659  1  0.089000  0.834960  0.016080  1.0  0.1519
  C  C660  1  0.986200  0.820670  0.006220  1.0  -0.2628
  C  C661  1  0.962800  0.780340  0.011230  1.0  0.1917
  C  C662  1  0.053100  0.757350  0.024880  1.0  -0.2426
  C  C663  1  0.153600  0.773600  0.033430  1.0  0.1719
  C  C664  1  0.836900  0.724350  0.010800  1.0  -0.039
  C  C665  1  0.765400  0.788200  0.989400  1.0  -0.0462
  C  C666  1  0.494900  0.789920  0.085890  1.0  0.6901
  C  C667  1  0.549600  0.754280  0.105510  1.0  -0.1538
  C  C668  1  0.658100  0.756020  0.121890  1.0  -0.0391
  C  C669  1  0.706000  0.722310  0.141150  1.0  -0.131
  C  C670  1  0.643900  0.688800  0.144180  1.0  -0.0625
  C  C671  1  0.538400  0.686660  0.127730  1.0  -0.1134
  C  C672  1  0.491700  0.719410  0.108600  1.0  -0.0438
  C  C673  1  0.471300  0.650070  0.132550  1.0  0.6473
  C  C674  1  0.250600  0.899040  0.089050  1.0  0.6793
  C  C675  1  0.204500  0.919330  0.126290  1.0  -0.176
  C  C676  1  0.204200  0.901490  0.165500  1.0  -0.0537
  C  C677  1  0.153500  0.920050  0.197770  1.0  -0.1385
  C  C678  1  0.104300  0.956220  0.191820  1.0  -0.0589
  C  C679  1  0.105200  0.974790  0.152950  1.0  -0.1774
  C  C680  1  0.155600  0.956180  0.120950  1.0  -0.0306
  C  C681  1  0.049100  0.013270  0.145700  1.0  0.6541
  C  C682  1  0.711100  0.042390  0.124100  1.0  0.1627
  C  C683  1  0.623700  0.031470  0.097510  1.0  -0.2591
  C  C684  1  0.629700  0.037540  0.054410  1.0  0.1628
  C  C685  1  0.728300  0.053720  0.041870  1.0  -0.231
  C  C686  1  0.810500  0.064480  0.071200  1.0  0.1616
  C  C687  1  0.546700  0.032490  0.980650  1.0  0.0349
  C  C688  1  0.445400  0.006400  0.036510  1.0  0.039
  N  N689  1  0.895700  0.648440  0.497630  1.0  -0.348
  N  N690  1  0.048600  0.616850  0.389070  1.0  -0.1858
  N  N691  1  0.169400  0.607250  0.315300  1.0  -0.1689
  N  N692  1  0.340100  0.588670  0.207140  1.0  -0.3387
  N  N693  1  0.675100  0.687730  0.530210  1.0  -0.3287
  N  N694  1  0.359400  0.734750  0.503560  1.0  -0.1233
  N  N695  1  0.305000  0.440730  0.612490  1.0  -0.3559
  N  N696  1  0.040100  0.470200  0.526790  1.0  -0.2109
  N  N697  1  0.395700  0.148440  0.497630  1.0  -0.348
  N  N698  1  0.548600  0.116850  0.389070  1.0  -0.1858
  N  N699  1  0.669400  0.107250  0.315300  1.0  -0.1689
  N  N700  1  0.840100  0.088670  0.207140  1.0  -0.3387
  N  N701  1  0.175100  0.187730  0.530210  1.0  -0.3287
  N  N702  1  0.859400  0.234750  0.503560  1.0  -0.1233
  N  N703  1  0.805000  0.940730  0.612490  1.0  -0.3559
  N  N704  1  0.540100  0.970200  0.526790  1.0  -0.2109
  N  N705  1  0.104300  0.648440  0.002370  1.0  -0.3484
  N  N706  1  0.951400  0.616850  0.110930  1.0  -0.1856
  N  N707  1  0.830600  0.607250  0.184700  1.0  -0.1699
  N  N708  1  0.659900  0.588670  0.292860  1.0  -0.3367
  N  N709  1  0.324900  0.687730  0.969790  1.0  -0.3286
  N  N710  1  0.640600  0.734750  0.996440  1.0  -0.125
  N  N711  1  0.695000  0.440730  0.887510  1.0  -0.3552
  N  N712  1  0.959900  0.470200  0.973210  1.0  -0.2087
  N  N713  1  0.604300  0.148440  0.002370  1.0  -0.3484
  N  N714  1  0.451400  0.116850  0.110930  1.0  -0.1856
  N  N715  1  0.330600  0.107250  0.184700  1.0  -0.1699
  N  N716  1  0.159900  0.088670  0.292860  1.0  -0.3367
  N  N717  1  0.824900  0.187730  0.969790  1.0  -0.3286
  N  N718  1  0.140600  0.234750  0.996440  1.0  -0.125
  N  N719  1  0.195000  0.940730  0.887510  1.0  -0.3552
  N  N720  1  0.459900  0.970200  0.973210  1.0  -0.2087
  N  N721  1  0.104300  0.351560  0.502370  1.0  -0.3492
  N  N722  1  0.951400  0.383150  0.610930  1.0  -0.1861
  N  N723  1  0.830600  0.392750  0.684700  1.0  -0.1704
  N  N724  1  0.659900  0.411330  0.792860  1.0  -0.3366
  N  N725  1  0.324900  0.312270  0.469790  1.0  -0.3271
  N  N726  1  0.640600  0.265250  0.496440  1.0  -0.1252
  N  N727  1  0.695000  0.559270  0.387510  1.0  -0.3567
  N  N728  1  0.959900  0.529800  0.473210  1.0  -0.2104
  N  N729  1  0.604300  0.851560  0.502370  1.0  -0.3492
  N  N730  1  0.451400  0.883150  0.610930  1.0  -0.1861
  N  N731  1  0.330600  0.892750  0.684700  1.0  -0.1704
  N  N732  1  0.159900  0.911330  0.792860  1.0  -0.3366
  N  N733  1  0.824900  0.812270  0.469790  1.0  -0.3271
  N  N734  1  0.140600  0.765250  0.496440  1.0  -0.1252
  N  N735  1  0.195000  0.059270  0.387510  1.0  -0.3567
  N  N736  1  0.459900  0.029800  0.473210  1.0  -0.2104
  N  N737  1  0.895700  0.351560  0.997630  1.0  -0.3477
  N  N738  1  0.048600  0.383150  0.889070  1.0  -0.1864
  N  N739  1  0.169400  0.392750  0.815300  1.0  -0.1689
  N  N740  1  0.340100  0.411330  0.707140  1.0  -0.3384
  N  N741  1  0.675100  0.312270  0.030210  1.0  -0.3295
  N  N742  1  0.359400  0.265250  0.003560  1.0  -0.1233
  N  N743  1  0.305000  0.559270  0.112490  1.0  -0.3562
  N  N744  1  0.040100  0.529800  0.026790  1.0  -0.2116
  N  N745  1  0.395700  0.851560  0.997630  1.0  -0.3477
  N  N746  1  0.548600  0.883150  0.889070  1.0  -0.1864
  N  N747  1  0.669400  0.892750  0.815300  1.0  -0.1689
  N  N748  1  0.840100  0.911330  0.707140  1.0  -0.3384
  N  N749  1  0.175100  0.812270  0.030210  1.0  -0.3295
  N  N750  1  0.859400  0.765250  0.003560  1.0  -0.1233
  N  N751  1  0.805000  0.059270  0.112490  1.0  -0.3562
  N  N752  1  0.540100  0.029800  0.026790  1.0  -0.2116
  O  O753  1  0.894500  0.714260  0.572130  1.0  -0.6119
  O  O754  1  0.048700  0.678890  0.583600  1.0  -0.5752
  O  O755  1  0.025400  0.880410  0.646070  1.0  -0.5978
  O  O756  1  0.869000  0.849730  0.623920  1.0  -0.6015
  O  O757  1  0.801800  0.633460  0.598110  1.0  -0.6255
  O  O758  1  0.734500  0.587600  0.553810  1.0  -0.5864
  O  O759  1  0.558300  0.469190  0.611530  1.0  -0.5985
  O  O760  1  0.495000  0.472920  0.675410  1.0  -0.5977
  O  O761  1  0.394500  0.214260  0.572130  1.0  -0.6119
  O  O762  1  0.548700  0.178890  0.583600  1.0  -0.5752
  O  O763  1  0.525400  0.380410  0.646070  1.0  -0.5978
  O  O764  1  0.369000  0.349730  0.623920  1.0  -0.6015
  O  O765  1  0.301800  0.133460  0.598110  1.0  -0.6255
  O  O766  1  0.234500  0.087600  0.553810  1.0  -0.5864
  O  O767  1  0.058300  0.969190  0.611530  1.0  -0.5985
  O  O768  1  0.995000  0.972920  0.675410  1.0  -0.5977
  O  O769  1  0.105500  0.714260  0.927870  1.0  -0.6107
  O  O770  1  0.951300  0.678890  0.916400  1.0  -0.574
  O  O771  1  0.974600  0.880410  0.853930  1.0  -0.5972
  O  O772  1  0.131000  0.849730  0.876080  1.0  -0.6015
  O  O773  1  0.198200  0.633460  0.901890  1.0  -0.6246
  O  O774  1  0.265500  0.587600  0.946190  1.0  -0.5863
  O  O775  1  0.441700  0.469190  0.888470  1.0  -0.597
  O  O776  1  0.505000  0.472920  0.824590  1.0  -0.5971
  O  O777  1  0.605500  0.214260  0.927870  1.0  -0.6107
  O  O778  1  0.451300  0.178890  0.916400  1.0  -0.574
  O  O779  1  0.474600  0.380410  0.853930  1.0  -0.5972
  O  O780  1  0.631000  0.349730  0.876080  1.0  -0.6015
  O  O781  1  0.698200  0.133460  0.901890  1.0  -0.6246
  O  O782  1  0.765500  0.087600  0.946190  1.0  -0.5863
  O  O783  1  0.941700  0.969190  0.888470  1.0  -0.597
  O  O784  1  0.005000  0.972920  0.824590  1.0  -0.5971
  O  O785  1  0.105500  0.285740  0.427870  1.0  -0.611
  O  O786  1  0.951300  0.321110  0.416400  1.0  -0.5748
  O  O787  1  0.974600  0.119590  0.353930  1.0  -0.5974
  O  O788  1  0.131000  0.150270  0.376080  1.0  -0.6011
  O  O789  1  0.198200  0.366540  0.401890  1.0  -0.6235
  O  O790  1  0.265500  0.412400  0.446190  1.0  -0.5867
  O  O791  1  0.441700  0.530810  0.388470  1.0  -0.5959
  O  O792  1  0.505000  0.527080  0.324590  1.0  -0.5974
  O  O793  1  0.605500  0.785740  0.427870  1.0  -0.611
  O  O794  1  0.451300  0.821110  0.416400  1.0  -0.5748
  O  O795  1  0.474600  0.619590  0.353930  1.0  -0.5974
  O  O796  1  0.631000  0.650270  0.376080  1.0  -0.6011
  O  O797  1  0.698200  0.866540  0.401890  1.0  -0.6235
  O  O798  1  0.765500  0.912400  0.446190  1.0  -0.5867
  O  O799  1  0.941700  0.030810  0.388470  1.0  -0.5959
  O  O800  1  0.005000  0.027080  0.324590  1.0  -0.5974
  O  O801  1  0.894500  0.285740  0.072130  1.0  -0.612
  O  O802  1  0.048700  0.321110  0.083600  1.0  -0.5747
  O  O803  1  0.025400  0.119590  0.146070  1.0  -0.5982
  O  O804  1  0.869000  0.150270  0.123920  1.0  -0.6012
  O  O805  1  0.801800  0.366540  0.098110  1.0  -0.6251
  O  O806  1  0.734500  0.412400  0.053810  1.0  -0.5863
  O  O807  1  0.558300  0.530810  0.111530  1.0  -0.5966
  O  O808  1  0.495000  0.527080  0.175410  1.0  -0.5977
  O  O809  1  0.394500  0.785740  0.072130  1.0  -0.612
  O  O810  1  0.548700  0.821110  0.083600  1.0  -0.5747
  O  O811  1  0.525400  0.619590  0.146070  1.0  -0.5982
  O  O812  1  0.369000  0.650270  0.123920  1.0  -0.6012
  O  O813  1  0.301800  0.866540  0.098110  1.0  -0.6251
  O  O814  1  0.234500  0.912400  0.053810  1.0  -0.5863
  O  O815  1  0.058300  0.030810  0.111530  1.0  -0.5966
  O  O816  1  0.995000  0.027080  0.175410  1.0  -0.5977
