# generated using pymatgen
data_Er4H37C57N3O16
_symmetry_space_group_name_H-M   'P 1'
_cell_length_a   29.88100000
_cell_length_b   29.88100000
_cell_length_c   29.88100000
_cell_angle_alpha   90.00000000
_cell_angle_beta   90.00000000
_cell_angle_gamma   90.00000000
_symmetry_Int_Tables_number   1
_chemical_formula_structural   Er4H37C57N3O16
_chemical_formula_sum   'Er32 H296 C456 N24 O128'
_cell_volume   26679.97280484
_cell_formula_units_Z   8
loop_
 _symmetry_equiv_pos_site_id
 _symmetry_equiv_pos_as_xyz
  1  'x, y, z'
loop_
 _atom_site_type_symbol
 _atom_site_label
 _atom_site_symmetry_multiplicity
 _atom_site_fract_x
 _atom_site_fract_y
 _atom_site_fract_z
 _atom_site_occupancy
 _atom_site_charge
  Er  Er1  1  0.243160  0.181230  0.141390  1.0  1.5313
  Er  Er2  1  0.256840  0.818770  0.641390  1.0  1.5329
  Er  Er3  1  0.756840  0.681230  0.358610  1.0  1.5316
  Er  Er4  1  0.743160  0.318770  0.858610  1.0  1.5313
  Er  Er5  1  0.141390  0.243160  0.181230  1.0  1.5359
  Er  Er6  1  0.641390  0.256840  0.818770  1.0  1.538
  Er  Er7  1  0.358610  0.756840  0.681230  1.0  1.5369
  Er  Er8  1  0.858610  0.743160  0.318770  1.0  1.5375
  Er  Er9  1  0.181230  0.141390  0.243160  1.0  1.5383
  Er  Er10  1  0.818770  0.641390  0.256840  1.0  1.5351
  Er  Er11  1  0.681230  0.358610  0.756840  1.0  1.536
  Er  Er12  1  0.318770  0.858610  0.743160  1.0  1.5355
  Er  Er13  1  0.247630  0.247630  0.247630  1.0  1.4541
  Er  Er14  1  0.252370  0.752370  0.747630  1.0  1.4568
  Er  Er15  1  0.752370  0.747630  0.252370  1.0  1.4526
  Er  Er16  1  0.747630  0.252370  0.752370  1.0  1.4549
  Er  Er17  1  0.756840  0.818770  0.858610  1.0  1.5312
  Er  Er18  1  0.743160  0.181230  0.358610  1.0  1.5319
  Er  Er19  1  0.243160  0.318770  0.641390  1.0  1.531
  Er  Er20  1  0.256840  0.681230  0.141390  1.0  1.5329
  Er  Er21  1  0.858610  0.756840  0.818770  1.0  1.5381
  Er  Er22  1  0.358610  0.743160  0.181230  1.0  1.5367
  Er  Er23  1  0.641390  0.243160  0.318770  1.0  1.5369
  Er  Er24  1  0.141390  0.256840  0.681230  1.0  1.5365
  Er  Er25  1  0.818770  0.858610  0.756840  1.0  1.5348
  Er  Er26  1  0.181230  0.358610  0.743160  1.0  1.5367
  Er  Er27  1  0.318770  0.641390  0.243160  1.0  1.5371
  Er  Er28  1  0.681230  0.141390  0.256840  1.0  1.5362
  Er  Er29  1  0.752370  0.752370  0.752370  1.0  1.4553
  Er  Er30  1  0.747630  0.247630  0.252370  1.0  1.453
  Er  Er31  1  0.247630  0.252370  0.747630  1.0  1.4568
  Er  Er32  1  0.252370  0.747630  0.247630  1.0  1.4533
  H  H33  1  0.273700  0.162000  0.229800  1.0  0.376
  H  H34  1  0.388900  0.198600  0.118800  1.0  0.1135
  H  H35  1  0.400700  0.259300  0.237800  1.0  0.1015
  H  H36  1  0.464700  0.207800  0.106700  1.0  0.1147
  H  H37  1  0.476200  0.269700  0.227000  1.0  0.1257
  H  H38  1  0.550300  0.236600  0.220000  1.0  0.0836
  H  H39  1  0.525200  0.255400  0.090100  1.0  0.11
  H  H40  1  0.650300  0.251400  0.138000  1.0  0.0833
  H  H41  1  0.561700  0.227400  0.026500  1.0  0.1138
  H  H42  1  0.666500  0.294300  0.076100  1.0  0.1169
  H  H43  1  0.588700  0.238800  0.955200  1.0  0.1133
  H  H44  1  0.694400  0.304400  0.005300  1.0  0.1084
  H  H45  1  0.226300  0.838000  0.729800  1.0  0.3753
  H  H46  1  0.111100  0.801400  0.618800  1.0  0.1142
  H  H47  1  0.099300  0.740700  0.737800  1.0  0.1016
  H  H48  1  0.035300  0.792200  0.606700  1.0  0.1148
  H  H49  1  0.023800  0.730300  0.727000  1.0  0.1253
  H  H50  1  0.949700  0.763400  0.720000  1.0  0.0839
  H  H51  1  0.974800  0.744600  0.590100  1.0  0.1103
  H  H52  1  0.849700  0.748600  0.638000  1.0  0.0832
  H  H53  1  0.938300  0.772600  0.526500  1.0  0.1142
  H  H54  1  0.833500  0.705700  0.576100  1.0  0.1162
  H  H55  1  0.911300  0.761200  0.455200  1.0  0.1136
  H  H56  1  0.805600  0.695600  0.505300  1.0  0.1085
  H  H57  1  0.726300  0.662000  0.270200  1.0  0.3756
  H  H58  1  0.611100  0.698600  0.381200  1.0  0.114
  H  H59  1  0.599300  0.759300  0.262200  1.0  0.1018
  H  H60  1  0.535300  0.707800  0.393300  1.0  0.1153
  H  H61  1  0.523800  0.769700  0.273000  1.0  0.1258
  H  H62  1  0.449700  0.736600  0.280000  1.0  0.0839
  H  H63  1  0.474800  0.755400  0.409900  1.0  0.1095
  H  H64  1  0.349700  0.751400  0.362000  1.0  0.0835
  H  H65  1  0.438300  0.727400  0.473500  1.0  0.1124
  H  H66  1  0.333500  0.794300  0.423900  1.0  0.1166
  H  H67  1  0.411300  0.738800  0.544800  1.0  0.1129
  H  H68  1  0.305600  0.804400  0.494700  1.0  0.1089
  H  H69  1  0.773700  0.338000  0.770200  1.0  0.3748
  H  H70  1  0.888900  0.301400  0.881200  1.0  0.1141
  H  H71  1  0.900700  0.240700  0.762200  1.0  0.1015
  H  H72  1  0.964700  0.292200  0.893300  1.0  0.1163
  H  H73  1  0.976200  0.230300  0.773000  1.0  0.1247
  H  H74  1  0.050300  0.263400  0.780000  1.0  0.0836
  H  H75  1  0.025200  0.244600  0.909900  1.0  0.1099
  H  H76  1  0.150300  0.248600  0.862000  1.0  0.0834
  H  H77  1  0.061700  0.272600  0.973500  1.0  0.1141
  H  H78  1  0.166500  0.205700  0.923900  1.0  0.1162
  H  H79  1  0.088700  0.261200  0.044800  1.0  0.1131
  H  H80  1  0.194400  0.195600  0.994700  1.0  0.1083
  H  H81  1  0.229800  0.273700  0.162000  1.0  0.3772
  H  H82  1  0.118800  0.388900  0.198600  1.0  0.1136
  H  H83  1  0.237800  0.400700  0.259300  1.0  0.1019
  H  H84  1  0.106700  0.464700  0.207800  1.0  0.1163
  H  H85  1  0.227000  0.476200  0.269700  1.0  0.1243
  H  H86  1  0.220000  0.550300  0.236600  1.0  0.0831
  H  H87  1  0.090100  0.525200  0.255400  1.0  0.1103
  H  H88  1  0.138000  0.650300  0.251400  1.0  0.0834
  H  H89  1  0.026500  0.561700  0.227400  1.0  0.1116
  H  H90  1  0.076100  0.666500  0.294300  1.0  0.1177
  H  H91  1  0.955200  0.588700  0.238800  1.0  0.1121
  H  H92  1  0.005300  0.694400  0.304400  1.0  0.1084
  H  H93  1  0.729800  0.226300  0.838000  1.0  0.3775
  H  H94  1  0.618800  0.111100  0.801400  1.0  0.1138
  H  H95  1  0.737800  0.099300  0.740700  1.0  0.1024
  H  H96  1  0.606700  0.035300  0.792200  1.0  0.1162
  H  H97  1  0.727000  0.023800  0.730300  1.0  0.1253
  H  H98  1  0.720000  0.949700  0.763400  1.0  0.0827
  H  H99  1  0.590100  0.974800  0.744600  1.0  0.1101
  H  H100  1  0.638000  0.849700  0.748600  1.0  0.084
  H  H101  1  0.526500  0.938300  0.772600  1.0  0.112
  H  H102  1  0.576100  0.833500  0.705700  1.0  0.1169
  H  H103  1  0.455200  0.911300  0.761200  1.0  0.1128
  H  H104  1  0.505300  0.805600  0.695600  1.0  0.1076
  H  H105  1  0.270200  0.726300  0.662000  1.0  0.3748
  H  H106  1  0.381200  0.611100  0.698600  1.0  0.1142
  H  H107  1  0.262200  0.599300  0.759300  1.0  0.1022
  H  H108  1  0.393300  0.535300  0.707800  1.0  0.1166
  H  H109  1  0.273000  0.523800  0.769700  1.0  0.1253
  H  H110  1  0.280000  0.449700  0.736600  1.0  0.0834
  H  H111  1  0.409900  0.474800  0.755400  1.0  0.1089
  H  H112  1  0.362000  0.349700  0.751400  1.0  0.0844
  H  H113  1  0.473500  0.438300  0.727400  1.0  0.1115
  H  H114  1  0.423900  0.333500  0.794300  1.0  0.1172
  H  H115  1  0.544800  0.411300  0.738800  1.0  0.1128
  H  H116  1  0.494700  0.305600  0.804400  1.0  0.1091
  H  H117  1  0.770200  0.773700  0.338000  1.0  0.3768
  H  H118  1  0.881200  0.888900  0.301400  1.0  0.1136
  H  H119  1  0.762200  0.900700  0.240700  1.0  0.102
  H  H120  1  0.893300  0.964700  0.292200  1.0  0.1166
  H  H121  1  0.773000  0.976200  0.230300  1.0  0.1257
  H  H122  1  0.780000  0.050300  0.263400  1.0  0.0827
  H  H123  1  0.909900  0.025200  0.244600  1.0  0.1094
  H  H124  1  0.862000  0.150300  0.248600  1.0  0.0837
  H  H125  1  0.973500  0.061700  0.272600  1.0  0.1123
  H  H126  1  0.923900  0.166500  0.205700  1.0  0.117
  H  H127  1  0.044800  0.088700  0.261200  1.0  0.1124
  H  H128  1  0.994700  0.194400  0.195600  1.0  0.1082
  H  H129  1  0.162000  0.229800  0.273700  1.0  0.3755
  H  H130  1  0.198600  0.118800  0.388900  1.0  0.1128
  H  H131  1  0.259300  0.237800  0.400700  1.0  0.102
  H  H132  1  0.207800  0.106700  0.464700  1.0  0.1147
  H  H133  1  0.269700  0.227000  0.476200  1.0  0.1235
  H  H134  1  0.236600  0.220000  0.550300  1.0  0.0826
  H  H135  1  0.255400  0.090100  0.525200  1.0  0.1095
  H  H136  1  0.251400  0.138000  0.650300  1.0  0.0851
  H  H137  1  0.227400  0.026500  0.561700  1.0  0.1124
  H  H138  1  0.294300  0.076100  0.666500  1.0  0.1153
  H  H139  1  0.238800  0.955200  0.588700  1.0  0.1118
  H  H140  1  0.304400  0.005300  0.694400  1.0  0.1092
  H  H141  1  0.838000  0.729800  0.226300  1.0  0.3761
  H  H142  1  0.801400  0.618800  0.111100  1.0  0.1126
  H  H143  1  0.740700  0.737800  0.099300  1.0  0.1021
  H  H144  1  0.792200  0.606700  0.035300  1.0  0.1152
  H  H145  1  0.730300  0.727000  0.023800  1.0  0.1238
  H  H146  1  0.763400  0.720000  0.949700  1.0  0.0822
  H  H147  1  0.744600  0.590100  0.974800  1.0  0.1097
  H  H148  1  0.748600  0.638000  0.849700  1.0  0.086
  H  H149  1  0.772600  0.526500  0.938300  1.0  0.1121
  H  H150  1  0.705700  0.576100  0.833500  1.0  0.1156
  H  H151  1  0.761200  0.455200  0.911300  1.0  0.1117
  H  H152  1  0.695600  0.505300  0.805600  1.0  0.1096
  H  H153  1  0.662000  0.270200  0.726300  1.0  0.3741
  H  H154  1  0.698600  0.381200  0.611100  1.0  0.1129
  H  H155  1  0.759300  0.262200  0.599300  1.0  0.1011
  H  H156  1  0.707800  0.393300  0.535300  1.0  0.1153
  H  H157  1  0.769700  0.273000  0.523800  1.0  0.1237
  H  H158  1  0.736600  0.280000  0.449700  1.0  0.0826
  H  H159  1  0.755400  0.409900  0.474800  1.0  0.1091
  H  H160  1  0.751400  0.362000  0.349700  1.0  0.0859
  H  H161  1  0.727400  0.473500  0.438300  1.0  0.1117
  H  H162  1  0.794300  0.423900  0.333500  1.0  0.1155
  H  H163  1  0.738800  0.544800  0.411300  1.0  0.1119
  H  H164  1  0.804400  0.494700  0.305600  1.0  0.1097
  H  H165  1  0.338000  0.770200  0.773700  1.0  0.3755
  H  H166  1  0.301400  0.881200  0.888900  1.0  0.1131
  H  H167  1  0.240700  0.762200  0.900700  1.0  0.1016
  H  H168  1  0.292200  0.893300  0.964700  1.0  0.1154
  H  H169  1  0.230300  0.773000  0.976200  1.0  0.1233
  H  H170  1  0.263400  0.780000  0.050300  1.0  0.0826
  H  H171  1  0.244600  0.909900  0.025200  1.0  0.1091
  H  H172  1  0.248600  0.862000  0.150300  1.0  0.0852
  H  H173  1  0.272600  0.973500  0.061700  1.0  0.113
  H  H174  1  0.205700  0.923900  0.166500  1.0  0.1157
  H  H175  1  0.261200  0.044800  0.088700  1.0  0.1121
  H  H176  1  0.195600  0.994700  0.194400  1.0  0.1098
  H  H177  1  0.154290  0.154290  0.154290  1.0  0.4567
  H  H178  1  0.345710  0.845710  0.654290  1.0  0.4557
  H  H179  1  0.845710  0.654290  0.345710  1.0  0.455
  H  H180  1  0.654290  0.345710  0.845710  1.0  0.4568
  H  H181  1  0.726300  0.838000  0.770200  1.0  0.375
  H  H182  1  0.611100  0.801400  0.881200  1.0  0.1141
  H  H183  1  0.599300  0.740700  0.762200  1.0  0.1016
  H  H184  1  0.535300  0.792200  0.893300  1.0  0.1155
  H  H185  1  0.523800  0.730300  0.773000  1.0  0.1249
  H  H186  1  0.449700  0.763400  0.780000  1.0  0.0836
  H  H187  1  0.474800  0.744600  0.909900  1.0  0.1102
  H  H188  1  0.349700  0.748600  0.862000  1.0  0.0831
  H  H189  1  0.438300  0.772600  0.973500  1.0  0.114
  H  H190  1  0.333500  0.705700  0.923900  1.0  0.1159
  H  H191  1  0.411300  0.761200  0.044800  1.0  0.113
  H  H192  1  0.305600  0.695600  0.994700  1.0  0.1086
  H  H193  1  0.773700  0.162000  0.270200  1.0  0.3743
  H  H194  1  0.888900  0.198600  0.381200  1.0  0.1141
  H  H195  1  0.900700  0.259300  0.262200  1.0  0.1017
  H  H196  1  0.964700  0.207800  0.393300  1.0  0.116
  H  H197  1  0.976200  0.269700  0.273000  1.0  0.1253
  H  H198  1  0.050300  0.236600  0.280000  1.0  0.0839
  H  H199  1  0.025200  0.255400  0.409900  1.0  0.1099
  H  H200  1  0.150300  0.251400  0.362000  1.0  0.0836
  H  H201  1  0.061700  0.227400  0.473500  1.0  0.1133
  H  H202  1  0.166500  0.294300  0.423900  1.0  0.1167
  H  H203  1  0.088700  0.238800  0.544800  1.0  0.1132
  H  H204  1  0.194400  0.304400  0.494700  1.0  0.1085
  H  H205  1  0.273700  0.338000  0.729800  1.0  0.3747
  H  H206  1  0.388900  0.301400  0.618800  1.0  0.114
  H  H207  1  0.400700  0.240700  0.737800  1.0  0.1016
  H  H208  1  0.464700  0.292200  0.606700  1.0  0.1148
  H  H209  1  0.476200  0.230300  0.727000  1.0  0.1254
  H  H210  1  0.550300  0.263400  0.720000  1.0  0.0839
  H  H211  1  0.525200  0.244600  0.590100  1.0  0.1102
  H  H212  1  0.650300  0.248600  0.638000  1.0  0.0833
  H  H213  1  0.561700  0.272600  0.526500  1.0  0.113
  H  H214  1  0.666500  0.205700  0.576100  1.0  0.1165
  H  H215  1  0.588700  0.261200  0.455200  1.0  0.1133
  H  H216  1  0.694400  0.195600  0.505300  1.0  0.108
  H  H217  1  0.226300  0.662000  0.229800  1.0  0.3752
  H  H218  1  0.111100  0.698600  0.118800  1.0  0.1137
  H  H219  1  0.099300  0.759300  0.237800  1.0  0.1016
  H  H220  1  0.035300  0.707800  0.106700  1.0  0.1148
  H  H221  1  0.023800  0.769700  0.227000  1.0  0.126
  H  H222  1  0.949700  0.736600  0.220000  1.0  0.0835
  H  H223  1  0.974800  0.755400  0.090100  1.0  0.1095
  H  H224  1  0.849700  0.751400  0.138000  1.0  0.0835
  H  H225  1  0.938300  0.727400  0.026500  1.0  0.114
  H  H226  1  0.833500  0.794300  0.076100  1.0  0.1167
  H  H227  1  0.911300  0.738800  0.955200  1.0  0.1134
  H  H228  1  0.805600  0.804400  0.005300  1.0  0.1089
  H  H229  1  0.770200  0.726300  0.838000  1.0  0.3754
  H  H230  1  0.881200  0.611100  0.801400  1.0  0.1137
  H  H231  1  0.762200  0.599300  0.740700  1.0  0.1019
  H  H232  1  0.893300  0.535300  0.792200  1.0  0.1161
  H  H233  1  0.773000  0.523800  0.730300  1.0  0.1249
  H  H234  1  0.780000  0.449700  0.763400  1.0  0.0828
  H  H235  1  0.909900  0.474800  0.744600  1.0  0.1091
  H  H236  1  0.862000  0.349700  0.748600  1.0  0.0845
  H  H237  1  0.973500  0.438300  0.772600  1.0  0.1124
  H  H238  1  0.923900  0.333500  0.705700  1.0  0.1167
  H  H239  1  0.044800  0.411300  0.761200  1.0  0.113
  H  H240  1  0.994700  0.305600  0.695600  1.0  0.1079
  H  H241  1  0.270200  0.773700  0.162000  1.0  0.3765
  H  H242  1  0.381200  0.888900  0.198600  1.0  0.1137
  H  H243  1  0.262200  0.900700  0.259300  1.0  0.1025
  H  H244  1  0.393300  0.964700  0.207800  1.0  0.1166
  H  H245  1  0.273000  0.976200  0.269700  1.0  0.1252
  H  H246  1  0.280000  0.050300  0.236600  1.0  0.0832
  H  H247  1  0.409900  0.025200  0.255400  1.0  0.1097
  H  H248  1  0.362000  0.150300  0.251400  1.0  0.0838
  H  H249  1  0.473500  0.061700  0.227400  1.0  0.1115
  H  H250  1  0.423900  0.166500  0.294300  1.0  0.1173
  H  H251  1  0.544800  0.088700  0.238800  1.0  0.1122
  H  H252  1  0.494700  0.194400  0.304400  1.0  0.1089
  H  H253  1  0.729800  0.273700  0.338000  1.0  0.3775
  H  H254  1  0.618800  0.388900  0.301400  1.0  0.1139
  H  H255  1  0.737800  0.400700  0.240700  1.0  0.1022
  H  H256  1  0.606700  0.464700  0.292200  1.0  0.1162
  H  H257  1  0.727000  0.476200  0.230300  1.0  0.1259
  H  H258  1  0.720000  0.550300  0.263400  1.0  0.0826
  H  H259  1  0.590100  0.525200  0.244600  1.0  0.11
  H  H260  1  0.638000  0.650300  0.248600  1.0  0.0834
  H  H261  1  0.526500  0.561700  0.272600  1.0  0.1108
  H  H262  1  0.576100  0.666500  0.205700  1.0  0.1172
  H  H263  1  0.455200  0.588700  0.261200  1.0  0.1124
  H  H264  1  0.505300  0.694400  0.195600  1.0  0.108
  H  H265  1  0.229800  0.226300  0.662000  1.0  0.3772
  H  H266  1  0.118800  0.111100  0.698600  1.0  0.1138
  H  H267  1  0.237800  0.099300  0.759300  1.0  0.1019
  H  H268  1  0.106700  0.035300  0.707800  1.0  0.1169
  H  H269  1  0.227000  0.023800  0.769700  1.0  0.1244
  H  H270  1  0.220000  0.949700  0.736600  1.0  0.0831
  H  H271  1  0.090100  0.974800  0.755400  1.0  0.1096
  H  H272  1  0.138000  0.849700  0.751400  1.0  0.0839
  H  H273  1  0.026500  0.938300  0.727400  1.0  0.1127
  H  H274  1  0.076100  0.833500  0.794300  1.0  0.1175
  H  H275  1  0.955200  0.911300  0.738800  1.0  0.1128
  H  H276  1  0.005300  0.805600  0.804400  1.0  0.1087
  H  H277  1  0.838000  0.770200  0.726300  1.0  0.3756
  H  H278  1  0.801400  0.881200  0.611100  1.0  0.1126
  H  H279  1  0.740700  0.762200  0.599300  1.0  0.1016
  H  H280  1  0.792200  0.893300  0.535300  1.0  0.1152
  H  H281  1  0.730300  0.773000  0.523800  1.0  0.1232
  H  H282  1  0.763400  0.780000  0.449700  1.0  0.0828
  H  H283  1  0.744600  0.909900  0.474800  1.0  0.1092
  H  H284  1  0.748600  0.862000  0.349700  1.0  0.086
  H  H285  1  0.772600  0.973500  0.438300  1.0  0.1125
  H  H286  1  0.705700  0.923900  0.333500  1.0  0.1154
  H  H287  1  0.761200  0.044800  0.411300  1.0  0.1118
  H  H288  1  0.695600  0.994700  0.305600  1.0  0.1099
  H  H289  1  0.162000  0.270200  0.773700  1.0  0.3739
  H  H290  1  0.198600  0.381200  0.888900  1.0  0.1136
  H  H291  1  0.259300  0.262200  0.900700  1.0  0.1015
  H  H292  1  0.207800  0.393300  0.964700  1.0  0.1146
  H  H293  1  0.269700  0.273000  0.976200  1.0  0.1235
  H  H294  1  0.236600  0.280000  0.050300  1.0  0.0828
  H  H295  1  0.255400  0.409900  0.025200  1.0  0.1095
  H  H296  1  0.251400  0.362000  0.150300  1.0  0.0854
  H  H297  1  0.227400  0.473500  0.061700  1.0  0.1123
  H  H298  1  0.294300  0.423900  0.166500  1.0  0.1155
  H  H299  1  0.238800  0.544800  0.088700  1.0  0.1123
  H  H300  1  0.304400  0.494700  0.194400  1.0  0.109
  H  H301  1  0.338000  0.729800  0.273700  1.0  0.3758
  H  H302  1  0.301400  0.618800  0.388900  1.0  0.113
  H  H303  1  0.240700  0.737800  0.400700  1.0  0.1023
  H  H304  1  0.292200  0.606700  0.464700  1.0  0.1151
  H  H305  1  0.230300  0.727000  0.476200  1.0  0.1235
  H  H306  1  0.263400  0.720000  0.550300  1.0  0.0824
  H  H307  1  0.244600  0.590100  0.525200  1.0  0.109
  H  H308  1  0.248600  0.638000  0.650300  1.0  0.0852
  H  H309  1  0.272600  0.526500  0.561700  1.0  0.1119
  H  H310  1  0.205700  0.576100  0.666500  1.0  0.1157
  H  H311  1  0.261200  0.455200  0.588700  1.0  0.1119
  H  H312  1  0.195600  0.505300  0.694400  1.0  0.1096
  H  H313  1  0.662000  0.229800  0.226300  1.0  0.3759
  H  H314  1  0.698600  0.118800  0.111100  1.0  0.1125
  H  H315  1  0.759300  0.237800  0.099300  1.0  0.1016
  H  H316  1  0.707800  0.106700  0.035300  1.0  0.1156
  H  H317  1  0.769700  0.227000  0.023800  1.0  0.1239
  H  H318  1  0.736600  0.220000  0.949700  1.0  0.0822
  H  H319  1  0.755400  0.090100  0.974800  1.0  0.1096
  H  H320  1  0.751400  0.138000  0.849700  1.0  0.0858
  H  H321  1  0.727400  0.026500  0.938300  1.0  0.1128
  H  H322  1  0.794300  0.076100  0.833500  1.0  0.1156
  H  H323  1  0.738800  0.955200  0.911300  1.0  0.1116
  H  H324  1  0.804400  0.005300  0.805600  1.0  0.1097
  H  H325  1  0.845710  0.845710  0.845710  1.0  0.4553
  H  H326  1  0.654290  0.154290  0.345710  1.0  0.4565
  H  H327  1  0.154290  0.345710  0.654290  1.0  0.4567
  H  H328  1  0.345710  0.654290  0.154290  1.0  0.4556
  C  C329  1  0.336280  0.226700  0.185310  1.0  0.6958
  C  C330  1  0.385960  0.230000  0.179030  1.0  -0.1365
  C  C331  1  0.406160  0.213300  0.140080  1.0  -0.0707
  C  C332  1  0.413570  0.249700  0.211130  1.0  -0.0678
  C  C333  1  0.452090  0.218500  0.133110  1.0  -0.1178
  C  C334  1  0.459080  0.255600  0.205220  1.0  -0.1127
  C  C335  1  0.479530  0.239400  0.164570  1.0  0.0537
  C  C336  1  0.560830  0.241300  0.191070  1.0  0.1885
  C  C337  1  0.528870  0.244810  0.156520  1.0  0.0175
  C  C338  1  0.545120  0.252450  0.113840  1.0  -0.0767
  C  C339  1  0.591900  0.255870  0.105890  1.0  0.0038
  C  C340  1  0.619600  0.250500  0.142760  1.0  0.1932
  C  C341  1  0.610080  0.260800  0.059780  1.0  0.0286
  C  C342  1  0.588070  0.243500  0.022510  1.0  -0.1226
  C  C343  1  0.650520  0.283100  0.051840  1.0  -0.1191
  C  C344  1  0.604620  0.249800  0.979600  1.0  -0.0483
  C  C345  1  0.667570  0.289100  0.009230  1.0  -0.0584
  C  C346  1  0.645090  0.272500  0.972560  1.0  -0.1355
  C  C347  1  0.662820  0.277070  0.924770  1.0  0.7122
  C  C348  1  0.163720  0.773300  0.685310  1.0  0.6791
  C  C349  1  0.114040  0.770000  0.679030  1.0  -0.1378
  C  C350  1  0.093840  0.786700  0.640080  1.0  -0.0716
  C  C351  1  0.086430  0.750300  0.711130  1.0  -0.0719
  C  C352  1  0.047910  0.781500  0.633110  1.0  -0.1194
  C  C353  1  0.040920  0.744400  0.705220  1.0  -0.1114
  C  C354  1  0.020470  0.760600  0.664570  1.0  0.0527
  C  C355  1  0.939170  0.758700  0.691070  1.0  0.1893
  C  C356  1  0.971130  0.755190  0.656520  1.0  0.0171
  C  C357  1  0.954880  0.747550  0.613840  1.0  -0.0764
  C  C358  1  0.908100  0.744130  0.605890  1.0  0.0022
  C  C359  1  0.880400  0.749500  0.642760  1.0  0.189
  C  C360  1  0.889920  0.739200  0.559780  1.0  0.0281
  C  C361  1  0.911930  0.756500  0.522510  1.0  -0.1222
  C  C362  1  0.849480  0.716900  0.551840  1.0  -0.1191
  C  C363  1  0.895380  0.750200  0.479600  1.0  -0.0465
  C  C364  1  0.832430  0.710900  0.509230  1.0  -0.0583
  C  C365  1  0.854910  0.727500  0.472560  1.0  -0.1364
  C  C366  1  0.837180  0.722930  0.424770  1.0  0.7127
  C  C367  1  0.663720  0.726700  0.314690  1.0  0.6803
  C  C368  1  0.614040  0.730000  0.320970  1.0  -0.1373
  C  C369  1  0.593840  0.713300  0.359920  1.0  -0.0703
  C  C370  1  0.586430  0.749700  0.288870  1.0  -0.0689
  C  C371  1  0.547910  0.718500  0.366890  1.0  -0.1195
  C  C372  1  0.540920  0.755600  0.294780  1.0  -0.1122
  C  C373  1  0.520470  0.739400  0.335430  1.0  0.0537
  C  C374  1  0.439170  0.741300  0.308930  1.0  0.1904
  C  C375  1  0.471130  0.744810  0.343480  1.0  0.0172
  C  C376  1  0.454880  0.752450  0.386160  1.0  -0.0759
  C  C377  1  0.408100  0.755870  0.394110  1.0  0.0027
  C  C378  1  0.380400  0.750500  0.357240  1.0  0.1909
  C  C379  1  0.389920  0.760800  0.440220  1.0  0.0285
  C  C380  1  0.411930  0.743500  0.477490  1.0  -0.1225
  C  C381  1  0.349480  0.783100  0.448160  1.0  -0.1203
  C  C382  1  0.395380  0.749800  0.520400  1.0  -0.0461
  C  C383  1  0.332430  0.789100  0.490770  1.0  -0.0598
  C  C384  1  0.354910  0.772500  0.527440  1.0  -0.1358
  C  C385  1  0.337180  0.777070  0.575230  1.0  0.7125
  C  C386  1  0.836280  0.273300  0.814690  1.0  0.6817
  C  C387  1  0.885960  0.270000  0.820970  1.0  -0.1378
  C  C388  1  0.906160  0.286700  0.859920  1.0  -0.0727
  C  C389  1  0.913570  0.250300  0.788870  1.0  -0.0662
  C  C390  1  0.952090  0.281500  0.866890  1.0  -0.1189
  C  C391  1  0.959080  0.244400  0.794780  1.0  -0.11
  C  C392  1  0.979530  0.260600  0.835430  1.0  0.0535
  C  C393  1  0.060830  0.258700  0.808930  1.0  0.1875
  C  C394  1  0.028870  0.255190  0.843480  1.0  0.0167
  C  C395  1  0.045120  0.247550  0.886160  1.0  -0.0763
  C  C396  1  0.091900  0.244130  0.894110  1.0  0.0026
  C  C397  1  0.119600  0.249500  0.857240  1.0  0.1905
  C  C398  1  0.110080  0.239200  0.940220  1.0  0.028
  C  C399  1  0.088070  0.256500  0.977490  1.0  -0.1235
  C  C400  1  0.150520  0.216900  0.948160  1.0  -0.1192
  C  C401  1  0.104620  0.250200  0.020400  1.0  -0.0486
  C  C402  1  0.167570  0.210900  0.990770  1.0  -0.062
  C  C403  1  0.145090  0.227500  0.027440  1.0  -0.1352
  C  C404  1  0.162820  0.222930  0.075230  1.0  0.7121
  C  C405  1  0.185310  0.336280  0.226700  1.0  0.6945
  C  C406  1  0.179030  0.385960  0.230000  1.0  -0.1366
  C  C407  1  0.140080  0.406160  0.213300  1.0  -0.0716
  C  C408  1  0.211130  0.413570  0.249700  1.0  -0.0628
  C  C409  1  0.133110  0.452090  0.218500  1.0  -0.1164
  C  C410  1  0.205220  0.459080  0.255600  1.0  -0.1107
  C  C411  1  0.164570  0.479530  0.239400  1.0  0.0517
  C  C412  1  0.191070  0.560830  0.241300  1.0  0.1871
  C  C413  1  0.156520  0.528870  0.244810  1.0  0.0169
  C  C414  1  0.113840  0.545120  0.252450  1.0  -0.0764
  C  C415  1  0.105890  0.591900  0.255870  1.0  0.007
  C  C416  1  0.142760  0.619600  0.250500  1.0  0.1911
  C  C417  1  0.059780  0.610080  0.260800  1.0  0.032
  C  C418  1  0.022510  0.588070  0.243500  1.0  -0.1246
  C  C419  1  0.051840  0.650520  0.283100  1.0  -0.1166
  C  C420  1  0.979600  0.604620  0.249800  1.0  -0.0457
  C  C421  1  0.009230  0.667570  0.289100  1.0  -0.0578
  C  C422  1  0.972560  0.645090  0.272500  1.0  -0.1387
  C  C423  1  0.924770  0.662820  0.277070  1.0  0.7097
  C  C424  1  0.685310  0.163720  0.773300  1.0  0.6812
  C  C425  1  0.679030  0.114040  0.770000  1.0  -0.1362
  C  C426  1  0.640080  0.093840  0.786700  1.0  -0.0718
  C  C427  1  0.711130  0.086430  0.750300  1.0  -0.0615
  C  C428  1  0.633110  0.047910  0.781500  1.0  -0.1162
  C  C429  1  0.705220  0.040920  0.744400  1.0  -0.1081
  C  C430  1  0.664570  0.020470  0.760600  1.0  0.0512
  C  C431  1  0.691070  0.939170  0.758700  1.0  0.1875
  C  C432  1  0.656520  0.971130  0.755190  1.0  0.017
  C  C433  1  0.613840  0.954880  0.747550  1.0  -0.0777
  C  C434  1  0.605890  0.908100  0.744130  1.0  0.0071
  C  C435  1  0.642760  0.880400  0.749500  1.0  0.1922
  C  C436  1  0.559780  0.889920  0.739200  1.0  0.0327
  C  C437  1  0.522510  0.911930  0.756500  1.0  -0.1268
  C  C438  1  0.551840  0.849480  0.716900  1.0  -0.1163
  C  C439  1  0.479600  0.895380  0.750200  1.0  -0.0471
  C  C440  1  0.509230  0.832430  0.710900  1.0  -0.0556
  C  C441  1  0.472560  0.854910  0.727500  1.0  -0.1359
  C  C442  1  0.424770  0.837180  0.722930  1.0  0.714
  C  C443  1  0.314690  0.663720  0.726700  1.0  0.6817
  C  C444  1  0.320970  0.614040  0.730000  1.0  -0.1372
  C  C445  1  0.359920  0.593840  0.713300  1.0  -0.0679
  C  C446  1  0.288870  0.586430  0.749700  1.0  -0.0647
  C  C447  1  0.366890  0.547910  0.718500  1.0  -0.1153
  C  C448  1  0.294780  0.540920  0.755600  1.0  -0.1119
  C  C449  1  0.335430  0.520470  0.739400  1.0  0.0512
  C  C450  1  0.308930  0.439170  0.741300  1.0  0.187
  C  C451  1  0.343480  0.471130  0.744810  1.0  0.0173
  C  C452  1  0.386160  0.454880  0.752450  1.0  -0.077
  C  C453  1  0.394110  0.408100  0.755870  1.0  0.0072
  C  C454  1  0.357240  0.380400  0.750500  1.0  0.1948
  C  C455  1  0.440220  0.389920  0.760800  1.0  0.033
  C  C456  1  0.477490  0.411930  0.743500  1.0  -0.1257
  C  C457  1  0.448160  0.349480  0.783100  1.0  -0.1177
  C  C458  1  0.520400  0.395380  0.749800  1.0  -0.0456
  C  C459  1  0.490770  0.332430  0.789100  1.0  -0.0576
  C  C460  1  0.527440  0.354910  0.772500  1.0  -0.1376
  C  C461  1  0.575230  0.337180  0.777070  1.0  0.7083
  C  C462  1  0.814690  0.836280  0.273300  1.0  0.6957
  C  C463  1  0.820970  0.885960  0.270000  1.0  -0.1369
  C  C464  1  0.859920  0.906160  0.286700  1.0  -0.0688
  C  C465  1  0.788870  0.913570  0.250300  1.0  -0.06
  C  C466  1  0.866890  0.952090  0.281500  1.0  -0.1149
  C  C467  1  0.794780  0.959080  0.244400  1.0  -0.1073
  C  C468  1  0.835430  0.979530  0.260600  1.0  0.0509
  C  C469  1  0.808930  0.060830  0.258700  1.0  0.1855
  C  C470  1  0.843480  0.028870  0.255190  1.0  0.0178
  C  C471  1  0.886160  0.045120  0.247550  1.0  -0.0767
  C  C472  1  0.894110  0.091900  0.244130  1.0  0.0065
  C  C473  1  0.857240  0.119600  0.249500  1.0  0.193
  C  C474  1  0.940220  0.110080  0.239200  1.0  0.0314
  C  C475  1  0.977490  0.088070  0.256500  1.0  -0.125
  C  C476  1  0.948160  0.150520  0.216900  1.0  -0.1168
  C  C477  1  0.020400  0.104620  0.250200  1.0  -0.0454
  C  C478  1  0.990770  0.167570  0.210900  1.0  -0.0599
  C  C479  1  0.027440  0.145090  0.227500  1.0  -0.1399
  C  C480  1  0.075230  0.162820  0.222930  1.0  0.7079
  C  C481  1  0.226700  0.185310  0.336280  1.0  0.6862
  C  C482  1  0.230000  0.179030  0.385960  1.0  -0.1379
  C  C483  1  0.213300  0.140080  0.406160  1.0  -0.0718
  C  C484  1  0.249700  0.211130  0.413570  1.0  -0.0647
  C  C485  1  0.218500  0.133110  0.452090  1.0  -0.1168
  C  C486  1  0.255600  0.205220  0.459080  1.0  -0.106
  C  C487  1  0.239400  0.164570  0.479530  1.0  0.0493
  C  C488  1  0.241300  0.191070  0.560830  1.0  0.187
  C  C489  1  0.244810  0.156520  0.528870  1.0  0.0156
  C  C490  1  0.252450  0.113840  0.545120  1.0  -0.0745
  C  C491  1  0.255870  0.105890  0.591900  1.0  0.0037
  C  C492  1  0.250500  0.142760  0.619600  1.0  0.1934
  C  C493  1  0.260800  0.059780  0.610080  1.0  0.0316
  C  C494  1  0.243500  0.022510  0.588070  1.0  -0.1247
  C  C495  1  0.283100  0.051840  0.650520  1.0  -0.1157
  C  C496  1  0.249800  0.979600  0.604620  1.0  -0.0437
  C  C497  1  0.289100  0.009230  0.667570  1.0  -0.0581
  C  C498  1  0.272500  0.972560  0.645090  1.0  -0.1346
  C  C499  1  0.277070  0.924770  0.662820  1.0  0.7067
  C  C500  1  0.773300  0.685310  0.163720  1.0  0.6871
  C  C501  1  0.770000  0.679030  0.114040  1.0  -0.139
  C  C502  1  0.786700  0.640080  0.093840  1.0  -0.0724
  C  C503  1  0.750300  0.711130  0.086430  1.0  -0.0688
  C  C504  1  0.781500  0.633110  0.047910  1.0  -0.1163
  C  C505  1  0.744400  0.705220  0.040920  1.0  -0.1088
  C  C506  1  0.760600  0.664570  0.020470  1.0  0.0502
  C  C507  1  0.758700  0.691070  0.939170  1.0  0.1857
  C  C508  1  0.755190  0.656520  0.971130  1.0  0.0147
  C  C509  1  0.747550  0.613840  0.954880  1.0  -0.0748
  C  C510  1  0.744130  0.605890  0.908100  1.0  0.0044
  C  C511  1  0.749500  0.642760  0.880400  1.0  0.189
  C  C512  1  0.739200  0.559780  0.889920  1.0  0.0318
  C  C513  1  0.756500  0.522510  0.911930  1.0  -0.1252
  C  C514  1  0.716900  0.551840  0.849480  1.0  -0.1161
  C  C515  1  0.750200  0.479600  0.895380  1.0  -0.0442
  C  C516  1  0.710900  0.509230  0.832430  1.0  -0.059
  C  C517  1  0.727500  0.472560  0.854910  1.0  -0.1351
  C  C518  1  0.722930  0.424770  0.837180  1.0  0.707
  C  C519  1  0.726700  0.314690  0.663720  1.0  0.7029
  C  C520  1  0.730000  0.320970  0.614040  1.0  -0.1406
  C  C521  1  0.713300  0.359920  0.593840  1.0  -0.0731
  C  C522  1  0.749700  0.288870  0.586430  1.0  -0.0649
  C  C523  1  0.718500  0.366890  0.547910  1.0  -0.1188
  C  C524  1  0.755600  0.294780  0.540920  1.0  -0.1041
  C  C525  1  0.739400  0.335430  0.520470  1.0  0.0491
  C  C526  1  0.741300  0.308930  0.439170  1.0  0.1874
  C  C527  1  0.744810  0.343480  0.471130  1.0  0.015
  C  C528  1  0.752450  0.386160  0.454880  1.0  -0.0756
  C  C529  1  0.755870  0.394110  0.408100  1.0  0.0049
  C  C530  1  0.750500  0.357240  0.380400  1.0  0.1916
  C  C531  1  0.760800  0.440220  0.389920  1.0  0.0319
  C  C532  1  0.743500  0.477490  0.411930  1.0  -0.1253
  C  C533  1  0.783100  0.448160  0.349480  1.0  -0.1149
  C  C534  1  0.749800  0.520400  0.395380  1.0  -0.0447
  C  C535  1  0.789100  0.490770  0.332430  1.0  -0.0607
  C  C536  1  0.772500  0.527440  0.354910  1.0  -0.133
  C  C537  1  0.777070  0.575230  0.337180  1.0  0.7047
  C  C538  1  0.273300  0.814690  0.836280  1.0  0.7018
  C  C539  1  0.270000  0.820970  0.885960  1.0  -0.1368
  C  C540  1  0.286700  0.859920  0.906160  1.0  -0.0735
  C  C541  1  0.250300  0.788870  0.913570  1.0  -0.0672
  C  C542  1  0.281500  0.866890  0.952090  1.0  -0.1173
  C  C543  1  0.244400  0.794780  0.959080  1.0  -0.1065
  C  C544  1  0.260600  0.835430  0.979530  1.0  0.0504
  C  C545  1  0.258700  0.808930  0.060830  1.0  0.1847
  C  C546  1  0.255190  0.843480  0.028870  1.0  0.016
  C  C547  1  0.247550  0.886160  0.045120  1.0  -0.0752
  C  C548  1  0.244130  0.894110  0.091900  1.0  0.0036
  C  C549  1  0.249500  0.857240  0.119600  1.0  0.1907
  C  C550  1  0.239200  0.940220  0.110080  1.0  0.0318
  C  C551  1  0.256500  0.977490  0.088070  1.0  -0.1258
  C  C552  1  0.216900  0.948160  0.150520  1.0  -0.115
  C  C553  1  0.250200  0.020400  0.104620  1.0  -0.0437
  C  C554  1  0.210900  0.990770  0.167570  1.0  -0.0602
  C  C555  1  0.227500  0.027440  0.145090  1.0  -0.1311
  C  C556  1  0.222930  0.075230  0.162820  1.0  0.7056
  C  C557  1  0.663720  0.773300  0.814690  1.0  0.6791
  C  C558  1  0.614040  0.770000  0.820970  1.0  -0.1377
  C  C559  1  0.593840  0.786700  0.859920  1.0  -0.0704
  C  C560  1  0.586430  0.750300  0.788870  1.0  -0.069
  C  C561  1  0.547910  0.781500  0.866890  1.0  -0.1197
  C  C562  1  0.540920  0.744400  0.794780  1.0  -0.1099
  C  C563  1  0.520470  0.760600  0.835430  1.0  0.0532
  C  C564  1  0.439170  0.758700  0.808930  1.0  0.1881
  C  C565  1  0.471130  0.755190  0.843480  1.0  0.017
  C  C566  1  0.454880  0.747550  0.886160  1.0  -0.0758
  C  C567  1  0.408100  0.744130  0.894110  1.0  0.0019
  C  C568  1  0.380400  0.749500  0.857240  1.0  0.1886
  C  C569  1  0.389920  0.739200  0.940220  1.0  0.0281
  C  C570  1  0.411930  0.756500  0.977490  1.0  -0.123
  C  C571  1  0.349480  0.716900  0.948160  1.0  -0.1192
  C  C572  1  0.395380  0.750200  0.020400  1.0  -0.0462
  C  C573  1  0.332430  0.710900  0.990770  1.0  -0.0591
  C  C574  1  0.354910  0.727500  0.027440  1.0  -0.1358
  C  C575  1  0.337180  0.722930  0.075230  1.0  0.7131
  C  C576  1  0.836280  0.226700  0.314690  1.0  0.6952
  C  C577  1  0.885960  0.230000  0.320970  1.0  -0.1364
  C  C578  1  0.906160  0.213300  0.359920  1.0  -0.0725
  C  C579  1  0.913570  0.249700  0.288870  1.0  -0.0671
  C  C580  1  0.952090  0.218500  0.366890  1.0  -0.1183
  C  C581  1  0.959080  0.255600  0.294780  1.0  -0.1122
  C  C582  1  0.979530  0.239400  0.335430  1.0  0.0538
  C  C583  1  0.060830  0.241300  0.308930  1.0  0.1873
  C  C584  1  0.028870  0.244810  0.343480  1.0  0.0172
  C  C585  1  0.045120  0.252450  0.386160  1.0  -0.0766
  C  C586  1  0.091900  0.255870  0.394110  1.0  0.0036
  C  C587  1  0.119600  0.250500  0.357240  1.0  0.1927
  C  C588  1  0.110080  0.260800  0.440220  1.0  0.0286
  C  C589  1  0.088070  0.243500  0.477490  1.0  -0.1223
  C  C590  1  0.150520  0.283100  0.448160  1.0  -0.119
  C  C591  1  0.104620  0.249800  0.520400  1.0  -0.0484
  C  C592  1  0.167570  0.289100  0.490770  1.0  -0.0609
  C  C593  1  0.145090  0.272500  0.527440  1.0  -0.1352
  C  C594  1  0.162820  0.277070  0.575230  1.0  0.712
  C  C595  1  0.336280  0.273300  0.685310  1.0  0.6808
  C  C596  1  0.385960  0.270000  0.679030  1.0  -0.1379
  C  C597  1  0.406160  0.286700  0.640080  1.0  -0.0709
  C  C598  1  0.413570  0.250300  0.711130  1.0  -0.0675
  C  C599  1  0.452090  0.281500  0.633110  1.0  -0.1196
  C  C600  1  0.459080  0.244400  0.705220  1.0  -0.1112
  C  C601  1  0.479530  0.260600  0.664570  1.0  0.0533
  C  C602  1  0.560830  0.258700  0.691070  1.0  0.1885
  C  C603  1  0.528870  0.255190  0.656520  1.0  0.017
  C  C604  1  0.545120  0.247550  0.613840  1.0  -0.077
  C  C605  1  0.591900  0.244130  0.605890  1.0  0.0031
  C  C606  1  0.619600  0.249500  0.642760  1.0  0.191
  C  C607  1  0.610080  0.239200  0.559780  1.0  0.0283
  C  C608  1  0.588070  0.256500  0.522510  1.0  -0.1229
  C  C609  1  0.650520  0.216900  0.551840  1.0  -0.1193
  C  C610  1  0.604620  0.250200  0.479600  1.0  -0.0483
  C  C611  1  0.667570  0.210900  0.509230  1.0  -0.0592
  C  C612  1  0.645090  0.227500  0.472560  1.0  -0.1358
  C  C613  1  0.662820  0.222930  0.424770  1.0  0.7119
  C  C614  1  0.163720  0.726700  0.185310  1.0  0.6799
  C  C615  1  0.114040  0.730000  0.179030  1.0  -0.1374
  C  C616  1  0.093840  0.713300  0.140080  1.0  -0.0714
  C  C617  1  0.086430  0.749700  0.211130  1.0  -0.0717
  C  C618  1  0.047910  0.718500  0.133110  1.0  -0.1182
  C  C619  1  0.040920  0.755600  0.205220  1.0  -0.1128
  C  C620  1  0.020470  0.739400  0.164570  1.0  0.0532
  C  C621  1  0.939170  0.741300  0.191070  1.0  0.1914
  C  C622  1  0.971130  0.744810  0.156520  1.0  0.0174
  C  C623  1  0.954880  0.752450  0.113840  1.0  -0.0761
  C  C624  1  0.908100  0.755870  0.105890  1.0  0.0029
  C  C625  1  0.880400  0.750500  0.142760  1.0  0.1912
  C  C626  1  0.889920  0.760800  0.059780  1.0  0.0284
  C  C627  1  0.911930  0.743500  0.022510  1.0  -0.1231
  C  C628  1  0.849480  0.783100  0.051840  1.0  -0.1205
  C  C629  1  0.895380  0.749800  0.979600  1.0  -0.0465
  C  C630  1  0.832430  0.789100  0.009230  1.0  -0.0593
  C  C631  1  0.854910  0.772500  0.972560  1.0  -0.1359
  C  C632  1  0.837180  0.777070  0.924770  1.0  0.7139
  C  C633  1  0.814690  0.663720  0.773300  1.0  0.6814
  C  C634  1  0.820970  0.614040  0.770000  1.0  -0.1371
  C  C635  1  0.859920  0.593840  0.786700  1.0  -0.0678
  C  C636  1  0.788870  0.586430  0.750300  1.0  -0.0628
  C  C637  1  0.866890  0.547910  0.781500  1.0  -0.1152
  C  C638  1  0.794780  0.540920  0.744400  1.0  -0.1069
  C  C639  1  0.835430  0.520470  0.760600  1.0  0.0503
  C  C640  1  0.808930  0.439170  0.758700  1.0  0.1859
  C  C641  1  0.843480  0.471130  0.755190  1.0  0.017
  C  C642  1  0.886160  0.454880  0.747550  1.0  -0.0775
  C  C643  1  0.894110  0.408100  0.744130  1.0  0.0068
  C  C644  1  0.857240  0.380400  0.749500  1.0  0.1947
  C  C645  1  0.940220  0.389920  0.739200  1.0  0.0323
  C  C646  1  0.977490  0.411930  0.756500  1.0  -0.1256
  C  C647  1  0.948160  0.349480  0.716900  1.0  -0.1161
  C  C648  1  0.020400  0.395380  0.750200  1.0  -0.0457
  C  C649  1  0.990770  0.332430  0.710900  1.0  -0.0577
  C  C650  1  0.027440  0.354910  0.727500  1.0  -0.1379
  C  C651  1  0.075230  0.337180  0.722930  1.0  0.7088
  C  C652  1  0.314690  0.836280  0.226700  1.0  0.6946
  C  C653  1  0.320970  0.885960  0.230000  1.0  -0.1369
  C  C654  1  0.359920  0.906160  0.213300  1.0  -0.0691
  C  C655  1  0.288870  0.913570  0.249700  1.0  -0.0632
  C  C656  1  0.366890  0.952090  0.218500  1.0  -0.1154
  C  C657  1  0.294780  0.959080  0.255600  1.0  -0.1124
  C  C658  1  0.335430  0.979530  0.239400  1.0  0.051
  C  C659  1  0.308930  0.060830  0.241300  1.0  0.186
  C  C660  1  0.343480  0.028870  0.244810  1.0  0.0182
  C  C661  1  0.386160  0.045120  0.252450  1.0  -0.0762
  C  C662  1  0.394110  0.091900  0.255870  1.0  0.0067
  C  C663  1  0.357240  0.119600  0.250500  1.0  0.1934
  C  C664  1  0.440220  0.110080  0.260800  1.0  0.0319
  C  C665  1  0.477490  0.088070  0.243500  1.0  -0.1246
  C  C666  1  0.448160  0.150520  0.283100  1.0  -0.1178
  C  C667  1  0.520400  0.104620  0.249800  1.0  -0.0452
  C  C668  1  0.490770  0.167570  0.289100  1.0  -0.0588
  C  C669  1  0.527440  0.145090  0.272500  1.0  -0.1395
  C  C670  1  0.575230  0.162820  0.277070  1.0  0.7078
  C  C671  1  0.685310  0.336280  0.273300  1.0  0.6807
  C  C672  1  0.679030  0.385960  0.270000  1.0  -0.1365
  C  C673  1  0.640080  0.406160  0.286700  1.0  -0.072
  C  C674  1  0.711130  0.413570  0.250300  1.0  -0.0616
  C  C675  1  0.633110  0.452090  0.281500  1.0  -0.1165
  C  C676  1  0.705220  0.459080  0.244400  1.0  -0.1081
  C  C677  1  0.664570  0.479530  0.260600  1.0  0.0517
  C  C678  1  0.691070  0.560830  0.258700  1.0  0.1866
  C  C679  1  0.656520  0.528870  0.255190  1.0  0.0166
  C  C680  1  0.613840  0.545120  0.247550  1.0  -0.0772
  C  C681  1  0.605890  0.591900  0.244130  1.0  0.0067
  C  C682  1  0.642760  0.619600  0.249500  1.0  0.1906
  C  C683  1  0.559780  0.610080  0.239200  1.0  0.0321
  C  C684  1  0.522510  0.588070  0.256500  1.0  -0.1247
  C  C685  1  0.551840  0.650520  0.216900  1.0  -0.1173
  C  C686  1  0.479600  0.604620  0.250200  1.0  -0.0458
  C  C687  1  0.509230  0.667570  0.210900  1.0  -0.0559
  C  C688  1  0.472560  0.645090  0.227500  1.0  -0.1387
  C  C689  1  0.424770  0.662820  0.222930  1.0  0.7097
  C  C690  1  0.185310  0.163720  0.726700  1.0  0.6801
  C  C691  1  0.179030  0.114040  0.730000  1.0  -0.1364
  C  C692  1  0.140080  0.093840  0.713300  1.0  -0.0715
  C  C693  1  0.211130  0.086430  0.749700  1.0  -0.0639
  C  C694  1  0.133110  0.047910  0.718500  1.0  -0.116
  C  C695  1  0.205220  0.040920  0.755600  1.0  -0.1104
  C  C696  1  0.164570  0.020470  0.739400  1.0  0.052
  C  C697  1  0.191070  0.939170  0.741300  1.0  0.188
  C  C698  1  0.156520  0.971130  0.744810  1.0  0.0166
  C  C699  1  0.113840  0.954880  0.752450  1.0  -0.077
  C  C700  1  0.105890  0.908100  0.755870  1.0  0.0075
  C  C701  1  0.142760  0.880400  0.750500  1.0  0.1924
  C  C702  1  0.059780  0.889920  0.760800  1.0  0.0327
  C  C703  1  0.022510  0.911930  0.743500  1.0  -0.1264
  C  C704  1  0.051840  0.849480  0.783100  1.0  -0.1163
  C  C705  1  0.979600  0.895380  0.749800  1.0  -0.0472
  C  C706  1  0.009230  0.832430  0.789100  1.0  -0.0579
  C  C707  1  0.972560  0.854910  0.772500  1.0  -0.1361
  C  C708  1  0.924770  0.837180  0.777070  1.0  0.7135
  C  C709  1  0.773300  0.814690  0.663720  1.0  0.7022
  C  C710  1  0.770000  0.820970  0.614040  1.0  -0.1391
  C  C711  1  0.786700  0.859920  0.593840  1.0  -0.0724
  C  C712  1  0.750300  0.788870  0.586430  1.0  -0.0668
  C  C713  1  0.781500  0.866890  0.547910  1.0  -0.1178
  C  C714  1  0.744400  0.794780  0.540920  1.0  -0.1061
  C  C715  1  0.760600  0.835430  0.520470  1.0  0.0503
  C  C716  1  0.758700  0.808930  0.439170  1.0  0.1857
  C  C717  1  0.755190  0.843480  0.471130  1.0  0.015
  C  C718  1  0.747550  0.886160  0.454880  1.0  -0.0752
  C  C719  1  0.744130  0.894110  0.408100  1.0  0.0045
  C  C720  1  0.749500  0.857240  0.380400  1.0  0.1888
  C  C721  1  0.739200  0.940220  0.389920  1.0  0.0323
  C  C722  1  0.756500  0.977490  0.411930  1.0  -0.1246
  C  C723  1  0.716900  0.948160  0.349480  1.0  -0.1143
  C  C724  1  0.750200  0.020400  0.395380  1.0  -0.0432
  C  C725  1  0.710900  0.990770  0.332430  1.0  -0.0599
  C  C726  1  0.727500  0.027440  0.354910  1.0  -0.1325
  C  C727  1  0.722930  0.075230  0.337180  1.0  0.7053
  C  C728  1  0.226700  0.314690  0.836280  1.0  0.7014
  C  C729  1  0.230000  0.320970  0.885960  1.0  -0.1369
  C  C730  1  0.213300  0.359920  0.906160  1.0  -0.0736
  C  C731  1  0.249700  0.288870  0.913570  1.0  -0.063
  C  C732  1  0.218500  0.366890  0.952090  1.0  -0.1182
  C  C733  1  0.255600  0.294780  0.959080  1.0  -0.1039
  C  C734  1  0.239400  0.335430  0.979530  1.0  0.0494
  C  C735  1  0.241300  0.308930  0.060830  1.0  0.1864
  C  C736  1  0.244810  0.343480  0.028870  1.0  0.0168
  C  C737  1  0.252450  0.386160  0.045120  1.0  -0.0753
  C  C738  1  0.255870  0.394110  0.091900  1.0  0.0036
  C  C739  1  0.250500  0.357240  0.119600  1.0  0.1938
  C  C740  1  0.260800  0.440220  0.110080  1.0  0.0317
  C  C741  1  0.243500  0.477490  0.088070  1.0  -0.1246
  C  C742  1  0.283100  0.448160  0.150520  1.0  -0.1148
  C  C743  1  0.249800  0.520400  0.104620  1.0  -0.0437
  C  C744  1  0.289100  0.490770  0.167570  1.0  -0.0607
  C  C745  1  0.272500  0.527440  0.145090  1.0  -0.1323
  C  C746  1  0.277070  0.575230  0.162820  1.0  0.7051
  C  C747  1  0.273300  0.685310  0.336280  1.0  0.6865
  C  C748  1  0.270000  0.679030  0.385960  1.0  -0.1371
  C  C749  1  0.286700  0.640080  0.406160  1.0  -0.0724
  C  C750  1  0.250300  0.711130  0.413570  1.0  -0.0678
  C  C751  1  0.281500  0.633110  0.452090  1.0  -0.1164
  C  C752  1  0.244400  0.705220  0.459080  1.0  -0.1091
  C  C753  1  0.260600  0.664570  0.479530  1.0  0.0504
  C  C754  1  0.258700  0.691070  0.560830  1.0  0.1864
  C  C755  1  0.255190  0.656520  0.528870  1.0  0.0155
  C  C756  1  0.247550  0.613840  0.545120  1.0  -0.0749
  C  C757  1  0.244130  0.605890  0.591900  1.0  0.0033
  C  C758  1  0.249500  0.642760  0.619600  1.0  0.1906
  C  C759  1  0.239200  0.559780  0.610080  1.0  0.0318
  C  C760  1  0.256500  0.522510  0.588070  1.0  -0.126
  C  C761  1  0.216900  0.551840  0.650520  1.0  -0.1166
  C  C762  1  0.250200  0.479600  0.604620  1.0  -0.0441
  C  C763  1  0.210900  0.509230  0.667570  1.0  -0.059
  C  C764  1  0.227500  0.472560  0.645090  1.0  -0.1343
  C  C765  1  0.222930  0.424770  0.662820  1.0  0.7071
  C  C766  1  0.726700  0.185310  0.163720  1.0  0.688
  C  C767  1  0.730000  0.179030  0.114040  1.0  -0.1408
  C  C768  1  0.713300  0.140080  0.093840  1.0  -0.0721
  C  C769  1  0.749700  0.211130  0.086430  1.0  -0.0662
  C  C770  1  0.718500  0.133110  0.047910  1.0  -0.1168
  C  C771  1  0.755600  0.205220  0.040920  1.0  -0.1064
  C  C772  1  0.739400  0.164570  0.020470  1.0  0.049
  C  C773  1  0.741300  0.191070  0.939170  1.0  0.1885
  C  C774  1  0.744810  0.156520  0.971130  1.0  0.0148
  C  C775  1  0.752450  0.113840  0.954880  1.0  -0.0748
  C  C776  1  0.755870  0.105890  0.908100  1.0  0.0051
  C  C777  1  0.750500  0.142760  0.880400  1.0  0.1916
  C  C778  1  0.760800  0.059780  0.889920  1.0  0.0316
  C  C779  1  0.743500  0.022510  0.911930  1.0  -0.1253
  C  C780  1  0.783100  0.051840  0.849480  1.0  -0.1155
  C  C781  1  0.749800  0.979600  0.895380  1.0  -0.0447
  C  C782  1  0.789100  0.009230  0.832430  1.0  -0.0586
  C  C783  1  0.772500  0.972560  0.854910  1.0  -0.135
  C  C784  1  0.777070  0.924770  0.837180  1.0  0.7064
  N  N785  1  0.605010  0.244030  0.185250  1.0  -0.4107
  N  N786  1  0.894990  0.755970  0.685250  1.0  -0.4119
  N  N787  1  0.394990  0.744030  0.314750  1.0  -0.4116
  N  N788  1  0.105010  0.255970  0.814750  1.0  -0.4127
  N  N789  1  0.185250  0.605010  0.244030  1.0  -0.4127
  N  N790  1  0.685250  0.894990  0.755970  1.0  -0.4131
  N  N791  1  0.314750  0.394990  0.744030  1.0  -0.4125
  N  N792  1  0.814750  0.105010  0.255970  1.0  -0.4109
  N  N793  1  0.244030  0.185250  0.605010  1.0  -0.4119
  N  N794  1  0.755970  0.685250  0.894990  1.0  -0.413
  N  N795  1  0.744030  0.314750  0.394990  1.0  -0.413
  N  N796  1  0.255970  0.814750  0.105010  1.0  -0.4133
  N  N797  1  0.394990  0.755970  0.814750  1.0  -0.4121
  N  N798  1  0.105010  0.244030  0.314750  1.0  -0.4111
  N  N799  1  0.605010  0.255970  0.685250  1.0  -0.4121
  N  N800  1  0.894990  0.744030  0.185250  1.0  -0.4116
  N  N801  1  0.814750  0.394990  0.755970  1.0  -0.4133
  N  N802  1  0.314750  0.105010  0.244030  1.0  -0.4104
  N  N803  1  0.685250  0.605010  0.255970  1.0  -0.4132
  N  N804  1  0.185250  0.894990  0.744030  1.0  -0.4125
  N  N805  1  0.755970  0.814750  0.394990  1.0  -0.4131
  N  N806  1  0.244030  0.314750  0.105010  1.0  -0.4116
  N  N807  1  0.255970  0.685250  0.605010  1.0  -0.4132
  N  N808  1  0.744030  0.185250  0.894990  1.0  -0.4133
  O  O809  1  0.315560  0.201820  0.156520  1.0  -0.752
  O  O810  1  0.317870  0.247460  0.218110  1.0  -0.6868
  O  O811  1  0.641000  0.258690  0.894200  1.0  -0.6984
  O  O812  1  0.698750  0.298890  0.919670  1.0  -0.7195
  O  O813  1  0.247500  0.173030  0.221050  1.0  -0.9639
  O  O814  1  0.184440  0.798180  0.656520  1.0  -0.7522
  O  O815  1  0.182130  0.752540  0.718110  1.0  -0.6861
  O  O816  1  0.859000  0.741310  0.394200  1.0  -0.7004
  O  O817  1  0.801250  0.701110  0.419670  1.0  -0.7184
  O  O818  1  0.252500  0.826970  0.721050  1.0  -0.9639
  O  O819  1  0.684440  0.701820  0.343480  1.0  -0.7508
  O  O820  1  0.682130  0.747460  0.281890  1.0  -0.6886
  O  O821  1  0.359000  0.758690  0.605800  1.0  -0.6997
  O  O822  1  0.301250  0.798890  0.580330  1.0  -0.7182
  O  O823  1  0.752500  0.673030  0.278950  1.0  -0.9641
  O  O824  1  0.815560  0.298180  0.843480  1.0  -0.7488
  O  O825  1  0.817870  0.252540  0.781890  1.0  -0.6871
  O  O826  1  0.141000  0.241310  0.105800  1.0  -0.6986
  O  O827  1  0.198750  0.201110  0.080330  1.0  -0.719
  O  O828  1  0.747500  0.326970  0.778950  1.0  -0.963
  O  O829  1  0.156520  0.315560  0.201820  1.0  -0.7501
  O  O830  1  0.218110  0.317870  0.247460  1.0  -0.687
  O  O831  1  0.894200  0.641000  0.258690  1.0  -0.6948
  O  O832  1  0.919670  0.698750  0.298890  1.0  -0.7217
  O  O833  1  0.221050  0.247500  0.173030  1.0  -0.9635
  O  O834  1  0.656520  0.184440  0.798180  1.0  -0.7476
  O  O835  1  0.718110  0.182130  0.752540  1.0  -0.687
  O  O836  1  0.394200  0.859000  0.741310  1.0  -0.6934
  O  O837  1  0.419670  0.801250  0.701110  1.0  -0.7228
  O  O838  1  0.721050  0.252500  0.826970  1.0  -0.964
  O  O839  1  0.343480  0.684440  0.701820  1.0  -0.7517
  O  O840  1  0.281890  0.682130  0.747460  1.0  -0.6828
  O  O841  1  0.605800  0.359000  0.758690  1.0  -0.6953
  O  O842  1  0.580330  0.301250  0.798890  1.0  -0.7241
  O  O843  1  0.278950  0.752500  0.673030  1.0  -0.9646
  O  O844  1  0.843480  0.815560  0.298180  1.0  -0.7504
  O  O845  1  0.781890  0.817870  0.252540  1.0  -0.6846
  O  O846  1  0.105800  0.141000  0.241310  1.0  -0.6943
  O  O847  1  0.080330  0.198750  0.201110  1.0  -0.7234
  O  O848  1  0.778950  0.747500  0.326970  1.0  -0.9639
  O  O849  1  0.201820  0.156520  0.315560  1.0  -0.7467
  O  O850  1  0.247460  0.218110  0.317870  1.0  -0.6894
  O  O851  1  0.258690  0.894200  0.641000  1.0  -0.6957
  O  O852  1  0.298890  0.919670  0.698750  1.0  -0.7231
  O  O853  1  0.173030  0.221050  0.247500  1.0  -0.9648
  O  O854  1  0.798180  0.656520  0.184440  1.0  -0.7479
  O  O855  1  0.752540  0.718110  0.182130  1.0  -0.6868
  O  O856  1  0.741310  0.394200  0.859000  1.0  -0.6961
  O  O857  1  0.701110  0.419670  0.801250  1.0  -0.7216
  O  O858  1  0.826970  0.721050  0.252500  1.0  -0.9638
  O  O859  1  0.701820  0.343480  0.684440  1.0  -0.7494
  O  O860  1  0.747460  0.281890  0.682130  1.0  -0.6915
  O  O861  1  0.758690  0.605800  0.359000  1.0  -0.6974
  O  O862  1  0.798890  0.580330  0.301250  1.0  -0.7218
  O  O863  1  0.673030  0.278950  0.752500  1.0  -0.9645
  O  O864  1  0.298180  0.843480  0.815560  1.0  -0.7505
  O  O865  1  0.252540  0.781890  0.817870  1.0  -0.6868
  O  O866  1  0.241310  0.105800  0.141000  1.0  -0.698
  O  O867  1  0.201110  0.080330  0.198750  1.0  -0.7212
  O  O868  1  0.326970  0.778950  0.747500  1.0  -0.9637
  O  O869  1  0.170740  0.170740  0.170740  1.0  -0.9623
  O  O870  1  0.329260  0.829260  0.670740  1.0  -0.9587
  O  O871  1  0.829260  0.670740  0.329260  1.0  -0.9602
  O  O872  1  0.670740  0.329260  0.829260  1.0  -0.9622
  O  O873  1  0.684440  0.798180  0.843480  1.0  -0.7502
  O  O874  1  0.682130  0.752540  0.781890  1.0  -0.6877
  O  O875  1  0.359000  0.741310  0.105800  1.0  -0.7007
  O  O876  1  0.301250  0.701110  0.080330  1.0  -0.7183
  O  O877  1  0.752500  0.826970  0.778950  1.0  -0.9636
  O  O878  1  0.815560  0.201820  0.343480  1.0  -0.7492
  O  O879  1  0.817870  0.247460  0.281890  1.0  -0.6875
  O  O880  1  0.141000  0.258690  0.605800  1.0  -0.6984
  O  O881  1  0.198750  0.298890  0.580330  1.0  -0.7191
  O  O882  1  0.747500  0.173030  0.278950  1.0  -0.9637
  O  O883  1  0.315560  0.298180  0.656520  1.0  -0.7509
  O  O884  1  0.317870  0.252540  0.718110  1.0  -0.6852
  O  O885  1  0.641000  0.241310  0.394200  1.0  -0.6981
  O  O886  1  0.698750  0.201110  0.419670  1.0  -0.7196
  O  O887  1  0.247500  0.326970  0.721050  1.0  -0.9636
  O  O888  1  0.184440  0.701820  0.156520  1.0  -0.7502
  O  O889  1  0.182130  0.747460  0.218110  1.0  -0.6886
  O  O890  1  0.859000  0.758690  0.894200  1.0  -0.7003
  O  O891  1  0.801250  0.798890  0.919670  1.0  -0.7191
  O  O892  1  0.252500  0.673030  0.221050  1.0  -0.964
  O  O893  1  0.843480  0.684440  0.798180  1.0  -0.7509
  O  O894  1  0.781890  0.682130  0.752540  1.0  -0.6843
  O  O895  1  0.105800  0.359000  0.741310  1.0  -0.6944
  O  O896  1  0.080330  0.301250  0.701110  1.0  -0.7237
  O  O897  1  0.778950  0.752500  0.826970  1.0  -0.9644
  O  O898  1  0.343480  0.815560  0.201820  1.0  -0.751
  O  O899  1  0.281890  0.817870  0.247460  1.0  -0.6833
  O  O900  1  0.605800  0.141000  0.258690  1.0  -0.6957
  O  O901  1  0.580330  0.198750  0.298890  1.0  -0.7234
  O  O902  1  0.278950  0.747500  0.173030  1.0  -0.9641
  O  O903  1  0.656520  0.315560  0.298180  1.0  -0.7499
  O  O904  1  0.718110  0.317870  0.252540  1.0  -0.6863
  O  O905  1  0.394200  0.641000  0.241310  1.0  -0.6938
  O  O906  1  0.419670  0.698750  0.201110  1.0  -0.7226
  O  O907  1  0.721050  0.247500  0.326970  1.0  -0.9633
  O  O908  1  0.156520  0.184440  0.701820  1.0  -0.7479
  O  O909  1  0.218110  0.182130  0.747460  1.0  -0.6862
  O  O910  1  0.894200  0.859000  0.758690  1.0  -0.695
  O  O911  1  0.919670  0.801250  0.798890  1.0  -0.7228
  O  O912  1  0.221050  0.252500  0.673030  1.0  -0.9643
  O  O913  1  0.798180  0.843480  0.684440  1.0  -0.7494
  O  O914  1  0.752540  0.781890  0.682130  1.0  -0.6866
  O  O915  1  0.741310  0.105800  0.359000  1.0  -0.6972
  O  O916  1  0.701110  0.080330  0.301250  1.0  -0.7211
  O  O917  1  0.826970  0.778950  0.752500  1.0  -0.9638
  O  O918  1  0.201820  0.343480  0.815560  1.0  -0.7501
  O  O919  1  0.247460  0.281890  0.817870  1.0  -0.6887
  O  O920  1  0.258690  0.605800  0.141000  1.0  -0.6972
  O  O921  1  0.298890  0.580330  0.198750  1.0  -0.723
  O  O922  1  0.173030  0.278950  0.747500  1.0  -0.9647
  O  O923  1  0.298180  0.656520  0.315560  1.0  -0.7475
  O  O924  1  0.252540  0.718110  0.317870  1.0  -0.6873
  O  O925  1  0.241310  0.394200  0.641000  1.0  -0.6965
  O  O926  1  0.201110  0.419670  0.698750  1.0  -0.7218
  O  O927  1  0.326970  0.721050  0.247500  1.0  -0.9637
  O  O928  1  0.701820  0.156520  0.184440  1.0  -0.7456
  O  O929  1  0.747460  0.218110  0.182130  1.0  -0.6906
  O  O930  1  0.758690  0.894200  0.859000  1.0  -0.6962
  O  O931  1  0.798890  0.919670  0.801250  1.0  -0.7214
  O  O932  1  0.673030  0.221050  0.252500  1.0  -0.9647
  O  O933  1  0.829260  0.829260  0.829260  1.0  -0.9598
  O  O934  1  0.670740  0.170740  0.329260  1.0  -0.9631
  O  O935  1  0.170740  0.329260  0.670740  1.0  -0.9615
  O  O936  1  0.329260  0.670740  0.170740  1.0  -0.9591
