# generated using pymatgen
data_Zn4H28C58O13
_symmetry_space_group_name_H-M   'P 1'
_cell_length_a   51.42250000
_cell_length_b   51.44100000
_cell_length_c   191.66200000
_cell_angle_alpha   90.05430000
_cell_angle_beta   89.92830000
_cell_angle_gamma   120.05100000
_symmetry_Int_Tables_number   1
_chemical_formula_structural   Zn4H28C58O13
_chemical_formula_sum   'Zn216 H1512 C3132 O702'
_cell_volume   438839.23492199
_cell_formula_units_Z   54
loop_
 _symmetry_equiv_pos_site_id
 _symmetry_equiv_pos_as_xyz
  1  'x, y, z'
loop_
 _atom_site_type_symbol
 _atom_site_label
 _atom_site_symmetry_multiplicity
 _atom_site_fract_x
 _atom_site_fract_y
 _atom_site_fract_z
 _atom_site_occupancy
 _atom_site_charge
  Zn  Zn1  1  0.275760  0.415570  0.171850  1.0  1.103
  Zn  Zn2  1  0.942430  0.748900  0.505180  1.0  1.1025
  Zn  Zn3  1  0.609090  0.082230  0.838510  1.0  1.1024
  Zn  Zn4  1  0.310360  0.468180  0.163600  1.0  1.0473
  Zn  Zn5  1  0.977030  0.801520  0.496930  1.0  1.0689
  Zn  Zn6  1  0.643690  0.134850  0.830270  1.0  1.0705
  Zn  Zn7  1  0.273270  0.410500  0.156750  1.0  1.0472
  Zn  Zn8  1  0.939940  0.743840  0.490090  1.0  1.0813
  Zn  Zn9  1  0.606610  0.077170  0.823420  1.0  1.0812
  Zn  Zn10  1  0.245510  0.439980  0.163950  1.0  1.0966
  Zn  Zn11  1  0.912170  0.773320  0.497290  1.0  1.095
  Zn  Zn12  1  0.578840  0.106650  0.830620  1.0  1.0961
  Zn  Zn13  1  0.348600  0.333020  0.065480  1.0  1.0859
  Zn  Zn14  1  0.015260  0.666360  0.398820  1.0  1.0807
  Zn  Zn15  1  0.681930  0.999690  0.732150  1.0  1.0836
  Zn  Zn16  1  0.353410  0.335050  0.050470  1.0  1.0919
  Zn  Zn17  1  0.020080  0.668380  0.383800  1.0  1.0922
  Zn  Zn18  1  0.686750  0.001720  0.717130  1.0  1.0932
  Zn  Zn19  1  0.406150  0.370590  0.058610  1.0  1.0379
  Zn  Zn20  1  0.072810  0.703920  0.391940  1.0  1.0379
  Zn  Zn21  1  0.739480  0.037250  0.725270  1.0  1.038
  Zn  Zn22  1  0.379100  0.305960  0.058360  1.0  1.0694
  Zn  Zn23  1  0.045770  0.639290  0.391690  1.0  1.0692
  Zn  Zn24  1  0.712440  0.972630  0.725020  1.0  1.068
  Zn  Zn25  1  0.542110  0.939950  0.163710  1.0  1.0337
  Zn  Zn26  1  0.208780  0.273280  0.497040  1.0  1.0339
  Zn  Zn27  1  0.875450  0.606610  0.830370  1.0  1.0336
  Zn  Zn28  1  0.595150  0.957790  0.171780  1.0  1.0911
  Zn  Zn29  1  0.261820  0.291120  0.505120  1.0  1.092
  Zn  Zn30  1  0.928480  0.624450  0.838450  1.0  1.0942
  Zn  Zn31  1  0.569370  0.902660  0.163990  1.0  1.0782
  Zn  Zn32  1  0.236030  0.235990  0.497320  1.0  1.1048
  Zn  Zn33  1  0.902700  0.569320  0.830660  1.0  1.0812
  Zn  Zn34  1  0.599560  0.959940  0.156760  1.0  1.0784
  Zn  Zn35  1  0.266230  0.293280  0.490090  1.0  1.0782
  Zn  Zn36  1  0.932900  0.626610  0.823420  1.0  1.0785
  Zn  Zn37  1  0.681890  0.777420  0.232020  1.0  1.0526
  Zn  Zn38  1  0.348560  0.110750  0.565350  1.0  1.0524
  Zn  Zn39  1  0.015230  0.444080  0.898680  1.0  1.0511
  Zn  Zn40  1  0.739380  0.797770  0.225100  1.0  1.0656
  Zn  Zn41  1  0.406050  0.131110  0.558430  1.0  1.0682
  Zn  Zn42  1  0.072720  0.464440  0.891760  1.0  1.0665
  Zn  Zn43  1  0.686470  0.779320  0.216920  1.0  1.1064
  Zn  Zn44  1  0.353140  0.112650  0.550250  1.0  1.108
  Zn  Zn45  1  0.019800  0.445980  0.883580  1.0  1.1065
  Zn  Zn46  1  0.711220  0.834410  0.224710  1.0  1.0963
  Zn  Zn47  1  0.377880  0.167740  0.558050  1.0  1.1024
  Zn  Zn48  1  0.044550  0.501080  0.891380  1.0  1.0995
  Zn  Zn49  1  0.874570  0.364520  0.330250  1.0  1.0341
  Zn  Zn50  1  0.541240  0.697850  0.663580  1.0  1.0339
  Zn  Zn51  1  0.207900  0.031190  0.996910  1.0  1.0335
  Zn  Zn52  1  0.903090  0.430940  0.330770  1.0  1.0348
  Zn  Zn53  1  0.569750  0.764270  0.664110  1.0  1.0378
  Zn  Zn54  1  0.236420  0.097610  0.997440  1.0  1.0359
  Zn  Zn55  1  0.258640  0.066620  0.003900  1.0  1.0421
  Zn  Zn56  1  0.925310  0.399950  0.337230  1.0  1.0419
  Zn  Zn57  1  0.591980  0.733290  0.670570  1.0  1.0423
  Zn  Zn58  1  0.933470  0.403010  0.323210  1.0  1.0276
  Zn  Zn59  1  0.600140  0.736340  0.656550  1.0  1.0258
  Zn  Zn60  1  0.266810  0.069670  0.989880  1.0  1.0266
  Zn  Zn61  1  0.005420  0.322380  0.217110  1.0  1.0931
  Zn  Zn62  1  0.672080  0.655710  0.550450  1.0  1.0928
  Zn  Zn63  1  0.338750  0.989050  0.883780  1.0  1.0918
  Zn  Zn64  1  0.008070  0.326560  0.232170  1.0  1.0474
  Zn  Zn65  1  0.674740  0.659890  0.565500  1.0  1.0472
  Zn  Zn66  1  0.341400  0.993220  0.898830  1.0  1.0823
  Zn  Zn67  1  0.971090  0.269150  0.225190  1.0  1.0465
  Zn  Zn68  1  0.637750  0.602490  0.558520  1.0  1.0392
  Zn  Zn69  1  0.304420  0.935820  0.891860  1.0  1.0685
  Zn  Zn70  1  0.035860  0.297430  0.224720  1.0  1.0432
  Zn  Zn71  1  0.702520  0.630760  0.558060  1.0  1.0807
  Zn  Zn72  1  0.369190  0.964090  0.891390  1.0  1.0807
  Zn  Zn73  1  0.717650  0.747050  0.005210  1.0  1.0935
  Zn  Zn74  1  0.384310  0.080390  0.338550  1.0  1.0974
  Zn  Zn75  1  0.050980  0.413720  0.671880  1.0  1.0939
  Zn  Zn76  1  0.382230  0.075620  0.323520  1.0  1.0792
  Zn  Zn77  1  0.048900  0.408950  0.656850  1.0  1.0796
  Zn  Zn78  1  0.715560  0.742290  0.990180  1.0  1.0819
  Zn  Zn79  1  0.402450  0.133230  0.330380  1.0  1.0333
  Zn  Zn80  1  0.069110  0.466560  0.663720  1.0  1.0371
  Zn  Zn81  1  0.735780  0.799900  0.997050  1.0  1.0336
  Zn  Zn82  1  0.439480  0.105660  0.330770  1.0  1.1064
  Zn  Zn83  1  0.106140  0.438990  0.664110  1.0  1.1008
  Zn  Zn84  1  0.772810  0.772330  0.997440  1.0  1.0806
  Zn  Zn85  1  0.068800  0.697940  0.163760  1.0  1.0581
  Zn  Zn86  1  0.735470  0.031270  0.497090  1.0  1.0601
  Zn  Zn87  1  0.402130  0.364600  0.830430  1.0  1.0384
  Zn  Zn88  1  0.050870  0.732890  0.171930  1.0  1.0945
  Zn  Zn89  1  0.717540  0.066220  0.505260  1.0  1.0942
  Zn  Zn90  1  0.384200  0.399560  0.838590  1.0  1.0946
  Zn  Zn91  1  0.105910  0.762580  0.164100  1.0  1.1017
  Zn  Zn92  1  0.772570  0.095920  0.497430  1.0  1.1014
  Zn  Zn93  1  0.439240  0.429250  0.830770  1.0  1.0974
  Zn  Zn94  1  0.048650  0.735280  0.156890  1.0  1.0806
  Zn  Zn95  1  0.715310  0.068610  0.490220  1.0  1.0799
  Zn  Zn96  1  0.381980  0.401940  0.823560  1.0  1.0829
  Zn  Zn97  1  0.672090  0.113310  0.050450  1.0  1.1084
  Zn  Zn98  1  0.338750  0.446640  0.383790  1.0  1.1054
  Zn  Zn99  1  0.005420  0.779970  0.717120  1.0  1.1108
  Zn  Zn100  1  0.637230  0.131030  0.058710  1.0  1.0367
  Zn  Zn101  1  0.303900  0.464360  0.392040  1.0  1.0385
  Zn  Zn102  1  0.970560  0.797690  0.725380  1.0  1.0381
  Zn  Zn103  1  0.674370  0.110390  0.065520  1.0  1.0961
  Zn  Zn104  1  0.341040  0.443720  0.398850  1.0  1.0991
  Zn  Zn105  1  0.007700  0.777050  0.732190  1.0  1.099
  Zn  Zn106  1  0.701980  0.167880  0.058460  1.0  1.0966
  Zn  Zn107  1  0.368650  0.501210  0.391790  1.0  1.098
  Zn  Zn108  1  0.035320  0.834540  0.725130  1.0  1.0953
  Zn  Zn109  1  0.643430  0.605250  0.330350  1.0  1.0655
  Zn  Zn110  1  0.310100  0.938580  0.663680  1.0  1.0682
  Zn  Zn111  1  0.976760  0.271910  0.997010  1.0  1.0662
  Zn  Zn112  1  0.606050  0.625340  0.323510  1.0  1.0806
  Zn  Zn113  1  0.272710  0.958680  0.656840  1.0  1.0799
  Zn  Zn114  1  0.939380  0.292010  0.990180  1.0  1.0807
  Zn  Zn115  1  0.578640  0.568510  0.330970  1.0  1.0435
  Zn  Zn116  1  0.245310  0.901840  0.664300  1.0  1.0784
  Zn  Zn117  1  0.911970  0.235180  0.997640  1.0  1.037
  Zn  Zn118  1  0.942630  0.290630  0.005230  1.0  1.0917
  Zn  Zn119  1  0.609300  0.623970  0.338560  1.0  1.0897
  Zn  Zn120  1  0.275970  0.957300  0.671900  1.0  1.0922
  Zn  Zn121  1  0.175140  0.973440  0.224760  1.0  1.1041
  Zn  Zn122  1  0.841810  0.306770  0.558090  1.0  1.101
  Zn  Zn123  1  0.508480  0.640110  0.891420  1.0  1.0986
  Zn  Zn124  1  0.211600  0.038230  0.225190  1.0  1.0606
  Zn  Zn125  1  0.878270  0.371560  0.558530  1.0  1.0613
  Zn  Zn126  1  0.544930  0.704890  0.891860  1.0  1.0606
  Zn  Zn127  1  0.232260  0.001280  0.232020  1.0  1.0866
  Zn  Zn128  1  0.898930  0.334610  0.565350  1.0  1.0865
  Zn  Zn129  1  0.565600  0.667940  0.898680  1.0  1.0856
  Zn  Zn130  1  0.230110  0.004000  0.216910  1.0  1.0903
  Zn  Zn131  1  0.896780  0.337330  0.550240  1.0  1.0897
  Zn  Zn132  1  0.563440  0.670660  0.883580  1.0  1.0893
  Zn  Zn133  1  0.087090  0.733880  0.279480  1.0  1.0675
  Zn  Zn134  1  0.753750  0.067210  0.612810  1.0  1.0694
  Zn  Zn135  1  0.420420  0.400540  0.946140  1.0  1.0701
  Zn  Zn136  1  0.035450  0.710350  0.270410  1.0  1.0892
  Zn  Zn137  1  0.702120  0.043680  0.603750  1.0  1.0546
  Zn  Zn138  1  0.368790  0.377010  0.937080  1.0  1.0556
  Zn  Zn139  1  0.055390  0.670740  0.276030  1.0  1.1026
  Zn  Zn140  1  0.722050  0.004070  0.609370  1.0  1.1047
  Zn  Zn141  1  0.388720  0.337400  0.942700  1.0  1.1056
  Zn  Zn142  1  0.027200  0.694320  0.285030  1.0  1.0529
  Zn  Zn143  1  0.693870  0.027660  0.618360  1.0  1.0509
  Zn  Zn144  1  0.360530  0.360990  0.951700  1.0  1.0516
  Zn  Zn145  1  0.314180  0.429240  0.285370  1.0  1.0635
  Zn  Zn146  1  0.980850  0.762580  0.618710  1.0  1.0672
  Zn  Zn147  1  0.647520  0.095910  0.952040  1.0  1.0989
  Zn  Zn148  1  0.298670  0.421550  0.270720  1.0  1.065
  Zn  Zn149  1  0.965340  0.754880  0.604060  1.0  1.0624
  Zn  Zn150  1  0.632000  0.088210  0.937390  1.0  1.0652
  Zn  Zn151  1  0.274680  0.449370  0.279750  1.0  1.0707
  Zn  Zn152  1  0.941340  0.782700  0.613090  1.0  1.0701
  Zn  Zn153  1  0.608010  0.116040  0.946420  1.0  1.0721
  Zn  Zn154  1  0.338010  0.481180  0.276400  1.0  1.0705
  Zn  Zn155  1  0.004680  0.814510  0.609740  1.0  1.0724
  Zn  Zn156  1  0.671350  0.147850  0.943070  1.0  1.0729
  Zn  Zn157  1  0.558090  0.920690  0.279540  1.0  1.0656
  Zn  Zn158  1  0.224760  0.254020  0.612870  1.0  1.0655
  Zn  Zn159  1  0.891430  0.587350  0.946200  1.0  1.0656
  Zn  Zn160  1  0.526880  0.952860  0.276200  1.0  1.0719
  Zn  Zn161  1  0.193550  0.286200  0.609530  1.0  1.0743
  Zn  Zn162  1  0.860210  0.619530  0.942860  1.0  1.0753
  Zn  Zn163  1  0.578520  0.980100  0.285270  1.0  1.0695
  Zn  Zn164  1  0.245190  0.313440  0.618600  1.0  1.0603
  Zn  Zn165  1  0.911850  0.646770  0.951930  1.0  1.0604
  Zn  Zn166  1  0.586500  0.972670  0.270600  1.0  1.056
  Zn  Zn167  1  0.253170  0.306010  0.603930  1.0  1.0561
  Zn  Zn168  1  0.919830  0.639340  0.937270  1.0  1.055
  Zn  Zn169  1  0.942370  0.255740  0.112760  1.0  1.0776
  Zn  Zn170  1  0.609030  0.589070  0.446100  1.0  1.0767
  Zn  Zn171  1  0.275700  0.922400  0.779430  1.0  1.0769
  Zn  Zn172  1  0.966640  0.307100  0.103620  1.0  1.0657
  Zn  Zn173  1  0.633310  0.640440  0.436950  1.0  1.0639
  Zn  Zn174  1  0.299980  0.973770  0.770290  1.0  1.0662
  Zn  Zn175  1  0.982340  0.315480  0.118270  1.0  1.0585
  Zn  Zn176  1  0.649010  0.648820  0.451610  1.0  1.0914
  Zn  Zn177  1  0.315680  0.982150  0.784940  1.0  1.0867
  Zn  Zn178  1  0.005700  0.286800  0.109350  1.0  1.0753
  Zn  Zn179  1  0.672370  0.620140  0.442690  1.0  1.074
  Zn  Zn180  1  0.339040  0.953470  0.776020  1.0  1.0746
  Zn  Zn181  1  0.879100  0.603930  0.058570  1.0  1.0681
  Zn  Zn182  1  0.545770  0.937260  0.391900  1.0  1.0402
  Zn  Zn183  1  0.212440  0.270590  0.725230  1.0  1.041
  Zn  Zn184  1  0.896770  0.656300  0.050260  1.0  1.094
  Zn  Zn185  1  0.563440  0.989630  0.383600  1.0  1.0996
  Zn  Zn186  1  0.230110  0.322960  0.716930  1.0  1.0994
  Zn  Zn187  1  0.842080  0.631550  0.058270  1.0  1.1003
  Zn  Zn188  1  0.508740  0.964880  0.391600  1.0  1.1003
  Zn  Zn189  1  0.175410  0.298220  0.724930  1.0  1.1023
  Zn  Zn190  1  0.899550  0.661790  0.065340  1.0  1.0991
  Zn  Zn191  1  0.566220  0.995130  0.398670  1.0  1.0994
  Zn  Zn192  1  0.232880  0.328460  0.732010  1.0  1.102
  Zn  Zn193  1  0.225420  0.066990  0.113100  1.0  1.0836
  Zn  Zn194  1  0.892090  0.400320  0.446430  1.0  1.0821
  Zn  Zn195  1  0.558760  0.733650  0.779760  1.0  1.0682
  Zn  Zn196  1  0.193370  0.003390  0.109810  1.0  1.0681
  Zn  Zn197  1  0.860040  0.336720  0.443140  1.0  1.0687
  Zn  Zn198  1  0.526710  0.670050  0.776480  1.0  1.0739
  Zn  Zn199  1  0.252810  0.042450  0.104120  1.0  1.0746
  Zn  Zn200  1  0.919480  0.375790  0.437450  1.0  1.0737
  Zn  Zn201  1  0.586150  0.709120  0.770790  1.0  1.0726
  Zn  Zn202  1  0.245240  0.027560  0.118810  1.0  1.0552
  Zn  Zn203  1  0.911900  0.360900  0.452150  1.0  1.0587
  Zn  Zn204  1  0.578570  0.694230  0.785480  1.0  1.0584
  Zn  Zn205  1  0.694280  0.763250  0.118420  1.0  1.0309
  Zn  Zn206  1  0.360950  0.096580  0.451760  1.0  1.0607
  Zn  Zn207  1  0.027610  0.429910  0.785090  1.0  1.063
  Zn  Zn208  1  0.722080  0.815240  0.109470  1.0  1.0688
  Zn  Zn209  1  0.388750  0.148580  0.442800  1.0  1.0701
  Zn  Zn210  1  0.055420  0.481910  0.776140  1.0  1.0665
  Zn  Zn211  1  0.753780  0.783420  0.112790  1.0  1.0643
  Zn  Zn212  1  0.420450  0.116760  0.446130  1.0  1.0686
  Zn  Zn213  1  0.087110  0.450090  0.779460  1.0  1.0636
  Zn  Zn214  1  0.702170  0.756030  0.103710  1.0  1.0842
  Zn  Zn215  1  0.368840  0.089360  0.437050  1.0  1.0548
  Zn  Zn216  1  0.035500  0.422690  0.770380  1.0  1.0816
  H  H217  1  0.141780  0.331460  0.040990  1.0  0.141
  H  H218  1  0.808450  0.664790  0.374320  1.0  0.1425
  H  H219  1  0.475110  0.998120  0.707660  1.0  0.1466
  H  H220  1  0.066280  0.329580  0.051260  1.0  0.1404
  H  H221  1  0.732950  0.662910  0.384590  1.0  0.1434
  H  H222  1  0.399610  0.996250  0.717920  1.0  0.1412
  H  H223  1  0.139420  0.335820  0.063380  1.0  0.1346
  H  H224  1  0.806080  0.669150  0.396720  1.0  0.1356
  H  H225  1  0.472750  0.002490  0.730050  1.0  0.1377
  H  H226  1  0.279520  0.336350  0.044950  1.0  0.1179
  H  H227  1  0.946190  0.669680  0.378290  1.0  0.1173
  H  H228  1  0.612850  0.003020  0.711620  1.0  0.1183
  H  H229  1  0.267040  0.331490  0.067330  1.0  0.1136
  H  H230  1  0.933710  0.664820  0.400660  1.0  0.1145
  H  H231  1  0.600380  0.998150  0.733990  1.0  0.114
  H  H232  1  0.232340  0.336780  0.043450  1.0  0.1242
  H  H233  1  0.899010  0.670110  0.376780  1.0  0.1242
  H  H234  1  0.565680  0.003440  0.710120  1.0  0.1243
  H  H235  1  0.219640  0.331940  0.065710  1.0  0.131
  H  H236  1  0.886310  0.665270  0.399040  1.0  0.1284
  H  H237  1  0.552970  0.998600  0.732370  1.0  0.129
  H  H238  1  0.061960  0.303830  0.092980  1.0  0.1192
  H  H239  1  0.728620  0.637170  0.426320  1.0  0.1191
  H  H240  1  0.395290  0.970500  0.759650  1.0  0.1192
  H  H241  1  0.002620  0.331890  0.084130  1.0  0.1202
  H  H242  1  0.669290  0.665220  0.417470  1.0  0.1207
  H  H243  1  0.335960  0.998560  0.750800  1.0  0.1205
  H  H244  1  0.087510  0.312410  0.081660  1.0  0.1264
  H  H245  1  0.754180  0.645750  0.415000  1.0  0.1249
  H  H246  1  0.420850  0.979080  0.748330  1.0  0.1287
  H  H247  1  0.028500  0.340330  0.072820  1.0  0.1333
  H  H248  1  0.695170  0.673660  0.406160  1.0  0.1262
  H  H249  1  0.361840  0.006990  0.739490  1.0  0.1262
  H  H250  1  0.046290  0.291770  0.010740  1.0  0.1177
  H  H251  1  0.712950  0.625100  0.344080  1.0  0.1172
  H  H252  1  0.379620  0.958440  0.677410  1.0  0.1174
  H  H253  1  0.995660  0.324190  0.022180  1.0  0.1187
  H  H254  1  0.662330  0.657520  0.355510  1.0  0.1185
  H  H255  1  0.328990  0.990850  0.688840  1.0  0.1184
  H  H256  1  0.079810  0.303100  0.020900  1.0  0.1309
  H  H257  1  0.746470  0.636430  0.354230  1.0  0.1324
  H  H258  1  0.413140  0.969770  0.687560  1.0  0.1325
  H  H259  1  0.029300  0.335430  0.032210  1.0  0.125
  H  H260  1  0.695960  0.668760  0.365540  1.0  0.1232
  H  H261  1  0.362630  0.002090  0.698880  1.0  0.1228
  H  H262  1  0.413180  0.475550  0.110950  1.0  0.1476
  H  H263  1  0.079850  0.808880  0.444280  1.0  0.1429
  H  H264  1  0.746520  0.142210  0.777620  1.0  0.1462
  H  H265  1  0.492580  0.540610  0.100100  1.0  0.1408
  H  H266  1  0.159240  0.873940  0.433430  1.0  0.1429
  H  H267  1  0.825910  0.207280  0.766770  1.0  0.1435
  H  H268  1  0.478840  0.555210  0.121590  1.0  0.1487
  H  H269  1  0.145510  0.888540  0.454930  1.0  0.1429
  H  H270  1  0.812170  0.221870  0.788260  1.0  0.1412
  H  H271  1  0.324330  0.423370  0.139290  1.0  0.1209
  H  H272  1  0.991000  0.756700  0.472620  1.0  0.1212
  H  H273  1  0.657660  0.090040  0.805950  1.0  0.1215
  H  H274  1  0.380130  0.507110  0.150080  1.0  0.1207
  H  H275  1  0.046800  0.840450  0.483420  1.0  0.1223
  H  H276  1  0.713470  0.173780  0.816750  1.0  0.1217
  H  H277  1  0.359760  0.441450  0.129410  1.0  0.128
  H  H278  1  0.026430  0.774780  0.462740  1.0  0.1233
  H  H279  1  0.693090  0.108120  0.796070  1.0  0.126
  H  H280  1  0.415260  0.524800  0.140160  1.0  0.135
  H  H281  1  0.081930  0.858130  0.473500  1.0  0.1347
  H  H282  1  0.748600  0.191470  0.806830  1.0  0.133
  H  H283  1  0.613700  0.687240  0.121880  1.0  0.1206
  H  H284  1  0.280370  0.020570  0.455210  1.0  0.1204
  H  H285  1  0.947030  0.353910  0.788550  1.0  0.1203
  H  H286  1  0.625920  0.675900  0.099990  1.0  0.1188
  H  H287  1  0.292590  0.009230  0.433330  1.0  0.1183
  H  H288  1  0.959250  0.342570  0.766660  1.0  0.1183
  H  H289  1  0.565710  0.639400  0.121760  1.0  0.125
  H  H290  1  0.232380  0.972730  0.455090  1.0  0.1251
  H  H291  1  0.899050  0.306060  0.788420  1.0  0.1238
  H  H292  1  0.577860  0.628100  0.099970  1.0  0.1296
  H  H293  1  0.244520  0.961430  0.433300  1.0  0.1301
  H  H294  1  0.911190  0.294760  0.766640  1.0  0.1268
  H  H295  1  0.444100  0.440890  0.071900  1.0  0.1188
  H  H296  1  0.110760  0.774220  0.405230  1.0  0.1191
  H  H297  1  0.777430  0.107550  0.738570  1.0  0.1183
  H  H298  1  0.361390  0.384090  0.083000  1.0  0.1203
  H  H299  1  0.028050  0.717430  0.416330  1.0  0.1203
  H  H300  1  0.694720  0.050760  0.749670  1.0  0.12
  H  H301  1  0.461540  0.476610  0.081690  1.0  0.1285
  H  H302  1  0.128200  0.809940  0.415030  1.0  0.131
  H  H303  1  0.794870  0.143270  0.748360  1.0  0.1297
  H  H304  1  0.379240  0.420150  0.092760  1.0  0.132
  H  H305  1  0.045910  0.753480  0.426090  1.0  0.1275
  H  H306  1  0.712570  0.086820  0.759420  1.0  0.1274
  H  H307  1  0.314660  0.753830  0.161660  1.0  0.142
  H  H308  1  0.981330  0.087160  0.494990  1.0  0.1468
  H  H309  1  0.648000  0.420500  0.828330  1.0  0.1486
  H  H310  1  0.255320  0.658130  0.161420  1.0  0.1443
  H  H311  1  0.921980  0.991460  0.494750  1.0  0.1442
  H  H312  1  0.588650  0.324800  0.828090  1.0  0.1818
  H  H313  1  0.351040  0.694550  0.161460  1.0  0.1367
  H  H314  1  0.017710  0.027890  0.494800  1.0  0.1352
  H  H315  1  0.684380  0.361220  0.828130  1.0  0.1352
  H  H316  1  0.454370  0.876290  0.162280  1.0  0.1232
  H  H317  1  0.121040  0.209620  0.495610  1.0  0.1234
  H  H318  1  0.787700  0.542950  0.828940  1.0  0.1228
  H  H319  1  0.493920  0.819420  0.163360  1.0  0.1177
  H  H320  1  0.160590  0.152750  0.496690  1.0  0.1204
  H  H321  1  0.827250  0.486090  0.830020  1.0  0.1216
  H  H322  1  0.404090  0.831400  0.161690  1.0  0.1277
  H  H323  1  0.070760  0.164730  0.495030  1.0  0.1244
  H  H324  1  0.737430  0.498070  0.828360  1.0  0.1289
  H  H325  1  0.443360  0.774710  0.162770  1.0  0.1332
  H  H326  1  0.110020  0.108050  0.496100  1.0  0.1328
  H  H327  1  0.776690  0.441380  0.829430  1.0  0.134
  H  H328  1  0.333430  0.554950  0.161820  1.0  0.1214
  H  H329  1  0.000090  0.888280  0.495150  1.0  0.1207
  H  H330  1  0.666760  0.221610  0.828480  1.0  0.1204
  H  H331  1  0.236910  0.515210  0.163020  1.0  0.1164
  H  H332  1  0.903580  0.848550  0.496360  1.0  0.1176
  H  H333  1  0.570240  0.181880  0.829690  1.0  0.117
  H  H334  1  0.338780  0.605110  0.161220  1.0  0.1255
  H  H335  1  0.005450  0.938450  0.494550  1.0  0.1266
  H  H336  1  0.672110  0.271780  0.827880  1.0  0.126
  H  H337  1  0.242750  0.565760  0.162420  1.0  0.1299
  H  H338  1  0.909420  0.899100  0.495750  1.0  0.1305
  H  H339  1  0.576080  0.232430  0.829090  1.0  0.1301
  H  H340  1  0.132780  0.674460  0.162170  1.0  0.1218
  H  H341  1  0.799450  0.007800  0.495510  1.0  0.1231
  H  H342  1  0.466120  0.341130  0.828840  1.0  0.1225
  H  H343  1  0.189230  0.770990  0.163420  1.0  0.1219
  H  H344  1  0.855890  0.104320  0.496750  1.0  0.1202
  H  H345  1  0.522560  0.437650  0.830080  1.0  0.122
  H  H346  1  0.177870  0.669480  0.161560  1.0  0.1248
  H  H347  1  0.844530  0.002820  0.494890  1.0  0.1238
  H  H348  1  0.511200  0.336150  0.828220  1.0  0.1266
  H  H349  1  0.234130  0.765540  0.162800  1.0  0.1347
  H  H350  1  0.900800  0.098870  0.496130  1.0  0.1348
  H  H351  1  0.567470  0.432200  0.829460  1.0  0.1353
  H  H352  1  0.470540  0.566220  0.230350  1.0  0.1407
  H  H353  1  0.137210  0.899550  0.563680  1.0  0.1384
  H  H354  1  0.803870  0.232890  0.897020  1.0  0.1321
  H  H355  1  0.397490  0.499350  0.218160  1.0  0.1398
  H  H356  1  0.064160  0.832690  0.551490  1.0  0.1448
  H  H357  1  0.730830  0.166020  0.884820  1.0  0.142
  H  H358  1  0.473330  0.572900  0.207960  1.0  0.1427
  H  H359  1  0.139990  0.906230  0.541290  1.0  0.1404
  H  H360  1  0.806660  0.239560  0.874630  1.0  0.1491
  H  H361  1  0.599990  0.698050  0.234030  1.0  0.1149
  H  H362  1  0.266660  0.031390  0.567370  1.0  0.1156
  H  H363  1  0.933330  0.364720  0.900700  1.0  0.1145
  H  H364  1  0.611240  0.704800  0.211630  1.0  0.1207
  H  H365  1  0.277900  0.038140  0.544960  1.0  0.1215
  H  H366  1  0.944570  0.371470  0.878290  1.0  0.1216
  H  H367  1  0.552120  0.650480  0.232560  1.0  0.1278
  H  H368  1  0.218790  0.983820  0.565900  1.0  0.1337
  H  H369  1  0.885450  0.317150  0.899230  1.0  0.1292
  H  H370  1  0.563580  0.657460  0.210270  1.0  0.1266
  H  H371  1  0.230250  0.990800  0.543600  1.0  0.1264
  H  H372  1  0.896910  0.324130  0.876930  1.0  0.1271
  H  H373  1  0.379160  0.518170  0.177570  1.0  0.1172
  H  H374  1  0.045830  0.851500  0.510910  1.0  0.118
  H  H375  1  0.712500  0.184830  0.844240  1.0  0.118
  H  H376  1  0.328940  0.434220  0.188680  1.0  0.123
  H  H377  1  0.995600  0.767550  0.522020  1.0  0.1233
  H  H378  1  0.662270  0.100890  0.855350  1.0  0.1231
  H  H379  1  0.412040  0.540140  0.187840  1.0  0.1368
  H  H380  1  0.078710  0.873470  0.521180  1.0  0.1358
  H  H381  1  0.745370  0.206800  0.854510  1.0  0.137
  H  H382  1  0.361910  0.456390  0.198830  1.0  0.1206
  H  H383  1  0.028580  0.789730  0.532160  1.0  0.1227
  H  H384  1  0.695240  0.123060  0.865500  1.0  0.1203
  H  H385  1  0.333333  0.433180  0.251020  1.0  0.1247
  H  H386  1  0.999980  0.766510  0.584350  1.0  0.1252
  H  H387  1  0.666667  0.099850  0.917690  1.0  0.1248
  H  H388  1  0.393960  0.520030  0.260010  1.0  0.1229
  H  H389  1  0.060620  0.853360  0.593340  1.0  0.1204
  H  H390  1  0.727290  0.186690  0.926670  1.0  0.1205
  H  H391  1  0.358910  0.450790  0.239680  1.0  0.1316
  H  H392  1  0.025580  0.784120  0.573010  1.0  0.1365
  H  H393  1  0.692240  0.117450  0.906350  1.0  0.1325
  H  H394  1  0.419210  0.537160  0.248660  1.0  0.124
  H  H395  1  0.085870  0.870500  0.582000  1.0  0.1225
  H  H396  1  0.752540  0.203830  0.915330  1.0  0.1204
  H  H397  1  0.270220  0.128520  0.171080  1.0  0.1449
  H  H398  1  0.936880  0.461850  0.504410  1.0  0.1456
  H  H399  1  0.603550  0.795180  0.837750  1.0  0.1447
  H  H400  1  0.275930  0.201370  0.158940  1.0  0.1362
  H  H401  1  0.942600  0.534710  0.492270  1.0  0.1381
  H  H402  1  0.609260  0.868040  0.825610  1.0  0.1316
  H  H403  1  0.272110  0.203990  0.181340  1.0  0.143
  H  H404  1  0.938780  0.537330  0.514670  1.0  0.1422
  H  H405  1  0.605440  0.870660  0.848010  1.0  0.1403
  H  H406  1  0.265020  0.057930  0.200130  1.0  0.1217
  H  H407  1  0.931690  0.391270  0.533470  1.0  0.1216
  H  H408  1  0.598350  0.724600  0.866800  1.0  0.1219
  H  H409  1  0.231630  0.107860  0.211500  1.0  0.1176
  H  H410  1  0.898300  0.441190  0.544830  1.0  0.1185
  H  H411  1  0.564970  0.774530  0.878170  1.0  0.1183
  H  H412  1  0.276570  0.091810  0.190130  1.0  0.1213
  H  H413  1  0.943240  0.425140  0.523470  1.0  0.1214
  H  H414  1  0.609900  0.758470  0.856800  1.0  0.1213
  H  H415  1  0.243280  0.141620  0.201380  1.0  0.132
  H  H416  1  0.909950  0.474960  0.534710  1.0  0.1333
  H  H417  1  0.576620  0.808290  0.868050  1.0  0.1332
  H  H418  1  0.276180  0.341310  0.177350  1.0  0.1221
  H  H419  1  0.942850  0.674650  0.510680  1.0  0.1215
  H  H420  1  0.609520  0.007980  0.844010  1.0  0.1213
  H  H421  1  0.271690  0.328970  0.154970  1.0  0.1142
  H  H422  1  0.938360  0.662310  0.488300  1.0  0.1133
  H  H423  1  0.605030  0.995640  0.821640  1.0  0.1139
  H  H424  1  0.276650  0.294180  0.178860  1.0  0.1253
  H  H425  1  0.943320  0.627510  0.512190  1.0  0.1252
  H  H426  1  0.609990  0.960840  0.845530  1.0  0.1246
  H  H427  1  0.272180  0.281610  0.156600  1.0  0.1294
  H  H428  1  0.938840  0.614940  0.489930  1.0  0.131
  H  H429  1  0.605510  0.948270  0.823270  1.0  0.1281
  H  H430  1  0.270470  0.063610  0.138290  1.0  0.1226
  H  H431  1  0.937140  0.396940  0.471620  1.0  0.1227
  H  H432  1  0.603810  0.730270  0.804960  1.0  0.1225
  H  H433  1  0.243170  0.123470  0.129410  1.0  0.1206
  H  H434  1  0.909840  0.456800  0.462740  1.0  0.121
  H  H435  1  0.576500  0.790140  0.796080  1.0  0.1206
  H  H436  1  0.279450  0.089800  0.149570  1.0  0.1354
  H  H437  1  0.946110  0.423140  0.482910  1.0  0.1334
  H  H438  1  0.612780  0.756470  0.816240  1.0  0.1345
  H  H439  1  0.252290  0.149340  0.140700  1.0  0.1252
  H  H440  1  0.918950  0.482670  0.474030  1.0  0.1252
  H  H441  1  0.585620  0.816000  0.807360  1.0  0.1255
  H  H442  1  0.633880  0.413140  0.060920  1.0  0.1483
  H  H443  1  0.300540  0.746470  0.394250  1.0  0.1531
  H  H444  1  0.967210  0.079810  0.727580  1.0  0.1494
  H  H445  1  0.597590  0.317470  0.060930  1.0  0.1451
  H  H446  1  0.264250  0.650800  0.394260  1.0  0.1468
  H  H447  1  0.930920  0.984140  0.727590  1.0  0.1465
  H  H448  1  0.693310  0.376940  0.060800  1.0  0.1452
  H  H449  1  0.359980  0.710270  0.394140  1.0  0.1458
  H  H450  1  0.026640  0.043600  0.727470  1.0  0.1465
  H  H451  1  0.758520  0.556090  0.058890  1.0  0.1217
  H  H452  1  0.425180  0.889420  0.392230  1.0  0.1212
  H  H453  1  0.091850  0.222750  0.725560  1.0  0.1212
  H  H454  1  0.815470  0.516700  0.060290  1.0  0.1195
  H  H455  1  0.482130  0.850030  0.393620  1.0  0.1205
  H  H456  1  0.148800  0.183360  0.726950  1.0  0.1205
  H  H457  1  0.713810  0.505500  0.059530  1.0  0.1343
  H  H458  1  0.380480  0.838840  0.392860  1.0  0.1346
  H  H459  1  0.047150  0.172170  0.726190  1.0  0.1359
  H  H460  1  0.770630  0.466450  0.060910  1.0  0.1256
  H  H461  1  0.437290  0.799790  0.394250  1.0  0.1245
  H  H462  1  0.103960  0.133120  0.727580  1.0  0.1242
  H  H463  1  0.614020  0.195100  0.060170  1.0  0.1221
  H  H464  1  0.280690  0.528440  0.393510  1.0  0.1224
  H  H465  1  0.947350  0.861770  0.726840  1.0  0.1221
  H  H466  1  0.710620  0.251460  0.059050  1.0  0.1205
  H  H467  1  0.377280  0.584790  0.392390  1.0  0.1208
  H  H468  1  0.043950  0.918130  0.725720  1.0  0.1204
  H  H469  1  0.609070  0.240180  0.060770  1.0  0.1276
  H  H470  1  0.275730  0.573510  0.394110  1.0  0.1249
  H  H471  1  0.942400  0.906840  0.727440  1.0  0.1292
  H  H472  1  0.705190  0.296380  0.059660  1.0  0.1359
  H  H473  1  0.371860  0.629710  0.392990  1.0  0.1344
  H  H474  1  0.038520  0.963050  0.726330  1.0  0.1383
  H  H475  1  0.454710  0.298670  0.059200  1.0  0.1206
  H  H476  1  0.121380  0.632010  0.392530  1.0  0.1192
  H  H477  1  0.788050  0.965340  0.725870  1.0  0.1191
  H  H478  1  0.493830  0.395110  0.060260  1.0  0.122
  H  H479  1  0.160490  0.728440  0.393590  1.0  0.1216
  H  H480  1  0.827160  0.061770  0.726930  1.0  0.125
  H  H481  1  0.505370  0.304860  0.059860  1.0  0.1317
  H  H482  1  0.172040  0.638200  0.393190  1.0  0.1319
  H  H483  1  0.838700  0.971530  0.726530  1.0  0.1344
  H  H484  1  0.544190  0.400820  0.060920  1.0  0.1273
  H  H485  1  0.210860  0.734160  0.394250  1.0  0.1274
  H  H486  1  0.877520  0.067490  0.727580  1.0  0.1289
  H  H487  1  0.436000  0.459700  0.004250  1.0  0.1487
  H  H488  1  0.102670  0.793030  0.337580  1.0  0.1466
  H  H489  1  0.769340  0.126370  0.670910  1.0  0.1483
  H  H490  1  0.169170  0.866780  0.325490  1.0  0.1363
  H  H491  1  0.835840  0.200110  0.658820  1.0  0.135
  H  H492  1  0.502510  0.533440  0.992160  1.0  0.1362
  H  H493  1  0.509630  0.535080  0.014540  1.0  0.1466
  H  H494  1  0.176290  0.868420  0.347870  1.0  0.1436
  H  H495  1  0.842960  0.201750  0.681200  1.0  0.1468
  H  H496  1  0.454230  0.440240  0.044830  1.0  0.1143
  H  H497  1  0.120900  0.773580  0.378160  1.0  0.1142
  H  H498  1  0.787570  0.106910  0.711500  1.0  0.1136
  H  H499  1  0.372580  0.386190  0.033160  1.0  0.1203
  H  H500  1  0.039250  0.719520  0.366490  1.0  0.1208
  H  H501  1  0.705920  0.052850  0.699820  1.0  0.1202
  H  H502  1  0.475910  0.473890  0.034670  1.0  0.1324
  H  H503  1  0.142570  0.807220  0.368010  1.0  0.1344
  H  H504  1  0.809240  0.140560  0.701340  1.0  0.134
  H  H505  1  0.394460  0.419960  0.023120  1.0  0.121
  H  H506  1  0.061130  0.753300  0.356450  1.0  0.124
  H  H507  1  0.727800  0.086630  0.689780  1.0  0.1216
  H  H508  1  0.301980  0.994060  0.321600  1.0  0.113
  H  H509  1  0.968650  0.327390  0.654930  1.0  0.1132
  H  H510  1  0.635310  0.660720  0.988270  1.0  0.1126
  H  H511  1  0.641650  0.673820  0.010620  1.0  0.1178
  H  H512  1  0.308320  0.007150  0.343960  1.0  0.119
  H  H513  1  0.974990  0.340480  0.677290  1.0  0.1177
  H  H514  1  0.254020  0.946640  0.323190  1.0  0.1307
  H  H515  1  0.920690  0.279970  0.656520  1.0  0.1296
  H  H516  1  0.587360  0.613300  0.989860  1.0  0.1298
  H  H517  1  0.593960  0.626640  0.012100  1.0  0.1198
  H  H518  1  0.260630  0.959970  0.345430  1.0  0.1202
  H  H519  1  0.927300  0.293300  0.678760  1.0  0.1203
  H  H520  1  0.124710  0.790130  0.295850  1.0  0.117
  H  H521  1  0.791380  0.123470  0.629190  1.0  0.1188
  H  H522  1  0.458040  0.456800  0.962520  1.0  0.1184
  H  H523  1  0.037710  0.728790  0.304700  1.0  0.122
  H  H524  1  0.704380  0.062130  0.638030  1.0  0.122
  H  H525  1  0.371050  0.395460  0.971360  1.0  0.1226
  H  H526  1  0.141100  0.815630  0.307180  1.0  0.125
  H  H527  1  0.807760  0.148970  0.640520  1.0  0.127
  H  H528  1  0.474430  0.482300  0.973850  1.0  0.1266
  H  H529  1  0.054570  0.754640  0.316030  1.0  0.1387
  H  H530  1  0.721240  0.087970  0.649360  1.0  0.1354
  H  H531  1  0.387910  0.421300  0.982700  1.0  0.1338
  H  H532  1  0.676160  0.904940  0.041010  1.0  0.1445
  H  H533  1  0.342830  0.238280  0.374340  1.0  0.1452
  H  H534  1  0.009500  0.571610  0.707670  1.0  0.1457
  H  H535  1  0.672490  0.899390  0.063420  1.0  0.1412
  H  H536  1  0.339160  0.232720  0.396750  1.0  0.1422
  H  H537  1  0.005820  0.566050  0.730080  1.0  0.1397
  H  H538  1  0.678530  0.831990  0.051420  1.0  0.1462
  H  H539  1  0.345190  0.165320  0.384760  1.0  0.1471
  H  H540  1  0.011860  0.498650  0.718090  1.0  0.146
  H  H541  1  0.685420  0.766650  0.022420  1.0  0.1223
  H  H542  1  0.352090  0.099990  0.355750  1.0  0.1215
  H  H543  1  0.018750  0.433320  0.689080  1.0  0.1231
  H  H544  1  0.714740  0.848640  0.010770  1.0  0.1141
  H  H545  1  0.381410  0.181970  0.344100  1.0  0.1175
  H  H546  1  0.048080  0.515300  0.677430  1.0  0.117
  H  H547  1  0.674060  0.788950  0.032470  1.0  0.1229
  H  H548  1  0.340720  0.122280  0.365800  1.0  0.1234
  H  H549  1  0.007390  0.455620  0.699130  1.0  0.1257
  H  H550  1  0.703290  0.870720  0.020930  1.0  0.1333
  H  H551  1  0.369960  0.204060  0.354260  1.0  0.133
  H  H552  1  0.036620  0.537390  0.687600  1.0  0.1331
  H  H553  1  0.677380  0.767080  0.084220  1.0  0.122
  H  H554  1  0.344050  0.100420  0.417550  1.0  0.1219
  H  H555  1  0.010720  0.433750  0.750880  1.0  0.1221
  H  H556  1  0.705310  0.854480  0.093090  1.0  0.1249
  H  H557  1  0.371980  0.187810  0.426430  1.0  0.1233
  H  H558  1  0.038650  0.521150  0.759760  1.0  0.1245
  H  H559  1  0.668730  0.784400  0.072920  1.0  0.1333
  H  H560  1  0.335400  0.117740  0.406260  1.0  0.1382
  H  H561  1  0.002070  0.451070  0.739590  1.0  0.1358
  H  H562  1  0.696520  0.871330  0.081800  1.0  0.1258
  H  H563  1  0.363180  0.204670  0.415130  1.0  0.126
  H  H564  1  0.029850  0.538000  0.748460  1.0  0.1259
  H  H565  1  0.675620  0.030450  0.067240  1.0  0.1141
  H  H566  1  0.342280  0.363780  0.400570  1.0  0.1141
  H  H567  1  0.008950  0.697110  0.733910  1.0  0.1144
  H  H568  1  0.672200  0.038680  0.044860  1.0  0.1206
  H  H569  1  0.338870  0.372020  0.378190  1.0  0.1195
  H  H570  1  0.005540  0.705350  0.711520  1.0  0.1197
  H  H571  1  0.675260  0.982680  0.065620  1.0  0.1299
  H  H572  1  0.341930  0.316010  0.398950  1.0  0.128
  H  H573  1  0.008600  0.649340  0.732280  1.0  0.1261
  H  H574  1  0.671850  0.991090  0.043350  1.0  0.1263
  H  H575  1  0.338520  0.324420  0.376680  1.0  0.1253
  H  H576  1  0.005190  0.657760  0.710010  1.0  0.1249
  H  H577  1  0.835620  0.730760  0.158680  1.0  0.1395
  H  H578  1  0.502280  0.064090  0.492020  1.0  0.1366
  H  H579  1  0.168950  0.397420  0.825350  1.0  0.1402
  H  H580  1  0.768910  0.737630  0.170790  1.0  0.1464
  H  H581  1  0.435580  0.070970  0.504120  1.0  0.1452
  H  H582  1  0.102250  0.404300  0.837450  1.0  0.1417
  H  H583  1  0.842010  0.735040  0.181080  1.0  0.1413
  H  H584  1  0.508680  0.068370  0.514410  1.0  0.1428
  H  H585  1  0.175340  0.401700  0.847740  1.0  0.1423
  H  H586  1  0.974600  0.729840  0.177310  1.0  0.1196
  H  H587  1  0.641270  0.063170  0.510640  1.0  0.1195
  H  H588  1  0.307940  0.396510  0.843980  1.0  0.1191
  H  H589  1  0.968440  0.736160  0.154940  1.0  0.1141
  H  H590  1  0.635110  0.069500  0.488270  1.0  0.1134
  H  H591  1  0.301770  0.402830  0.821610  1.0  0.1144
  H  H592  1  0.926720  0.728970  0.178730  1.0  0.1205
  H  H593  1  0.593390  0.062300  0.512060  1.0  0.1204
  H  H594  1  0.260060  0.395640  0.845390  1.0  0.1204
  H  H595  1  0.920320  0.735270  0.156470  1.0  0.1296
  H  H596  1  0.586990  0.068600  0.489800  1.0  0.1317
  H  H597  1  0.253660  0.401940  0.823140  1.0  0.1299
  H  H598  1  0.788600  0.777610  0.211200  1.0  0.1177
  H  H599  1  0.455260  0.110940  0.544540  1.0  0.1172
  H  H600  1  0.121930  0.444280  0.877870  1.0  0.1172
  H  H601  1  0.704350  0.743290  0.200210  1.0  0.1219
  H  H602  1  0.371010  0.076620  0.533540  1.0  0.122
  H  H603  1  0.037680  0.409950  0.866870  1.0  0.1217
  H  H604  1  0.810070  0.765570  0.201010  1.0  0.1331
  H  H605  1  0.476730  0.098900  0.534340  1.0  0.1308
  H  H606  1  0.143400  0.432230  0.867670  1.0  0.1304
  H  H607  1  0.726030  0.731350  0.190130  1.0  0.12
  H  H608  1  0.392700  0.064690  0.523460  1.0  0.1204
  H  H609  1  0.059360  0.398020  0.856800  1.0  0.1184
  H  H610  1  0.792070  0.765400  0.129160  1.0  0.1217
  H  H611  1  0.458740  0.098730  0.462490  1.0  0.1223
  H  H612  1  0.125410  0.432070  0.795820  1.0  0.1204
  H  H613  1  0.704300  0.737150  0.137880  1.0  0.1198
  H  H614  1  0.370970  0.070490  0.471210  1.0  0.1197
  H  H615  1  0.037630  0.403820  0.804540  1.0  0.1198
  H  H616  1  0.808390  0.755900  0.140440  1.0  0.1255
  H  H617  1  0.475060  0.089230  0.473780  1.0  0.1254
  H  H618  1  0.141720  0.422570  0.807110  1.0  0.1252
  H  H619  1  0.721090  0.727800  0.149160  1.0  0.1266
  H  H620  1  0.387750  0.061130  0.482490  1.0  0.1276
  H  H621  1  0.054420  0.394460  0.815830  1.0  0.1289
  H  H622  1  0.960500  0.516630  0.100150  1.0  0.1422
  H  H623  1  0.627170  0.849960  0.433480  1.0  0.1426
  H  H624  1  0.293830  0.183290  0.766810  1.0  0.1455
  H  H625  1  0.987640  0.529480  0.121710  1.0  0.1458
  H  H626  1  0.654310  0.862810  0.455050  1.0  0.1429
  H  H627  1  0.320970  0.196140  0.788380  1.0  0.1437
  H  H628  1  0.974640  0.595700  0.111090  1.0  0.1436
  H  H629  1  0.641300  0.929040  0.444420  1.0  0.144
  H  H630  1  0.307970  0.262370  0.777760  1.0  0.1412
  H  H631  1  0.910950  0.565980  0.071900  1.0  0.1226
  H  H632  1  0.577620  0.899310  0.405230  1.0  0.1213
  H  H633  1  0.244290  0.232640  0.738570  1.0  0.1224
  H  H634  1  0.937510  0.648910  0.082930  1.0  0.1166
  H  H635  1  0.604180  0.982240  0.416270  1.0  0.1157
  H  H636  1  0.270850  0.315570  0.749600  1.0  0.1158
  H  H637  1  0.928610  0.548270  0.081740  1.0  0.126
  H  H638  1  0.595280  0.881600  0.415070  1.0  0.1262
  H  H639  1  0.261940  0.214930  0.748410  1.0  0.1261
  H  H640  1  0.955100  0.630770  0.092750  1.0  0.1272
  H  H641  1  0.621770  0.964110  0.426080  1.0  0.1263
  H  H642  1  0.288440  0.297440  0.759410  1.0  0.125
  H  H643  1  0.037540  0.628050  0.150310  1.0  0.1193
  H  H644  1  0.704200  0.961380  0.483650  1.0  0.1193
  H  H645  1  0.370870  0.294710  0.816980  1.0  0.1193
  H  H646  1  0.011490  0.684720  0.139280  1.0  0.1193
  H  H647  1  0.678160  0.018050  0.472610  1.0  0.1203
  H  H648  1  0.344830  0.351380  0.805950  1.0  0.119
  H  H649  1  0.020080  0.592820  0.140420  1.0  0.128
  H  H650  1  0.686750  0.926150  0.473750  1.0  0.1314
  H  H651  1  0.353410  0.259480  0.807080  1.0  0.1288
  H  H652  1  0.994120  0.649170  0.129430  1.0  0.1274
  H  H653  1  0.660790  0.982500  0.462760  1.0  0.1221
  H  H654  1  0.327450  0.315840  0.796090  1.0  0.1273
  H  H655  1  0.962300  0.383250  0.099900  1.0  0.1201
  H  H656  1  0.628970  0.716580  0.433240  1.0  0.1202
  H  H657  1  0.295630  0.049920  0.766570  1.0  0.1217
  H  H658  1  0.985240  0.394980  0.121810  1.0  0.1179
  H  H659  1  0.651900  0.728310  0.455140  1.0  0.1185
  H  H660  1  0.318570  0.061640  0.788480  1.0  0.1186
  H  H661  1  0.962210  0.431110  0.099940  1.0  0.1294
  H  H662  1  0.628880  0.764440  0.433270  1.0  0.131
  H  H663  1  0.295550  0.097770  0.766600  1.0  0.1296
  H  H664  1  0.985040  0.442740  0.121750  1.0  0.1257
  H  H665  1  0.651710  0.776070  0.455080  1.0  0.1259
  H  H666  1  0.318380  0.109410  0.788420  1.0  0.1284
  H  H667  1  0.608820  0.837660  0.325480  1.0  0.1346
  H  H668  1  0.275480  0.171000  0.658820  1.0  0.1323
  H  H669  1  0.942150  0.504330  0.992150  1.0  0.1323
  H  H670  1  0.938600  0.498150  0.014550  1.0  0.1407
  H  H671  1  0.605260  0.831490  0.347880  1.0  0.1442
  H  H672  1  0.271930  0.164820  0.681220  1.0  0.1422
  H  H673  1  0.936050  0.571330  0.004290  1.0  0.1414
  H  H674  1  0.602710  0.904660  0.337620  1.0  0.1465
  H  H675  1  0.269380  0.238000  0.670960  1.0  0.1466
  H  H676  1  0.603820  0.969460  0.304670  1.0  0.1184
  H  H677  1  0.270490  0.302790  0.638000  1.0  0.1195
  H  H678  1  0.937160  0.636130  0.971340  1.0  0.1198
  H  H679  1  0.575170  0.881650  0.295950  1.0  0.12
  H  H680  1  0.241840  0.214980  0.629280  1.0  0.1211
  H  H681  1  0.908510  0.548310  0.962610  1.0  0.1182
  H  H682  1  0.612660  0.952460  0.315980  1.0  0.1341
  H  H683  1  0.279320  0.285790  0.649310  1.0  0.1285
  H  H684  1  0.945990  0.619120  0.982650  1.0  0.1356
  H  H685  1  0.584150  0.865100  0.307270  1.0  0.1252
  H  H686  1  0.250820  0.198430  0.640600  1.0  0.1244
  H  H687  1  0.917480  0.531770  0.973940  1.0  0.124
  H  H688  1  0.930810  0.637040  0.033320  1.0  0.1238
  H  H689  1  0.597480  0.970370  0.366660  1.0  0.1241
  H  H690  1  0.264150  0.303710  0.699990  1.0  0.124
  H  H691  1  0.899260  0.554410  0.044850  1.0  0.1192
  H  H692  1  0.565930  0.887740  0.378180  1.0  0.1193
  H  H693  1  0.232590  0.221070  0.711520  1.0  0.1193
  H  H694  1  0.942070  0.614560  0.023290  1.0  0.1242
  H  H695  1  0.608740  0.947900  0.356630  1.0  0.1249
  H  H696  1  0.275410  0.281230  0.689960  1.0  0.1226
  H  H697  1  0.910610  0.532130  0.034700  1.0  0.1311
  H  H698  1  0.577270  0.865470  0.368040  1.0  0.1311
  H  H699  1  0.243940  0.198800  0.701370  1.0  0.1325
  H  H700  1  0.603570  0.705120  0.321540  1.0  0.1134
  H  H701  1  0.270240  0.038450  0.654880  1.0  0.1134
  H  H702  1  0.936910  0.371780  0.988210  1.0  0.1139
  H  H703  1  0.945760  0.366580  0.010530  1.0  0.1205
  H  H704  1  0.612430  0.699910  0.343860  1.0  0.1204
  H  H705  1  0.279090  0.033250  0.677190  1.0  0.1203
  H  H706  1  0.603880  0.752930  0.323140  1.0  0.1274
  H  H707  1  0.270550  0.086260  0.656470  1.0  0.1297
  H  H708  1  0.937210  0.419600  0.989810  1.0  0.1283
  H  H709  1  0.946030  0.414080  0.012000  1.0  0.1206
  H  H710  1  0.612690  0.747410  0.345340  1.0  0.12
  H  H711  1  0.279360  0.080750  0.678670  1.0  0.1204
  H  H712  1  0.533540  0.035190  0.111190  1.0  0.1413
  H  H713  1  0.200200  0.368520  0.444530  1.0  0.1406
  H  H714  1  0.866870  0.701860  0.777860  1.0  0.1403
  H  H715  1  0.454270  0.021140  0.122050  1.0  0.1406
  H  H716  1  0.120940  0.354470  0.455380  1.0  0.1476
  H  H717  1  0.787600  0.687800  0.788720  1.0  0.1431
  H  H718  1  0.467930  0.049080  0.100540  1.0  0.1438
  H  H719  1  0.134600  0.382410  0.433870  1.0  0.1428
  H  H720  1  0.801260  0.715750  0.767200  1.0  0.1431
  H  H721  1  0.567440  0.099930  0.072140  1.0  0.119
  H  H722  1  0.234110  0.433270  0.405470  1.0  0.1191
  H  H723  1  0.900780  0.766600  0.738800  1.0  0.1192
  H  H724  1  0.623070  0.072160  0.083020  1.0  0.1192
  H  H725  1  0.289730  0.405490  0.416360  1.0  0.115
  H  H726  1  0.956400  0.738820  0.749690  1.0  0.1183
  H  H727  1  0.532010  0.082300  0.081990  1.0  0.1285
  H  H728  1  0.198670  0.415630  0.415330  1.0  0.1292
  H  H729  1  0.865340  0.748960  0.748660  1.0  0.1288
  H  H730  1  0.587310  0.054600  0.092840  1.0  0.1248
  H  H731  1  0.253970  0.387930  0.426180  1.0  0.1257
  H  H732  1  0.920640  0.721270  0.759510  1.0  0.1233
  H  H733  1  0.332860  0.046370  0.100490  1.0  0.1198
  H  H734  1  0.999520  0.379710  0.433830  1.0  0.1196
  H  H735  1  0.666190  0.713040  0.767160  1.0  0.1195
  H  H736  1  0.321520  0.023480  0.122410  1.0  0.1199
  H  H737  1  0.988190  0.356810  0.455740  1.0  0.12
  H  H738  1  0.654860  0.690150  0.789070  1.0  0.1204
  H  H739  1  0.380750  0.046390  0.100510  1.0  0.1238
  H  H740  1  0.047420  0.379720  0.433840  1.0  0.1247
  H  H741  1  0.714080  0.713050  0.767170  1.0  0.1255
  H  H742  1  0.369490  0.023600  0.122320  1.0  0.1265
  H  H743  1  0.036160  0.356930  0.455660  1.0  0.1329
  H  H744  1  0.702820  0.690270  0.788990  1.0  0.1287
  H  H745  1  0.503640  0.971540  0.150390  1.0  0.1191
  H  H746  1  0.170310  0.304870  0.483720  1.0  0.1191
  H  H747  1  0.836970  0.638210  0.817050  1.0  0.1189
  H  H748  1  0.586120  0.997290  0.139200  1.0  0.1187
  H  H749  1  0.252780  0.330630  0.472540  1.0  0.1186
  H  H750  1  0.919450  0.663960  0.805870  1.0  0.119
  H  H751  1  0.485790  0.989130  0.140550  1.0  0.1345
  H  H752  1  0.152460  0.322460  0.473880  1.0  0.129
  H  H753  1  0.819130  0.655800  0.807220  1.0  0.1264
  H  H754  1  0.567870  0.014800  0.129410  1.0  0.1269
  H  H755  1  0.234540  0.348140  0.462740  1.0  0.127
  H  H756  1  0.901200  0.681470  0.796070  1.0  0.1261
  H  H757  1  0.806690  0.165580  0.181000  1.0  0.1436
  H  H758  1  0.473360  0.498910  0.514330  1.0  0.1433
  H  H759  1  0.140030  0.832250  0.847670  1.0  0.1459
  H  H760  1  0.809270  0.173120  0.158620  1.0  0.1389
  H  H761  1  0.475930  0.506450  0.491960  1.0  0.1419
  H  H762  1  0.142600  0.839780  0.825290  1.0  0.1393
  H  H763  1  0.882490  0.239420  0.170870  1.0  0.146
  H  H764  1  0.549160  0.572750  0.504200  1.0  0.146
  H  H765  1  0.215820  0.906080  0.837540  1.0  0.1466
  H  H766  1  0.953140  0.303380  0.200060  1.0  0.1218
  H  H767  1  0.619800  0.636710  0.533390  1.0  0.1218
  H  H768  1  0.286470  0.970040  0.866730  1.0  0.1217
  H  H769  1  0.901900  0.219970  0.211320  1.0  0.1181
  H  H770  1  0.568570  0.553310  0.544650  1.0  0.1183
  H  H771  1  0.235240  0.886640  0.877980  1.0  0.1179
  H  H772  1  0.919650  0.281420  0.189980  1.0  0.1253
  H  H773  1  0.586320  0.614750  0.523320  1.0  0.1244
  H  H774  1  0.252990  0.948080  0.856650  1.0  0.1259
  H  H775  1  0.868530  0.198220  0.201120  1.0  0.1297
  H  H776  1  0.535190  0.531560  0.534450  1.0  0.13
  H  H777  1  0.201860  0.864890  0.867790  1.0  0.1299
  H  H778  1  0.948100  0.304920  0.138050  1.0  0.124
  H  H779  1  0.614770  0.638260  0.471390  1.0  0.1242
  H  H780  1  0.281430  0.971590  0.804720  1.0  0.1246
  H  H781  1  0.886200  0.218390  0.129100  1.0  0.123
  H  H782  1  0.552870  0.551730  0.462440  1.0  0.1226
  H  H783  1  0.219530  0.885060  0.795770  1.0  0.1226
  H  H784  1  0.922100  0.287910  0.149380  1.0  0.1417
  H  H785  1  0.588770  0.621240  0.482710  1.0  0.136
  H  H786  1  0.255440  0.954570  0.816040  1.0  0.1375
  H  H787  1  0.860570  0.201870  0.140410  1.0  0.1199
  H  H788  1  0.527240  0.535210  0.473750  1.0  0.12
  H  H789  1  0.193910  0.868540  0.807080  1.0  0.1196
  H  H790  1  0.668640  0.033760  0.177130  1.0  0.12
  H  H791  1  0.335310  0.367090  0.510460  1.0  0.1192
  H  H792  1  0.001970  0.700420  0.843790  1.0  0.12
  H  H793  1  0.681280  0.039990  0.154760  1.0  0.113
  H  H794  1  0.347950  0.373330  0.488090  1.0  0.1139
  H  H795  1  0.014620  0.706660  0.821420  1.0  0.1128
  H  H796  1  0.715850  0.081460  0.178550  1.0  0.1199
  H  H797  1  0.382520  0.414790  0.511880  1.0  0.1202
  H  H798  1  0.049190  0.748120  0.845210  1.0  0.1202
  H  H799  1  0.728730  0.087950  0.156290  1.0  0.1262
  H  H800  1  0.395400  0.421280  0.489630  1.0  0.1244
  H  H801  1  0.062070  0.754620  0.822960  1.0  0.1261
  H  H802  1  0.511520  0.997680  0.218180  1.0  0.1438
  H  H803  1  0.178180  0.331020  0.551510  1.0  0.146
  H  H804  1  0.844850  0.664350  0.884840  1.0  0.147
  H  H805  1  0.444190  0.003640  0.230230  1.0  0.1356
  H  H806  1  0.110860  0.336980  0.563570  1.0  0.1413
  H  H807  1  0.777520  0.670310  0.896900  1.0  0.1388
  H  H808  1  0.438270  0.999770  0.207830  1.0  0.1448
  H  H809  1  0.104940  0.333110  0.541160  1.0  0.1472
  H  H810  1  0.771610  0.666440  0.874500  1.0  0.1424
  H  H811  1  0.493920  0.961080  0.177540  1.0  0.1164
  H  H812  1  0.160590  0.294420  0.510870  1.0  0.1165
  H  H813  1  0.827250  0.627750  0.844200  1.0  0.1141
  H  H814  1  0.576100  0.990050  0.189080  1.0  0.1188
  H  H815  1  0.242770  0.323380  0.522410  1.0  0.1188
  H  H816  1  0.909440  0.656710  0.855750  1.0  0.1188
  H  H817  1  0.472150  0.972690  0.187740  1.0  0.1365
  H  H818  1  0.138820  0.306020  0.521070  1.0  0.1386
  H  H819  1  0.805490  0.639350  0.854400  1.0  0.1375
  H  H820  1  0.554120  0.001570  0.199170  1.0  0.1209
  H  H821  1  0.220780  0.334910  0.532500  1.0  0.121
  H  H822  1  0.887450  0.668240  0.865840  1.0  0.1209
  H  H823  1  0.305160  0.004330  0.211510  1.0  0.1236
  H  H824  1  0.971830  0.337660  0.544850  1.0  0.1228
  H  H825  1  0.638490  0.670990  0.878180  1.0  0.124
  H  H826  1  0.311970  0.999540  0.233900  1.0  0.1129
  H  H827  1  0.978640  0.332870  0.567240  1.0  0.1125
  H  H828  1  0.645310  0.666210  0.900570  1.0  0.115
  H  H829  1  0.352820  0.004710  0.210110  1.0  0.127
  H  H830  1  0.019490  0.338040  0.543440  1.0  0.1271
  H  H831  1  0.686150  0.671380  0.876770  1.0  0.1272
  H  H832  1  0.359850  0.999940  0.232390  1.0  0.1295
  H  H833  1  0.026520  0.333270  0.565720  1.0  0.1274
  H  H834  1  0.693180  0.666667  0.899050  1.0  0.1296
  H  H835  1  0.489050  0.971150  0.259860  1.0  0.1217
  H  H836  1  0.155720  0.304480  0.593190  1.0  0.1212
  H  H837  1  0.822390  0.637820  0.926520  1.0  0.121
  H  H838  1  0.575900  0.996870  0.250920  1.0  0.1233
  H  H839  1  0.242570  0.330200  0.584250  1.0  0.1237
  H  H840  1  0.909240  0.663540  0.917590  1.0  0.1237
  H  H841  1  0.472550  0.980410  0.248570  1.0  0.1261
  H  H842  1  0.139220  0.313750  0.581910  1.0  0.1237
  H  H843  1  0.805880  0.647080  0.915240  1.0  0.1265
  H  H844  1  0.558910  0.006010  0.239630  1.0  0.1374
  H  H845  1  0.225580  0.339340  0.572970  1.0  0.137
  H  H846  1  0.892250  0.672670  0.906300  1.0  0.1357
  H  H847  1  0.547350  0.071730  0.004470  1.0  0.1399
  H  H848  1  0.214010  0.405060  0.337800  1.0  0.1436
  H  H849  1  0.880680  0.738400  0.671140  1.0  0.1438
  H  H850  1  0.471440  0.068660  0.014820  1.0  0.1437
  H  H851  1  0.138100  0.402000  0.348150  1.0  0.1409
  H  H852  1  0.804770  0.735330  0.681490  1.0  0.1405
  H  H853  1  0.140220  0.397730  0.325750  1.0  0.138
  H  H854  1  0.806890  0.731060  0.659090  1.0  0.136
  H  H855  1  0.473560  0.064390  0.992420  1.0  0.1408
  H  H856  1  0.279040  0.405090  0.305020  1.0  0.1219
  H  H857  1  0.945710  0.738430  0.638350  1.0  0.1219
  H  H858  1  0.612380  0.071760  0.971690  1.0  0.1212
  H  H859  1  0.218200  0.431050  0.296100  1.0  0.1194
  H  H860  1  0.884870  0.764380  0.629430  1.0  0.1185
  H  H861  1  0.551540  0.097710  0.962760  1.0  0.1172
  H  H862  1  0.252900  0.396090  0.316320  1.0  0.1356
  H  H863  1  0.919560  0.729430  0.649650  1.0  0.1336
  H  H864  1  0.586230  0.062760  0.982980  1.0  0.1345
  H  H865  1  0.192410  0.421930  0.307390  1.0  0.1259
  H  H866  1  0.859070  0.755260  0.640730  1.0  0.1248
  H  H867  1  0.525740  0.088590  0.974060  1.0  0.1247
  H  H868  1  0.015200  0.404120  0.321390  1.0  0.1136
  H  H869  1  0.681870  0.737450  0.654720  1.0  0.1159
  H  H870  1  0.348530  0.070780  0.988050  1.0  0.1131
  H  H871  1  0.331710  0.062150  0.010270  1.0  0.1223
  H  H872  1  0.998380  0.395480  0.343610  1.0  0.1219
  H  H873  1  0.665050  0.728810  0.676940  1.0  0.1226
  H  H874  1  0.062050  0.403090  0.323340  1.0  0.1228
  H  H875  1  0.728720  0.736420  0.656680  1.0  0.1273
  H  H876  1  0.395390  0.069760  0.990010  1.0  0.1219
  H  H877  1  0.378530  0.061150  0.012120  1.0  0.1274
  H  H878  1  0.045200  0.394480  0.345460  1.0  0.1316
  H  H879  1  0.711870  0.727820  0.678790  1.0  0.1307
  H  H880  1  0.567500  0.110290  0.044950  1.0  0.115
  H  H881  1  0.234170  0.443630  0.378290  1.0  0.1178
  H  H882  1  0.900830  0.776960  0.711620  1.0  0.1148
  H  H883  1  0.619050  0.078900  0.033540  1.0  0.1209
  H  H884  1  0.285720  0.412230  0.366880  1.0  0.1208
  H  H885  1  0.952380  0.745570  0.700210  1.0  0.1209
  H  H886  1  0.533770  0.098270  0.034820  1.0  0.1318
  H  H887  1  0.200440  0.431600  0.368150  1.0  0.131
  H  H888  1  0.867100  0.764940  0.701480  1.0  0.1318
  H  H889  1  0.585210  0.066970  0.023520  1.0  0.1217
  H  H890  1  0.251880  0.400310  0.356860  1.0  0.1214
  H  H891  1  0.918550  0.733640  0.690190  1.0  0.123
  H  H892  1  0.306430  0.749370  0.277920  1.0  0.1488
  H  H893  1  0.973090  0.082710  0.611260  1.0  0.1488
  H  H894  1  0.639760  0.416040  0.944590  1.0  0.1434
  H  H895  1  0.257990  0.652750  0.278020  1.0  0.1494
  H  H896  1  0.924660  0.986080  0.611360  1.0  0.1511
  H  H897  1  0.591330  0.319410  0.944690  1.0  0.1506
  H  H898  1  0.354670  0.701050  0.278070  1.0  0.1478
  H  H899  1  0.021340  0.034390  0.611400  1.0  0.1483
  H  H900  1  0.688010  0.367720  0.944730  1.0  0.1481
  H  H901  1  0.487730  0.835360  0.280520  1.0  0.1204
  H  H902  1  0.154390  0.168690  0.613850  1.0  0.1212
  H  H903  1  0.821060  0.502030  0.947190  1.0  0.1212
  H  H904  1  0.440550  0.882550  0.275290  1.0  0.1205
  H  H905  1  0.107210  0.215880  0.608620  1.0  0.1204
  H  H906  1  0.773880  0.549210  0.941950  1.0  0.1201
  H  H907  1  0.439710  0.787590  0.280540  1.0  0.124
  H  H908  1  0.106380  0.120930  0.613880  1.0  0.1212
  H  H909  1  0.773050  0.454260  0.947210  1.0  0.1218
  H  H910  1  0.392700  0.834500  0.275330  1.0  0.1296
  H  H911  1  0.059370  0.167840  0.608660  1.0  0.1272
  H  H912  1  0.726040  0.501170  0.942000  1.0  0.1229
  H  H913  1  0.259140  0.519690  0.280870  1.0  0.121
  H  H914  1  0.925800  0.853020  0.614200  1.0  0.1228
  H  H915  1  0.592470  0.186350  0.947540  1.0  0.1239
  H  H916  1  0.353410  0.566890  0.275420  1.0  0.1216
  H  H917  1  0.020080  0.900220  0.608760  1.0  0.1224
  H  H918  1  0.686750  0.233550  0.942090  1.0  0.1218
  H  H919  1  0.259340  0.567670  0.280850  1.0  0.1266
  H  H920  1  0.926010  0.901000  0.614180  1.0  0.1292
  H  H921  1  0.592670  0.234340  0.947520  1.0  0.132
  H  H922  1  0.353180  0.614630  0.275430  1.0  0.1261
  H  H923  1  0.019840  0.947970  0.608760  1.0  0.1263
  H  H924  1  0.686510  0.281300  0.942090  1.0  0.1262
  H  H925  1  0.125370  0.655020  0.274920  1.0  0.1227
  H  H926  1  0.792030  0.988350  0.608260  1.0  0.1229
  H  H927  1  0.458700  0.321690  0.941590  1.0  0.1227
  H  H928  1  0.172800  0.748860  0.280720  1.0  0.1244
  H  H929  1  0.839470  0.082190  0.614050  1.0  0.124
  H  H930  1  0.506130  0.415530  0.947390  1.0  0.1243
  H  H931  1  0.173170  0.654860  0.274980  1.0  0.1272
  H  H932  1  0.839830  0.988190  0.608320  1.0  0.1253
  H  H933  1  0.506500  0.321530  0.941650  1.0  0.1251
  H  H934  1  0.220400  0.748260  0.280760  1.0  0.1248
  H  H935  1  0.887060  0.081600  0.614090  1.0  0.1206
  H  H936  1  0.553730  0.414930  0.947430  1.0  0.1243
  H  H937  1  0.009100  0.533500  0.207910  1.0  0.147
  H  H938  1  0.675770  0.866830  0.541240  1.0  0.1451
  H  H939  1  0.342440  0.200170  0.874570  1.0  0.1447
  H  H940  1  0.005000  0.536470  0.230300  1.0  0.1388
  H  H941  1  0.671670  0.869810  0.563630  1.0  0.137
  H  H942  1  0.338330  0.203140  0.896970  1.0  0.135
  H  H943  1  0.011230  0.609300  0.218050  1.0  0.1472
  H  H944  1  0.677900  0.942630  0.551390  1.0  0.1442
  H  H945  1  0.344560  0.275970  0.884720  1.0  0.1455
  H  H946  1  0.018850  0.681250  0.189190  1.0  0.1199
  H  H947  1  0.685510  0.014580  0.522520  1.0  0.1207
  H  H948  1  0.352180  0.347920  0.855860  1.0  0.1202
  H  H949  1  0.047830  0.628380  0.177490  1.0  0.1168
  H  H950  1  0.714490  0.961710  0.510830  1.0  0.1146
  H  H951  1  0.381160  0.295040  0.844160  1.0  0.115
  H  H952  1  0.007380  0.647530  0.199220  1.0  0.122
  H  H953  1  0.674050  0.980860  0.532560  1.0  0.1272
  H  H954  1  0.340710  0.314200  0.865890  1.0  0.1221
  H  H955  1  0.036290  0.594800  0.187640  1.0  0.1327
  H  H956  1  0.702950  0.928130  0.520970  1.0  0.1325
  H  H957  1  0.369620  0.261460  0.854310  1.0  0.1315
  H  H958  1  0.036890  0.614210  0.259780  1.0  0.1172
  H  H959  1  0.703560  0.947550  0.593110  1.0  0.1176
  H  H960  1  0.370230  0.280880  0.926450  1.0  0.1172
  H  H961  1  0.011880  0.675530  0.250720  1.0  0.1231
  H  H962  1  0.678550  0.008860  0.584050  1.0  0.1228
  H  H963  1  0.345210  0.342190  0.917380  1.0  0.1231
  H  H964  1  0.027760  0.588260  0.248510  1.0  0.1192
  H  H965  1  0.694430  0.921590  0.581850  1.0  0.1196
  H  H966  1  0.361090  0.254920  0.915180  1.0  0.1195
  H  H967  1  0.002860  0.649200  0.239440  1.0  0.1326
  H  H968  1  0.669530  0.982530  0.572780  1.0  0.1346
  H  H969  1  0.336200  0.315870  0.906110  1.0  0.132
  H  H970  1  0.010170  0.408710  0.234230  1.0  0.1143
  H  H971  1  0.676830  0.742050  0.567570  1.0  0.1149
  H  H972  1  0.343500  0.075380  0.900900  1.0  0.1143
  H  H973  1  0.002280  0.395230  0.211890  1.0  0.1178
  H  H974  1  0.668940  0.728570  0.545230  1.0  0.1179
  H  H975  1  0.335610  0.061900  0.878560  1.0  0.1179
  H  H976  1  0.009820  0.456220  0.232680  1.0  0.1296
  H  H977  1  0.676480  0.789550  0.566010  1.0  0.1288
  H  H978  1  0.343150  0.122890  0.899350  1.0  0.1273
  H  H979  1  0.001960  0.442440  0.210460  1.0  0.1224
  H  H980  1  0.668630  0.775780  0.543790  1.0  0.1227
  H  H981  1  0.335300  0.109110  0.877120  1.0  0.1227
  H  H982  1  0.801940  0.180480  0.267160  1.0  0.1414
  H  H983  1  0.468610  0.513810  0.600490  1.0  0.1416
  H  H984  1  0.135270  0.847140  0.933820  1.0  0.1446
  H  H985  1  0.867740  0.260120  0.277780  1.0  0.1447
  H  H986  1  0.534400  0.593450  0.611120  1.0  0.1454
  H  H987  1  0.201070  0.926780  0.944450  1.0  0.1467
  H  H988  1  0.788490  0.195050  0.288670  1.0  0.141
  H  H989  1  0.455150  0.528390  0.622010  1.0  0.1436
  H  H990  1  0.121820  0.861720  0.955340  1.0  0.1441
  H  H991  1  0.655090  0.060270  0.288960  1.0  0.1217
  H  H992  1  0.321750  0.393600  0.622290  1.0  0.1214
  H  H993  1  0.988420  0.726940  0.955620  1.0  0.1214
  H  H994  1  0.666340  0.048930  0.267020  1.0  0.1171
  H  H995  1  0.333010  0.382260  0.600350  1.0  0.1176
  H  H996  1  0.999670  0.715590  0.933680  1.0  0.1174
  H  H997  1  0.703320  0.107920  0.288920  1.0  0.1312
  H  H998  1  0.369990  0.441260  0.622250  1.0  0.1308
  H  H999  1  0.036650  0.774590  0.955590  1.0  0.1312
  H  H1000  1  0.714480  0.096590  0.267080  1.0  0.1255
  H  H1001  1  0.381140  0.429920  0.600410  1.0  0.1264
  H  H1002  1  0.047810  0.763250  0.933740  1.0  0.125
  H  H1003  1  0.837400  0.294360  0.316920  1.0  0.1207
  H  H1004  1  0.504070  0.627690  0.650250  1.0  0.1204
  H  H1005  1  0.170730  0.961030  0.983590  1.0  0.1206
  H  H1006  1  0.919600  0.351650  0.305700  1.0  0.1196
  H  H1007  1  0.586270  0.684990  0.639030  1.0  0.1239
  H  H1008  1  0.252940  0.018320  0.972360  1.0  0.1154
  H  H1009  1  0.819880  0.258670  0.307120  1.0  0.1204
  H  H1010  1  0.486550  0.592000  0.640450  1.0  0.1213
  H  H1011  1  0.153210  0.925340  0.973790  1.0  0.1277
  H  H1012  1  0.901670  0.315630  0.295940  1.0  0.1291
  H  H1013  1  0.568340  0.648960  0.629270  1.0  0.1273
  H  H1014  1  0.235010  0.982300  0.962600  1.0  0.1237
  H  H1015  1  0.956940  0.312770  0.249660  1.0  0.1229
  H  H1016  1  0.623610  0.646100  0.582990  1.0  0.1233
  H  H1017  1  0.290280  0.979430  0.916330  1.0  0.1238
  H  H1018  1  0.901220  0.229580  0.238650  1.0  0.1205
  H  H1019  1  0.567880  0.562910  0.571980  1.0  0.1214
  H  H1020  1  0.234550  0.896240  0.905320  1.0  0.1204
  H  H1021  1  0.921270  0.294310  0.259490  1.0  0.1256
  H  H1022  1  0.587930  0.627640  0.592820  1.0  0.1302
  H  H1023  1  0.254600  0.960980  0.926160  1.0  0.1295
  H  H1024  1  0.865840  0.211520  0.248530  1.0  0.1288
  H  H1025  1  0.532510  0.544850  0.581860  1.0  0.1325
  H  H1026  1  0.199180  0.878180  0.915190  1.0  0.1321
  H  H1027  1  0.648170  0.324130  0.328330  1.0  0.1444
  H  H1028  1  0.314840  0.657460  0.661670  1.0  0.1425
  H  H1029  1  0.981500  0.990800  0.995000  1.0  0.146
  H  H1030  1  0.588310  0.359820  0.328280  1.0  0.1455
  H  H1031  1  0.254980  0.693160  0.661610  1.0  0.1463
  H  H1032  1  0.921650  0.026490  0.994950  1.0  0.1428
  H  H1033  1  0.683960  0.419730  0.328230  1.0  0.1463
  H  H1034  1  0.350620  0.753070  0.661560  1.0  0.1463
  H  H1035  1  0.017290  0.086400  0.994900  1.0  0.144
  H  H1036  1  0.787740  0.342030  0.328270  1.0  0.1238
  H  H1037  1  0.454410  0.675370  0.661600  1.0  0.1237
  H  H1038  1  0.121080  0.008700  0.994930  1.0  0.1235
  H  H1039  1  0.827200  0.438220  0.330320  1.0  0.1205
  H  H1040  1  0.493860  0.771550  0.663650  1.0  0.1214
  H  H1041  1  0.160530  0.104890  0.996980  1.0  0.1216
  H  H1042  1  0.737530  0.336660  0.327720  1.0  0.1249
  H  H1043  1  0.404200  0.669990  0.661060  1.0  0.1247
  H  H1044  1  0.070860  0.003330  0.994390  1.0  0.1247
  H  H1045  1  0.776640  0.432380  0.329770  1.0  0.131
  H  H1046  1  0.443300  0.765710  0.663100  1.0  0.1313
  H  H1047  1  0.109970  0.099040  0.996430  1.0  0.1329
  H  H1048  1  0.666430  0.541420  0.328590  1.0  0.1222
  H  H1049  1  0.333100  0.874750  0.661930  1.0  0.1223
  H  H1050  1  0.999760  0.208090  0.995260  1.0  0.1233
  H  H1051  1  0.569950  0.484680  0.330000  1.0  0.1166
  H  H1052  1  0.236620  0.818010  0.663340  1.0  0.1167
  H  H1053  1  0.903280  0.151340  0.996670  1.0  0.1167
  H  H1054  1  0.671670  0.496540  0.328000  1.0  0.1263
  H  H1055  1  0.338340  0.829870  0.661330  1.0  0.1262
  H  H1056  1  0.005000  0.163210  0.994660  1.0  0.1261
  H  H1057  1  0.575680  0.439910  0.329400  1.0  0.1336
  H  H1058  1  0.242340  0.773240  0.662740  1.0  0.1337
  H  H1059  1  0.909010  0.106580  0.996070  1.0  0.1363
  H  H1060  1  0.466340  0.220650  0.328870  1.0  0.1225
  H  H1061  1  0.133010  0.553990  0.662200  1.0  0.122
  H  H1062  1  0.799680  0.887320  0.995540  1.0  0.1231
  H  H1063  1  0.522970  0.180860  0.330110  1.0  0.1198
  H  H1064  1  0.189640  0.514190  0.663440  1.0  0.1183
  H  H1065  1  0.856310  0.847530  0.996780  1.0  0.1185
  H  H1066  1  0.511330  0.270820  0.328290  1.0  0.1304
  H  H1067  1  0.178000  0.604160  0.661620  1.0  0.1249
  H  H1068  1  0.844670  0.937490  0.994950  1.0  0.1278
  H  H1069  1  0.567810  0.231350  0.329520  1.0  0.1349
  H  H1070  1  0.234480  0.564680  0.662860  1.0  0.1324
  H  H1071  1  0.901140  0.898020  0.996190  1.0  0.1366
  H  H1072  1  0.826150  0.715800  0.266910  1.0  0.1392
  H  H1073  1  0.492820  0.049140  0.600250  1.0  0.1437
  H  H1074  1  0.159480  0.382470  0.933580  1.0  0.1415
  H  H1075  1  0.746440  0.701220  0.277650  1.0  0.1411
  H  H1076  1  0.413110  0.034560  0.610980  1.0  0.1415
  H  H1077  1  0.079780  0.367890  0.944320  1.0  0.1414
  H  H1078  1  0.811780  0.687090  0.288370  1.0  0.1406
  H  H1079  1  0.478440  0.020420  0.621700  1.0  0.1422
  H  H1080  1  0.145110  0.353750  0.955030  1.0  0.1436
  H  H1081  1  0.958950  0.713740  0.266720  1.0  0.1176
  H  H1082  1  0.625620  0.047070  0.600050  1.0  0.1173
  H  H1083  1  0.292290  0.380410  0.933390  1.0  0.1168
  H  H1084  1  0.947300  0.690800  0.288630  1.0  0.1178
  H  H1085  1  0.613960  0.024140  0.621970  1.0  0.118
  H  H1086  1  0.280630  0.357470  0.955300  1.0  0.1182
  H  H1087  1  0.910890  0.713420  0.266750  1.0  0.1253
  H  H1088  1  0.577560  0.046760  0.600080  1.0  0.1305
  H  H1089  1  0.244230  0.380090  0.933410  1.0  0.1308
  H  H1090  1  0.899300  0.690580  0.288560  1.0  0.1249
  H  H1091  1  0.565970  0.023920  0.621890  1.0  0.1263
  H  H1092  1  0.232640  0.357250  0.955230  1.0  0.1248
  H  H1093  1  0.713000  0.636080  0.316770  1.0  0.1206
  H  H1094  1  0.379670  0.969410  0.650100  1.0  0.1206
  H  H1095  1  0.046330  0.302750  0.983430  1.0  0.1206
  H  H1096  1  0.656560  0.662970  0.305930  1.0  0.1196
  H  H1097  1  0.323230  0.996300  0.639260  1.0  0.1189
  H  H1098  1  0.989900  0.329630  0.972600  1.0  0.1193
  H  H1099  1  0.748190  0.653800  0.306860  1.0  0.1346
  H  H1100  1  0.414860  0.987140  0.640190  1.0  0.1264
  H  H1101  1  0.081530  0.320470  0.973520  1.0  0.1326
  H  H1102  1  0.692060  0.680600  0.296060  1.0  0.1267
  H  H1103  1  0.358720  0.013940  0.629390  1.0  0.1284
  H  H1104  1  0.025390  0.347270  0.962730  1.0  0.1249
  H  H1105  1  0.778530  0.767350  0.238640  1.0  0.1216
  H  H1106  1  0.445200  0.100690  0.571970  1.0  0.1205
  H  H1107  1  0.111860  0.434020  0.905300  1.0  0.1205
  H  H1108  1  0.694630  0.739030  0.249410  1.0  0.1202
  H  H1109  1  0.361300  0.072360  0.582750  1.0  0.1202
  H  H1110  1  0.027960  0.405690  0.916080  1.0  0.1201
  H  H1111  1  0.796030  0.749570  0.248510  1.0  0.138
  H  H1112  1  0.462700  0.082910  0.581840  1.0  0.1347
  H  H1113  1  0.129370  0.416240  0.915180  1.0  0.137
  H  H1114  1  0.712520  0.721350  0.259240  1.0  0.1274
  H  H1115  1  0.379190  0.054680  0.592570  1.0  0.1275
  H  H1116  1  0.045860  0.388020  0.925910  1.0  0.1294
  H  H1117  1  0.307890  0.141780  0.277710  1.0  0.1437
  H  H1118  1  0.974560  0.475110  0.611040  1.0  0.1456
  H  H1119  1  0.641220  0.808440  0.944380  1.0  0.1438
  H  H1120  1  0.294260  0.207530  0.267040  1.0  0.1403
  H  H1121  1  0.960930  0.540860  0.600380  1.0  0.1401
  H  H1122  1  0.627590  0.874190  0.933710  1.0  0.1382
  H  H1123  1  0.322120  0.221080  0.288560  1.0  0.1413
  H  H1124  1  0.988790  0.554410  0.621890  1.0  0.1419
  H  H1125  1  0.655450  0.887750  0.955230  1.0  0.1418
  H  H1126  1  0.371400  0.171810  0.316940  1.0  0.1228
  H  H1127  1  0.038060  0.505140  0.650270  1.0  0.1222
  H  H1128  1  0.704730  0.838470  0.983600  1.0  0.1218
  H  H1129  1  0.345320  0.089080  0.305860  1.0  0.121
  H  H1130  1  0.011990  0.422410  0.639190  1.0  0.1212
  H  H1131  1  0.678650  0.755750  0.972530  1.0  0.1222
  H  H1132  1  0.354030  0.189630  0.307060  1.0  0.1301
  H  H1133  1  0.020700  0.522960  0.640390  1.0  0.1237
  H  H1134  1  0.687360  0.856300  0.973720  1.0  0.134
  H  H1135  1  0.328030  0.107310  0.296020  1.0  0.1268
  H  H1136  1  0.994690  0.440640  0.629350  1.0  0.1267
  H  H1137  1  0.661360  0.773970  0.962680  1.0  0.1309
  H  H1138  1  0.296460  0.342250  0.266970  1.0  0.1186
  H  H1139  1  0.963120  0.675590  0.600300  1.0  0.1187
  H  H1140  1  0.629790  0.008920  0.933630  1.0  0.1187
  H  H1141  1  0.318000  0.352960  0.288950  1.0  0.1183
  H  H1142  1  0.984670  0.686290  0.622290  1.0  0.1184
  H  H1143  1  0.651340  0.019620  0.955620  1.0  0.1185
  H  H1144  1  0.297090  0.294690  0.266960  1.0  0.1309
  H  H1145  1  0.963750  0.628030  0.600290  1.0  0.1307
  H  H1146  1  0.630420  0.961360  0.933630  1.0  0.1289
  H  H1147  1  0.318540  0.305350  0.288850  1.0  0.1337
  H  H1148  1  0.985210  0.638690  0.622180  1.0  0.1296
  H  H1149  1  0.651880  0.972020  0.955510  1.0  0.127
  H  H1150  1  0.270820  0.052590  0.249440  1.0  0.1204
  H  H1151  1  0.937480  0.385920  0.582780  1.0  0.1204
  H  H1152  1  0.604150  0.719260  0.916110  1.0  0.1208
  H  H1153  1  0.242330  0.107950  0.238700  1.0  0.1205
  H  H1154  1  0.909000  0.441290  0.572030  1.0  0.1205
  H  H1155  1  0.575670  0.774620  0.905370  1.0  0.1204
  H  H1156  1  0.288590  0.088300  0.259260  1.0  0.1276
  H  H1157  1  0.955250  0.421630  0.592600  1.0  0.1268
  H  H1158  1  0.621920  0.754960  0.925930  1.0  0.1275
  H  H1159  1  0.260200  0.143360  0.248560  1.0  0.1396
  H  H1160  1  0.926870  0.476690  0.581900  1.0  0.1381
  H  H1161  1  0.593530  0.810020  0.915230  1.0  0.1366
  H  H1162  1  0.930630  0.043360  0.227200  1.0  0.1431
  H  H1163  1  0.597290  0.376700  0.560530  1.0  0.1432
  H  H1164  1  0.263960  0.710030  0.893860  1.0  0.1433
  H  H1165  1  0.965630  0.982940  0.227220  1.0  0.1452
  H  H1166  1  0.632300  0.316270  0.560550  1.0  0.146
  H  H1167  1  0.298960  0.649600  0.893890  1.0  0.1452
  H  H1168  1  0.026150  0.078440  0.227310  1.0  0.1457
  H  H1169  1  0.692820  0.411780  0.560640  1.0  0.1453
  H  H1170  1  0.359480  0.745110  0.893970  1.0  0.1458
  H  H1171  1  0.044780  0.222360  0.225660  1.0  0.1193
  H  H1172  1  0.711440  0.555690  0.559000  1.0  0.1183
  H  H1173  1  0.378110  0.889020  0.892330  1.0  0.1185
  H  H1174  1  0.948210  0.182220  0.226770  1.0  0.1207
  H  H1175  1  0.614870  0.515560  0.560100  1.0  0.1219
  H  H1176  1  0.281540  0.848890  0.893440  1.0  0.1209
  H  H1177  1  0.039180  0.171900  0.226240  1.0  0.1347
  H  H1178  1  0.705840  0.505230  0.559570  1.0  0.1345
  H  H1179  1  0.372510  0.838570  0.892900  1.0  0.1347
  H  H1180  1  0.943090  0.132140  0.227340  1.0  0.1239
  H  H1181  1  0.609750  0.465480  0.560670  1.0  0.1239
  H  H1182  1  0.276420  0.798810  0.894010  1.0  0.1239
  H  H1183  1  0.147480  0.060890  0.226910  1.0  0.1244
  H  H1184  1  0.814150  0.394220  0.560240  1.0  0.1243
  H  H1185  1  0.480820  0.727560  0.893580  1.0  0.1244
  H  H1186  1  0.091000  0.964400  0.225590  1.0  0.1189
  H  H1187  1  0.757660  0.297730  0.558920  1.0  0.1177
  H  H1188  1  0.424330  0.631070  0.892250  1.0  0.1177
  H  H1189  1  0.102490  0.065960  0.227480  1.0  0.1269
  H  H1190  1  0.769160  0.399290  0.560810  1.0  0.127
  H  H1191  1  0.435820  0.732630  0.894150  1.0  0.1272
  H  H1192  1  0.046090  0.969950  0.226160  1.0  0.1336
  H  H1193  1  0.712750  0.303280  0.559500  1.0  0.1331
  H  H1194  1  0.379420  0.636610  0.892830  1.0  0.1335
  H  H1195  1  0.786590  0.918390  0.225550  1.0  0.115
  H  H1196  1  0.453260  0.251720  0.558890  1.0  0.1148
  H  H1197  1  0.119920  0.585060  0.892220  1.0  0.115
  H  H1198  1  0.826340  0.861690  0.226600  1.0  0.123
  H  H1199  1  0.493010  0.195020  0.559930  1.0  0.1213
  H  H1200  1  0.159670  0.528360  0.893260  1.0  0.1217
  H  H1201  1  0.837180  0.963180  0.226130  1.0  0.1346
  H  H1202  1  0.503850  0.296510  0.559460  1.0  0.1313
  H  H1203  1  0.170520  0.629850  0.892790  1.0  0.1328
  H  H1204  1  0.876540  0.906570  0.227160  1.0  0.1254
  H  H1205  1  0.543210  0.239900  0.560500  1.0  0.1263
  H  H1206  1  0.209870  0.573230  0.893830  1.0  0.1248
  H  H1207  1  0.110450  0.870520  0.063460  1.0  0.1391
  H  H1208  1  0.777120  0.203850  0.396800  1.0  0.1421
  H  H1209  1  0.443790  0.537190  0.730130  1.0  0.1379
  H  H1210  1  0.105420  0.870050  0.041050  1.0  0.143
  H  H1211  1  0.772090  0.203390  0.374390  1.0  0.1457
  H  H1212  1  0.438750  0.536720  0.707720  1.0  0.1435
  H  H1213  1  0.178160  0.944830  0.051720  1.0  0.1438
  H  H1214  1  0.844820  0.278160  0.385060  1.0  0.1399
  H  H1215  1  0.511490  0.611500  0.718390  1.0  0.1404
  H  H1216  1  0.154200  0.947700  0.093330  1.0  0.1253
  H  H1217  1  0.820860  0.281030  0.426660  1.0  0.1203
  H  H1218  1  0.487530  0.614360  0.759990  1.0  0.1206
  H  H1219  1  0.242360  0.006470  0.084690  1.0  0.1218
  H  H1220  1  0.909030  0.339800  0.418020  1.0  0.1226
  H  H1221  1  0.575690  0.673130  0.751360  1.0  0.1228
  H  H1222  1  0.137630  0.922360  0.081970  1.0  0.1235
  H  H1223  1  0.804300  0.255690  0.415310  1.0  0.1271
  H  H1224  1  0.470960  0.589030  0.748640  1.0  0.1262
  H  H1225  1  0.225330  0.980820  0.073350  1.0  0.1353
  H  H1226  1  0.892000  0.314150  0.406680  1.0  0.1324
  H  H1227  1  0.558670  0.647490  0.740020  1.0  0.1309
  H  H1228  1  0.240930  0.018700  0.022160  1.0  0.121
  H  H1229  1  0.907600  0.352030  0.355490  1.0  0.1208
  H  H1230  1  0.574260  0.685360  0.688830  1.0  0.1209
  H  H1231  1  0.159290  0.961070  0.010810  1.0  0.1165
  H  H1232  1  0.825960  0.294400  0.344150  1.0  0.1167
  H  H1233  1  0.492620  0.627730  0.677480  1.0  0.1163
  H  H1234  1  0.220100  0.986290  0.032480  1.0  0.1234
  H  H1235  1  0.886770  0.319620  0.365810  1.0  0.1248
  H  H1236  1  0.553440  0.652950  0.699140  1.0  0.1236
  H  H1237  1  0.138770  0.928870  0.021210  1.0  0.1339
  H  H1238  1  0.805440  0.262200  0.354540  1.0  0.133
  H  H1239  1  0.472110  0.595540  0.687870  1.0  0.1327
  H  H1240  1  0.979220  0.743140  0.067060  1.0  0.1141
  H  H1241  1  0.645880  0.076480  0.400400  1.0  0.1145
  H  H1242  1  0.312550  0.409810  0.733730  1.0  0.1142
  H  H1243  1  0.971650  0.731210  0.044680  1.0  0.12
  H  H1244  1  0.638310  0.064540  0.378010  1.0  0.1209
  H  H1245  1  0.304980  0.397880  0.711350  1.0  0.1205
  H  H1246  1  0.027000  0.790650  0.065480  1.0  0.1245
  H  H1247  1  0.693670  0.123990  0.398810  1.0  0.1247
  H  H1248  1  0.360330  0.457320  0.732150  1.0  0.1282
  H  H1249  1  0.019270  0.778560  0.043210  1.0  0.1246
  H  H1250  1  0.685930  0.111900  0.376540  1.0  0.1242
  H  H1251  1  0.352600  0.445230  0.709870  1.0  0.1254
  H  H1252  1  0.973840  0.987190  0.111540  1.0  0.1452
  H  H1253  1  0.640510  0.320520  0.444870  1.0  0.1489
  H  H1254  1  0.307170  0.653850  0.778210  1.0  0.1405
  H  H1255  1  0.925260  0.035170  0.111420  1.0  0.1375
  H  H1256  1  0.591930  0.368500  0.444750  1.0  0.1511
  H  H1257  1  0.258590  0.701840  0.778080  1.0  0.1469
  H  H1258  1  0.021920  0.083820  0.111520  1.0  0.1393
  H  H1259  1  0.688590  0.417160  0.444860  1.0  0.1466
  H  H1260  1  0.355260  0.750490  0.778190  1.0  0.1473
  H  H1261  1  0.107630  0.988080  0.109060  1.0  0.1228
  H  H1262  1  0.774290  0.321410  0.442390  1.0  0.1201
  H  H1263  1  0.440960  0.654740  0.775730  1.0  0.1203
  H  H1264  1  0.155320  0.082830  0.114000  1.0  0.1217
  H  H1265  1  0.821980  0.416160  0.447330  1.0  0.121
  H  H1266  1  0.488650  0.749490  0.780670  1.0  0.1217
  H  H1267  1  0.059920  0.988430  0.109110  1.0  0.1228
  H  H1268  1  0.726580  0.321760  0.442440  1.0  0.1237
  H  H1269  1  0.393250  0.655100  0.775770  1.0  0.1231
  H  H1270  1  0.107370  0.082730  0.114030  1.0  0.1229
  H  H1271  1  0.774040  0.416060  0.447360  1.0  0.1229
  H  H1272  1  0.440710  0.749400  0.780700  1.0  0.1258
  H  H1273  1  0.020560  0.216370  0.108480  1.0  0.1236
  H  H1274  1  0.687230  0.549710  0.441820  1.0  0.1224
  H  H1275  1  0.353900  0.883040  0.775150  1.0  0.1233
  H  H1276  1  0.926230  0.169500  0.113870  1.0  0.1207
  H  H1277  1  0.592890  0.502830  0.447200  1.0  0.1203
  H  H1278  1  0.259560  0.836160  0.780540  1.0  0.1212
  H  H1279  1  0.020280  0.168390  0.108620  1.0  0.1245
  H  H1280  1  0.686950  0.501720  0.441950  1.0  0.1232
  H  H1281  1  0.353610  0.835050  0.775280  1.0  0.1282
  H  H1282  1  0.926380  0.121680  0.113980  1.0  0.1277
  H  H1283  1  0.593050  0.455010  0.447320  1.0  0.1272
  H  H1284  1  0.259710  0.788340  0.780650  1.0  0.1288
  H  H1285  1  0.839580  0.853770  0.113820  1.0  0.1184
  H  H1286  1  0.506250  0.187100  0.447150  1.0  0.1204
  H  H1287  1  0.172920  0.520440  0.780490  1.0  0.1198
  H  H1288  1  0.792370  0.901100  0.108770  1.0  0.1196
  H  H1289  1  0.459030  0.234430  0.442100  1.0  0.1203
  H  H1290  1  0.125700  0.567760  0.775430  1.0  0.1204
  H  H1291  1  0.887380  0.901810  0.113890  1.0  0.1256
  H  H1292  1  0.554040  0.235140  0.447230  1.0  0.1278
  H  H1293  1  0.220710  0.568480  0.780560  1.0  0.1239
  H  H1294  1  0.840380  0.948910  0.108860  1.0  0.124
  H  H1295  1  0.507050  0.282250  0.442190  1.0  0.1231
  H  H1296  1  0.173710  0.615580  0.775520  1.0  0.127
  H  H1297  1  0.138450  0.329690  0.200780  1.0  0.1189
  H  H1298  1  0.805110  0.663020  0.534110  1.0  0.1121
  H  H1299  1  0.471780  0.996350  0.867440  1.0  0.112
  H  H1300  1  0.098600  0.309260  0.209600  1.0  0.1127
  H  H1301  1  0.765260  0.642590  0.542930  1.0  0.1112
  H  H1302  1  0.431930  0.975920  0.876270  1.0  0.1136
  H  H1303  1  0.070760  0.371960  0.203100  1.0  0.115
  H  H1304  1  0.737430  0.705290  0.536440  1.0  0.1153
  H  H1305  1  0.404090  0.038630  0.869770  1.0  0.1151
  H  H1306  1  0.111610  0.393570  0.194590  1.0  0.1167
  H  H1307  1  0.778280  0.726900  0.527920  1.0  0.1167
  H  H1308  1  0.444940  0.060230  0.861260  1.0  0.1149
  H  H1309  1  0.185180  0.372470  0.198330  1.0  0.1155
  H  H1310  1  0.851850  0.705810  0.531660  1.0  0.1161
  H  H1311  1  0.518520  0.039140  0.865000  1.0  0.1152
  H  H1312  1  0.225280  0.392370  0.189600  1.0  0.1202
  H  H1313  1  0.891950  0.725700  0.522930  1.0  0.1158
  H  H1314  1  0.558610  0.059030  0.856260  1.0  0.1145
  H  H1315  1  0.167910  0.405360  0.175320  1.0  0.117
  H  H1316  1  0.834580  0.738700  0.508650  1.0  0.1154
  H  H1317  1  0.501250  0.072030  0.841980  1.0  0.1167
  H  H1318  1  0.127180  0.383800  0.183890  1.0  0.1158
  H  H1319  1  0.793850  0.717130  0.517220  1.0  0.1143
  H  H1320  1  0.460520  0.050460  0.850550  1.0  0.1138
  H  H1321  1  0.173440  0.363060  0.130980  1.0  0.1159
  H  H1322  1  0.840110  0.696400  0.464320  1.0  0.1153
  H  H1323  1  0.506770  0.029730  0.797650  1.0  0.1169
  H  H1324  1  0.215870  0.381430  0.139150  1.0  0.1134
  H  H1325  1  0.882530  0.714760  0.472480  1.0  0.1148
  H  H1326  1  0.549200  0.048100  0.805820  1.0  0.1132
  H  H1327  1  0.166310  0.402440  0.154110  1.0  0.1152
  H  H1328  1  0.832980  0.735770  0.487440  1.0  0.1164
  H  H1329  1  0.499650  0.069100  0.820770  1.0  0.1154
  H  H1330  1  0.123500  0.382440  0.146220  1.0  0.1164
  H  H1331  1  0.790170  0.715770  0.479560  1.0  0.1161
  H  H1332  1  0.456840  0.049100  0.812890  1.0  0.1163
  H  H1333  1  0.105910  0.392640  0.136140  1.0  0.1178
  H  H1334  1  0.772580  0.725970  0.469480  1.0  0.1176
  H  H1335  1  0.439250  0.059300  0.802810  1.0  0.1176
  H  H1336  1  0.060700  0.371610  0.128930  1.0  0.1144
  H  H1337  1  0.727370  0.704940  0.462270  1.0  0.1159
  H  H1338  1  0.394030  0.038270  0.795600  1.0  0.1146
  H  H1339  1  0.080330  0.304770  0.121020  1.0  0.1153
  H  H1340  1  0.746990  0.638100  0.454350  1.0  0.1158
  H  H1341  1  0.413660  0.971430  0.787680  1.0  0.1156
  H  H1342  1  0.124540  0.324460  0.128590  1.0  0.1169
  H  H1343  1  0.791200  0.657800  0.461930  1.0  0.1168
  H  H1344  1  0.457870  0.991130  0.795260  1.0  0.1159
  H  H1345  1  0.348900  0.202990  0.034360  1.0  0.115
  H  H1346  1  0.015570  0.536320  0.367690  1.0  0.114
  H  H1347  1  0.682240  0.869650  0.701030  1.0  0.1144
  H  H1348  1  0.368170  0.242280  0.043350  1.0  0.1147
  H  H1349  1  0.034840  0.575610  0.376680  1.0  0.1128
  H  H1350  1  0.701500  0.908950  0.710010  1.0  0.1129
  H  H1351  1  0.303760  0.268060  0.036970  1.0  0.117
  H  H1352  1  0.970430  0.601400  0.370300  1.0  0.1161
  H  H1353  1  0.637100  0.934730  0.703640  1.0  0.1162
  H  H1354  1  0.283330  0.227830  0.028340  1.0  0.1105
  H  H1355  1  0.949990  0.561170  0.361680  1.0  0.1105
  H  H1356  1  0.616660  0.894500  0.695010  1.0  0.1105
  H  H1357  1  0.295010  0.215390  0.017570  1.0  0.1151
  H  H1358  1  0.961680  0.548720  0.350900  1.0  0.1168
  H  H1359  1  0.628340  0.882050  0.684230  1.0  0.1116
  H  H1360  1  0.273350  0.175960  0.008740  1.0  0.1143
  H  H1361  1  0.940010  0.509290  0.342070  1.0  0.1155
  H  H1362  1  0.606680  0.842630  0.675400  1.0  0.1156
  H  H1363  1  0.287590  0.117000  0.022200  1.0  0.1195
  H  H1364  1  0.954260  0.450330  0.355530  1.0  0.1206
  H  H1365  1  0.620930  0.783670  0.688870  1.0  0.1196
  H  H1366  1  0.307600  0.155920  0.031250  1.0  0.1172
  H  H1367  1  0.974260  0.489250  0.364590  1.0  0.117
  H  H1368  1  0.640930  0.822580  0.697920  1.0  0.1169
  H  H1369  1  0.644190  0.826460  0.190240  1.0  0.116
  H  H1370  1  0.310860  0.159790  0.523570  1.0  0.1142
  H  H1371  1  0.977520  0.493120  0.856900  1.0  0.1159
  H  H1372  1  0.663540  0.806190  0.199070  1.0  0.1171
  H  H1373  1  0.330210  0.139520  0.532400  1.0  0.1136
  H  H1374  1  0.996880  0.472860  0.865730  1.0  0.1141
  H  H1375  1  0.676600  0.876980  0.213250  1.0  0.1216
  H  H1376  1  0.343270  0.210320  0.546580  1.0  0.1205
  H  H1377  1  0.009930  0.543650  0.879910  1.0  0.1171
  H  H1378  1  0.655550  0.896180  0.204590  1.0  0.1165
  H  H1379  1  0.322210  0.229520  0.537920  1.0  0.1169
  H  H1380  1  0.988880  0.562850  0.871260  1.0  0.1165
  H  H1381  1  0.602050  0.831020  0.187550  1.0  0.114
  H  H1382  1  0.268710  0.164350  0.520880  1.0  0.114
  H  H1383  1  0.935380  0.497690  0.854210  1.0  0.114
  H  H1384  1  0.582020  0.850850  0.178750  1.0  0.1137
  H  H1385  1  0.248680  0.184180  0.512080  1.0  0.1137
  H  H1386  1  0.915350  0.517510  0.845410  1.0  0.1142
  H  H1387  1  0.644860  0.941150  0.185450  1.0  0.117
  H  H1388  1  0.311530  0.274490  0.518780  1.0  0.1174
  H  H1389  1  0.978190  0.607820  0.852120  1.0  0.1169
  H  H1390  1  0.666090  0.921530  0.193930  1.0  0.1173
  H  H1391  1  0.332750  0.254860  0.527260  1.0  0.117
  H  H1392  1  0.999420  0.588200  0.860590  1.0  0.1173
  H  H1393  1  0.664030  0.927000  0.252670  1.0  0.1158
  H  H1394  1  0.330700  0.260340  0.586010  1.0  0.1158
  H  H1395  1  0.997360  0.593670  0.919340  1.0  0.1171
  H  H1396  1  0.642700  0.950880  0.259900  1.0  0.1149
  H  H1397  1  0.309370  0.284210  0.593230  1.0  0.1155
  H  H1398  1  0.976030  0.617540  0.926560  1.0  0.115
  H  H1399  1  0.576130  0.864130  0.267770  1.0  0.1172
  H  H1400  1  0.242790  0.197460  0.601100  1.0  0.1169
  H  H1401  1  0.909460  0.530790  0.934430  1.0  0.1167
  H  H1402  1  0.596130  0.839910  0.260170  1.0  0.1164
  H  H1403  1  0.262790  0.173240  0.593500  1.0  0.1164
  H  H1404  1  0.929460  0.506580  0.926840  1.0  0.1166
  H  H1405  1  0.635040  0.830080  0.257800  1.0  0.1168
  H  H1406  1  0.301700  0.163410  0.591140  1.0  0.1155
  H  H1407  1  0.968370  0.496740  0.924470  1.0  0.1159
  H  H1408  1  0.653470  0.806120  0.249620  1.0  0.1157
  H  H1409  1  0.320140  0.139460  0.582950  1.0  0.116
  H  H1410  1  0.986800  0.472790  0.916290  1.0  0.1198
  H  H1411  1  0.674180  0.876530  0.234670  1.0  0.1158
  H  H1412  1  0.340840  0.209870  0.568000  1.0  0.116
  H  H1413  1  0.007510  0.543200  0.901340  1.0  0.1131
  H  H1414  1  0.654100  0.899250  0.242580  1.0  0.1175
  H  H1415  1  0.320770  0.232580  0.575910  1.0  0.1178
  H  H1416  1  0.987440  0.565920  0.909240  1.0  0.1169
  H  H1417  1  0.979530  0.503290  0.297640  1.0  0.1142
  H  H1418  1  0.646200  0.836630  0.630970  1.0  0.1148
  H  H1419  1  0.312870  0.169960  0.964310  1.0  0.1113
  H  H1420  1  0.961500  0.460890  0.305790  1.0  0.1126
  H  H1421  1  0.628170  0.794230  0.639120  1.0  0.1121
  H  H1422  1  0.294840  0.127560  0.972460  1.0  0.1152
  H  H1423  1  0.939940  0.509870  0.320780  1.0  0.1162
  H  H1424  1  0.606600  0.843210  0.654110  1.0  0.1161
  H  H1425  1  0.273270  0.176540  0.987450  1.0  0.1162
  H  H1426  1  0.959700  0.552750  0.312920  1.0  0.1173
  H  H1427  1  0.626370  0.886080  0.646250  1.0  0.1178
  H  H1428  1  0.293040  0.219420  0.979590  1.0  0.1172
  H  H1429  1  0.017830  0.552000  0.295240  1.0  0.1152
  H  H1430  1  0.684500  0.885340  0.628570  1.0  0.1147
  H  H1431  1  0.351160  0.218670  0.961910  1.0  0.1159
  H  H1432  1  0.037480  0.596200  0.287670  1.0  0.1156
  H  H1433  1  0.704150  0.929540  0.621000  1.0  0.1153
  H  H1434  1  0.370820  0.262870  0.954340  1.0  0.1151
  H  H1435  1  0.970900  0.616010  0.295700  1.0  0.1157
  H  H1436  1  0.637570  0.949340  0.629030  1.0  0.1166
  H  H1437  1  0.304230  0.282680  0.962370  1.0  0.1156
  H  H1438  1  0.949830  0.570730  0.302890  1.0  0.1145
  H  H1439  1  0.616500  0.904060  0.636220  1.0  0.1145
  H  H1440  1  0.283160  0.237400  0.969560  1.0  0.1148
  H  H1441  1  0.156080  0.411650  0.260390  1.0  0.1168
  H  H1442  1  0.822750  0.744990  0.593720  1.0  0.1166
  H  H1443  1  0.489420  0.078320  0.927060  1.0  0.1169
  H  H1444  1  0.199940  0.431120  0.268080  1.0  0.1164
  H  H1445  1  0.866600  0.764450  0.601410  1.0  0.1156
  H  H1446  1  0.533270  0.097790  0.934740  1.0  0.1153
  H  H1447  1  0.221100  0.365850  0.259820  1.0  0.1165
  H  H1448  1  0.887770  0.699190  0.593150  1.0  0.1165
  H  H1449  1  0.554430  0.032520  0.926480  1.0  0.1173
  H  H1450  1  0.176240  0.345020  0.252490  1.0  0.1174
  H  H1451  1  0.842900  0.678350  0.585820  1.0  0.1166
  H  H1452  1  0.509570  0.011690  0.919160  1.0  0.1152
  H  H1453  1  0.107570  0.372850  0.257860  1.0  0.1146
  H  H1454  1  0.774240  0.706190  0.591190  1.0  0.1154
  H  H1455  1  0.440900  0.039520  0.924520  1.0  0.1154
  H  H1456  1  0.065300  0.354620  0.249670  1.0  0.1145
  H  H1457  1  0.731960  0.687960  0.583000  1.0  0.1179
  H  H1458  1  0.398630  0.021290  0.916330  1.0  0.1141
  H  H1459  1  0.115760  0.335620  0.234540  1.0  0.1168
  H  H1460  1  0.782430  0.668950  0.567870  1.0  0.1168
  H  H1461  1  0.449100  0.002280  0.901210  1.0  0.1167
  H  H1462  1  0.158490  0.355530  0.242470  1.0  0.1153
  H  H1463  1  0.825150  0.688870  0.575800  1.0  0.1155
  H  H1464  1  0.491820  0.022200  0.909140  1.0  0.1152
  H  H1465  1  0.426650  0.004770  0.301930  1.0  0.1157
  H  H1466  1  0.093320  0.338100  0.635260  1.0  0.1161
  H  H1467  1  0.759980  0.671440  0.968590  1.0  0.1147
  H  H1468  1  0.403070  0.025030  0.309710  1.0  0.1154
  H  H1469  1  0.069740  0.358360  0.643040  1.0  0.1153
  H  H1470  1  0.736400  0.691690  0.976370  1.0  0.1153
  H  H1471  1  0.490790  0.093510  0.316660  1.0  0.113
  H  H1472  1  0.157460  0.426840  0.649990  1.0  0.1146
  H  H1473  1  0.824120  0.760180  0.983320  1.0  0.1139
  H  H1474  1  0.514260  0.074410  0.308660  1.0  0.1173
  H  H1475  1  0.180930  0.407750  0.641990  1.0  0.1173
  H  H1476  1  0.847600  0.741080  0.975330  1.0  0.1167
  H  H1477  1  0.455450  0.012750  0.291630  1.0  0.1163
  H  H1478  1  0.122110  0.346090  0.624960  1.0  0.1166
  H  H1479  1  0.788780  0.679420  0.958290  1.0  0.117
  H  H1480  1  0.479470  0.991470  0.284340  1.0  0.1138
  H  H1481  1  0.146140  0.324800  0.617670  1.0  0.1137
  H  H1482  1  0.812800  0.658130  0.951010  1.0  0.1138
  H  H1483  1  0.547180  0.014030  0.300150  1.0  0.118
  H  H1484  1  0.213850  0.347370  0.633490  1.0  0.118
  H  H1485  1  0.880510  0.680700  0.966820  1.0  0.1177
  H  H1486  1  0.522420  0.033820  0.307560  1.0  0.1146
  H  H1487  1  0.189090  0.367150  0.640890  1.0  0.1153
  H  H1488  1  0.855760  0.700490  0.974220  1.0  0.1154
  H  H1489  1  0.087480  0.840390  0.194140  1.0  0.1147
  H  H1490  1  0.754150  0.173720  0.527470  1.0  0.1138
  H  H1491  1  0.420820  0.507050  0.860810  1.0  0.1141
  H  H1492  1  0.067650  0.799340  0.185690  1.0  0.1174
  H  H1493  1  0.734310  0.132670  0.519030  1.0  0.1173
  H  H1494  1  0.400980  0.466010  0.852360  1.0  0.1173
  H  H1495  1  0.157830  0.826850  0.178860  1.0  0.1128
  H  H1496  1  0.824500  0.160180  0.512190  1.0  0.1127
  H  H1497  1  0.491160  0.493510  0.845530  1.0  0.1131
  H  H1498  1  0.177870  0.866900  0.187630  1.0  0.1086
  H  H1499  1  0.844540  0.200230  0.520970  1.0  0.1083
  H  H1500  1  0.511210  0.533560  0.854300  1.0  0.1085
  H  H1501  1  0.182510  0.913680  0.190290  1.0  0.1156
  H  H1502  1  0.849170  0.247010  0.523620  1.0  0.1143
  H  H1503  1  0.515840  0.580340  0.856950  1.0  0.1153
  H  H1504  1  0.203000  0.953610  0.199060  1.0  0.1195
  H  H1505  1  0.869660  0.286940  0.532400  1.0  0.1185
  H  H1506  1  0.536330  0.620270  0.865730  1.0  0.1177
  H  H1507  1  0.132540  0.896170  0.213360  1.0  0.1155
  H  H1508  1  0.799210  0.229500  0.546700  1.0  0.1149
  H  H1509  1  0.465880  0.562830  0.880030  1.0  0.1151
  H  H1510  1  0.113140  0.855620  0.204760  1.0  0.1158
  H  H1511  1  0.779800  0.188960  0.538090  1.0  0.116
  H  H1512  1  0.446470  0.522290  0.871430  1.0  0.1161
  H  H1513  1  0.821800  0.229570  0.038790  1.0  0.1163
  H  H1514  1  0.488460  0.562900  0.372120  1.0  0.1164
  H  H1515  1  0.155130  0.896230  0.705450  1.0  0.1177
  H  H1516  1  0.780920  0.210450  0.047340  1.0  0.1175
  H  H1517  1  0.447580  0.543780  0.380670  1.0  0.1174
  H  H1518  1  0.114250  0.877110  0.714000  1.0  0.1179
  H  H1519  1  0.723140  0.141090  0.032860  1.0  0.1157
  H  H1520  1  0.389810  0.474430  0.366200  1.0  0.1155
  H  H1521  1  0.056480  0.807760  0.699530  1.0  0.1156
  H  H1522  1  0.763370  0.161230  0.024170  1.0  0.1152
  H  H1523  1  0.430030  0.494570  0.357500  1.0  0.1149
  H  H1524  1  0.096700  0.827900  0.690840  1.0  0.1153
  H  H1525  1  0.809790  0.164740  0.021650  1.0  0.1152
  H  H1526  1  0.476460  0.498070  0.354980  1.0  0.1155
  H  H1527  1  0.143120  0.831410  0.688310  1.0  0.1156
  H  H1528  1  0.849370  0.184220  0.012760  1.0  0.1126
  H  H1529  1  0.516040  0.517550  0.346090  1.0  0.1126
  H  H1530  1  0.182700  0.850880  0.679430  1.0  0.1129
  H  H1531  1  0.878290  0.274720  0.019560  1.0  0.116
  H  H1532  1  0.544950  0.608050  0.352890  1.0  0.1166
  H  H1533  1  0.211620  0.941380  0.686220  1.0  0.116
  H  H1534  1  0.837700  0.255420  0.028140  1.0  0.1176
  H  H1535  1  0.504370  0.588760  0.361480  1.0  0.1174
  H  H1536  1  0.171040  0.922090  0.694810  1.0  0.1181
  H  H1537  1  0.455320  0.503510  0.313470  1.0  0.116
  H  H1538  1  0.121980  0.836850  0.646810  1.0  0.1153
  H  H1539  1  0.788650  0.170180  0.980140  1.0  0.1161
  H  H1540  1  0.498390  0.526410  0.321300  1.0  0.1175
  H  H1541  1  0.165050  0.859740  0.654630  1.0  0.1172
  H  H1542  1  0.831720  0.193080  0.987970  1.0  0.1174
  H  H1543  1  0.548220  0.595800  0.306120  1.0  0.1132
  H  H1544  1  0.214890  0.929140  0.639460  1.0  0.1134
  H  H1545  1  0.881560  0.262470  0.972790  1.0  0.1131
  H  H1546  1  0.505600  0.571670  0.298030  1.0  0.1139
  H  H1547  1  0.172270  0.905000  0.631360  1.0  0.1158
  H  H1548  1  0.838940  0.238340  0.964700  1.0  0.1149
  H  H1549  1  0.457100  0.562070  0.295640  1.0  0.1165
  H  H1550  1  0.123760  0.895400  0.628980  1.0  0.1177
  H  H1551  1  0.790430  0.228740  0.962310  1.0  0.1164
  H  H1552  1  0.412960  0.537720  0.288040  1.0  0.1162
  H  H1553  1  0.079630  0.871060  0.621370  1.0  0.1156
  H  H1554  1  0.746300  0.204390  0.954710  1.0  0.1169
  H  H1555  1  0.391770  0.451220  0.296240  1.0  0.1175
  H  H1556  1  0.058440  0.784560  0.629570  1.0  0.117
  H  H1557  1  0.725100  0.117890  0.962900  1.0  0.1169
  H  H1558  1  0.436900  0.475200  0.303480  1.0  0.1157
  H  H1559  1  0.103570  0.808540  0.636810  1.0  0.1158
  H  H1560  1  0.770230  0.141870  0.970140  1.0  0.1164
  H  H1561  1  0.082290  0.833610  0.252480  1.0  0.1158
  H  H1562  1  0.748960  0.166940  0.585820  1.0  0.1152
  H  H1563  1  0.415630  0.500280  0.919150  1.0  0.1157
  H  H1564  1  0.057940  0.788450  0.259710  1.0  0.1162
  H  H1565  1  0.724610  0.121780  0.593040  1.0  0.1174
  H  H1566  1  0.391280  0.455120  0.926370  1.0  0.1161
  H  H1567  1  0.144250  0.808650  0.267850  1.0  0.1141
  H  H1568  1  0.810910  0.141980  0.601180  1.0  0.1142
  H  H1569  1  0.477580  0.475320  0.934520  1.0  0.1139
  H  H1570  1  0.168950  0.852820  0.260250  1.0  0.116
  H  H1571  1  0.835620  0.186150  0.593590  1.0  0.1153
  H  H1572  1  0.502290  0.519480  0.926920  1.0  0.1149
  H  H1573  1  0.110550  0.851260  0.242450  1.0  0.1153
  H  H1574  1  0.777220  0.184590  0.575780  1.0  0.1167
  H  H1575  1  0.443890  0.517930  0.909120  1.0  0.1165
  H  H1576  1  0.133530  0.894070  0.234560  1.0  0.1174
  H  H1577  1  0.800200  0.227400  0.567890  1.0  0.1172
  H  H1578  1  0.466860  0.560730  0.901230  1.0  0.1173
  H  H1579  1  0.203340  0.944010  0.249640  1.0  0.1154
  H  H1580  1  0.870000  0.277340  0.582970  1.0  0.1139
  H  H1581  1  0.536670  0.610680  0.916310  1.0  0.1139
  H  H1582  1  0.179090  0.901590  0.257800  1.0  0.1174
  H  H1583  1  0.845760  0.234920  0.591140  1.0  0.116
  H  H1584  1  0.512420  0.568260  0.924470  1.0  0.1167
  H  H1585  1  0.855540  0.250650  0.081640  1.0  0.1141
  H  H1586  1  0.522210  0.583980  0.414980  1.0  0.1137
  H  H1587  1  0.188880  0.917310  0.748310  1.0  0.1159
  H  H1588  1  0.900490  0.275590  0.088910  1.0  0.1168
  H  H1589  1  0.567150  0.608920  0.422240  1.0  0.1169
  H  H1590  1  0.233820  0.942260  0.755580  1.0  0.1169
  H  H1591  1  0.856370  0.207720  0.104750  1.0  0.1153
  H  H1592  1  0.523040  0.541050  0.438080  1.0  0.1157
  H  H1593  1  0.189700  0.874390  0.771420  1.0  0.1153
  H  H1594  1  0.810660  0.183460  0.097590  1.0  0.1188
  H  H1595  1  0.477320  0.516790  0.430930  1.0  0.1182
  H  H1596  1  0.143990  0.850130  0.764260  1.0  0.1184
  H  H1597  1  0.789570  0.154680  0.087260  1.0  0.1194
  H  H1598  1  0.456240  0.488020  0.420590  1.0  0.1205
  H  H1599  1  0.122900  0.821350  0.753930  1.0  0.1171
  H  H1600  1  0.745630  0.130980  0.079510  1.0  0.1162
  H  H1601  1  0.412300  0.464320  0.412840  1.0  0.1157
  H  H1602  1  0.078970  0.797650  0.746170  1.0  0.1152
  H  H1603  1  0.763840  0.218640  0.072840  1.0  0.1142
  H  H1604  1  0.430510  0.551980  0.406170  1.0  0.1134
  H  H1605  1  0.097180  0.885310  0.739500  1.0  0.1131
  H  H1606  1  0.806500  0.242180  0.080790  1.0  0.117
  H  H1607  1  0.473160  0.575510  0.414130  1.0  0.1168
  H  H1608  1  0.139830  0.908840  0.747460  1.0  0.1163
  H  H1609  1  0.779800  0.688030  0.038380  1.0  0.114
  H  H1610  1  0.446460  0.021360  0.371710  1.0  0.1142
  H  H1611  1  0.113130  0.354690  0.705050  1.0  0.1144
  H  H1612  1  0.799290  0.667120  0.047020  1.0  0.1167
  H  H1613  1  0.465950  0.000450  0.380360  1.0  0.1166
  H  H1614  1  0.132620  0.333780  0.713690  1.0  0.1168
  H  H1615  1  0.868670  0.678410  0.032570  1.0  0.1144
  H  H1616  1  0.535330  0.011750  0.365910  1.0  0.1147
  H  H1617  1  0.202000  0.345080  0.699240  1.0  0.1147
  H  H1618  1  0.848150  0.697630  0.023790  1.0  0.1129
  H  H1619  1  0.514810  0.030960  0.357120  1.0  0.1141
  H  H1620  1  0.181480  0.364300  0.690450  1.0  0.1139
  H  H1621  1  0.844230  0.740150  0.021100  1.0  0.1154
  H  H1622  1  0.510900  0.073480  0.354440  1.0  0.1155
  H  H1623  1  0.177570  0.406810  0.687770  1.0  0.1159
  H  H1624  1  0.824390  0.759880  0.012240  1.0  0.1135
  H  H1625  1  0.491060  0.093210  0.345570  1.0  0.1138
  H  H1626  1  0.157720  0.426550  0.678910  1.0  0.1134
  H  H1627  1  0.734120  0.698150  0.019200  1.0  0.116
  H  H1628  1  0.400790  0.031480  0.352530  1.0  0.1159
  H  H1629  1  0.067450  0.364810  0.685870  1.0  0.1159
  H  H1630  1  0.753760  0.677220  0.027760  1.0  0.1162
  H  H1631  1  0.420430  0.010550  0.361090  1.0  0.1158
  H  H1632  1  0.087090  0.343880  0.694420  1.0  0.116
  H  H1633  1  0.826260  0.724770  0.097380  1.0  0.1167
  H  H1634  1  0.492920  0.058100  0.430720  1.0  0.1165
  H  H1635  1  0.159590  0.391440  0.764050  1.0  0.1165
  H  H1636  1  0.801900  0.745830  0.104630  1.0  0.1146
  H  H1637  1  0.468570  0.079170  0.437960  1.0  0.1158
  H  H1638  1  0.135240  0.412500  0.771300  1.0  0.1147
  H  H1639  1  0.733590  0.721680  0.088900  1.0  0.1149
  H  H1640  1  0.400260  0.055020  0.422230  1.0  0.1148
  H  H1641  1  0.066930  0.388350  0.755560  1.0  0.1149
  H  H1642  1  0.758650  0.702090  0.081530  1.0  0.1129
  H  H1643  1  0.425310  0.035420  0.414860  1.0  0.1142
  H  H1644  1  0.091980  0.368750  0.748200  1.0  0.1147
  H  H1645  1  0.767470  0.661860  0.080540  1.0  0.1161
  H  H1646  1  0.434140  0.995200  0.413870  1.0  0.1158
  H  H1647  1  0.100810  0.328530  0.747210  1.0  0.1156
  H  H1648  1  0.791130  0.642940  0.072550  1.0  0.1115
  H  H1649  1  0.457790  0.976270  0.405890  1.0  0.1115
  H  H1650  1  0.124460  0.309600  0.739220  1.0  0.1115
  H  H1651  1  0.878720  0.712600  0.079260  1.0  0.1151
  H  H1652  1  0.545380  0.045930  0.412590  1.0  0.1152
  H  H1653  1  0.212050  0.379260  0.745920  1.0  0.1149
  H  H1654  1  0.854910  0.732670  0.087040  1.0  0.12
  H  H1655  1  0.521570  0.066000  0.420370  1.0  0.1168
  H  H1656  1  0.188240  0.399330  0.753700  1.0  0.1198
  H  H1657  1  0.285580  0.198010  0.097560  1.0  0.1164
  H  H1658  1  0.952240  0.531340  0.430890  1.0  0.117
  H  H1659  1  0.618910  0.864670  0.764230  1.0  0.1157
  H  H1660  1  0.263960  0.152770  0.104870  1.0  0.1148
  H  H1661  1  0.930630  0.486100  0.438200  1.0  0.1153
  H  H1662  1  0.597300  0.819440  0.771530  1.0  0.1148
  H  H1663  1  0.287580  0.107620  0.089250  1.0  0.1148
  H  H1664  1  0.954250  0.440950  0.422590  1.0  0.1151
  H  H1665  1  0.620920  0.774280  0.755920  1.0  0.115
  H  H1666  1  0.307660  0.152060  0.081820  1.0  0.1154
  H  H1667  1  0.974320  0.485390  0.415160  1.0  0.1148
  H  H1668  1  0.640990  0.818720  0.748490  1.0  0.1153
  H  H1669  1  0.348040  0.200860  0.080700  1.0  0.1125
  H  H1670  1  0.014710  0.534200  0.414030  1.0  0.1128
  H  H1671  1  0.681380  0.867530  0.747360  1.0  0.1141
  H  H1672  1  0.367140  0.243170  0.072630  1.0  0.1128
  H  H1673  1  0.033800  0.576500  0.405960  1.0  0.1112
  H  H1674  1  0.700470  0.909830  0.739300  1.0  0.1121
  H  H1675  1  0.298230  0.262110  0.079380  1.0  0.1167
  H  H1676  1  0.964900  0.595440  0.412710  1.0  0.1168
  H  H1677  1  0.631560  0.928780  0.746050  1.0  0.118
  H  H1678  1  0.277950  0.218510  0.087220  1.0  0.1152
  H  H1679  1  0.944620  0.551840  0.420550  1.0  0.1146
  H  H1680  1  0.611290  0.885180  0.753880  1.0  0.1159
  H  H1681  1  0.121550  0.871990  0.125130  1.0  0.1168
  H  H1682  1  0.788220  0.205330  0.458460  1.0  0.1171
  H  H1683  1  0.454880  0.538660  0.791790  1.0  0.1171
  H  H1684  1  0.145650  0.917470  0.117900  1.0  0.1141
  H  H1685  1  0.812310  0.250800  0.451240  1.0  0.1151
  H  H1686  1  0.478980  0.584140  0.784570  1.0  0.1141
  H  H1687  1  0.213720  0.962100  0.133680  1.0  0.1184
  H  H1688  1  0.880380  0.295440  0.467010  1.0  0.1183
  H  H1689  1  0.547050  0.628770  0.800340  1.0  0.1184
  H  H1690  1  0.188890  0.917390  0.141020  1.0  0.1157
  H  H1691  1  0.855550  0.250730  0.474360  1.0  0.1165
  H  H1692  1  0.522220  0.584060  0.807690  1.0  0.1153
  H  H1693  1  0.180540  0.868520  0.141990  1.0  0.1149
  H  H1694  1  0.847210  0.201850  0.475330  1.0  0.1147
  H  H1695  1  0.513880  0.535190  0.808660  1.0  0.115
  H  H1696  1  0.157090  0.825770  0.149930  1.0  0.1125
  H  H1697  1  0.823760  0.159110  0.483270  1.0  0.1121
  H  H1698  1  0.490430  0.492440  0.816600  1.0  0.1117
  H  H1699  1  0.069340  0.806930  0.143150  1.0  0.112
  H  H1700  1  0.736010  0.140260  0.476480  1.0  0.1128
  H  H1701  1  0.402680  0.473600  0.809820  1.0  0.1126
  H  H1702  1  0.092910  0.850960  0.135430  1.0  0.116
  H  H1703  1  0.759580  0.184290  0.468770  1.0  0.1158
  H  H1704  1  0.426250  0.517620  0.802100  1.0  0.1154
  H  H1705  1  0.639880  0.819090  0.140660  1.0  0.1157
  H  H1706  1  0.306540  0.152430  0.474000  1.0  0.1154
  H  H1707  1  0.973210  0.485760  0.807330  1.0  0.1154
  H  H1708  1  0.659820  0.794340  0.133300  1.0  0.119
  H  H1709  1  0.326480  0.127680  0.466640  1.0  0.119
  H  H1710  1  0.993150  0.461010  0.799970  1.0  0.1192
  H  H1711  1  0.683510  0.862550  0.117560  1.0  0.1139
  H  H1712  1  0.350180  0.195890  0.450900  1.0  0.1137
  H  H1713  1  0.016850  0.529220  0.784230  1.0  0.1136
  H  H1714  1  0.662070  0.886560  0.124800  1.0  0.1182
  H  H1715  1  0.328740  0.219890  0.458130  1.0  0.1183
  H  H1716  1  0.995400  0.553220  0.791460  1.0  0.118
  H  H1717  1  0.669880  0.915150  0.135100  1.0  0.1176
  H  H1718  1  0.336540  0.248480  0.468430  1.0  0.1174
  H  H1719  1  0.003210  0.581820  0.801760  1.0  0.1186
  H  H1720  1  0.649790  0.938860  0.142880  1.0  0.1132
  H  H1721  1  0.316460  0.272190  0.476220  1.0  0.1138
  H  H1722  1  0.983120  0.605520  0.809550  1.0  0.1139
  H  H1723  1  0.580600  0.851260  0.149720  1.0  0.1151
  H  H1724  1  0.247270  0.184600  0.483060  1.0  0.114
  H  H1725  1  0.913930  0.517930  0.816390  1.0  0.1127
  H  H1726  1  0.599530  0.827670  0.141710  1.0  0.1113
  H  H1727  1  0.266190  0.161000  0.475050  1.0  0.116
  H  H1728  1  0.932860  0.494330  0.808380  1.0  0.1164
  C  C1729  1  0.220240  0.405840  0.152190  1.0  0.6925
  C  C1730  1  0.886910  0.739170  0.485520  1.0  0.6929
  C  C1731  1  0.553570  0.072500  0.818850  1.0  0.6916
  C  C1732  1  0.281660  0.501010  0.162960  1.0  0.6891
  C  C1733  1  0.948330  0.834340  0.496290  1.0  0.6852
  C  C1734  1  0.614990  0.167680  0.829630  1.0  0.6894
  C  C1735  1  0.223620  0.411660  0.176460  1.0  0.6963
  C  C1736  1  0.890280  0.745000  0.509790  1.0  0.6946
  C  C1737  1  0.556950  0.078330  0.843120  1.0  0.6962
  C  C1738  1  0.329560  0.461770  0.176490  1.0  0.6764
  C  C1739  1  0.996230  0.795110  0.509830  1.0  0.6793
  C  C1740  1  0.662890  0.128440  0.843160  1.0  0.6737
  C  C1741  1  0.273890  0.367510  0.165190  1.0  0.6847
  C  C1742  1  0.940560  0.700840  0.498530  1.0  0.6846
  C  C1743  1  0.607230  0.034180  0.831860  1.0  0.6847
  C  C1744  1  0.327310  0.453890  0.151250  1.0  0.6855
  C  C1745  1  0.993980  0.787220  0.484590  1.0  0.69
  C  C1746  1  0.660650  0.120550  0.817920  1.0  0.6864
  C  C1747  1  0.143900  0.334160  0.052240  1.0  0.1453
  C  C1748  1  0.810570  0.667490  0.385570  1.0  0.1427
  C  C1749  1  0.477240  0.000820  0.718910  1.0  0.1444
  C  C1750  1  0.102680  0.330740  0.045360  1.0  0.0459
  C  C1751  1  0.769340  0.664070  0.378700  1.0  0.0455
  C  C1752  1  0.436010  0.997410  0.712030  1.0  0.0434
  C  C1753  1  0.101440  0.333170  0.058000  1.0  0.0576
  C  C1754  1  0.768110  0.666500  0.391330  1.0  0.0627
  C  C1755  1  0.434780  0.999840  0.724660  1.0  0.0714
  C  C1756  1  0.130640  0.332210  0.045720  1.0  -0.053
  C  C1757  1  0.797300  0.665540  0.379060  1.0  -0.0434
  C  C1758  1  0.463970  0.998880  0.712390  1.0  -0.0256
  C  C1759  1  0.088110  0.331220  0.051510  1.0  -0.0624
  C  C1760  1  0.754780  0.664550  0.384850  1.0  -0.0324
  C  C1761  1  0.421440  0.997880  0.718180  1.0  -0.0576
  C  C1762  1  0.129310  0.334710  0.058350  1.0  0.0018
  C  C1763  1  0.795980  0.668040  0.391680  1.0  -0.0003
  C  C1764  1  0.462640  0.001380  0.725010  1.0  0.0033
  C  C1765  1  0.239880  0.335630  0.048660  1.0  -0.1499
  C  C1766  1  0.906540  0.668960  0.381990  1.0  -0.1518
  C  C1767  1  0.573210  0.002290  0.715330  1.0  -0.1529
  C  C1768  1  0.266680  0.335350  0.049540  1.0  -0.0854
  C  C1769  1  0.933350  0.668690  0.382870  1.0  -0.0817
  C  C1770  1  0.600010  0.002020  0.716210  1.0  -0.0843
  C  C1771  1  0.276940  0.333850  0.056270  1.0  -0.0881
  C  C1772  1  0.943610  0.667180  0.389600  1.0  -0.0858
  C  C1773  1  0.610270  0.000510  0.722940  1.0  -0.0872
  C  C1774  1  0.259660  0.332620  0.062090  1.0  -0.0867
  C  C1775  1  0.926320  0.665960  0.395430  1.0  -0.0856
  C  C1776  1  0.592990  0.999290  0.728760  1.0  -0.0841
  C  C1777  1  0.232770  0.332900  0.061190  1.0  -0.1507
  C  C1778  1  0.899440  0.666240  0.394520  1.0  -0.1526
  C  C1779  1  0.566100  0.999570  0.727850  1.0  -0.1534
  C  C1780  1  0.222900  0.334420  0.054470  1.0  0.0358
  C  C1781  1  0.889560  0.667760  0.387800  1.0  0.0384
  C  C1782  1  0.556230  0.001090  0.721140  1.0  0.0378
  C  C1783  1  0.069150  0.316910  0.082220  1.0  -0.1272
  C  C1784  1  0.735810  0.650240  0.415550  1.0  -0.1223
  C  C1785  1  0.402480  0.983570  0.748880  1.0  -0.1225
  C  C1786  1  0.054590  0.312060  0.088640  1.0  -0.0863
  C  C1787  1  0.721260  0.645390  0.421980  1.0  -0.0788
  C  C1788  1  0.387920  0.978720  0.755310  1.0  -0.0793
  C  C1789  1  0.030250  0.317130  0.089430  1.0  -0.0879
  C  C1790  1  0.696920  0.650460  0.422760  1.0  -0.0815
  C  C1791  1  0.363590  0.983790  0.756100  1.0  -0.0881
  C  C1792  1  0.021300  0.327810  0.083670  1.0  -0.0801
  C  C1793  1  0.687970  0.661140  0.417000  1.0  -0.08
  C  C1794  1  0.354640  0.994480  0.750340  1.0  -0.078
  C  C1795  1  0.035940  0.332610  0.077240  1.0  -0.1411
  C  C1796  1  0.702600  0.665940  0.410570  1.0  -0.1511
  C  C1797  1  0.369270  0.999280  0.743910  1.0  -0.1531
  C  C1798  1  0.059680  0.326900  0.076500  1.0  0.035
  C  C1799  1  0.726350  0.660240  0.409830  1.0  0.0347
  C  C1800  1  0.393020  0.993570  0.743170  1.0  0.0395
  C  C1801  1  0.061680  0.308070  0.021130  1.0  -0.1187
  C  C1802  1  0.728350  0.641400  0.354470  1.0  -0.1424
  C  C1803  1  0.395020  0.974730  0.687800  1.0  -0.1276
  C  C1804  1  0.042620  0.301650  0.015370  1.0  -0.0736
  C  C1805  1  0.709280  0.634990  0.348710  1.0  -0.0742
  C  C1806  1  0.375950  0.968320  0.682040  1.0  -0.0759
  C  C1807  1  0.018310  0.307030  0.015680  1.0  -0.0991
  C  C1808  1  0.684980  0.640360  0.349010  1.0  -0.0986
  C  C1809  1  0.351640  0.973690  0.682340  1.0  -0.097
  C  C1810  1  0.014170  0.319820  0.021780  1.0  -0.0773
  C  C1811  1  0.680840  0.653150  0.355120  1.0  -0.0774
  C  C1812  1  0.347510  0.986480  0.688450  1.0  -0.0779
  C  C1813  1  0.033270  0.326240  0.027500  1.0  -0.1441
  C  C1814  1  0.699940  0.659580  0.360830  1.0  -0.144
  C  C1815  1  0.366610  0.992910  0.694170  1.0  -0.1438
  C  C1816  1  0.056810  0.320050  0.027230  1.0  0.101
  C  C1817  1  0.723480  0.653390  0.360560  1.0  0.0955
  C  C1818  1  0.390140  0.986720  0.693900  1.0  0.1118
  C  C1819  1  0.195250  0.334580  0.053510  1.0  -0.0847
  C  C1820  1  0.861920  0.667910  0.386850  1.0  -0.0848
  C  C1821  1  0.528580  0.001240  0.720180  1.0  -0.0921
  C  C1822  1  0.171960  0.334530  0.052790  1.0  -0.0695
  C  C1823  1  0.838630  0.667870  0.386130  1.0  -0.0665
  C  C1824  1  0.505290  0.001200  0.719460  1.0  -0.0713
  C  C1825  1  0.073810  0.330120  0.069840  1.0  -0.1403
  C  C1826  1  0.740480  0.663460  0.403170  1.0  -0.1394
  C  C1827  1  0.407140  0.996790  0.736510  1.0  -0.1392
  C  C1828  1  0.086090  0.331940  0.064360  1.0  -0.1212
  C  C1829  1  0.752760  0.665280  0.397690  1.0  -0.1213
  C  C1830  1  0.419420  0.998610  0.731030  1.0  -0.1217
  C  C1831  1  0.088090  0.327570  0.038750  1.0  -0.1316
  C  C1832  1  0.754750  0.660900  0.372090  1.0  -0.1372
  C  C1833  1  0.421420  0.994230  0.705420  1.0  -0.1333
  C  C1834  1  0.074560  0.324420  0.033390  1.0  -0.1275
  C  C1835  1  0.741230  0.657750  0.366720  1.0  -0.1309
  C  C1836  1  0.407900  0.991080  0.700060  1.0  -0.1261
  C  C1837  1  0.440030  0.343010  0.059210  1.0  0.6778
  C  C1838  1  0.106690  0.676340  0.392540  1.0  0.6783
  C  C1839  1  0.773360  0.009680  0.725880  1.0  0.6787
  C  C1840  1  0.349400  0.282570  0.046070  1.0  0.6916
  C  C1841  1  0.016060  0.615900  0.379400  1.0  0.6916
  C  C1842  1  0.682730  0.949240  0.712740  1.0  0.691
  C  C1843  1  0.345460  0.280930  0.070220  1.0  0.6876
  C  C1844  1  0.012120  0.614270  0.403550  1.0  0.6885
  C  C1845  1  0.678790  0.947600  0.736890  1.0  0.689
  C  C1846  1  0.305600  0.333730  0.057090  1.0  0.6803
  C  C1847  1  0.972260  0.667060  0.390430  1.0  0.6831
  C  C1848  1  0.638930  0.000400  0.723760  1.0  0.6813
  C  C1849  1  0.391580  0.387330  0.070940  1.0  0.6878
  C  C1850  1  0.058250  0.720660  0.404280  1.0  0.6851
  C  C1851  1  0.724910  0.054000  0.737610  1.0  0.6844
  C  C1852  1  0.399220  0.388710  0.045630  1.0  0.6769
  C  C1853  1  0.065890  0.722050  0.378970  1.0  0.6746
  C  C1854  1  0.732560  0.055380  0.712300  1.0  0.6747
  C  C1855  1  0.444020  0.514280  0.116950  1.0  0.0294
  C  C1856  1  0.110690  0.847610  0.450290  1.0  0.0246
  C  C1857  1  0.777350  0.180950  0.783620  1.0  0.0312
  C  C1858  1  0.451720  0.506090  0.104850  1.0  0.083
  C  C1859  1  0.118390  0.839420  0.438180  1.0  0.0679
  C  C1860  1  0.785050  0.172750  0.771510  1.0  0.0724
  C  C1861  1  0.488850  0.551090  0.110840  1.0  -0.0231
  C  C1862  1  0.155520  0.884420  0.444170  1.0  -0.023
  C  C1863  1  0.822180  0.217760  0.777510  1.0  -0.0255
  C  C1864  1  0.434290  0.496640  0.110920  1.0  -0.0758
  C  C1865  1  0.100960  0.829980  0.444250  1.0  -0.0907
  C  C1866  1  0.767620  0.163310  0.777580  1.0  -0.09
  C  C1867  1  0.479020  0.533330  0.104800  1.0  -0.0714
  C  C1868  1  0.145690  0.866660  0.438130  1.0  -0.0707
  C  C1869  1  0.812360  0.199990  0.771470  1.0  -0.0732
  C  C1870  1  0.471300  0.541530  0.116920  1.0  -0.044
  C  C1871  1  0.137970  0.874860  0.450250  1.0  -0.0747
  C  C1872  1  0.804640  0.208190  0.783580  1.0  -0.085
  C  C1873  1  0.364310  0.455680  0.133950  1.0  -0.1352
  C  C1874  1  0.030980  0.789020  0.467280  1.0  -0.144
  C  C1875  1  0.697640  0.122350  0.800610  1.0  -0.1326
  C  C1876  1  0.344230  0.445460  0.139570  1.0  -0.086
  C  C1877  1  0.010890  0.778790  0.472900  1.0  -0.0852
  C  C1878  1  0.677560  0.112120  0.806230  1.0  -0.0812
  C  C1879  1  0.349460  0.463850  0.145450  1.0  -0.0904
  C  C1880  1  0.016120  0.797180  0.478790  1.0  -0.0888
  C  C1881  1  0.682790  0.130520  0.812120  1.0  -0.0909
  C  C1882  1  0.375540  0.492450  0.145620  1.0  -0.0842
  C  C1883  1  0.042210  0.825780  0.478960  1.0  -0.0837
  C  C1884  1  0.708870  0.159120  0.812290  1.0  -0.0848
  C  C1885  1  0.395550  0.502580  0.139990  1.0  -0.1164
  C  C1886  1  0.062220  0.835920  0.473330  1.0  -0.1134
  C  C1887  1  0.728880  0.169250  0.806660  1.0  -0.1275
  C  C1888  1  0.389850  0.484320  0.134130  1.0  0.1265
  C  C1889  1  0.056520  0.817660  0.467460  1.0  0.1219
  C  C1890  1  0.723190  0.150990  0.800800  1.0  0.134
  C  C1891  1  0.578840  0.647360  0.117010  1.0  -0.1574
  C  C1892  1  0.245510  0.980690  0.450340  1.0  -0.1578
  C  C1893  1  0.912170  0.314020  0.783670  1.0  -0.157
  C  C1894  1  0.606130  0.674540  0.117060  1.0  -0.0886
  C  C1895  1  0.272800  0.007880  0.450390  1.0  -0.0875
  C  C1896  1  0.939460  0.341210  0.783730  1.0  -0.088
  C  C1897  1  0.623570  0.685310  0.110940  1.0  -0.0907
  C  C1898  1  0.290240  0.018650  0.444280  1.0  -0.0927
  C  C1899  1  0.956910  0.351980  0.777610  1.0  -0.0906
  C  C1900  1  0.612980  0.668180  0.104780  1.0  -0.0862
  C  C1901  1  0.279650  0.001510  0.438110  1.0  -0.0843
  C  C1902  1  0.946310  0.334850  0.771450  1.0  -0.0874
  C  C1903  1  0.585670  0.641000  0.104750  1.0  -0.1539
  C  C1904  1  0.252340  0.974330  0.438080  1.0  -0.1582
  C  C1905  1  0.919000  0.307670  0.771420  1.0  -0.1558
  C  C1906  1  0.568560  0.630530  0.110860  1.0  0.0203
  C  C1907  1  0.235230  0.963870  0.444190  1.0  0.0255
  C  C1908  1  0.901890  0.297200  0.777520  1.0  0.0206
  C  C1909  1  0.439590  0.456550  0.081960  1.0  -0.1331
  C  C1910  1  0.106260  0.789880  0.415290  1.0  -0.1296
  C  C1911  1  0.772930  0.123210  0.748620  1.0  -0.1312
  C  C1912  1  0.429600  0.436190  0.076400  1.0  -0.0871
  C  C1913  1  0.096270  0.769530  0.409730  1.0  -0.081
  C  C1914  1  0.762930  0.102860  0.743070  1.0  -0.0863
  C  C1915  1  0.401360  0.409670  0.076690  1.0  -0.096
  C  C1916  1  0.068030  0.743010  0.410030  1.0  -0.0789
  C  C1917  1  0.734700  0.076340  0.743360  1.0  -0.0937
  C  C1918  1  0.383190  0.404330  0.082630  1.0  -0.085
  C  C1919  1  0.049850  0.737660  0.415960  1.0  -0.0797
  C  C1920  1  0.716520  0.071000  0.749300  1.0  -0.0823
  C  C1921  1  0.393280  0.424770  0.088180  1.0  -0.1423
  C  C1922  1  0.059950  0.758100  0.421510  1.0  -0.1357
  C  C1923  1  0.726620  0.091440  0.754850  1.0  -0.1453
  C  C1924  1  0.421570  0.450770  0.087870  1.0  0.1443
  C  C1925  1  0.088240  0.784110  0.421210  1.0  0.1494
  C  C1926  1  0.754900  0.117440  0.754540  1.0  -0.0065
  C  C1927  1  0.409640  0.495300  0.128200  1.0  -0.0739
  C  C1928  1  0.076310  0.828630  0.461530  1.0  -0.0734
  C  C1929  1  0.742980  0.161960  0.794860  1.0  -0.0773
  C  C1930  1  0.425680  0.504250  0.123130  1.0  -0.0756
  C  C1931  1  0.092350  0.837580  0.456470  1.0  -0.0778
  C  C1932  1  0.759010  0.170910  0.789800  1.0  -0.0755
  C  C1933  1  0.540470  0.602530  0.110820  1.0  -0.0848
  C  C1934  1  0.207140  0.935860  0.444160  1.0  -0.0806
  C  C1935  1  0.873810  0.269190  0.777490  1.0  -0.0839
  C  C1936  1  0.516950  0.579080  0.110820  1.0  -0.0841
  C  C1937  1  0.183620  0.912410  0.444150  1.0  -0.0811
  C  C1938  1  0.850280  0.245750  0.777480  1.0  -0.0839
  C  C1939  1  0.441530  0.487360  0.098730  1.0  -0.0799
  C  C1940  1  0.108200  0.820690  0.432060  1.0  -0.075
  C  C1941  1  0.774860  0.154030  0.765400  1.0  -0.0758
  C  C1942  1  0.432510  0.470970  0.093730  1.0  -0.0603
  C  C1943  1  0.099180  0.804300  0.427060  1.0  -0.0647
  C  C1944  1  0.765840  0.137630  0.760400  1.0  -0.0608
  C  C1945  1  0.602610  0.910840  0.152070  1.0  0.6899
  C  C1946  1  0.269270  0.244170  0.485410  1.0  0.688
  C  C1947  1  0.935940  0.577510  0.818740  1.0  0.6875
  C  C1948  1  0.642670  0.004220  0.165050  1.0  0.683
  C  C1949  1  0.309340  0.337550  0.498380  1.0  0.6824
  C  C1950  1  0.976000  0.670880  0.831720  1.0  0.6857
  C  C1951  1  0.556280  0.970790  0.151320  1.0  0.6878
  C  C1952  1  0.222950  0.304130  0.484650  1.0  0.6872
  C  C1953  1  0.889620  0.637460  0.817980  1.0  0.6856
  C  C1954  1  0.549230  0.965370  0.176650  1.0  0.6702
  C  C1955  1  0.215900  0.298700  0.509980  1.0  0.6702
  C  C1956  1  0.882570  0.632030  0.843320  1.0  0.6757
  C  C1957  1  0.508370  0.878390  0.163250  1.0  0.6741
  C  C1958  1  0.175030  0.211730  0.496580  1.0  0.6789
  C  C1959  1  0.841700  0.545060  0.829910  1.0  0.6777
  C  C1960  1  0.599680  0.909720  0.176220  1.0  0.6902
  C  C1961  1  0.266350  0.243060  0.509550  1.0  0.6904
  C  C1962  1  0.933020  0.576390  0.842880  1.0  0.6914
  C  C1963  1  0.336150  0.727000  0.161530  1.0  0.1393
  C  C1964  1  0.002820  0.060330  0.494860  1.0  0.144
  C  C1965  1  0.669480  0.393660  0.828200  1.0  0.1329
  C  C1966  1  0.282210  0.706460  0.161500  1.0  -0.0055
  C  C1967  1  0.948880  0.039800  0.494840  1.0  0.1513
  C  C1968  1  0.615550  0.373130  0.828170  1.0  0.1392
  C  C1969  1  0.302680  0.673070  0.161390  1.0  -0.0061
  C  C1970  1  0.969350  0.006400  0.494730  1.0  -0.009
  C  C1971  1  0.636010  0.339730  0.828060  1.0  -0.0033
  C  C1972  1  0.311330  0.731290  0.161560  1.0  -0.039
  C  C1973  1  0.978000  0.064620  0.494890  1.0  -0.0275
  C  C1974  1  0.644660  0.397950  0.828220  1.0  0.0194
  C  C1975  1  0.277880  0.677360  0.161420  1.0  -0.0745
  C  C1976  1  0.944550  0.010690  0.494750  1.0  -0.08
  C  C1977  1  0.611220  0.344030  0.828080  1.0  -0.0793
  C  C1978  1  0.331830  0.697880  0.161440  1.0  0.0797
  C  C1979  1  0.998500  0.031220  0.494780  1.0  -0.0054
  C  C1980  1  0.665160  0.364550  0.828110  1.0  0.1178
  C  C1981  1  0.423700  0.828790  0.162050  1.0  -0.1312
  C  C1982  1  0.090360  0.162120  0.495380  1.0  -0.132
  C  C1983  1  0.757030  0.495450  0.828710  1.0  -0.1407
  C  C1984  1  0.452290  0.854240  0.162380  1.0  -0.0778
  C  C1985  1  0.118950  0.187570  0.495710  1.0  -0.0768
  C  C1986  1  0.785620  0.520900  0.829050  1.0  -0.0817
  C  C1987  1  0.478050  0.851310  0.162860  1.0  -0.0851
  C  C1988  1  0.144710  0.184650  0.496200  1.0  -0.0893
  C  C1989  1  0.811380  0.517980  0.829530  1.0  -0.0853
  C  C1990  1  0.474470  0.822310  0.162990  1.0  -0.0808
  C  C1991  1  0.141140  0.155640  0.496320  1.0  -0.0824
  C  C1992  1  0.807810  0.488980  0.829650  1.0  -0.0806
  C  C1993  1  0.445800  0.796890  0.162650  1.0  -0.1516
  C  C1994  1  0.112460  0.130220  0.495980  1.0  -0.1479
  C  C1995  1  0.779130  0.463560  0.829320  1.0  -0.1501
  C  C1996  1  0.420410  0.800120  0.162180  1.0  0.107
  C  C1997  1  0.087080  0.133450  0.495520  1.0  0.0814
  C  C1998  1  0.753750  0.466790  0.828850  1.0  0.0962
  C  C1999  1  0.316550  0.585500  0.161590  1.0  -0.1404
  C  C2000  1  0.983210  0.918840  0.494930  1.0  -0.1438
  C  C2001  1  0.649880  0.252170  0.828260  1.0  -0.1404
  C  C2002  1  0.313420  0.556960  0.161940  1.0  -0.0735
  C  C2003  1  0.980080  0.890300  0.495270  1.0  -0.0774
  C  C2004  1  0.646750  0.223630  0.828600  1.0  -0.0733
  C  C2005  1  0.284730  0.531190  0.162480  1.0  -0.0763
  C  C2006  1  0.951390  0.864530  0.495810  1.0  -0.0745
  C  C2007  1  0.618060  0.197860  0.829140  1.0  -0.076
  C  C2008  1  0.259250  0.534690  0.162610  1.0  -0.0862
  C  C2009  1  0.925920  0.868020  0.495950  1.0  -0.0842
  C  C2010  1  0.592580  0.201350  0.829280  1.0  -0.0862
  C  C2011  1  0.262500  0.563340  0.162270  1.0  -0.1303
  C  C2012  1  0.929170  0.896680  0.495600  1.0  -0.1342
  C  C2013  1  0.595830  0.230010  0.828940  1.0  -0.132
  C  C2014  1  0.291150  0.588740  0.161780  1.0  0.1417
  C  C2015  1  0.957820  0.922070  0.495110  1.0  -0.0144
  C  C2016  1  0.624480  0.255410  0.828440  1.0  -0.0161
  C  C2017  1  0.180340  0.691630  0.161950  1.0  -0.1438
  C  C2018  1  0.847010  0.024960  0.495290  1.0  -0.1411
  C  C2019  1  0.513670  0.358300  0.828620  1.0  -0.1451
  C  C2020  1  0.154780  0.694540  0.162310  1.0  -0.0841
  C  C2021  1  0.821450  0.027870  0.495640  1.0  -0.083
  C  C2022  1  0.488120  0.361200  0.828970  1.0  -0.084
  C  C2023  1  0.157540  0.723130  0.162850  1.0  -0.0826
  C  C2024  1  0.824210  0.056460  0.496180  1.0  -0.0862
  C  C2025  1  0.490870  0.389790  0.829510  1.0  -0.0854
  C  C2026  1  0.186470  0.748710  0.163000  1.0  -0.0849
  C  C2027  1  0.853140  0.082050  0.496340  1.0  -0.0835
  C  C2028  1  0.519810  0.415380  0.829670  1.0  -0.0843
  C  C2029  1  0.212000  0.745690  0.162650  1.0  -0.1475
  C  C2030  1  0.878670  0.079030  0.495980  1.0  -0.1449
  C  C2031  1  0.545340  0.412360  0.829320  1.0  -0.1464
  C  C2032  1  0.208930  0.717160  0.162130  1.0  0.1457
  C  C2033  1  0.875600  0.050500  0.495460  1.0  0.1455
  C  C2034  1  0.542270  0.383830  0.828800  1.0  0.1455
  C  C2035  1  0.390910  0.774090  0.161910  1.0  -0.0724
  C  C2036  1  0.057570  0.107420  0.495240  1.0  -0.0714
  C  C2037  1  0.724240  0.440750  0.828570  1.0  -0.0742
  C  C2038  1  0.366010  0.752510  0.161710  1.0  -0.0689
  C  C2039  1  0.032680  0.085840  0.495050  1.0  -0.0793
  C  C2040  1  0.699340  0.419170  0.828380  1.0  -0.0688
  C  C2041  1  0.294720  0.618250  0.161570  1.0  -0.0606
  C  C2042  1  0.961390  0.951590  0.494900  1.0  -0.0587
  C  C2043  1  0.628060  0.284920  0.828230  1.0  -0.0577
  C  C2044  1  0.298220  0.643200  0.161450  1.0  -0.0482
  C  C2045  1  0.964880  0.976530  0.494790  1.0  -0.0534
  C  C2046  1  0.631550  0.309860  0.828120  1.0  -0.0522
  C  C2047  1  0.256700  0.710740  0.161670  1.0  -0.0611
  C  C2048  1  0.923370  0.044080  0.495000  1.0  -0.0552
  C  C2049  1  0.590030  0.377410  0.828330  1.0  -0.0551
  C  C2050  1  0.235060  0.713920  0.161860  1.0  -0.064
  C  C2051  1  0.901730  0.047260  0.495190  1.0  -0.0632
  C  C2052  1  0.568400  0.380590  0.828520  1.0  -0.0625
  C  C2053  1  0.475220  0.572370  0.219210  1.0  0.1362
  C  C2054  1  0.141880  0.905700  0.552540  1.0  0.1408
  C  C2055  1  0.808550  0.239030  0.885880  1.0  0.1379
  C  C2056  1  0.432560  0.530920  0.224930  1.0  0.0579
  C  C2057  1  0.099230  0.864260  0.558270  1.0  0.0582
  C  C2058  1  0.765900  0.197590  0.891600  1.0  0.0611
  C  C2059  1  0.434050  0.534590  0.212300  1.0  0.0324
  C  C2060  1  0.100720  0.867920  0.545630  1.0  0.0351
  C  C2061  1  0.767390  0.201250  0.878970  1.0  0.0393
  C  C2062  1  0.460480  0.557240  0.225310  1.0  -0.0376
  C  C2063  1  0.127150  0.890580  0.558640  1.0  -0.0367
  C  C2064  1  0.793820  0.223910  0.891970  1.0  -0.0153
  C  C2065  1  0.419330  0.519560  0.218430  1.0  -0.0574
  C  C2066  1  0.086000  0.852890  0.551770  1.0  -0.0693
  C  C2067  1  0.752670  0.186220  0.885100  1.0  -0.0662
  C  C2068  1  0.462050  0.561040  0.212690  1.0  -0.063
  C  C2069  1  0.128720  0.894380  0.546020  1.0  -0.0685
  C  C2070  1  0.795380  0.227710  0.879350  1.0  -0.0665
  C  C2071  1  0.565080  0.662390  0.228000  1.0  -0.1492
  C  C2072  1  0.231740  0.995720  0.561330  1.0  -0.1264
  C  C2073  1  0.898410  0.329060  0.894670  1.0  -0.1482
  C  C2074  1  0.592240  0.689400  0.228830  1.0  -0.0818
  C  C2075  1  0.258900  0.022730  0.562160  1.0  -0.0773
  C  C2076  1  0.925570  0.356060  0.895490  1.0  -0.0797
  C  C2077  1  0.609330  0.705110  0.222950  1.0  -0.0876
  C  C2078  1  0.276000  0.038450  0.556280  1.0  -0.0897
  C  C2079  1  0.942660  0.371780  0.889620  1.0  -0.0901
  C  C2080  1  0.598570  0.693200  0.216250  1.0  -0.0833
  C  C2081  1  0.265240  0.026540  0.549590  1.0  -0.0855
  C  C2082  1  0.931900  0.359870  0.882920  1.0  -0.0853
  C  C2083  1  0.571490  0.666280  0.215450  1.0  -0.156
  C  C2084  1  0.238150  0.999610  0.548790  1.0  -0.1428
  C  C2085  1  0.904820  0.332950  0.882120  1.0  -0.1413
  C  C2086  1  0.554720  0.650820  0.221310  1.0  0.0202
  C  C2087  1  0.221390  0.984150  0.554650  1.0  0.0223
  C  C2088  1  0.888060  0.317490  0.887980  1.0  0.0209
  C  C2089  1  0.394150  0.516900  0.187980  1.0  -0.1131
  C  C2090  1  0.060820  0.850240  0.521310  1.0  -0.1488
  C  C2091  1  0.727490  0.183570  0.854650  1.0  -0.1478
  C  C2092  1  0.375460  0.504370  0.182150  1.0  -0.0796
  C  C2093  1  0.042130  0.837700  0.515490  1.0  -0.0807
  C  C2094  1  0.708790  0.171040  0.848820  1.0  -0.0795
  C  C2095  1  0.351430  0.474510  0.182340  1.0  -0.1024
  C  C2096  1  0.018090  0.807840  0.515670  1.0  -0.1032
  C  C2097  1  0.684760  0.141170  0.849000  1.0  -0.1034
  C  C2098  1  0.347230  0.457260  0.188380  1.0  -0.0822
  C  C2099  1  0.013900  0.790600  0.521720  1.0  -0.0827
  C  C2100  1  0.680570  0.123930  0.855050  1.0  -0.0823
  C  C2101  1  0.365960  0.469810  0.194170  1.0  -0.1474
  C  C2102  1  0.032630  0.803140  0.527500  1.0  -0.1583
  C  C2103  1  0.699290  0.136470  0.860830  1.0  -0.1472
  C  C2104  1  0.389180  0.499720  0.194020  1.0  0.0997
  C  C2105  1  0.055850  0.833050  0.527360  1.0  0.1009
  C  C2106  1  0.722510  0.166390  0.860690  1.0  0.0902
  C  C2107  1  0.366680  0.465780  0.244130  1.0  -0.1604
  C  C2108  1  0.033350  0.799120  0.577470  1.0  -0.146
  C  C2109  1  0.700020  0.132450  0.910800  1.0  -0.157
  C  C2110  1  0.352210  0.455850  0.250580  1.0  -0.0788
  C  C2111  1  0.018880  0.789180  0.583910  1.0  -0.0792
  C  C2112  1  0.685550  0.122510  0.917250  1.0  -0.0777
  C  C2113  1  0.361640  0.475270  0.256390  1.0  -0.0818
  C  C2114  1  0.028300  0.808610  0.589720  1.0  -0.0895
  C  C2115  1  0.694970  0.141940  0.923060  1.0  -0.0888
  C  C2116  1  0.386230  0.504580  0.255630  1.0  -0.0851
  C  C2117  1  0.052890  0.837920  0.588960  1.0  -0.0825
  C  C2118  1  0.719560  0.171250  0.922300  1.0  -0.0797
  C  C2119  1  0.400610  0.514390  0.249190  1.0  -0.1257
  C  C2120  1  0.067280  0.847720  0.582520  1.0  -0.1264
  C  C2121  1  0.733950  0.181050  0.915850  1.0  -0.1258
  C  C2122  1  0.390730  0.495130  0.243420  1.0  0.0382
  C  C2123  1  0.057390  0.828470  0.576760  1.0  0.0358
  C  C2124  1  0.724060  0.161800  0.910090  1.0  0.0361
  C  C2125  1  0.526850  0.623130  0.220440  1.0  -0.0918
  C  C2126  1  0.193510  0.956460  0.553770  1.0  -0.0839
  C  C2127  1  0.860180  0.289800  0.887110  1.0  -0.0927
  C  C2128  1  0.503400  0.599960  0.219770  1.0  -0.0684
  C  C2129  1  0.170070  0.933300  0.553100  1.0  -0.0671
  C  C2130  1  0.836740  0.266630  0.886430  1.0  -0.0732
  C  C2131  1  0.406480  0.512940  0.200250  1.0  -0.1312
  C  C2132  1  0.073150  0.846270  0.533590  1.0  -0.1269
  C  C2133  1  0.739820  0.179600  0.866920  1.0  -0.1326
  C  C2134  1  0.419690  0.523190  0.205660  1.0  -0.1308
  C  C2135  1  0.086350  0.856530  0.538990  1.0  -0.1279
  C  C2136  1  0.753020  0.189860  0.872330  1.0  -0.1302
  C  C2137  1  0.417120  0.516710  0.231290  1.0  -0.1209
  C  C2138  1  0.083790  0.850040  0.564620  1.0  -0.1206
  C  C2139  1  0.750450  0.183380  0.897950  1.0  -0.1199
  C  C2140  1  0.404810  0.506150  0.236760  1.0  -0.1394
  C  C2141  1  0.071480  0.839490  0.570090  1.0  -0.1398
  C  C2142  1  0.738150  0.172820  0.903430  1.0  -0.1393
  C  C2143  1  0.682770  0.827500  0.212200  1.0  0.6986
  C  C2144  1  0.349440  0.160840  0.545540  1.0  0.6985
  C  C2145  1  0.016100  0.494170  0.878870  1.0  0.6985
  C  C2146  1  0.772330  0.859390  0.225600  1.0  0.6838
  C  C2147  1  0.439000  0.192720  0.558940  1.0  0.6844
  C  C2148  1  0.105660  0.526060  0.892270  1.0  0.6838
  C  C2149  1  0.677530  0.825990  0.236550  1.0  0.6913
  C  C2150  1  0.344200  0.159320  0.569890  1.0  0.6903
  C  C2151  1  0.010870  0.492650  0.903220  1.0  0.6903
  C  C2152  1  0.725270  0.766810  0.237480  1.0  0.6706
  C  C2153  1  0.391930  0.100140  0.570810  1.0  0.6887
  C  C2154  1  0.058600  0.433470  0.904150  1.0  0.6666
  C  C2155  1  0.638310  0.733660  0.223690  1.0  0.6831
  C  C2156  1  0.304980  0.066990  0.557020  1.0  0.6841
  C  C2157  1  0.971650  0.400330  0.890360  1.0  0.6842
  C  C2158  1  0.732390  0.771200  0.212290  1.0  0.6768
  C  C2159  1  0.399050  0.104530  0.545620  1.0  0.6801
  C  C2160  1  0.065720  0.437860  0.878960  1.0  0.6777
  C  C2161  1  0.974960  0.400650  0.331250  1.0  0.6682
  C  C2162  1  0.641620  0.733990  0.664590  1.0  0.6682
  C  C2163  1  0.308290  0.067320  0.997920  1.0  0.6691
  C  C2164  1  0.937190  0.456260  0.318830  1.0  0.7004
  C  C2165  1  0.603850  0.789590  0.652170  1.0  0.6908
  C  C2166  1  0.270520  0.122930  0.985500  1.0  0.7011
  C  C2167  1  0.889700  0.348160  0.317820  1.0  0.6772
  C  C2168  1  0.556360  0.681490  0.651150  1.0  0.6779
  C  C2169  1  0.223030  0.014830  0.984480  1.0  0.6787
  C  C2170  1  0.841620  0.393700  0.329780  1.0  0.6838
  C  C2171  1  0.508280  0.727030  0.663110  1.0  0.6823
  C  C2172  1  0.174950  0.060360  0.996450  1.0  0.6834
  C  C2173  1  0.213430  0.013160  0.009610  1.0  0.6872
  C  C2174  1  0.880100  0.346490  0.342940  1.0  0.6875
  C  C2175  1  0.546770  0.679830  0.676280  1.0  0.6877
  C  C2176  1  0.266070  0.119920  0.009360  1.0  0.7035
  C  C2177  1  0.932730  0.453250  0.342700  1.0  0.7025
  C  C2178  1  0.599400  0.786590  0.676030  1.0  0.7027
  C  C2179  1  0.271430  0.164920  0.176970  1.0  0.042
  C  C2180  1  0.938090  0.498260  0.510300  1.0  0.0409
  C  C2181  1  0.604760  0.831590  0.843630  1.0  0.0414
  C  C2182  1  0.273550  0.163540  0.164330  1.0  0.0692
  C  C2183  1  0.940210  0.496880  0.497670  1.0  0.0763
  C  C2184  1  0.606880  0.830210  0.831000  1.0  0.0727
  C  C2185  1  0.274550  0.206000  0.170090  1.0  -0.017
  C  C2186  1  0.941220  0.539330  0.503420  1.0  -0.0218
  C  C2187  1  0.607880  0.872660  0.836750  1.0  -0.0228
  C  C2188  1  0.271810  0.150320  0.170820  1.0  -0.0237
  C  C2189  1  0.938470  0.483650  0.504150  1.0  -0.0194
  C  C2190  1  0.605140  0.816990  0.837490  1.0  -0.038
  C  C2191  1  0.275000  0.191360  0.163980  1.0  0.0394
  C  C2192  1  0.941670  0.524690  0.497310  1.0  0.0469
  C  C2193  1  0.608330  0.858030  0.830650  1.0  0.0403
  C  C2194  1  0.272800  0.192830  0.176600  1.0  -0.0342
  C  C2195  1  0.939470  0.526160  0.509940  1.0  -0.0328
  C  C2196  1  0.606140  0.859500  0.843270  1.0  -0.0252
  C  C2197  1  0.267120  0.095590  0.194820  1.0  -0.1451
  C  C2198  1  0.933790  0.428920  0.528160  1.0  -0.1444
  C  C2199  1  0.600450  0.762250  0.861490  1.0  -0.1452
  C  C2200  1  0.260500  0.076340  0.200520  1.0  -0.0776
  C  C2201  1  0.927170  0.409680  0.533850  1.0  -0.0789
  C  C2202  1  0.593840  0.743010  0.867190  1.0  -0.0783
  C  C2203  1  0.247330  0.080200  0.206590  1.0  -0.1024
  C  C2204  1  0.914000  0.413540  0.539930  1.0  -0.1019
  C  C2205  1  0.580660  0.746870  0.873260  1.0  -0.1012
  C  C2206  1  0.241810  0.104400  0.206890  1.0  -0.0774
  C  C2207  1  0.908470  0.437730  0.540230  1.0  -0.0752
  C  C2208  1  0.575140  0.771070  0.873560  1.0  -0.0751
  C  C2209  1  0.248400  0.123610  0.201160  1.0  -0.1202
  C  C2210  1  0.915070  0.456940  0.534490  1.0  -0.1208
  C  C2211  1  0.581740  0.790280  0.867820  1.0  -0.1207
  C  C2212  1  0.260740  0.118990  0.195090  1.0  0.1118
  C  C2213  1  0.927410  0.452320  0.528420  1.0  0.1092
  C  C2214  1  0.594070  0.785660  0.861750  1.0  0.109
  C  C2215  1  0.275570  0.301730  0.173650  1.0  -0.1569
  C  C2216  1  0.942240  0.635060  0.506980  1.0  -0.1569
  C  C2217  1  0.608910  0.968400  0.840310  1.0  -0.1422
  C  C2218  1  0.275280  0.328510  0.172760  1.0  -0.0827
  C  C2219  1  0.941950  0.661850  0.506090  1.0  -0.0829
  C  C2220  1  0.608610  0.995180  0.839430  1.0  -0.0816
  C  C2221  1  0.273890  0.338810  0.166030  1.0  -0.0893
  C  C2222  1  0.940560  0.672140  0.499360  1.0  -0.088
  C  C2223  1  0.607230  0.005480  0.832690  1.0  -0.0925
  C  C2224  1  0.272760  0.321560  0.160200  1.0  -0.0815
  C  C2225  1  0.939420  0.654890  0.493540  1.0  -0.0829
  C  C2226  1  0.606090  0.988230  0.826870  1.0  -0.0791
  C  C2227  1  0.273060  0.294690  0.161120  1.0  -0.1494
  C  C2228  1  0.939720  0.628030  0.494450  1.0  -0.1498
  C  C2229  1  0.606390  0.961360  0.827790  1.0  -0.1494
  C  C2230  1  0.274500  0.284800  0.167840  1.0  0.0332
  C  C2231  1  0.941170  0.618140  0.501170  1.0  0.0366
  C  C2232  1  0.607830  0.951470  0.834510  1.0  0.0322
  C  C2233  1  0.271790  0.097290  0.145150  1.0  -0.1317
  C  C2234  1  0.938460  0.430620  0.478490  1.0  -0.1471
  C  C2235  1  0.605120  0.763950  0.811820  1.0  -0.1425
  C  C2236  1  0.266680  0.082470  0.138740  1.0  -0.081
  C  C2237  1  0.933350  0.415800  0.472070  1.0  -0.0754
  C  C2238  1  0.600020  0.749140  0.805410  1.0  -0.0787
  C  C2239  1  0.256080  0.091500  0.132980  1.0  -0.0823
  C  C2240  1  0.922740  0.424840  0.466320  1.0  -0.0854
  C  C2241  1  0.589410  0.758170  0.799650  1.0  -0.0887
  C  C2242  1  0.251350  0.116060  0.133750  1.0  -0.0782
  C  C2243  1  0.918020  0.449390  0.467080  1.0  -0.0761
  C  C2244  1  0.584690  0.782720  0.800420  1.0  -0.0782
  C  C2245  1  0.256510  0.130790  0.140160  1.0  -0.1502
  C  C2246  1  0.923180  0.464130  0.473490  1.0  -0.1421
  C  C2247  1  0.589840  0.797460  0.806820  1.0  -0.1431
  C  C2248  1  0.266470  0.121290  0.145870  1.0  0.0397
  C  C2249  1  0.933140  0.454620  0.479210  1.0  0.0358
  C  C2250  1  0.599800  0.787950  0.812540  1.0  0.0351
  C  C2251  1  0.265170  0.136810  0.188940  1.0  -0.1323
  C  C2252  1  0.931840  0.470140  0.522270  1.0  -0.1325
  C  C2253  1  0.598510  0.803470  0.855600  1.0  -0.1288
  C  C2254  1  0.268330  0.150360  0.183580  1.0  -0.1297
  C  C2255  1  0.934990  0.483690  0.516910  1.0  -0.1324
  C  C2256  1  0.601660  0.817020  0.850240  1.0  -0.1322
  C  C2257  1  0.274740  0.257220  0.168800  1.0  -0.0918
  C  C2258  1  0.941410  0.590550  0.502140  1.0  -0.0888
  C  C2259  1  0.608080  0.923880  0.835470  1.0  -0.0883
  C  C2260  1  0.274800  0.233980  0.169530  1.0  -0.0637
  C  C2261  1  0.941470  0.567320  0.502860  1.0  -0.0605
  C  C2262  1  0.608130  0.900650  0.836190  1.0  -0.0608
  C  C2263  1  0.272080  0.148060  0.157980  1.0  -0.1187
  C  C2264  1  0.938750  0.481390  0.491310  1.0  -0.1247
  C  C2265  1  0.605410  0.814730  0.824650  1.0  -0.1192
  C  C2266  1  0.270010  0.135620  0.152510  1.0  -0.1377
  C  C2267  1  0.936680  0.468960  0.485850  1.0  -0.1392
  C  C2268  1  0.603350  0.802290  0.819180  1.0  -0.1391
  C  C2269  1  0.666380  0.398320  0.060900  1.0  0.1364
  C  C2270  1  0.333050  0.731660  0.394230  1.0  0.1327
  C  C2271  1  0.999710  0.064990  0.727570  1.0  0.1318
  C  C2272  1  0.612460  0.364810  0.060970  1.0  -0.0171
  C  C2273  1  0.279120  0.698140  0.394310  1.0  -0.0126
  C  C2274  1  0.945790  0.031480  0.727640  1.0  -0.0151
  C  C2275  1  0.645940  0.344420  0.060900  1.0  0.2082
  C  C2276  1  0.312610  0.677750  0.394240  1.0  0.2019
  C  C2277  1  0.979270  0.011080  0.727570  1.0  0.2073
  C  C2278  1  0.637240  0.393950  0.060950  1.0  -0.0818
  C  C2279  1  0.303910  0.727290  0.394280  1.0  0.0355
  C  C2280  1  0.970580  0.060620  0.727620  1.0  -0.0727
  C  C2281  1  0.616800  0.340040  0.060960  1.0  -0.0679
  C  C2282  1  0.283460  0.673380  0.394290  1.0  -0.0805
  C  C2283  1  0.950130  0.006710  0.727620  1.0  -0.0823
  C  C2284  1  0.670740  0.373560  0.060880  1.0  -0.0098
  C  C2285  1  0.337410  0.706890  0.394220  1.0  0.023
  C  C2286  1  0.004070  0.040220  0.727550  1.0  -0.0118
  C  C2287  1  0.736010  0.508000  0.059710  1.0  -0.1448
  C  C2288  1  0.402680  0.841330  0.393040  1.0  -0.1419
  C  C2289  1  0.069350  0.174660  0.726370  1.0  -0.145
  C  C2290  1  0.761420  0.536680  0.059350  1.0  -0.0867
  C  C2291  1  0.428090  0.870010  0.392680  1.0  -0.0865
  C  C2292  1  0.094760  0.203340  0.726010  1.0  -0.0868
  C  C2293  1  0.790440  0.540280  0.059540  1.0  -0.082
  C  C2294  1  0.457110  0.873620  0.392870  1.0  -0.0845
  C  C2295  1  0.123780  0.206950  0.726200  1.0  -0.0837
  C  C2296  1  0.793400  0.514590  0.060130  1.0  -0.0769
  C  C2297  1  0.460070  0.847920  0.393460  1.0  -0.0773
  C  C2298  1  0.126740  0.181250  0.726790  1.0  -0.0766
  C  C2299  1  0.767980  0.486010  0.060490  1.0  -0.1434
  C  C2300  1  0.434640  0.819340  0.393820  1.0  -0.1435
  C  C2301  1  0.101310  0.152670  0.727150  1.0  -0.1424
  C  C2302  1  0.739300  0.482670  0.060270  1.0  0.0975
  C  C2303  1  0.405960  0.816010  0.393600  1.0  0.0978
  C  C2304  1  0.072630  0.149340  0.726940  1.0  0.1317
  C  C2305  1  0.631230  0.242640  0.060410  1.0  -0.1374
  C  C2306  1  0.297890  0.575970  0.393740  1.0  -0.1357
  C  C2307  1  0.964560  0.909310  0.727080  1.0  -0.1425
  C  C2308  1  0.634120  0.217080  0.060060  1.0  -0.0778
  C  C2309  1  0.300790  0.550420  0.393400  1.0  -0.078
  C  C2310  1  0.967450  0.883750  0.726730  1.0  -0.0761
  C  C2311  1  0.662730  0.219810  0.059570  1.0  -0.0851
  C  C2312  1  0.329390  0.553140  0.392900  1.0  -0.0899
  C  C2313  1  0.996060  0.886480  0.726240  1.0  -0.083
  C  C2314  1  0.688330  0.248730  0.059440  1.0  -0.0807
  C  C2315  1  0.355000  0.582060  0.392770  1.0  -0.0781
  C  C2316  1  0.021670  0.915390  0.726110  1.0  -0.0819
  C  C2317  1  0.685330  0.274260  0.059780  1.0  -0.1523
  C  C2318  1  0.351990  0.607600  0.393120  1.0  -0.1444
  C  C2319  1  0.018660  0.940930  0.726450  1.0  -0.1546
  C  C2320  1  0.656780  0.271220  0.060270  1.0  0.1935
  C  C2321  1  0.323450  0.604550  0.393600  1.0  0.1293
  C  C2322  1  0.990110  0.937890  0.726930  1.0  0.1389
  C  C2323  1  0.502810  0.324530  0.059960  1.0  -0.145
  C  C2324  1  0.169470  0.657860  0.393300  1.0  -0.1453
  C  C2325  1  0.836140  0.991190  0.726630  1.0  -0.1426
  C  C2326  1  0.474080  0.321090  0.059590  1.0  -0.0854
  C  C2327  1  0.140750  0.654420  0.392920  1.0  -0.0862
  C  C2328  1  0.807420  0.987750  0.726250  1.0  -0.0861
  C  C2329  1  0.470380  0.346430  0.059670  1.0  -0.0825
  C  C2330  1  0.137040  0.679760  0.393010  1.0  -0.0853
  C  C2331  1  0.803710  0.013100  0.726340  1.0  -0.0835
  C  C2332  1  0.496030  0.375210  0.060180  1.0  -0.0797
  C  C2333  1  0.162690  0.708540  0.393510  1.0  -0.0823
  C  C2334  1  0.829360  0.041870  0.726840  1.0  -0.084
  C  C2335  1  0.524660  0.378530  0.060560  1.0  -0.1507
  C  C2336  1  0.191330  0.711870  0.393890  1.0  -0.1451
  C  C2337  1  0.858000  0.045200  0.727220  1.0  -0.1468
  C  C2338  1  0.528090  0.353240  0.060440  1.0  -0.0133
  C  C2339  1  0.194760  0.686570  0.393770  1.0  -0.0097
  C  C2340  1  0.861420  0.019910  0.727100  1.0  -0.0173
  C  C2341  1  0.713320  0.453150  0.060550  1.0  -0.0661
  C  C2342  1  0.379990  0.786480  0.393880  1.0  -0.0694
  C  C2343  1  0.046650  0.119810  0.727210  1.0  -0.0669
  C  C2344  1  0.691820  0.428210  0.060740  1.0  -0.0597
  C  C2345  1  0.358490  0.761540  0.394070  1.0  -0.0636
  C  C2346  1  0.025150  0.094870  0.727400  1.0  -0.0696
  C  C2347  1  0.653530  0.297340  0.060540  1.0  -0.0631
  C  C2348  1  0.320190  0.630680  0.393880  1.0  -0.0618
  C  C2349  1  0.986860  0.964010  0.727210  1.0  -0.0617
  C  C2350  1  0.650290  0.318950  0.060740  1.0  -0.0498
  C  C2351  1  0.316960  0.652280  0.394070  1.0  -0.0578
  C  C2352  1  0.983630  0.985610  0.727400  1.0  -0.0607
  C  C2353  1  0.582580  0.360360  0.060860  1.0  -0.0591
  C  C2354  1  0.249250  0.693700  0.394190  1.0  -0.0601
  C  C2355  1  0.915920  0.027030  0.727530  1.0  -0.0557
  C  C2356  1  0.557650  0.356910  0.060700  1.0  -0.0602
  C  C2357  1  0.224310  0.690240  0.394030  1.0  -0.0578
  C  C2358  1  0.890980  0.023580  0.727370  1.0  -0.0578
  C  C2359  1  0.999860  0.236350  0.225720  1.0  0.6811
  C  C2360  1  0.666520  0.569680  0.559050  1.0  0.6761
  C  C2361  1  0.333190  0.903010  0.892380  1.0  0.6759
  C  C2362  1  0.061410  0.331310  0.236540  1.0  0.6914
  C  C2363  1  0.728070  0.664650  0.569870  1.0  0.6931
  C  C2364  1  0.394740  0.997980  0.903200  1.0  0.6962
  C  C2365  1  0.057650  0.326990  0.212350  1.0  0.686
  C  C2366  1  0.724320  0.660320  0.545690  1.0  0.6828
  C  C2367  1  0.390980  0.993650  0.879020  1.0  0.6833
  C  C2368  1  0.006590  0.369700  0.223950  1.0  0.6756
  C  C2369  1  0.673250  0.703030  0.557280  1.0  0.6745
  C  C2370  1  0.339920  0.036360  0.890610  1.0  0.6756
  C  C2371  1  0.952040  0.276000  0.212320  1.0  0.6695
  C  C2372  1  0.618710  0.609330  0.545650  1.0  0.6699
  C  C2373  1  0.285370  0.942670  0.878990  1.0  0.6701
  C  C2374  1  0.954090  0.282820  0.237610  1.0  0.6681
  C  C2375  1  0.620750  0.616160  0.570940  1.0  0.6743
  C  C2376  1  0.287420  0.949490  0.904280  1.0  0.6672
  C  C2377  1  0.471230  0.496020  0.010150  1.0  0.058
  C  C2378  1  0.137890  0.829350  0.343490  1.0  0.0509
  C  C2379  1  0.804560  0.162690  0.676820  1.0  0.051
  C  C2380  1  0.134020  0.828520  0.330860  1.0  0.1007
  C  C2381  1  0.800690  0.161860  0.664190  1.0  0.1003
  C  C2382  1  0.467360  0.495190  0.997530  1.0  0.0959
  C  C2383  1  0.508830  0.537610  0.003300  1.0  0.1412
  C  C2384  1  0.175490  0.870940  0.336630  1.0  0.145
  C  C2385  1  0.842160  0.204270  0.669960  1.0  0.1429
  C  C2386  1  0.456120  0.481620  0.004000  1.0  -0.0089
  C  C2387  1  0.122790  0.814950  0.337340  1.0  -0.0383
  C  C2388  1  0.789450  0.148290  0.670670  1.0  -0.0352
  C  C2389  1  0.160270  0.856500  0.330520  1.0  0.0414
  C  C2390  1  0.826930  0.189830  0.663850  1.0  0.0499
  C  C2391  1  0.493600  0.523170  0.997190  1.0  0.0527
  C  C2392  1  0.497650  0.524080  0.009800  1.0  0.0179
  C  C2393  1  0.164320  0.857410  0.343140  1.0  -0.0265
  C  C2394  1  0.830990  0.190750  0.676470  1.0  -0.0186
  C  C2395  1  0.453230  0.454950  0.034380  1.0  -0.1052
  C  C2396  1  0.119900  0.788290  0.367710  1.0  -0.1023
  C  C2397  1  0.786570  0.121620  0.701050  1.0  -0.1038
  C  C2398  1  0.440870  0.435800  0.040140  1.0  -0.0743
  C  C2399  1  0.107540  0.769140  0.373470  1.0  -0.0746
  C  C2400  1  0.774200  0.102470  0.706810  1.0  -0.0744
  C  C2401  1  0.411740  0.410540  0.039780  1.0  -0.0931
  C  C2402  1  0.078410  0.743880  0.373110  1.0  -0.0947
  C  C2403  1  0.745070  0.077210  0.706440  1.0  -0.0917
  C  C2404  1  0.395050  0.405440  0.033600  1.0  -0.0787
  C  C2405  1  0.061720  0.738770  0.366930  1.0  -0.0788
  C  C2406  1  0.728380  0.072110  0.700260  1.0  -0.0788
  C  C2407  1  0.407430  0.424620  0.027870  1.0  -0.1439
  C  C2408  1  0.074090  0.757950  0.361210  1.0  -0.134
  C  C2409  1  0.740760  0.091290  0.694540  1.0  -0.1342
  C  C2410  1  0.436620  0.449200  0.028220  1.0  0.1261
  C  C2411  1  0.103290  0.782530  0.361550  1.0  0.1181
  C  C2412  1  0.769950  0.115860  0.694890  1.0  0.1148
  C  C2413  1  0.265920  0.959910  0.327710  1.0  -0.1505
  C  C2414  1  0.932590  0.293240  0.661050  1.0  -0.1494
  C  C2415  1  0.599250  0.626580  0.994380  1.0  -0.1529
  C  C2416  1  0.293140  0.986810  0.326820  1.0  -0.0882
  C  C2417  1  0.959810  0.320150  0.660150  1.0  -0.0897
  C  C2418  1  0.626480  0.653480  0.993490  1.0  -0.0893
  C  C2419  1  0.308900  0.004250  0.332650  1.0  -0.0817
  C  C2420  1  0.975570  0.337590  0.665980  1.0  -0.084
  C  C2421  1  0.642230  0.670920  0.999320  1.0  -0.08
  C  C2422  1  0.630060  0.660850  0.006030  1.0  -0.0829
  C  C2423  1  0.296730  0.994180  0.339360  1.0  -0.083
  C  C2424  1  0.963400  0.327520  0.672700  1.0  -0.0811
  C  C2425  1  0.602930  0.634040  0.006900  1.0  -0.1542
  C  C2426  1  0.269600  0.967370  0.340230  1.0  -0.1537
  C  C2427  1  0.936260  0.300700  0.673560  1.0  -0.154
  C  C2428  1  0.587500  0.616850  0.001090  1.0  0.0312
  C  C2429  1  0.254160  0.950180  0.334420  1.0  0.0306
  C  C2430  1  0.920830  0.283520  0.667750  1.0  0.034
  C  C2431  1  0.118440  0.796840  0.306630  1.0  -0.1393
  C  C2432  1  0.785110  0.130180  0.639960  1.0  -0.1316
  C  C2433  1  0.451780  0.463510  0.973290  1.0  -0.1335
  C  C2434  1  0.109070  0.782310  0.300200  1.0  -0.0823
  C  C2435  1  0.775740  0.115640  0.633530  1.0  -0.0814
  C  C2436  1  0.442410  0.448970  0.966860  1.0  -0.0814
  C  C2437  1  0.079950  0.757450  0.299400  1.0  -0.0877
  C  C2438  1  0.746620  0.090780  0.632740  1.0  -0.0857
  C  C2439  1  0.413280  0.424110  0.966070  1.0  -0.0828
  C  C2440  1  0.060250  0.747900  0.305170  1.0  -0.0842
  C  C2441  1  0.726910  0.081240  0.638500  1.0  -0.0838
  C  C2442  1  0.393580  0.414570  0.971830  1.0  -0.0844
  C  C2443  1  0.069750  0.762520  0.311610  1.0  -0.1574
  C  C2444  1  0.736420  0.095850  0.644940  1.0  -0.1612
  C  C2445  1  0.403080  0.429180  0.978270  1.0  -0.1457
  C  C2446  1  0.098930  0.786820  0.312350  1.0  0.052
  C  C2447  1  0.765600  0.120160  0.645680  1.0  0.0514
  C  C2448  1  0.432260  0.453490  0.979010  1.0  0.051
  C  C2449  1  0.449770  0.467270  0.022080  1.0  -0.1332
  C  C2450  1  0.116440  0.800610  0.355420  1.0  -0.1344
  C  C2451  1  0.783110  0.133940  0.688750  1.0  -0.1343
  C  C2452  1  0.459990  0.481100  0.016740  1.0  -0.1381
  C  C2453  1  0.126660  0.814430  0.350080  1.0  -0.1403
  C  C2454  1  0.793330  0.147770  0.683410  1.0  -0.1429
  C  C2455  1  0.559700  0.589120  0.002030  1.0  -0.0832
  C  C2456  1  0.226370  0.922450  0.335360  1.0  -0.0876
  C  C2457  1  0.893040  0.255780  0.668700  1.0  -0.0858
  C  C2458  1  0.536480  0.565750  0.002740  1.0  -0.0821
  C  C2459  1  0.203150  0.899090  0.336080  1.0  -0.0842
  C  C2460  1  0.869810  0.232420  0.669410  1.0  -0.0691
  C  C2461  1  0.119960  0.813210  0.324490  1.0  -0.1188
  C  C2462  1  0.786620  0.146550  0.657830  1.0  -0.1298
  C  C2463  1  0.453290  0.479880  0.991160  1.0  -0.1297
  C  C2464  1  0.109600  0.800930  0.319010  1.0  -0.1363
  C  C2465  1  0.776270  0.134270  0.652350  1.0  -0.137
  C  C2466  1  0.442940  0.467600  0.985680  1.0  -0.1372
  C  C2467  1  0.464030  0.166640  0.329940  1.0  0.6783
  C  C2468  1  0.130700  0.499970  0.663270  1.0  0.6786
  C  C2469  1  0.797370  0.833300  0.996600  1.0  0.6801
  C  C2470  1  0.431220  0.072100  0.318920  1.0  0.6906
  C  C2471  1  0.097880  0.405430  0.652250  1.0  0.6915
  C  C2472  1  0.764550  0.738760  0.985580  1.0  0.6915
  C  C2473  1  0.765560  0.742480  0.009760  1.0  0.6902
  C  C2474  1  0.432230  0.075820  0.343090  1.0  0.6898
  C  C2475  1  0.098890  0.409150  0.676420  1.0  0.6906
  C  C2476  1  0.337840  0.032820  0.331850  1.0  0.6835
  C  C2477  1  0.004510  0.366150  0.665190  1.0  0.6845
  C  C2478  1  0.671170  0.699480  0.998520  1.0  0.684
  C  C2479  1  0.710230  0.793210  0.009970  1.0  0.6782
  C  C2480  1  0.376900  0.126540  0.343300  1.0  0.6724
  C  C2481  1  0.043560  0.459870  0.676640  1.0  0.6733
  C  C2482  1  0.371760  0.119000  0.317970  1.0  0.6835
  C  C2483  1  0.038430  0.452340  0.651300  1.0  0.6841
  C  C2484  1  0.705090  0.785670  0.984640  1.0  0.6841
  C  C2485  1  0.677100  0.866850  0.045460  1.0  0.0577
  C  C2486  1  0.343770  0.200190  0.378790  1.0  0.0549
  C  C2487  1  0.010430  0.533520  0.712130  1.0  0.0493
  C  C2488  1  0.673790  0.904950  0.052260  1.0  -0.0182
  C  C2489  1  0.340450  0.238280  0.385590  1.0  -0.02
  C  C2490  1  0.007120  0.571610  0.718920  1.0  -0.02
  C  C2491  1  0.675060  0.863840  0.058100  1.0  0.0638
  C  C2492  1  0.341730  0.197170  0.391440  1.0  0.065
  C  C2493  1  0.008390  0.530510  0.724770  1.0  0.0657
  C  C2494  1  0.675570  0.893310  0.045770  1.0  -0.0326
  C  C2495  1  0.342230  0.226640  0.379100  1.0  -0.0291
  C  C2496  1  0.008900  0.559970  0.712430  1.0  -0.0322
  C  C2497  1  0.673460  0.890140  0.058400  1.0  0.0174
  C  C2498  1  0.340120  0.223470  0.391730  1.0  0.0146
  C  C2499  1  0.006790  0.556810  0.725060  1.0  0.0117
  C  C2500  1  0.676840  0.852150  0.051640  1.0  -0.0341
  C  C2501  1  0.343510  0.185490  0.384970  1.0  -0.0366
  C  C2502  1  0.010170  0.518820  0.718310  1.0  -0.0374
  C  C2503  1  0.682590  0.801890  0.027710  1.0  -0.1354
  C  C2504  1  0.349260  0.135220  0.361040  1.0  -0.1361
  C  C2505  1  0.015930  0.468560  0.694370  1.0  -0.1314
  C  C2506  1  0.689090  0.789270  0.021980  1.0  -0.0794
  C  C2507  1  0.355760  0.122610  0.355320  1.0  -0.0771
  C  C2508  1  0.022430  0.455940  0.688650  1.0  -0.0742
  C  C2509  1  0.701040  0.805940  0.015810  1.0  -0.0957
  C  C2510  1  0.367710  0.139270  0.349140  1.0  -0.0958
  C  C2511  1  0.034370  0.472610  0.682470  1.0  -0.096
  C  C2512  1  0.705520  0.835280  0.015450  1.0  -0.0752
  C  C2513  1  0.372190  0.168620  0.348780  1.0  -0.0756
  C  C2514  1  0.038860  0.501950  0.682120  1.0  -0.0764
  C  C2515  1  0.699040  0.847880  0.021210  1.0  -0.1064
  C  C2516  1  0.365700  0.181210  0.354550  1.0  -0.1066
  C  C2517  1  0.032370  0.514550  0.687880  1.0  -0.1031
  C  C2518  1  0.687870  0.831290  0.027370  1.0  0.1109
  C  C2519  1  0.354530  0.164630  0.360710  1.0  0.1139
  C  C2520  1  0.021200  0.497960  0.694040  1.0  0.1079
  C  C2521  1  0.676470  0.799580  0.077350  1.0  -0.1434
  C  C2522  1  0.343140  0.132920  0.410680  1.0  -0.1464
  C  C2523  1  0.009810  0.466250  0.744010  1.0  -0.1465
  C  C2524  1  0.681400  0.789820  0.083760  1.0  -0.0829
  C  C2525  1  0.348060  0.123150  0.417100  1.0  -0.0788
  C  C2526  1  0.014730  0.456480  0.750430  1.0  -0.0793
  C  C2527  1  0.692070  0.809480  0.089530  1.0  -0.0877
  C  C2528  1  0.358740  0.142810  0.422860  1.0  -0.0889
  C  C2529  1  0.025400  0.476140  0.756190  1.0  -0.0883
  C  C2530  1  0.697070  0.838860  0.088750  1.0  -0.0811
  C  C2531  1  0.363740  0.172190  0.422080  1.0  -0.0809
  C  C2532  1  0.030410  0.505530  0.755420  1.0  -0.0753
  C  C2533  1  0.692100  0.848500  0.082340  1.0  -0.1437
  C  C2534  1  0.358770  0.181830  0.415670  1.0  -0.143
  C  C2535  1  0.025440  0.515170  0.749000  1.0  -0.1339
  C  C2536  1  0.682050  0.828990  0.076620  1.0  0.0371
  C  C2537  1  0.348720  0.162330  0.409950  1.0  0.0338
  C  C2538  1  0.015380  0.495660  0.743290  1.0  0.0363
  C  C2539  1  0.674590  0.994940  0.061090  1.0  -0.1501
  C  C2540  1  0.341260  0.328280  0.394430  1.0  -0.1487
  C  C2541  1  0.007920  0.661610  0.727760  1.0  -0.1538
  C  C2542  1  0.674820  0.022080  0.062000  1.0  -0.0789
  C  C2543  1  0.341490  0.355410  0.395340  1.0  -0.078
  C  C2544  1  0.008160  0.688740  0.728670  1.0  -0.0808
  C  C2545  1  0.673950  0.038280  0.056180  1.0  -0.0915
  C  C2546  1  0.340620  0.371610  0.389510  1.0  -0.0895
  C  C2547  1  0.007280  0.704950  0.722850  1.0  -0.0906
  C  C2548  1  0.672890  0.026710  0.049440  1.0  -0.0794
  C  C2549  1  0.339560  0.360040  0.382780  1.0  -0.0793
  C  C2550  1  0.006230  0.693370  0.716110  1.0  -0.079
  C  C2551  1  0.672670  0.999640  0.048560  1.0  -0.154
  C  C2552  1  0.339330  0.332970  0.381890  1.0  -0.1535
  C  C2553  1  0.006000  0.666310  0.715230  1.0  -0.1415
  C  C2554  1  0.673480  0.983710  0.054370  1.0  0.0334
  C  C2555  1  0.340150  0.317040  0.387700  1.0  0.0311
  C  C2556  1  0.006810  0.650370  0.721040  1.0  0.0405
  C  C2557  1  0.683400  0.844710  0.033520  1.0  -0.1311
  C  C2558  1  0.350070  0.178040  0.366860  1.0  -0.1297
  C  C2559  1  0.016740  0.511380  0.700190  1.0  -0.131
  C  C2560  1  0.680230  0.855200  0.038870  1.0  -0.1414
  C  C2561  1  0.346900  0.188530  0.372210  1.0  -0.1387
  C  C2562  1  0.013560  0.521870  0.705540  1.0  -0.1393
  C  C2563  1  0.678600  0.839780  0.069970  1.0  -0.1362
  C  C2564  1  0.345270  0.173120  0.403300  1.0  -0.1347
  C  C2565  1  0.011930  0.506450  0.736640  1.0  -0.1362
  C  C2566  1  0.676560  0.850050  0.064490  1.0  -0.1232
  C  C2567  1  0.343230  0.183390  0.397820  1.0  -0.1238
  C  C2568  1  0.009890  0.516720  0.731160  1.0  -0.1231
  C  C2569  1  0.673380  0.932630  0.052750  1.0  -0.1035
  C  C2570  1  0.340050  0.265970  0.386080  1.0  -0.105
  C  C2571  1  0.006720  0.599300  0.719420  1.0  -0.0537
  C  C2572  1  0.673330  0.955900  0.053430  1.0  -0.0836
  C  C2573  1  0.340000  0.289230  0.386760  1.0  -0.0853
  C  C2574  1  0.006660  0.622560  0.720100  1.0  -0.0851
  C  C2575  1  0.841560  0.732310  0.169830  1.0  0.141
  C  C2576  1  0.508220  0.065640  0.503160  1.0  0.141
  C  C2577  1  0.174890  0.398980  0.836500  1.0  0.1451
  C  C2578  1  0.800380  0.733710  0.164050  1.0  0.0688
  C  C2579  1  0.467050  0.067050  0.497390  1.0  0.0672
  C  C2580  1  0.133710  0.400380  0.830720  1.0  0.0712
  C  C2581  1  0.803860  0.736080  0.176690  1.0  0.0412
  C  C2582  1  0.470530  0.069420  0.510030  1.0  0.0437
  C  C2583  1  0.137190  0.402750  0.843360  1.0  0.043
  C  C2584  1  0.826570  0.731900  0.163720  1.0  0.0509
  C  C2585  1  0.493230  0.065230  0.497050  1.0  0.0375
  C  C2586  1  0.159900  0.398560  0.830380  1.0  0.0326
  C  C2587  1  0.788970  0.735760  0.170540  1.0  -0.0357
  C  C2588  1  0.455640  0.069090  0.503870  1.0  -0.0351
  C  C2589  1  0.122310  0.402430  0.837200  1.0  -0.059
  C  C2590  1  0.830210  0.734350  0.176340  1.0  -0.0343
  C  C2591  1  0.496870  0.067690  0.509670  1.0  -0.0387
  C  C2592  1  0.163540  0.401020  0.843000  1.0  -0.053
  C  C2593  1  0.935770  0.730510  0.173540  1.0  -0.1559
  C  C2594  1  0.602440  0.063850  0.506870  1.0  -0.1548
  C  C2595  1  0.269110  0.397180  0.840200  1.0  -0.1556
  C  C2596  1  0.963010  0.731040  0.172700  1.0  -0.0852
  C  C2597  1  0.629680  0.064380  0.506040  1.0  -0.0822
  C  C2598  1  0.296340  0.397710  0.839370  1.0  -0.0821
  C  C2599  1  0.975270  0.733120  0.166000  1.0  -0.0816
  C  C2600  1  0.641940  0.066450  0.499340  1.0  -0.0811
  C  C2601  1  0.308610  0.399790  0.832670  1.0  -0.081
  C  C2602  1  0.959530  0.734590  0.160150  1.0  -0.0831
  C  C2603  1  0.626190  0.067920  0.493490  1.0  -0.0865
  C  C2604  1  0.292860  0.401250  0.826820  1.0  -0.0826
  C  C2605  1  0.932210  0.734060  0.161010  1.0  -0.1505
  C  C2606  1  0.598870  0.067390  0.494340  1.0  -0.1522
  C  C2607  1  0.265540  0.400720  0.827680  1.0  -0.1529
  C  C2608  1  0.920340  0.732030  0.167700  1.0  0.0516
  C  C2609  1  0.587010  0.065360  0.501040  1.0  0.0529
  C  C2610  1  0.253670  0.398700  0.834370  1.0  0.0525
  C  C2611  1  0.786870  0.760340  0.200880  1.0  -0.142
  C  C2612  1  0.453540  0.093670  0.534210  1.0  -0.1426
  C  C2613  1  0.120210  0.427000  0.867550  1.0  -0.1443
  C  C2614  1  0.774630  0.767150  0.206660  1.0  -0.073
  C  C2615  1  0.441290  0.100480  0.540000  1.0  -0.0751
  C  C2616  1  0.107960  0.433820  0.873330  1.0  -0.0735
  C  C2617  1  0.744820  0.761480  0.206490  1.0  -0.0984
  C  C2618  1  0.411490  0.094810  0.539820  1.0  -0.0978
  C  C2619  1  0.078160  0.428140  0.873160  1.0  -0.0998
  C  C2620  1  0.727350  0.747930  0.200500  1.0  -0.0757
  C  C2621  1  0.394020  0.081270  0.533830  1.0  -0.077
  C  C2622  1  0.060680  0.414600  0.867160  1.0  -0.0768
  C  C2623  1  0.739610  0.741100  0.194750  1.0  -0.1576
  C  C2624  1  0.406280  0.074430  0.528090  1.0  -0.1483
  C  C2625  1  0.072950  0.407770  0.861420  1.0  -0.1578
  C  C2626  1  0.769470  0.747630  0.194890  1.0  0.1127
  C  C2627  1  0.436140  0.080970  0.528220  1.0  0.1031
  C  C2628  1  0.102810  0.414300  0.861560  1.0  0.1107
  C  C2629  1  0.785590  0.751560  0.139870  1.0  -0.1282
  C  C2630  1  0.452260  0.084900  0.473200  1.0  -0.1363
  C  C2631  1  0.118920  0.418230  0.806540  1.0  -0.1371
  C  C2632  1  0.776260  0.756940  0.133460  1.0  -0.0709
  C  C2633  1  0.442920  0.090280  0.466790  1.0  -0.0789
  C  C2634  1  0.109590  0.423610  0.800130  1.0  -0.079
  C  C2635  1  0.746930  0.752080  0.132650  1.0  -0.0919
  C  C2636  1  0.413600  0.085410  0.465980  1.0  -0.09
  C  C2637  1  0.080270  0.418750  0.799310  1.0  -0.0879
  C  C2638  1  0.727000  0.741090  0.138360  1.0  -0.0743
  C  C2639  1  0.393670  0.074420  0.471690  1.0  -0.0753
  C  C2640  1  0.060340  0.407750  0.805030  1.0  -0.0791
  C  C2641  1  0.736460  0.735760  0.144780  1.0  -0.1468
  C  C2642  1  0.403130  0.069090  0.478110  1.0  -0.1467
  C  C2643  1  0.069800  0.402420  0.811440  1.0  -0.1365
  C  C2644  1  0.765840  0.741240  0.145550  1.0  0.0277
  C  C2645  1  0.432500  0.074580  0.478880  1.0  0.0304
  C  C2646  1  0.099170  0.407910  0.812210  1.0  0.0316
  C  C2647  1  0.892470  0.731800  0.168610  1.0  -0.0903
  C  C2648  1  0.559140  0.065130  0.501940  1.0  -0.0908
  C  C2649  1  0.225800  0.398460  0.835280  1.0  -0.089
  C  C2650  1  0.869200  0.731840  0.169290  1.0  -0.0752
  C  C2651  1  0.535870  0.065180  0.502630  1.0  -0.0726
  C  C2652  1  0.202540  0.398510  0.835960  1.0  -0.0728
  C  C2653  1  0.782450  0.742920  0.188690  1.0  -0.1314
  C  C2654  1  0.449120  0.076250  0.522020  1.0  -0.1282
  C  C2655  1  0.115780  0.409590  0.855360  1.0  -0.1346
  C  C2656  1  0.792570  0.739510  0.183310  1.0  -0.1361
  C  C2657  1  0.459240  0.072840  0.516640  1.0  -0.1328
  C  C2658  1  0.125900  0.406180  0.849970  1.0  -0.1322
  C  C2659  1  0.786550  0.735310  0.157680  1.0  -0.1227
  C  C2660  1  0.453220  0.068650  0.491020  1.0  -0.1253
  C  C2661  1  0.119890  0.401980  0.824350  1.0  -0.1229
  C  C2662  1  0.776380  0.737510  0.152200  1.0  -0.1388
  C  C2663  1  0.443050  0.070850  0.485540  1.0  -0.139
  C  C2664  1  0.109710  0.404180  0.818870  1.0  -0.1394
  C  C2665  1  0.097550  0.787780  0.152260  1.0  0.6892
  C  C2666  1  0.764220  0.121110  0.485590  1.0  0.6874
  C  C2667  1  0.430880  0.454440  0.818930  1.0  0.6892
  C  C2668  1  0.004280  0.733660  0.165230  1.0  0.6825
  C  C2669  1  0.670940  0.066990  0.498560  1.0  0.6805
  C  C2670  1  0.337610  0.400330  0.831890  1.0  0.6807
  C  C2671  1  0.038030  0.681300  0.151360  1.0  0.6888
  C  C2672  1  0.704700  0.014640  0.484690  1.0  0.6852
  C  C2673  1  0.371360  0.347970  0.818030  1.0  0.6856
  C  C2674  1  0.043460  0.679360  0.176710  1.0  0.6716
  C  C2675  1  0.710130  0.012700  0.510050  1.0  0.675
  C  C2676  1  0.376790  0.346030  0.843380  1.0  0.6755
  C  C2677  1  0.130370  0.726130  0.163270  1.0  0.6709
  C  C2678  1  0.797030  0.059460  0.496600  1.0  0.6777
  C  C2679  1  0.463700  0.392790  0.829930  1.0  0.6779
  C  C2680  1  0.098900  0.785590  0.176380  1.0  0.691
  C  C2681  1  0.765560  0.118930  0.509720  1.0  0.6893
  C  C2682  1  0.432230  0.452260  0.843050  1.0  0.6889
  C  C2683  1  0.966760  0.557350  0.104940  1.0  0.0561
  C  C2684  1  0.633430  0.890680  0.438270  1.0  0.0625
  C  C2685  1  0.300100  0.224020  0.771610  1.0  0.0559
  C  C2686  1  0.974040  0.519870  0.110920  1.0  -0.0057
  C  C2687  1  0.640710  0.853210  0.444260  1.0  -0.0053
  C  C2688  1  0.307380  0.186540  0.777590  1.0  -0.0018
  C  C2689  1  0.981980  0.564550  0.117090  1.0  0.051
  C  C2690  1  0.648650  0.897880  0.450420  1.0  0.0458
  C  C2691  1  0.315310  0.231210  0.783750  1.0  0.0557
  C  C2692  1  0.966530  0.529990  0.104870  1.0  -0.0773
  C  C2693  1  0.633200  0.863320  0.438210  1.0  -0.07
  C  C2694  1  0.299870  0.196660  0.771540  1.0  -0.0801
  C  C2695  1  0.981780  0.537200  0.117030  1.0  -0.0511
  C  C2696  1  0.648440  0.870530  0.450370  1.0  -0.0769
  C  C2697  1  0.315110  0.203870  0.783700  1.0  -0.076
  C  C2698  1  0.974480  0.574540  0.111040  1.0  -0.0913
  C  C2699  1  0.641140  0.907880  0.444380  1.0  -0.0872
  C  C2700  1  0.307810  0.241210  0.777710  1.0  -0.0835
  C  C2701  1  0.930780  0.570320  0.081980  1.0  -0.1299
  C  C2702  1  0.597450  0.903650  0.415320  1.0  -0.131
  C  C2703  1  0.264110  0.236990  0.748650  1.0  -0.1252
  C  C2704  1  0.920770  0.580470  0.076400  1.0  -0.0835
  C  C2705  1  0.587440  0.913800  0.409730  1.0  -0.0846
  C  C2706  1  0.254100  0.247140  0.743060  1.0  -0.084
  C  C2707  1  0.922820  0.608840  0.076660  1.0  -0.0923
  C  C2708  1  0.589490  0.942170  0.409990  1.0  -0.093
  C  C2709  1  0.256150  0.275500  0.743320  1.0  -0.0951
  C  C2710  1  0.935690  0.627010  0.082590  1.0  -0.085
  C  C2711  1  0.602360  0.960340  0.415920  1.0  -0.0825
  C  C2712  1  0.269030  0.293670  0.749260  1.0  -0.0835
  C  C2713  1  0.945680  0.616750  0.088170  1.0  -0.1419
  C  C2714  1  0.612350  0.950080  0.421500  1.0  -0.1396
  C  C2715  1  0.279010  0.283410  0.754840  1.0  -0.1526
  C  C2716  1  0.943010  0.588310  0.087900  1.0  0.1451
  C  C2717  1  0.609680  0.921640  0.421230  1.0  0.1416
  C  C2718  1  0.276350  0.254980  0.754560  1.0  0.1355
  C  C2719  1  0.017990  0.612740  0.140190  1.0  -0.1253
  C  C2720  1  0.684660  0.946070  0.473520  1.0  -0.1313
  C  C2721  1  0.351320  0.279410  0.806860  1.0  -0.1217
  C  C2722  1  0.027880  0.632820  0.145810  1.0  -0.0798
  C  C2723  1  0.694550  0.966150  0.479140  1.0  -0.0861
  C  C2724  1  0.361220  0.299480  0.812470  1.0  -0.09
  C  C2725  1  0.025910  0.659170  0.145560  1.0  -0.0801
  C  C2726  1  0.692570  0.992510  0.478890  1.0  -0.0809
  C  C2727  1  0.359240  0.325840  0.812230  1.0  -0.0941
  C  C2728  1  0.013260  0.664610  0.139610  1.0  -0.0852
  C  C2729  1  0.679930  0.997940  0.472950  1.0  -0.0818
  C  C2730  1  0.346600  0.331280  0.806280  1.0  -0.0831
  C  C2731  1  0.003390  0.644460  0.134010  1.0  -0.1376
  C  C2732  1  0.670060  0.977790  0.467340  1.0  -0.1367
  C  C2733  1  0.336720  0.311120  0.800680  1.0  -0.1458
  C  C2734  1  0.005950  0.618640  0.134270  1.0  0.1435
  C  C2735  1  0.672620  0.951970  0.467600  1.0  0.1457
  C  C2736  1  0.339280  0.285300  0.800930  1.0  0.1484
  C  C2737  1  0.967220  0.423220  0.104710  1.0  -0.1607
  C  C2738  1  0.633890  0.756550  0.438040  1.0  -0.1678
  C  C2739  1  0.300560  0.089890  0.771380  1.0  -0.1641
  C  C2740  1  0.967290  0.396030  0.104710  1.0  -0.0893
  C  C2741  1  0.633960  0.729360  0.438040  1.0  -0.0841
  C  C2742  1  0.300630  0.062690  0.771370  1.0  -0.0868
  C  C2743  1  0.973810  0.385380  0.110860  1.0  -0.0907
  C  C2744  1  0.640470  0.718710  0.444190  1.0  -0.0895
  C  C2745  1  0.307140  0.052050  0.777520  1.0  -0.0922
  C  C2746  1  0.980170  0.402610  0.117000  1.0  -0.0763
  C  C2747  1  0.646830  0.735940  0.450330  1.0  -0.0806
  C  C2748  1  0.313500  0.069270  0.783670  1.0  -0.0764
  C  C2749  1  0.980070  0.429770  0.116980  1.0  -0.1582
  C  C2750  1  0.646740  0.763100  0.450310  1.0  -0.1539
  C  C2751  1  0.313400  0.096440  0.783650  1.0  -0.1572
  C  C2752  1  0.973630  0.440150  0.110840  1.0  0.0339
  C  C2753  1  0.640300  0.773480  0.444180  1.0  0.0422
  C  C2754  1  0.306970  0.106820  0.777510  1.0  0.0273
  C  C2755  1  0.951800  0.577150  0.093790  1.0  -0.0649
  C  C2756  1  0.618470  0.910480  0.427120  1.0  -0.0695
  C  C2757  1  0.285130  0.243810  0.760450  1.0  -0.0643
  C  C2758  1  0.958750  0.567870  0.098810  1.0  -0.0789
  C  C2759  1  0.625410  0.901210  0.432140  1.0  -0.0768
  C  C2760  1  0.292080  0.234540  0.765470  1.0  -0.0786
  C  C2761  1  0.997170  0.598790  0.128350  1.0  -0.0697
  C  C2762  1  0.663840  0.932120  0.461680  1.0  -0.0725
  C  C2763  1  0.330510  0.265450  0.795010  1.0  -0.0621
  C  C2764  1  0.990150  0.582760  0.123280  1.0  -0.0727
  C  C2765  1  0.656820  0.916100  0.456620  1.0  -0.0735
  C  C2766  1  0.323490  0.249430  0.789950  1.0  -0.0807
  C  C2767  1  0.973830  0.491740  0.110870  1.0  -0.0824
  C  C2768  1  0.640500  0.825080  0.444200  1.0  -0.0817
  C  C2769  1  0.307170  0.158410  0.777530  1.0  -0.0835
  C  C2770  1  0.973700  0.468210  0.110840  1.0  -0.0826
  C  C2771  1  0.640370  0.801540  0.444170  1.0  -0.0826
  C  C2772  1  0.307040  0.134880  0.777510  1.0  -0.0814
  C  C2773  1  0.726470  0.159160  0.070370  1.0  0.6846
  C  C2774  1  0.393140  0.492490  0.403700  1.0  0.6847
  C  C2775  1  0.059800  0.825830  0.737030  1.0  0.6847
  C  C2776  1  0.665670  0.192600  0.059180  1.0  0.6814
  C  C2777  1  0.332340  0.525930  0.392510  1.0  0.6829
  C  C2778  1  0.999010  0.859260  0.725850  1.0  0.6828
  C  C2779  1  0.724750  0.161600  0.046050  1.0  0.6925
  C  C2780  1  0.391420  0.494930  0.379380  1.0  0.6936
  C  C2781  1  0.058080  0.828260  0.712710  1.0  0.6942
  C  C2782  1  0.618080  0.105190  0.045830  1.0  0.6772
  C  C2783  1  0.284750  0.438520  0.379160  1.0  0.6785
  C  C2784  1  0.951410  0.771850  0.712490  1.0  0.6776
  C  C2785  1  0.673890  0.066960  0.057030  1.0  0.6739
  C  C2786  1  0.340560  0.400290  0.390360  1.0  0.6734
  C  C2787  1  0.007220  0.733620  0.723690  1.0  0.6733
  C  C2788  1  0.620320  0.099720  0.071040  1.0  0.6875
  C  C2789  1  0.286990  0.433050  0.404380  1.0  0.6858
  C  C2790  1  0.953660  0.766380  0.737710  1.0  0.6862
  C  C2791  1  0.606190  0.873000  0.330880  1.0  0.0663
  C  C2792  1  0.272860  0.206340  0.664210  1.0  0.0638
  C  C2793  1  0.939520  0.539670  0.997540  1.0  0.0669
  C  C2794  1  0.940910  0.498460  0.003290  1.0  0.1323
  C  C2795  1  0.607580  0.831800  0.336630  1.0  0.1306
  C  C2796  1  0.274240  0.165130  0.669960  1.0  0.129
  C  C2797  1  0.937560  0.536340  0.010180  1.0  0.0401
  C  C2798  1  0.604220  0.869670  0.343520  1.0  0.0383
  C  C2799  1  0.270890  0.203010  0.676850  1.0  0.0387
  C  C2800  1  0.607840  0.846760  0.330520  1.0  -0.0115
  C  C2801  1  0.274510  0.180090  0.663860  1.0  -0.0098
  C  C2802  1  0.941180  0.513420  0.997190  1.0  -0.0038
  C  C2803  1  0.939130  0.509910  0.009820  1.0  -0.042
  C  C2804  1  0.605800  0.843240  0.343150  1.0  -0.056
  C  C2805  1  0.272470  0.176570  0.676480  1.0  -0.0562
  C  C2806  1  0.937760  0.551190  0.004030  1.0  -0.0598
  C  C2807  1  0.604430  0.884520  0.337360  1.0  -0.0341
  C  C2808  1  0.271090  0.217850  0.670700  1.0  -0.0424
  C  C2809  1  0.604720  0.937110  0.311590  1.0  -0.1314
  C  C2810  1  0.271390  0.270450  0.644920  1.0  -0.1332
  C  C2811  1  0.938050  0.603780  0.978260  1.0  -0.1471
  C  C2812  1  0.599700  0.946700  0.305160  1.0  -0.0818
  C  C2813  1  0.266360  0.280030  0.638490  1.0  -0.08
  C  C2814  1  0.933030  0.613360  0.971830  1.0  -0.0811
  C  C2815  1  0.588760  0.926820  0.299440  1.0  -0.0835
  C  C2816  1  0.255430  0.260160  0.632770  1.0  -0.09
  C  C2817  1  0.922090  0.593490  0.966100  1.0  -0.0901
  C  C2818  1  0.583610  0.897410  0.300260  1.0  -0.0814
  C  C2819  1  0.250280  0.230750  0.633590  1.0  -0.082
  C  C2820  1  0.916940  0.564080  0.966930  1.0  -0.0879
  C  C2821  1  0.588680  0.887950  0.306690  1.0  -0.1273
  C  C2822  1  0.255350  0.221290  0.640020  1.0  -0.1277
  C  C2823  1  0.922010  0.554620  0.973350  1.0  -0.1291
  C  C2824  1  0.598970  0.907670  0.312370  1.0  0.02
  C  C2825  1  0.265640  0.241000  0.645700  1.0  0.0179
  C  C2826  1  0.932310  0.574340  0.979030  1.0  0.0194
  C  C2827  1  0.933080  0.601510  0.028020  1.0  -0.1425
  C  C2828  1  0.599740  0.934850  0.361350  1.0  -0.1568
  C  C2829  1  0.266410  0.268180  0.694690  1.0  -0.1419
  C  C2830  1  0.926630  0.614230  0.033740  1.0  -0.0863
  C  C2831  1  0.593300  0.947570  0.367070  1.0  -0.0861
  C  C2832  1  0.259960  0.280900  0.700400  1.0  -0.0857
  C  C2833  1  0.914070  0.597440  0.039870  1.0  -0.1019
  C  C2834  1  0.580730  0.930770  0.373200  1.0  -0.1014
  C  C2835  1  0.247400  0.264110  0.706530  1.0  -0.0995
  C  C2836  1  0.908970  0.567860  0.040200  1.0  -0.0769
  C  C2837  1  0.575630  0.901200  0.373530  1.0  -0.0775
  C  C2838  1  0.242300  0.234530  0.706870  1.0  -0.0769
  C  C2839  1  0.915390  0.555160  0.034440  1.0  -0.1202
  C  C2840  1  0.582050  0.888490  0.367780  1.0  -0.1201
  C  C2841  1  0.248720  0.221820  0.701110  1.0  -0.1176
  C  C2842  1  0.927130  0.571870  0.028320  1.0  0.1148
  C  C2843  1  0.593790  0.905200  0.361650  1.0  0.1155
  C  C2844  1  0.260460  0.238530  0.694990  1.0  0.1144
  C  C2845  1  0.605770  0.741310  0.327650  1.0  -0.1557
  C  C2846  1  0.272430  0.074640  0.660990  1.0  -0.1496
  C  C2847  1  0.939100  0.407970  0.994320  1.0  -0.1554
  C  C2848  1  0.605580  0.714170  0.326760  1.0  -0.0976
  C  C2849  1  0.272250  0.047510  0.660090  1.0  -0.0951
  C  C2850  1  0.938920  0.380840  0.993420  1.0  -0.0965
  C  C2851  1  0.607930  0.698780  0.332570  1.0  -0.0909
  C  C2852  1  0.274600  0.032110  0.665910  1.0  -0.0894
  C  C2853  1  0.941270  0.365450  0.999240  1.0  -0.0862
  C  C2854  1  0.943870  0.377880  0.005940  1.0  -0.081
  C  C2855  1  0.610540  0.711220  0.339280  1.0  -0.0838
  C  C2856  1  0.277210  0.044550  0.672610  1.0  -0.0837
  C  C2857  1  0.944050  0.404910  0.006810  1.0  -0.1504
  C  C2858  1  0.610720  0.738240  0.340140  1.0  -0.1403
  C  C2859  1  0.277390  0.071580  0.673480  1.0  -0.1509
  C  C2860  1  0.941650  0.419990  0.001020  1.0  0.0341
  C  C2861  1  0.608310  0.753320  0.334350  1.0  0.0419
  C  C2862  1  0.274980  0.086650  0.667680  1.0  0.0316
  C  C2863  1  0.602510  0.897070  0.319030  1.0  -0.1368
  C  C2864  1  0.269180  0.230400  0.652360  1.0  -0.1346
  C  C2865  1  0.935840  0.563730  0.985700  1.0  -0.1367
  C  C2866  1  0.604620  0.886870  0.324510  1.0  -0.1221
  C  C2867  1  0.271280  0.220200  0.657840  1.0  -0.1234
  C  C2868  1  0.937950  0.553530  0.991180  1.0  -0.1259
  C  C2869  1  0.931440  0.558370  0.022160  1.0  -0.128
  C  C2870  1  0.598110  0.891700  0.355490  1.0  -0.1268
  C  C2871  1  0.264780  0.225040  0.688830  1.0  -0.1281
  C  C2872  1  0.934520  0.547880  0.016800  1.0  -0.1302
  C  C2873  1  0.601180  0.881220  0.350130  1.0  -0.1318
  C  C2874  1  0.267850  0.214550  0.683460  1.0  -0.1358
  C  C2875  1  0.941430  0.470860  0.002720  1.0  -0.0828
  C  C2876  1  0.608090  0.804200  0.336050  1.0  -0.0793
  C  C2877  1  0.274760  0.137530  0.669390  1.0  -0.0878
  C  C2878  1  0.941610  0.447690  0.001980  1.0  -0.0846
  C  C2879  1  0.608280  0.781030  0.335310  1.0  -0.0839
  C  C2880  1  0.274940  0.114360  0.668650  1.0  -0.0846
  C  C2881  1  0.890620  0.242930  0.010080  1.0  0.6856
  C  C2882  1  0.557290  0.576270  0.343420  1.0  0.6899
  C  C2883  1  0.223960  0.909600  0.676750  1.0  0.6872
  C  C2884  1  0.607700  0.669930  0.331790  1.0  0.6761
  C  C2885  1  0.274360  0.003270  0.665120  1.0  0.6771
  C  C2886  1  0.941030  0.336600  0.998450  1.0  0.6763
  C  C2887  1  0.996250  0.297820  0.009880  1.0  0.6719
  C  C2888  1  0.662920  0.631160  0.343210  1.0  0.6725
  C  C2889  1  0.329590  0.964490  0.676540  1.0  0.6723
  C  C2890  1  0.659940  0.635940  0.317930  1.0  0.669
  C  C2891  1  0.326610  0.969280  0.651270  1.0  0.6698
  C  C2892  1  0.993270  0.302610  0.984600  1.0  0.6666
  C  C2893  1  0.614750  0.543660  0.329830  1.0  0.6761
  C  C2894  1  0.281410  0.877000  0.663160  1.0  0.6779
  C  C2895  1  0.948080  0.210330  0.996500  1.0  0.6773
  C  C2896  1  0.552620  0.576580  0.319220  1.0  0.6931
  C  C2897  1  0.219290  0.909910  0.652560  1.0  0.6926
  C  C2898  1  0.885950  0.243250  0.985890  1.0  0.6917
  C  C2899  1  0.502710  0.042980  0.105180  1.0  0.0487
  C  C2900  1  0.169380  0.376310  0.438510  1.0  0.0415
  C  C2901  1  0.836040  0.709640  0.771850  1.0  0.0546
  C  C2902  1  0.495050  0.027320  0.117300  1.0  0.056
  C  C2903  1  0.161720  0.360660  0.450630  1.0  0.0556
  C  C2904  1  0.828380  0.693990  0.783970  1.0  0.0491
  C  C2905  1  0.457930  0.035100  0.111300  1.0  -0.0193
  C  C2906  1  0.124600  0.368430  0.444630  1.0  -0.0174
  C  C2907  1  0.791270  0.701770  0.777960  1.0  -0.0221
  C  C2908  1  0.512430  0.035160  0.111220  1.0  -0.0885
  C  C2909  1  0.179100  0.368500  0.444560  1.0  -0.0854
  C  C2910  1  0.845770  0.701830  0.777890  1.0  -0.0816
  C  C2911  1  0.467770  0.027270  0.117340  1.0  -0.0813
  C  C2912  1  0.134440  0.360610  0.450680  1.0  -0.0801
  C  C2913  1  0.801110  0.693940  0.784010  1.0  -0.0782
  C  C2914  1  0.475450  0.042970  0.105210  1.0  -0.0708
  C  C2915  1  0.142110  0.376300  0.438550  1.0  -0.0806
  C  C2916  1  0.808780  0.709630  0.771880  1.0  -0.0748
  C  C2917  1  0.551740  0.079860  0.082200  1.0  -0.1326
  C  C2918  1  0.218410  0.413190  0.415530  1.0  -0.125
  C  C2919  1  0.885070  0.746530  0.748870  1.0  -0.1345
  C  C2920  1  0.571940  0.089860  0.076600  1.0  -0.076
  C  C2921  1  0.238600  0.423190  0.409940  1.0  -0.0834
  C  C2922  1  0.905270  0.756530  0.743270  1.0  -0.0797
  C  C2923  1  0.598060  0.087450  0.076820  1.0  -0.091
  C  C2924  1  0.264730  0.420780  0.410150  1.0  -0.0935
  C  C2925  1  0.931400  0.754110  0.743490  1.0  -0.0942
  C  C2926  1  0.603140  0.074260  0.082710  1.0  -0.0843
  C  C2927  1  0.269810  0.407600  0.416050  1.0  -0.0826
  C  C2928  1  0.936470  0.740930  0.749380  1.0  -0.0835
  C  C2929  1  0.582870  0.064280  0.088300  1.0  -0.1526
  C  C2930  1  0.249530  0.397620  0.421630  1.0  -0.1448
  C  C2931  1  0.916200  0.730950  0.754970  1.0  -0.1532
  C  C2932  1  0.557280  0.067280  0.088070  1.0  0.1413
  C  C2933  1  0.223950  0.400610  0.421400  1.0  0.1406
  C  C2934  1  0.890610  0.733950  0.754740  1.0  0.1411
  C  C2935  1  0.367830  0.041380  0.105290  1.0  -0.1563
  C  C2936  1  0.034500  0.374710  0.438620  1.0  -0.1557
  C  C2937  1  0.701170  0.708050  0.771950  1.0  -0.1566
  C  C2938  1  0.340600  0.041350  0.105300  1.0  -0.0915
  C  C2939  1  0.007260  0.374680  0.438630  1.0  -0.0859
  C  C2940  1  0.673930  0.708020  0.771960  1.0  -0.0855
  C  C2941  1  0.323430  0.034910  0.111450  1.0  -0.0898
  C  C2942  1  0.990090  0.368240  0.444790  1.0  -0.0916
  C  C2943  1  0.656760  0.701570  0.778120  1.0  -0.0908
  C  C2944  1  0.334240  0.028510  0.117590  1.0  -0.0878
  C  C2945  1  0.000910  0.361840  0.450920  1.0  -0.0868
  C  C2946  1  0.667570  0.695180  0.784260  1.0  -0.0851
  C  C2947  1  0.361500  0.028560  0.117560  1.0  -0.1543
  C  C2948  1  0.028170  0.361900  0.450890  1.0  -0.1449
  C  C2949  1  0.694830  0.695230  0.784220  1.0  -0.1434
  C  C2950  1  0.378340  0.034990  0.111410  1.0  0.0272
  C  C2951  1  0.045010  0.368320  0.444740  1.0  0.0264
  C  C2952  1  0.711670  0.701660  0.778080  1.0  0.0258
  C  C2953  1  0.507770  0.991120  0.140280  1.0  -0.1012
  C  C2954  1  0.174440  0.324460  0.473610  1.0  -0.1245
  C  C2955  1  0.841100  0.657790  0.806940  1.0  -0.1286
  C  C2956  1  0.517990  0.981150  0.145860  1.0  -0.0886
  C  C2957  1  0.184660  0.314490  0.479190  1.0  -0.0852
  C  C2958  1  0.851330  0.647820  0.812520  1.0  -0.0892
  C  C2959  1  0.546270  0.983010  0.145550  1.0  -0.0916
  C  C2960  1  0.212940  0.316340  0.478880  1.0  -0.0905
  C  C2961  1  0.879610  0.649680  0.812220  1.0  -0.092
  C  C2962  1  0.564280  0.995610  0.139580  1.0  -0.0869
  C  C2963  1  0.230950  0.328950  0.472910  1.0  -0.0815
  C  C2964  1  0.897610  0.662280  0.806250  1.0  -0.0855
  C  C2965  1  0.553960  0.005560  0.134010  1.0  -0.1383
  C  C2966  1  0.220620  0.338900  0.467340  1.0  -0.1364
  C  C2967  1  0.887290  0.672230  0.800680  1.0  -0.1385
  C  C2968  1  0.525620  0.003120  0.134330  1.0  0.1429
  C  C2969  1  0.192290  0.336450  0.467660  1.0  0.1424
  C  C2970  1  0.858950  0.669790  0.800990  1.0  0.1436
  C  C2971  1  0.537300  0.058390  0.093970  1.0  -0.0654
  C  C2972  1  0.203960  0.391720  0.427300  1.0  -0.0659
  C  C2973  1  0.870630  0.725050  0.760640  1.0  -0.0692
  C  C2974  1  0.521120  0.051280  0.099010  1.0  -0.0817
  C  C2975  1  0.187790  0.384610  0.432350  1.0  -0.0809
  C  C2976  1  0.854460  0.717940  0.765680  1.0  -0.091
  C  C2977  1  0.406390  0.035030  0.111380  1.0  -0.0828
  C  C2978  1  0.073060  0.368360  0.444710  1.0  -0.0836
  C  C2979  1  0.739720  0.701690  0.778040  1.0  -0.0873
  C  C2980  1  0.429880  0.035060  0.111340  1.0  -0.0797
  C  C2981  1  0.096550  0.368400  0.444670  1.0  -0.0836
  C  C2982  1  0.763220  0.701730  0.778010  1.0  -0.0817
  C  C2983  1  0.505330  0.019070  0.123430  1.0  -0.0711
  C  C2984  1  0.172000  0.352410  0.456770  1.0  -0.0792
  C  C2985  1  0.838670  0.685740  0.790100  1.0  -0.075
  C  C2986  1  0.514480  0.011990  0.128450  1.0  -0.074
  C  C2987  1  0.181140  0.345320  0.461790  1.0  -0.06
  C  C2988  1  0.847810  0.678650  0.795120  1.0  -0.0669
  C  C2989  1  0.845930  0.204050  0.176700  1.0  0.0387
  C  C2990  1  0.512600  0.537380  0.510030  1.0  0.04
  C  C2991  1  0.179270  0.870720  0.843360  1.0  0.0383
  C  C2992  1  0.804640  0.166570  0.169750  1.0  0.1417
  C  C2993  1  0.471310  0.499900  0.503090  1.0  0.1443
  C  C2994  1  0.137980  0.833240  0.836420  1.0  0.1378
  C  C2995  1  0.847300  0.208180  0.164070  1.0  0.0742
  C  C2996  1  0.513960  0.541520  0.497410  1.0  0.0852
  C  C2997  1  0.180630  0.874850  0.830740  1.0  0.0832
  C  C2998  1  0.817900  0.177630  0.176290  1.0  -0.0314
  C  C2999  1  0.484560  0.510970  0.509620  1.0  -0.0316
  C  C3000  1  0.151230  0.844300  0.842950  1.0  -0.0263
  C  C3001  1  0.819340  0.181920  0.163670  1.0  0.0627
  C  C3002  1  0.486010  0.515250  0.497010  1.0  0.0442
  C  C3003  1  0.152670  0.848590  0.830340  1.0  0.0632
  C  C3004  1  0.860590  0.219290  0.170580  1.0  -0.022
  C  C3005  1  0.527260  0.552620  0.503910  1.0  -0.0366
  C  C3006  1  0.193920  0.885950  0.837240  1.0  -0.0329
  C  C3007  1  0.915520  0.268080  0.194660  1.0  -0.1416
  C  C3008  1  0.582180  0.601410  0.528000  1.0  -0.1408
  C  C3009  1  0.248850  0.934740  0.861330  1.0  -0.1411
  C  C3010  1  0.934540  0.280500  0.200400  1.0  -0.0812
  C  C3011  1  0.601200  0.613830  0.533740  1.0  -0.0818
  C  C3012  1  0.267870  0.947170  0.867070  1.0  -0.0826
  C  C3013  1  0.930170  0.263350  0.206480  1.0  -0.0984
  C  C3014  1  0.596830  0.596690  0.539810  1.0  -0.0982
  C  C3015  1  0.263500  0.930020  0.873140  1.0  -0.0977
  C  C3016  1  0.905750  0.233700  0.206720  1.0  -0.0812
  C  C3017  1  0.572420  0.567030  0.540050  1.0  -0.0755
  C  C3018  1  0.239090  0.900360  0.873380  1.0  -0.078
  C  C3019  1  0.886760  0.221290  0.200930  1.0  -0.1469
  C  C3020  1  0.553430  0.554620  0.534270  1.0  -0.1428
  C  C3021  1  0.220100  0.887960  0.867600  1.0  -0.1391
  C  C3022  1  0.891830  0.238390  0.194870  1.0  0.0993
  C  C3023  1  0.558500  0.571720  0.528210  1.0  0.1044
  C  C3024  1  0.225170  0.905050  0.861540  1.0  0.1046
  C  C3025  1  0.914140  0.272870  0.144930  1.0  -0.1262
  C  C3026  1  0.580810  0.606210  0.478260  1.0  -0.1423
  C  C3027  1  0.247480  0.939540  0.811600  1.0  -0.1601
  C  C3028  1  0.928840  0.282470  0.138500  1.0  -0.082
  C  C3029  1  0.595510  0.615800  0.471830  1.0  -0.0817
  C  C3030  1  0.262180  0.949130  0.805160  1.0  -0.0807
  C  C3031  1  0.919180  0.262940  0.132710  1.0  -0.0769
  C  C3032  1  0.585850  0.596270  0.466040  1.0  -0.0854
  C  C3033  1  0.252510  0.929600  0.799370  1.0  -0.0788
  C  C3034  1  0.894130  0.233910  0.133470  1.0  -0.0767
  C  C3035  1  0.560800  0.567240  0.466800  1.0  -0.0784
  C  C3036  1  0.227460  0.900570  0.800130  1.0  -0.0785
  C  C3037  1  0.879510  0.224450  0.139890  1.0  -0.1492
  C  C3038  1  0.546180  0.557790  0.473220  1.0  -0.144
  C  C3039  1  0.212850  0.891120  0.806550  1.0  -0.1444
  C  C3040  1  0.889630  0.243780  0.145640  1.0  0.0459
  C  C3041  1  0.556300  0.577110  0.478970  1.0  0.0454
  C  C3042  1  0.222960  0.910450  0.812300  1.0  0.0495
  C  C3043  1  0.708350  0.072460  0.173350  1.0  -0.1386
  C  C3044  1  0.375020  0.405790  0.506690  1.0  -0.1492
  C  C3045  1  0.041680  0.739130  0.840020  1.0  -0.1521
  C  C3046  1  0.681520  0.045320  0.172520  1.0  -0.0828
  C  C3047  1  0.348180  0.378660  0.505850  1.0  -0.0822
  C  C3048  1  0.014850  0.711990  0.839190  1.0  -0.0817
  C  C3049  1  0.671290  0.033130  0.165820  1.0  -0.0838
  C  C3050  1  0.337960  0.366460  0.499150  1.0  -0.0835
  C  C3051  1  0.004630  0.699790  0.832480  1.0  -0.0861
  C  C3052  1  0.688630  0.048850  0.159970  1.0  -0.0885
  C  C3053  1  0.355300  0.382180  0.493300  1.0  -0.0883
  C  C3054  1  0.021970  0.715510  0.826640  1.0  -0.0901
  C  C3055  1  0.715550  0.076080  0.160830  1.0  -0.1508
  C  C3056  1  0.382220  0.409410  0.494160  1.0  -0.1612
  C  C3057  1  0.048890  0.742740  0.827500  1.0  -0.1509
  C  C3058  1  0.725410  0.087880  0.167530  1.0  0.041
  C  C3059  1  0.392080  0.421210  0.500860  1.0  0.04
  C  C3060  1  0.058750  0.754540  0.834190  1.0  0.04
  C  C3061  1  0.874070  0.225290  0.188700  1.0  -0.1279
  C  C3062  1  0.540740  0.558620  0.522030  1.0  -0.1267
  C  C3063  1  0.207410  0.891950  0.855360  1.0  -0.1287
  C  C3064  1  0.860530  0.215160  0.183320  1.0  -0.1318
  C  C3065  1  0.527200  0.548490  0.516650  1.0  -0.1318
  C  C3066  1  0.193870  0.881830  0.849990  1.0  -0.1308
  C  C3067  1  0.875350  0.232970  0.152290  1.0  -0.1369
  C  C3068  1  0.542010  0.566310  0.485620  1.0  -0.1377
  C  C3069  1  0.208680  0.899640  0.818950  1.0  -0.1397
  C  C3070  1  0.862860  0.222450  0.157740  1.0  -0.128
  C  C3071  1  0.529530  0.555780  0.491070  1.0  -0.1279
  C  C3072  1  0.196190  0.889120  0.824410  1.0  -0.1227
  C  C3073  1  0.776510  0.138920  0.169160  1.0  -0.0835
  C  C3074  1  0.443180  0.472260  0.502490  1.0  -0.0746
  C  C3075  1  0.109840  0.805590  0.835830  1.0  -0.0779
  C  C3076  1  0.753150  0.115690  0.168440  1.0  -0.0917
  C  C3077  1  0.419820  0.449020  0.501780  1.0  -0.0931
  C  C3078  1  0.086480  0.782360  0.835110  1.0  -0.0926
  C  C3079  1  0.476510  0.998990  0.212250  1.0  0.0526
  C  C3080  1  0.143170  0.332320  0.545580  1.0  0.0589
  C  C3081  1  0.809840  0.665660  0.878910  1.0  0.0623
  C  C3082  1  0.479730  0.001140  0.224890  1.0  0.0852
  C  C3083  1  0.146390  0.334470  0.558220  1.0  0.0774
  C  C3084  1  0.813060  0.667800  0.891550  1.0  0.0786
  C  C3085  1  0.438450  0.002260  0.219080  1.0  -0.0216
  C  C3086  1  0.105110  0.335600  0.552410  1.0  -0.0204
  C  C3087  1  0.771780  0.668930  0.885750  1.0  -0.0225
  C  C3088  1  0.491330  0.999340  0.218410  1.0  -0.0637
  C  C3089  1  0.158000  0.332680  0.551750  1.0  -0.021
  C  C3090  1  0.824660  0.666010  0.885080  1.0  -0.0173
  C  C3091  1  0.453380  0.002680  0.225210  1.0  0.0908
  C  C3092  1  0.120050  0.336010  0.558540  1.0  0.0781
  C  C3093  1  0.786710  0.669340  0.891870  1.0  0.0554
  C  C3094  1  0.450010  0.000460  0.212580  1.0  -0.0008
  C  C3095  1  0.116680  0.333790  0.545910  1.0  -0.0062
  C  C3096  1  0.783340  0.667120  0.879250  1.0  -0.03
  C  C3097  1  0.494970  0.976830  0.187990  1.0  -0.0986
  C  C3098  1  0.161640  0.310160  0.521320  1.0  -0.0983
  C  C3099  1  0.828300  0.643500  0.854660  1.0  -0.1007
  C  C3100  1  0.507390  0.970260  0.182210  1.0  -0.074
  C  C3101  1  0.174050  0.303590  0.515540  1.0  -0.0741
  C  C3102  1  0.840720  0.636920  0.848870  1.0  -0.0733
  C  C3103  1  0.536690  0.974600  0.182520  1.0  -0.0954
  C  C3104  1  0.203360  0.307930  0.515850  1.0  -0.0953
  C  C3105  1  0.870030  0.641270  0.849190  1.0  -0.0943
  C  C3106  1  0.553510  0.986480  0.188680  1.0  -0.0759
  C  C3107  1  0.220170  0.319810  0.522010  1.0  -0.0764
  C  C3108  1  0.886840  0.653150  0.855350  1.0  -0.0771
  C  C3109  1  0.541070  0.993070  0.194430  1.0  -0.1428
  C  C3110  1  0.207730  0.326410  0.527760  1.0  -0.1428
  C  C3111  1  0.874400  0.659740  0.861090  1.0  -0.1334
  C  C3112  1  0.511700  0.987950  0.194130  1.0  0.112
  C  C3113  1  0.178360  0.321280  0.527460  1.0  0.1109
  C  C3114  1  0.845030  0.654620  0.860800  1.0  0.1065
  C  C3115  1  0.343950  0.003580  0.215300  1.0  -0.1594
  C  C3116  1  0.010610  0.336910  0.548630  1.0  -0.1602
  C  C3117  1  0.677280  0.670250  0.881970  1.0  -0.1481
  C  C3118  1  0.316840  0.003340  0.216120  1.0  -0.0795
  C  C3119  1  0.983500  0.336670  0.549460  1.0  -0.0805
  C  C3120  1  0.650170  0.670000  0.882790  1.0  -0.0804
  C  C3121  1  0.304840  0.001890  0.222830  1.0  -0.0949
  C  C3122  1  0.971510  0.335220  0.556160  1.0  -0.0921
  C  C3123  1  0.638170  0.668560  0.889500  1.0  -0.0958
  C  C3124  1  0.320680  0.000640  0.228690  1.0  -0.079
  C  C3125  1  0.987340  0.333980  0.562020  1.0  -0.0839
  C  C3126  1  0.654010  0.667310  0.895360  1.0  -0.0776
  C  C3127  1  0.347870  0.000900  0.227840  1.0  -0.1475
  C  C3128  1  0.014530  0.334230  0.561170  1.0  -0.1437
  C  C3129  1  0.681200  0.667560  0.894500  1.0  -0.1601
  C  C3130  1  0.359520  0.002400  0.221140  1.0  0.0334
  C  C3131  1  0.026190  0.335730  0.554480  1.0  0.0351
  C  C3132  1  0.692850  0.669060  0.887810  1.0  0.0372
  C  C3133  1  0.495190  0.984250  0.249100  1.0  -0.1401
  C  C3134  1  0.161860  0.317580  0.582430  1.0  -0.1363
  C  C3135  1  0.828530  0.650910  0.915760  1.0  -0.138
  C  C3136  1  0.504640  0.979000  0.255500  1.0  -0.0778
  C  C3137  1  0.171300  0.312330  0.588840  1.0  -0.0772
  C  C3138  1  0.837970  0.645660  0.922170  1.0  -0.0772
  C  C3139  1  0.533750  0.983240  0.256260  1.0  -0.0821
  C  C3140  1  0.200420  0.316570  0.589590  1.0  -0.0795
  C  C3141  1  0.867090  0.649910  0.922930  1.0  -0.0798
  C  C3142  1  0.553370  0.993450  0.250480  1.0  -0.0777
  C  C3143  1  0.220040  0.326780  0.583810  1.0  -0.0765
  C  C3144  1  0.886700  0.660110  0.917150  1.0  -0.0785
  C  C3145  1  0.543790  0.998650  0.244070  1.0  -0.1295
  C  C3146  1  0.210460  0.331980  0.577400  1.0  -0.1601
  C  C3147  1  0.877130  0.665320  0.910730  1.0  -0.156
  C  C3148  1  0.514620  0.993820  0.243360  1.0  0.0318
  C  C3149  1  0.181290  0.327160  0.576690  1.0  0.0374
  C  C3150  1  0.847960  0.660490  0.910030  1.0  0.0415
  C  C3151  1  0.498450  0.992530  0.200300  1.0  -0.1297
  C  C3152  1  0.165110  0.325860  0.533630  1.0  -0.1295
  C  C3153  1  0.831780  0.659200  0.866960  1.0  -0.1292
  C  C3154  1  0.488060  0.995790  0.205650  1.0  -0.1363
  C  C3155  1  0.154720  0.329120  0.538990  1.0  -0.1443
  C  C3156  1  0.821390  0.662450  0.872320  1.0  -0.1452
  C  C3157  1  0.387400  0.002590  0.220250  1.0  -0.0896
  C  C3158  1  0.054060  0.335920  0.553590  1.0  -0.0918
  C  C3159  1  0.720730  0.669250  0.886920  1.0  -0.0893
  C  C3160  1  0.410700  0.002590  0.219590  1.0  -0.0653
  C  C3161  1  0.077370  0.335920  0.552920  1.0  -0.0677
  C  C3162  1  0.744040  0.669250  0.886260  1.0  -0.0696
  C  C3163  1  0.493610  0.999600  0.231250  1.0  -0.1168
  C  C3164  1  0.160270  0.332940  0.564590  1.0  -0.1239
  C  C3165  1  0.826940  0.666270  0.897920  1.0  -0.118
  C  C3166  1  0.503910  0.997470  0.236720  1.0  -0.1389
  C  C3167  1  0.170580  0.330800  0.570050  1.0  -0.1417
  C  C3168  1  0.837250  0.664130  0.903390  1.0  -0.1392
  C  C3169  1  0.276110  0.001940  0.223610  1.0  0.6833
  C  C3170  1  0.942780  0.335280  0.556940  1.0  0.6824
  C  C3171  1  0.609450  0.668610  0.890280  1.0  0.6838
  C  C3172  1  0.237850  0.057950  0.212360  1.0  0.674
  C  C3173  1  0.904520  0.391290  0.545690  1.0  0.6735
  C  C3174  1  0.571180  0.724620  0.879030  1.0  0.6732
  C  C3175  1  0.181960  0.951860  0.212230  1.0  0.6924
  C  C3176  1  0.848620  0.285200  0.545560  1.0  0.6917
  C  C3177  1  0.515290  0.618530  0.878900  1.0  0.6902
  C  C3178  1  0.149970  0.009330  0.225740  1.0  0.6839
  C  C3179  1  0.816640  0.342660  0.559080  1.0  0.6838
  C  C3180  1  0.483300  0.676000  0.892410  1.0  0.6837
  C  C3181  1  0.183780  0.948180  0.236540  1.0  0.6882
  C  C3182  1  0.850450  0.281520  0.569880  1.0  0.6911
  C  C3183  1  0.517110  0.614850  0.903210  1.0  0.6885
  C  C3184  1  0.242830  0.055220  0.237530  1.0  0.689
  C  C3185  1  0.909500  0.388560  0.570870  1.0  0.6854
  C  C3186  1  0.576160  0.721890  0.904200  1.0  0.6877
  C  C3187  1  0.178530  0.400930  0.331100  1.0  0.0672
  C  C3188  1  0.845200  0.734260  0.664430  1.0  0.0653
  C  C3189  1  0.511870  0.067600  0.997760  1.0  0.0588
  C  C3190  1  0.510750  0.069960  0.010400  1.0  0.0474
  C  C3191  1  0.177420  0.403290  0.343730  1.0  0.0406
  C  C3192  1  0.844080  0.736630  0.677070  1.0  0.0409
  C  C3193  1  0.469140  0.065910  0.003570  1.0  0.1441
  C  C3194  1  0.135800  0.399250  0.336910  1.0  0.1385
  C  C3195  1  0.802470  0.732580  0.670240  1.0  0.1387
  C  C3196  1  0.525340  0.069720  0.004240  1.0  -0.0609
  C  C3197  1  0.192010  0.403050  0.337570  1.0  -0.0186
  C  C3198  1  0.858680  0.736390  0.670900  1.0  -0.0211
  C  C3199  1  0.482580  0.068050  0.010070  1.0  -0.0291
  C  C3200  1  0.149250  0.401390  0.343400  1.0  -0.044
  C  C3201  1  0.815920  0.734720  0.676740  1.0  -0.0385
  C  C3202  1  0.150440  0.398940  0.330780  1.0  0.0475
  C  C3203  1  0.817110  0.732270  0.664110  1.0  0.0286
  C  C3204  1  0.483780  0.065610  0.997450  1.0  0.0368
  C  C3205  1  0.245200  0.403480  0.311890  1.0  -0.1603
  C  C3206  1  0.911870  0.736810  0.645220  1.0  -0.1546
  C  C3207  1  0.578530  0.070150  0.978550  1.0  -0.15
  C  C3208  1  0.259990  0.408600  0.305460  1.0  -0.0758
  C  C3209  1  0.926650  0.741930  0.638800  1.0  -0.0771
  C  C3210  1  0.593320  0.075260  0.972130  1.0  -0.0795
  C  C3211  1  0.250660  0.418810  0.299690  1.0  -0.0799
  C  C3212  1  0.917330  0.752140  0.633020  1.0  -0.0837
  C  C3213  1  0.583990  0.085470  0.966350  1.0  -0.0871
  C  C3214  1  0.225870  0.423180  0.300450  1.0  -0.0771
  C  C3215  1  0.892540  0.756520  0.633790  1.0  -0.0789
  C  C3216  1  0.559200  0.089850  0.967120  1.0  -0.081
  C  C3217  1  0.211160  0.418020  0.306870  1.0  -0.1198
  C  C3218  1  0.877830  0.751350  0.640200  1.0  -0.1197
  C  C3219  1  0.544500  0.084680  0.973530  1.0  -0.1201
  C  C3220  1  0.220930  0.408400  0.312600  1.0  0.0386
  C  C3221  1  0.887590  0.741740  0.645930  1.0  0.0336
  C  C3222  1  0.554260  0.075070  0.979270  1.0  0.0375
  C  C3223  1  0.048100  0.401370  0.327760  1.0  -0.1489
  C  C3224  1  0.714770  0.734710  0.661100  1.0  -0.1504
  C  C3225  1  0.381430  0.068040  0.994430  1.0  -0.1512
  C  C3226  1  0.021500  0.401980  0.326660  1.0  -0.0833
  C  C3227  1  0.688170  0.735310  0.660000  1.0  -0.0876
  C  C3228  1  0.354840  0.068640  0.993330  1.0  -0.0892
  C  C3229  1  0.003170  0.399900  0.332340  1.0  -0.0865
  C  C3230  1  0.669840  0.733240  0.665680  1.0  -0.0847
  C  C3231  1  0.336500  0.066570  0.999010  1.0  -0.0847
  C  C3232  1  0.345390  0.063790  0.005800  1.0  -0.0803
  C  C3233  1  0.012060  0.397120  0.339130  1.0  -0.0792
  C  C3234  1  0.678720  0.730460  0.672470  1.0  -0.0797
  C  C3235  1  0.371970  0.063200  0.006870  1.0  -0.1541
  C  C3236  1  0.038640  0.396530  0.340210  1.0  -0.1528
  C  C3237  1  0.705310  0.729860  0.673540  1.0  -0.1547
  C  C3238  1  0.390030  0.065350  0.001200  1.0  0.0534
  C  C3239  1  0.056700  0.398680  0.334530  1.0  0.0541
  C  C3240  1  0.723370  0.732020  0.667860  1.0  0.0538
  C  C3241  1  0.552150  0.093690  0.034580  1.0  -0.127
  C  C3242  1  0.218820  0.427020  0.367920  1.0  -0.1166
  C  C3243  1  0.885490  0.760360  0.701250  1.0  -0.1264
  C  C3244  1  0.571340  0.100500  0.040330  1.0  -0.0699
  C  C3245  1  0.238010  0.433830  0.373660  1.0  -0.0745
  C  C3246  1  0.904680  0.767160  0.707000  1.0  -0.0724
  C  C3247  1  0.595960  0.095620  0.040030  1.0  -0.1013
  C  C3248  1  0.262630  0.428950  0.373360  1.0  -0.1018
  C  C3249  1  0.929300  0.762290  0.706700  1.0  -0.1
  C  C3250  1  0.600310  0.082920  0.033930  1.0  -0.0801
  C  C3251  1  0.266980  0.416260  0.367270  1.0  -0.0791
  C  C3252  1  0.933640  0.749590  0.700600  1.0  -0.0781
  C  C3253  1  0.581090  0.076090  0.028220  1.0  -0.1607
  C  C3254  1  0.247760  0.409430  0.361560  1.0  -0.1485
  C  C3255  1  0.914420  0.742760  0.694890  1.0  -0.1499
  C  C3256  1  0.557220  0.081780  0.028500  1.0  0.1025
  C  C3257  1  0.223880  0.415110  0.361830  1.0  0.102
  C  C3258  1  0.890550  0.748450  0.695160  1.0  0.1036
  C  C3259  1  0.206520  0.404760  0.319250  1.0  -0.1372
  C  C3260  1  0.873190  0.738090  0.652580  1.0  -0.1383
  C  C3261  1  0.539850  0.071420  0.985910  1.0  -0.1373
  C  C3262  1  0.194030  0.402570  0.324720  1.0  -0.1266
  C  C3263  1  0.860700  0.735910  0.658050  1.0  -0.1184
  C  C3264  1  0.527370  0.069240  0.991390  1.0  -0.1186
  C  C3265  1  0.417600  0.065160  0.002300  1.0  -0.0886
  C  C3266  1  0.084260  0.398490  0.335640  1.0  -0.0865
  C  C3267  1  0.750930  0.731820  0.668970  1.0  -0.0784
  C  C3268  1  0.440930  0.065290  0.003050  1.0  -0.1305
  C  C3269  1  0.107600  0.398630  0.336380  1.0  -0.1274
  C  C3270  1  0.774270  0.731960  0.669710  1.0  -0.1287
  C  C3271  1  0.525560  0.073470  0.017000  1.0  -0.136
  C  C3272  1  0.192230  0.406810  0.350330  1.0  -0.1311
  C  C3273  1  0.858890  0.740140  0.683660  1.0  -0.1351
  C  C3274  1  0.539270  0.076960  0.022350  1.0  -0.1326
  C  C3275  1  0.205930  0.410300  0.355680  1.0  -0.1279
  C  C3276  1  0.872600  0.743630  0.689010  1.0  -0.1296
  C  C3277  1  0.019190  0.637710  0.286940  1.0  0.6973
  C  C3278  1  0.685860  0.971040  0.620270  1.0  0.6975
  C  C3279  1  0.352530  0.304370  0.953600  1.0  0.6973
  C  C3280  1  0.985840  0.702350  0.277690  1.0  0.6741
  C  C3281  1  0.652510  0.035690  0.611020  1.0  0.6742
  C  C3282  1  0.319180  0.369020  0.944360  1.0  0.6747
  C  C3283  1  0.070750  0.740920  0.292690  1.0  0.6823
  C  C3284  1  0.737420  0.074260  0.626020  1.0  0.681
  C  C3285  1  0.404090  0.407590  0.959350  1.0  0.6871
  C  C3286  1  0.084340  0.766950  0.268540  1.0  0.6989
  C  C3287  1  0.751010  0.100280  0.601870  1.0  0.6995
  C  C3288  1  0.417680  0.433620  0.935210  1.0  0.6989
  C  C3289  1  0.116580  0.702160  0.277790  1.0  0.6847
  C  C3290  1  0.783240  0.035490  0.611120  1.0  0.6848
  C  C3291  1  0.449910  0.368830  0.944460  1.0  0.6843
  C  C3292  1  0.032400  0.663630  0.262800  1.0  0.6826
  C  C3293  1  0.699060  0.996960  0.596140  1.0  0.6827
  C  C3294  1  0.365730  0.330300  0.929470  1.0  0.6841
  C  C3295  1  0.306290  0.510660  0.278130  1.0  0.683
  C  C3296  1  0.972950  0.843990  0.611460  1.0  0.6838
  C  C3297  1  0.639620  0.177330  0.944800  1.0  0.6814
  C  C3298  1  0.345200  0.465610  0.263120  1.0  0.6844
  C  C3299  1  0.011870  0.798940  0.596460  1.0  0.6882
  C  C3300  1  0.678540  0.132280  0.929790  1.0  0.6899
  C  C3301  1  0.370840  0.477970  0.287340  1.0  0.701
  C  C3302  1  0.037510  0.811300  0.620670  1.0  0.7004
  C  C3303  1  0.704170  0.144630  0.954010  1.0  0.701
  C  C3304  1  0.306800  0.380080  0.278000  1.0  0.6752
  C  C3305  1  0.973470  0.713410  0.611330  1.0  0.6753
  C  C3306  1  0.640140  0.046750  0.944670  1.0  0.6757
  C  C3307  1  0.267330  0.426070  0.292980  1.0  0.6799
  C  C3308  1  0.934000  0.759400  0.626310  1.0  0.6813
  C  C3309  1  0.600670  0.092740  0.959650  1.0  0.6867
  C  C3310  1  0.241950  0.413400  0.268780  1.0  0.7007
  C  C3311  1  0.908620  0.746730  0.602110  1.0  0.6993
  C  C3312  1  0.575280  0.080060  0.935440  1.0  0.6994
  C  C3313  1  0.333640  0.728310  0.277990  1.0  0.0169
  C  C3314  1  0.000310  0.061640  0.611320  1.0  0.025
  C  C3315  1  0.666970  0.394980  0.944660  1.0  0.0156
  C  C3316  1  0.279120  0.701070  0.277970  1.0  0.0239
  C  C3317  1  0.945790  0.034400  0.611300  1.0  0.0166
  C  C3318  1  0.612460  0.367730  0.944640  1.0  0.0223
  C  C3319  1  0.306330  0.673790  0.278050  1.0  0.0287
  C  C3320  1  0.972990  0.007120  0.611390  1.0  0.0214
  C  C3321  1  0.639660  0.340460  0.944720  1.0  0.0292
  C  C3322  1  0.306400  0.728290  0.277960  1.0  -0.0476
  C  C3323  1  0.973060  0.061620  0.611290  1.0  -0.0277
  C  C3324  1  0.639730  0.394950  0.944630  1.0  -0.077
  C  C3325  1  0.279100  0.673830  0.278020  1.0  -0.0359
  C  C3326  1  0.945770  0.007160  0.611350  1.0  -0.0551
  C  C3327  1  0.612430  0.340490  0.944680  1.0  -0.0532
  C  C3328  1  0.333590  0.701050  0.278040  1.0  -0.0337
  C  C3329  1  0.000260  0.034380  0.611370  1.0  -0.0451
  C  C3330  1  0.666920  0.367720  0.944710  1.0  -0.0519
  C  C3331  1  0.439890  0.808300  0.279390  1.0  -0.1479
  C  C3332  1  0.106560  0.141640  0.612730  1.0  -0.1504
  C  C3333  1  0.773220  0.474970  0.946060  1.0  -0.1525
  C  C3334  1  0.467140  0.835490  0.279380  1.0  -0.076
  C  C3335  1  0.133800  0.168820  0.612710  1.0  -0.0779
  C  C3336  1  0.800470  0.502160  0.946040  1.0  -0.0772
  C  C3337  1  0.467870  0.862690  0.277900  1.0  -0.0926
  C  C3338  1  0.134530  0.196020  0.611230  1.0  -0.0929
  C  C3339  1  0.801200  0.529350  0.944560  1.0  -0.0913
  C  C3340  1  0.440660  0.861960  0.276440  1.0  -0.0835
  C  C3341  1  0.107320  0.195300  0.609770  1.0  -0.0838
  C  C3342  1  0.773990  0.528630  0.943110  1.0  -0.0805
  C  C3343  1  0.413450  0.834700  0.276460  1.0  -0.1453
  C  C3344  1  0.080110  0.168040  0.609800  1.0  -0.1449
  C  C3345  1  0.746780  0.501370  0.943130  1.0  -0.1576
  C  C3346  1  0.413030  0.807860  0.277940  1.0  0.0234
  C  C3347  1  0.079690  0.141190  0.611270  1.0  0.0303
  C  C3348  1  0.746360  0.474520  0.944600  1.0  0.0248
  C  C3349  1  0.279870  0.567500  0.279670  1.0  -0.1499
  C  C3350  1  0.946530  0.900830  0.613000  1.0  -0.1509
  C  C3351  1  0.613200  0.234160  0.946330  1.0  -0.1437
  C  C3352  1  0.279820  0.540270  0.279670  1.0  -0.0789
  C  C3353  1  0.946490  0.873600  0.613010  1.0  -0.0818
  C  C3354  1  0.613150  0.206930  0.946340  1.0  -0.0801
  C  C3355  1  0.306280  0.539550  0.278150  1.0  -0.093
  C  C3356  1  0.972940  0.872890  0.611480  1.0  -0.09
  C  C3357  1  0.639610  0.206220  0.944810  1.0  -0.0901
  C  C3358  1  0.332720  0.566750  0.276620  1.0  -0.0825
  C  C3359  1  0.999390  0.900080  0.609950  1.0  -0.0801
  C  C3360  1  0.666060  0.233420  0.943290  1.0  -0.0824
  C  C3361  1  0.332660  0.593920  0.276620  1.0  -0.1595
  C  C3362  1  0.999330  0.927250  0.609950  1.0  -0.1568
  C  C3363  1  0.666000  0.260590  0.943280  1.0  -0.1591
  C  C3364  1  0.306260  0.594340  0.278140  1.0  0.0275
  C  C3365  1  0.972930  0.927680  0.611470  1.0  0.0269
  C  C3366  1  0.639590  0.261010  0.944800  1.0  0.0285
  C  C3367  1  0.173090  0.675370  0.276240  1.0  -0.1449
  C  C3368  1  0.839750  0.008700  0.609570  1.0  -0.1504
  C  C3369  1  0.506420  0.342030  0.942900  1.0  -0.1601
  C  C3370  1  0.145970  0.675530  0.276210  1.0  -0.0846
  C  C3371  1  0.812630  0.008870  0.609540  1.0  -0.0844
  C  C3372  1  0.479300  0.342200  0.942870  1.0  -0.0854
  C  C3373  1  0.145380  0.701970  0.277820  1.0  -0.0821
  C  C3374  1  0.812050  0.035310  0.611150  1.0  -0.0884
  C  C3375  1  0.478710  0.368640  0.944480  1.0  -0.0821
  C  C3376  1  0.172590  0.728200  0.279460  1.0  -0.0824
  C  C3377  1  0.839250  0.061530  0.612790  1.0  -0.0842
  C  C3378  1  0.505920  0.394860  0.946120  1.0  -0.0863
  C  C3379  1  0.199660  0.727920  0.279480  1.0  -0.1465
  C  C3380  1  0.866330  0.061260  0.612820  1.0  -0.162
  C  C3381  1  0.532990  0.394590  0.946150  1.0  -0.153
  C  C3382  1  0.199950  0.701530  0.277880  1.0  0.0266
  C  C3383  1  0.866620  0.034870  0.611210  1.0  0.0297
  C  C3384  1  0.533280  0.368200  0.944540  1.0  0.0303
  C  C3385  1  0.385040  0.779830  0.277950  1.0  -0.0803
  C  C3386  1  0.051710  0.113160  0.611290  1.0  -0.0799
  C  C3387  1  0.718380  0.446490  0.944620  1.0  -0.0799
  C  C3388  1  0.361620  0.756330  0.277970  1.0  -0.0835
  C  C3389  1  0.028290  0.089660  0.611300  1.0  -0.0841
  C  C3390  1  0.694960  0.422990  0.944640  1.0  -0.0865
  C  C3391  1  0.306260  0.622330  0.278120  1.0  -0.0778
  C  C3392  1  0.972920  0.955660  0.611450  1.0  -0.0732
  C  C3393  1  0.639590  0.289000  0.944780  1.0  -0.0785
  C  C3394  1  0.306280  0.645790  0.278090  1.0  -0.0771
  C  C3395  1  0.972950  0.979120  0.611420  1.0  -0.0761
  C  C3396  1  0.639610  0.312450  0.944760  1.0  -0.0816
  C  C3397  1  0.251180  0.701140  0.277940  1.0  -0.0815
  C  C3398  1  0.917840  0.034470  0.611270  1.0  -0.0813
  C  C3399  1  0.584510  0.367800  0.944600  1.0  -0.0802
  C  C3400  1  0.227810  0.701300  0.277910  1.0  -0.0755
  C  C3401  1  0.894480  0.034630  0.611240  1.0  -0.0762
  C  C3402  1  0.561150  0.367960  0.944580  1.0  -0.0761
  C  C3403  1  0.627940  0.021990  0.277980  1.0  0.6765
  C  C3404  1  0.294600  0.355330  0.611310  1.0  0.676
  C  C3405  1  0.961270  0.688660  0.944640  1.0  0.6771
  C  C3406  1  0.543040  0.975920  0.262960  1.0  0.6874
  C  C3407  1  0.209700  0.309250  0.596300  1.0  0.6894
  C  C3408  1  0.876370  0.642590  0.929630  1.0  0.6865
  C  C3409  1  0.594280  0.923940  0.268610  1.0  0.6965
  C  C3410  1  0.260940  0.257270  0.601940  1.0  0.6968
  C  C3411  1  0.927610  0.590610  0.935280  1.0  0.6962
  C  C3412  1  0.496840  0.891550  0.277880  1.0  0.6781
  C  C3413  1  0.163500  0.224890  0.611210  1.0  0.6777
  C  C3414  1  0.830170  0.558220  0.944550  1.0  0.678
  C  C3415  1  0.581510  0.936230  0.292750  1.0  0.6879
  C  C3416  1  0.248180  0.269560  0.626080  1.0  0.6878
  C  C3417  1  0.914850  0.602900  0.959410  1.0  0.6908
  C  C3418  1  0.529970  0.988200  0.287300  1.0  0.6937
  C  C3419  1  0.196630  0.321530  0.620630  1.0  0.694
  C  C3420  1  0.863300  0.654870  0.953970  1.0  0.6935
  C  C3421  1  0.009940  0.572740  0.212220  1.0  0.0526
  C  C3422  1  0.676600  0.906080  0.545550  1.0  0.0374
  C  C3423  1  0.343270  0.239410  0.878890  1.0  0.0507
  C  C3424  1  0.006500  0.531650  0.219160  1.0  0.1326
  C  C3425  1  0.673170  0.864980  0.552500  1.0  0.1288
  C  C3426  1  0.339830  0.198310  0.885830  1.0  0.1295
  C  C3427  1  0.007640  0.574310  0.224850  1.0  0.0809
  C  C3428  1  0.674310  0.907640  0.558180  1.0  0.0788
  C  C3429  1  0.340980  0.240970  0.891510  1.0  0.0767
  C  C3430  1  0.008410  0.544760  0.212620  1.0  -0.0495
  C  C3431  1  0.675080  0.878100  0.545960  1.0  -0.0459
  C  C3432  1  0.341740  0.211430  0.879290  1.0  -0.0481
  C  C3433  1  0.006050  0.546430  0.225250  1.0  0.0263
  C  C3434  1  0.672720  0.879760  0.558580  1.0  0.0245
  C  C3435  1  0.339380  0.213100  0.891910  1.0  0.0186
  C  C3436  1  0.009540  0.587460  0.218340  1.0  -0.0496
  C  C3437  1  0.676200  0.920790  0.551680  1.0  -0.0794
  C  C3438  1  0.342870  0.254120  0.885010  1.0  -0.0472
  C  C3439  1  0.015880  0.643100  0.194460  1.0  -0.1435
  C  C3440  1  0.682540  0.976430  0.527790  1.0  -0.1267
  C  C3441  1  0.349210  0.309770  0.861130  1.0  -0.144
  C  C3442  1  0.022430  0.662250  0.188740  1.0  -0.0791
  C  C3443  1  0.689100  0.995590  0.522080  1.0  -0.0786
  C  C3444  1  0.355770  0.328920  0.855410  1.0  -0.0789
  C  C3445  1  0.034300  0.657480  0.182560  1.0  -0.0942
  C  C3446  1  0.700960  0.990810  0.515890  1.0  -0.0945
  C  C3447  1  0.367630  0.324150  0.849220  1.0  -0.0946
  C  C3448  1  0.038670  0.632550  0.182180  1.0  -0.0758
  C  C3449  1  0.705330  0.965890  0.515520  1.0  -0.0735
  C  C3450  1  0.372000  0.299220  0.848850  1.0  -0.075
  C  C3451  1  0.032130  0.613440  0.187940  1.0  -0.1028
  C  C3452  1  0.698800  0.946770  0.521270  1.0  -0.0987
  C  C3453  1  0.365460  0.280110  0.854600  1.0  -0.0952
  C  C3454  1  0.021020  0.618890  0.194110  1.0  0.1163
  C  C3455  1  0.687680  0.952220  0.527440  1.0  0.1166
  C  C3456  1  0.354350  0.285550  0.860770  1.0  0.12
  C  C3457  1  0.024050  0.607150  0.249000  1.0  -0.1385
  C  C3458  1  0.690720  0.940480  0.582340  1.0  -0.1343
  C  C3459  1  0.357380  0.273810  0.915670  1.0  -0.1392
  C  C3460  1  0.029230  0.621950  0.255400  1.0  -0.0841
  C  C3461  1  0.695900  0.955280  0.588730  1.0  -0.0783
  C  C3462  1  0.362560  0.288620  0.922070  1.0  -0.0838
  C  C3463  1  0.025140  0.646920  0.256110  1.0  -0.0819
  C  C3464  1  0.691810  0.980260  0.589450  1.0  -0.0863
  C  C3465  1  0.358470  0.313590  0.922780  1.0  -0.0855
  C  C3466  1  0.015170  0.656330  0.250310  1.0  -0.0862
  C  C3467  1  0.681830  0.989670  0.583640  1.0  -0.0808
  C  C3468  1  0.348500  0.323000  0.916970  1.0  -0.0859
  C  C3469  1  0.010040  0.641450  0.243900  1.0  -0.1452
  C  C3470  1  0.676710  0.974780  0.577240  1.0  -0.1319
  C  C3471  1  0.343370  0.308110  0.910570  1.0  -0.1461
  C  C3472  1  0.014710  0.617000  0.243240  1.0  0.0553
  C  C3473  1  0.681380  0.950340  0.576580  1.0  0.0515
  C  C3474  1  0.348040  0.283670  0.909910  1.0  0.0556
  C  C3475  1  0.008140  0.442830  0.228150  1.0  -0.1509
  C  C3476  1  0.674810  0.776160  0.561490  1.0  -0.1671
  C  C3477  1  0.341480  0.109500  0.894820  1.0  -0.1498
  C  C3478  1  0.008350  0.415880  0.229030  1.0  -0.0952
  C  C3479  1  0.675020  0.749210  0.562360  1.0  -0.1106
  C  C3480  1  0.341680  0.082540  0.895690  1.0  -0.113
  C  C3481  1  0.006290  0.398300  0.223190  1.0  -0.0915
  C  C3482  1  0.672950  0.731630  0.556520  1.0  -0.0913
  C  C3483  1  0.339620  0.064960  0.889860  1.0  -0.0912
  C  C3484  1  0.003940  0.408290  0.216490  1.0  -0.0811
  C  C3485  1  0.670600  0.741620  0.549830  1.0  -0.0807
  C  C3486  1  0.337270  0.074950  0.883160  1.0  -0.0823
  C  C3487  1  0.003730  0.435130  0.215650  1.0  -0.1556
  C  C3488  1  0.670400  0.768460  0.548980  1.0  -0.1528
  C  C3489  1  0.337060  0.101800  0.882310  1.0  -0.1537
  C  C3490  1  0.005850  0.452460  0.221460  1.0  0.0398
  C  C3491  1  0.672520  0.785790  0.554790  1.0  0.0419
  C  C3492  1  0.339180  0.119120  0.888130  1.0  0.0388
  C  C3493  1  0.016460  0.600950  0.200250  1.0  -0.1269
  C  C3494  1  0.683130  0.934280  0.533580  1.0  -0.1238
  C  C3495  1  0.349790  0.267610  0.866910  1.0  -0.1289
  C  C3496  1  0.013190  0.587310  0.205600  1.0  -0.1398
  C  C3497  1  0.679860  0.920640  0.538930  1.0  -0.1408
  C  C3498  1  0.346530  0.253970  0.872260  1.0  -0.1402
  C  C3499  1  0.011160  0.602530  0.236620  1.0  -0.1398
  C  C3500  1  0.677820  0.935870  0.569950  1.0  -0.1393
  C  C3501  1  0.344490  0.269200  0.903290  1.0  -0.1421
  C  C3502  1  0.009090  0.589940  0.231180  1.0  -0.1181
  C  C3503  1  0.675760  0.923280  0.564510  1.0  -0.1184
  C  C3504  1  0.342430  0.256610  0.897840  1.0  -0.1169
  C  C3505  1  0.006030  0.503550  0.219770  1.0  -0.0834
  C  C3506  1  0.672690  0.836880  0.553100  1.0  -0.0836
  C  C3507  1  0.339360  0.170210  0.886440  1.0  -0.0823
  C  C3508  1  0.005870  0.480210  0.220510  1.0  -0.0901
  C  C3509  1  0.672530  0.813540  0.553850  1.0  -0.0861
  C  C3510  1  0.339200  0.146870  0.887180  1.0  -0.0902
  C  C3511  1  0.792070  0.184590  0.277920  1.0  -0.0063
  C  C3512  1  0.458740  0.517930  0.611260  1.0  -0.0199
  C  C3513  1  0.125400  0.851260  0.944590  1.0  -0.0043
  C  C3514  1  0.836840  0.221390  0.271790  1.0  0.0335
  C  C3515  1  0.503500  0.554720  0.605130  1.0  0.0322
  C  C3516  1  0.170170  0.888050  0.938460  1.0  0.0372
  C  C3517  1  0.829280  0.229560  0.283910  1.0  0.0864
  C  C3518  1  0.495950  0.562900  0.617240  1.0  0.088
  C  C3519  1  0.162620  0.896230  0.950570  1.0  0.087
  C  C3520  1  0.809540  0.194150  0.271830  1.0  -0.0742
  C  C3521  1  0.476210  0.527480  0.605170  1.0  -0.0758
  C  C3522  1  0.142870  0.860810  0.938500  1.0  -0.0839
  C  C3523  1  0.846630  0.239020  0.277830  1.0  -0.0905
  C  C3524  1  0.513300  0.572350  0.611160  1.0  -0.0903
  C  C3525  1  0.179970  0.905680  0.944490  1.0  -0.0918
  C  C3526  1  0.801980  0.202340  0.283960  1.0  -0.0617
  C  C3527  1  0.468650  0.535670  0.617300  1.0  -0.0521
  C  C3528  1  0.135320  0.869000  0.950630  1.0  -0.0551
  C  C3529  1  0.695250  0.095050  0.284140  1.0  -0.1542
  C  C3530  1  0.361910  0.428390  0.617470  1.0  -0.1546
  C  C3531  1  0.028580  0.761720  0.950810  1.0  -0.1564
  C  C3532  1  0.667840  0.067970  0.284150  1.0  -0.0851
  C  C3533  1  0.334510  0.401300  0.617480  1.0  -0.0846
  C  C3534  1  0.001180  0.734640  0.950810  1.0  -0.0867
  C  C3535  1  0.656940  0.050870  0.277990  1.0  -0.0937
  C  C3536  1  0.323610  0.384210  0.611320  1.0  -0.0936
  C  C3537  1  0.990280  0.717540  0.944650  1.0  -0.0937
  C  C3538  1  0.674150  0.061600  0.271840  1.0  -0.0836
  C  C3539  1  0.340820  0.394930  0.605170  1.0  -0.0828
  C  C3540  1  0.007490  0.728260  0.938500  1.0  -0.0872
  C  C3541  1  0.701530  0.088680  0.271850  1.0  -0.162
  C  C3542  1  0.368200  0.422010  0.605190  1.0  -0.1485
  C  C3543  1  0.034860  0.755340  0.938520  1.0  -0.1494
  C  C3544  1  0.712130  0.105450  0.278000  1.0  0.0295
  C  C3545  1  0.378800  0.438780  0.611330  1.0  0.0261
  C  C3546  1  0.045470  0.772110  0.944670  1.0  0.0292
  C  C3547  1  0.841730  0.278840  0.306830  1.0  -0.1109
  C  C3548  1  0.508400  0.612180  0.640160  1.0  -0.1159
  C  C3549  1  0.175060  0.945510  0.973500  1.0  -0.1162
  C  C3550  1  0.851770  0.299180  0.312390  1.0  -0.0932
  C  C3551  1  0.518440  0.632520  0.645720  1.0  -0.0926
  C  C3552  1  0.185100  0.965850  0.979060  1.0  -0.0937
  C  C3553  1  0.879880  0.325840  0.312060  1.0  -0.0975
  C  C3554  1  0.546540  0.659180  0.645390  1.0  -0.0973
  C  C3555  1  0.213210  0.992510  0.978730  1.0  -0.0927
  C  C3556  1  0.897890  0.331330  0.306090  1.0  -0.0838
  C  C3557  1  0.564560  0.664660  0.639420  1.0  -0.0804
  C  C3558  1  0.231230  0.998000  0.972760  1.0  -0.0843
  C  C3559  1  0.887750  0.310910  0.300540  1.0  -0.1356
  C  C3560  1  0.554420  0.644240  0.633870  1.0  -0.1326
  C  C3561  1  0.221090  0.977570  0.967210  1.0  -0.1345
  C  C3562  1  0.859580  0.284780  0.300880  1.0  -0.0148
  C  C3563  1  0.526250  0.618110  0.634210  1.0  -0.0125
  C  C3564  1  0.192920  0.951450  0.967550  1.0  -0.0183
  C  C3565  1  0.916790  0.280280  0.254920  1.0  -0.1352
  C  C3566  1  0.583460  0.613610  0.588250  1.0  -0.1324
  C  C3567  1  0.250130  0.946940  0.921590  1.0  -0.1295
  C  C3568  1  0.937020  0.290710  0.249330  1.0  -0.0858
  C  C3569  1  0.603690  0.624050  0.582660  1.0  -0.0852
  C  C3570  1  0.270350  0.957380  0.915990  1.0  -0.0777
  C  C3571  1  0.931870  0.272590  0.243390  1.0  -0.0933
  C  C3572  1  0.598540  0.605920  0.576730  1.0  -0.0936
  C  C3573  1  0.265210  0.939260  0.910060  1.0  -0.0927
  C  C3574  1  0.905750  0.244030  0.243150  1.0  -0.0895
  C  C3575  1  0.572420  0.577370  0.576480  1.0  -0.0855
  C  C3576  1  0.239080  0.910700  0.909820  1.0  -0.0888
  C  C3577  1  0.885600  0.233690  0.248750  1.0  -0.1359
  C  C3578  1  0.552270  0.567020  0.582090  1.0  -0.1257
  C  C3579  1  0.218930  0.900360  0.915420  1.0  -0.1346
  C  C3580  1  0.891200  0.251690  0.254660  1.0  0.1371
  C  C3581  1  0.557860  0.585020  0.587990  1.0  0.135
  C  C3582  1  0.224530  0.918360  0.921330  1.0  0.1403
  C  C3583  1  0.740320  0.133320  0.277990  1.0  -0.0832
  C  C3584  1  0.406990  0.466660  0.611330  1.0  -0.084
  C  C3585  1  0.073660  0.799990  0.944660  1.0  -0.0779
  C  C3586  1  0.763920  0.156680  0.277970  1.0  -0.0787
  C  C3587  1  0.430590  0.490010  0.611300  1.0  -0.0753
  C  C3588  1  0.097260  0.823350  0.944630  1.0  -0.0781
  C  C3589  1  0.848590  0.264620  0.295020  1.0  -0.0707
  C  C3590  1  0.515260  0.597950  0.628360  1.0  -0.0694
  C  C3591  1  0.181930  0.931290  0.961690  1.0  -0.0605
  C  C3592  1  0.839530  0.248260  0.290020  1.0  -0.0769
  C  C3593  1  0.506200  0.581590  0.623350  1.0  -0.0752
  C  C3594  1  0.172870  0.914920  0.956690  1.0  -0.0749
  C  C3595  1  0.855150  0.231450  0.265610  1.0  -0.0825
  C  C3596  1  0.521820  0.564780  0.598950  1.0  -0.0834
  C  C3597  1  0.188490  0.898120  0.932280  1.0  -0.0826
  C  C3598  1  0.871260  0.240510  0.260560  1.0  -0.0725
  C  C3599  1  0.537930  0.573840  0.593890  1.0  -0.0741
  C  C3600  1  0.204590  0.907180  0.927230  1.0  -0.0711
  C  C3601  1  0.669350  0.372450  0.328240  1.0  0.0623
  C  C3602  1  0.336020  0.705780  0.661580  1.0  0.055
  C  C3603  1  0.002690  0.039120  0.994910  1.0  0.0652
  C  C3604  1  0.615470  0.338690  0.328270  1.0  0.1493
  C  C3605  1  0.282140  0.672020  0.661610  1.0  0.0778
  C  C3606  1  0.948800  0.005360  0.994940  1.0  0.1567
  C  C3607  1  0.635610  0.392540  0.328210  1.0  0.134
  C  C3608  1  0.302280  0.725870  0.661550  1.0  0.1341
  C  C3609  1  0.968950  0.059210  0.994880  1.0  0.1335
  C  C3610  1  0.644670  0.343230  0.328270  1.0  -0.0453
  C  C3611  1  0.311340  0.676560  0.661600  1.0  -0.0382
  C  C3612  1  0.978000  0.009900  0.994940  1.0  -0.0481
  C  C3613  1  0.610940  0.363340  0.328240  1.0  -0.03
  C  C3614  1  0.277600  0.696680  0.661570  1.0  -0.0802
  C  C3615  1  0.944270  0.030010  0.994910  1.0  -0.0338
  C  C3616  1  0.664830  0.397100  0.328210  1.0  -0.0635
  C  C3617  1  0.331500  0.730440  0.661540  1.0  -0.0237
  C  C3618  1  0.998170  0.063770  0.994880  1.0  -0.0769
  C  C3619  1  0.757090  0.358830  0.328270  1.0  -0.1402
  C  C3620  1  0.423760  0.692160  0.661610  1.0  -0.1394
  C  C3621  1  0.090430  0.025490  0.994940  1.0  -0.1377
  C  C3622  1  0.785660  0.361960  0.328590  1.0  -0.0828
  C  C3623  1  0.452320  0.695300  0.661920  1.0  -0.0854
  C  C3624  1  0.118990  0.028630  0.995250  1.0  -0.0847
  C  C3625  1  0.811370  0.390570  0.329340  1.0  -0.0845
  C  C3626  1  0.478040  0.723900  0.662680  1.0  -0.0812
  C  C3627  1  0.144700  0.057230  0.996010  1.0  -0.0839
  C  C3628  1  0.807780  0.415950  0.329740  1.0  -0.0885
  C  C3629  1  0.474450  0.749280  0.663070  1.0  -0.0867
  C  C3630  1  0.141110  0.082610  0.996400  1.0  -0.088
  C  C3631  1  0.779110  0.412700  0.329420  1.0  -0.1346
  C  C3632  1  0.445780  0.746030  0.662760  1.0  -0.1353
  C  C3633  1  0.112450  0.079360  0.996090  1.0  -0.136
  C  C3634  1  0.753780  0.384140  0.328710  1.0  0.0466
  C  C3635  1  0.420440  0.717470  0.662040  1.0  0.0568
  C  C3636  1  0.087110  0.050800  0.995370  1.0  0.0569
  C  C3637  1  0.649470  0.493940  0.328420  1.0  -0.137
  C  C3638  1  0.316140  0.827270  0.661750  1.0  -0.138
  C  C3639  1  0.982800  0.160610  0.995080  1.0  -0.1373
  C  C3640  1  0.646410  0.519390  0.328760  1.0  -0.0819
  C  C3641  1  0.313070  0.852720  0.662090  1.0  -0.0792
  C  C3642  1  0.979740  0.186060  0.995420  1.0  -0.0795
  C  C3643  1  0.617760  0.516510  0.329350  1.0  -0.0856
  C  C3644  1  0.284420  0.849840  0.662680  1.0  -0.0886
  C  C3645  1  0.951090  0.183170  0.996020  1.0  -0.0869
  C  C3646  1  0.592260  0.487530  0.329550  1.0  -0.0818
  C  C3647  1  0.258930  0.820860  0.662880  1.0  -0.0837
  C  C3648  1  0.925590  0.154190  0.996210  1.0  -0.0762
  C  C3649  1  0.595440  0.462080  0.329210  1.0  -0.1465
  C  C3650  1  0.262110  0.795420  0.662540  1.0  -0.1481
  C  C3651  1  0.928770  0.128750  0.995870  1.0  -0.1336
  C  C3652  1  0.624050  0.465300  0.328660  1.0  0.1393
  C  C3653  1  0.290710  0.798630  0.661990  1.0  0.1408
  C  C3654  1  0.957380  0.131970  0.995320  1.0  0.1465
  C  C3655  1  0.513880  0.251190  0.328670  1.0  -0.1483
  C  C3656  1  0.180540  0.584520  0.662010  1.0  -0.1472
  C  C3657  1  0.847210  0.917860  0.995340  1.0  -0.1358
  C  C3658  1  0.488370  0.222660  0.329010  1.0  -0.0767
  C  C3659  1  0.155030  0.555990  0.662340  1.0  -0.0785
  C  C3660  1  0.821700  0.889330  0.995670  1.0  -0.0738
  C  C3661  1  0.491200  0.196870  0.329530  1.0  -0.0827
  C  C3662  1  0.157860  0.530210  0.662870  1.0  -0.0832
  C  C3663  1  0.824530  0.863540  0.996200  1.0  -0.0854
  C  C3664  1  0.520160  0.200340  0.329700  1.0  -0.0844
  C  C3665  1  0.186830  0.533680  0.663040  1.0  -0.0793
  C  C3666  1  0.853500  0.867010  0.996370  1.0  -0.0763
  C  C3667  1  0.545650  0.228970  0.329370  1.0  -0.1442
  C  C3668  1  0.212320  0.562300  0.662700  1.0  -0.1435
  C  C3669  1  0.878990  0.895640  0.996030  1.0  -0.1401
  C  C3670  1  0.542500  0.254380  0.328860  1.0  0.1325
  C  C3671  1  0.209170  0.587720  0.662190  1.0  0.141
  C  C3672  1  0.875840  0.921050  0.995530  1.0  0.1135
  C  C3673  1  0.724250  0.380580  0.328500  1.0  -0.0795
  C  C3674  1  0.390920  0.713910  0.661830  1.0  -0.0807
  C  C3675  1  0.057590  0.047240  0.995160  1.0  -0.0803
  C  C3676  1  0.699290  0.377070  0.328360  1.0  -0.072
  C  C3677  1  0.365960  0.710400  0.661690  1.0  -0.0699
  C  C3678  1  0.032630  0.043740  0.995020  1.0  -0.0737
  C  C3679  1  0.627540  0.439320  0.328440  1.0  -0.0649
  C  C3680  1  0.294210  0.772650  0.661770  1.0  -0.0646
  C  C3681  1  0.960880  0.105980  0.995110  1.0  -0.0721
  C  C3682  1  0.631020  0.417860  0.328310  1.0  -0.0642
  C  C3683  1  0.297690  0.751190  0.661640  1.0  -0.0647
  C  C3684  1  0.964350  0.084530  0.994980  1.0  -0.0718
  C  C3685  1  0.590090  0.308770  0.328430  1.0  -0.0605
  C  C3686  1  0.256760  0.642100  0.661760  1.0  -0.0565
  C  C3687  1  0.923430  0.975440  0.995100  1.0  -0.0725
  C  C3688  1  0.568560  0.283850  0.328610  1.0  -0.0724
  C  C3689  1  0.235230  0.617180  0.661940  1.0  -0.0701
  C  C3690  1  0.901900  0.950520  0.995270  1.0  -0.0647
  C  C3691  1  0.038880  0.323180  0.120220  1.0  0.6948
  C  C3692  1  0.705540  0.656520  0.453550  1.0  0.6946
  C  C3693  1  0.372210  0.989850  0.786890  1.0  0.6984
  C  C3694  1  0.013540  0.310010  0.096120  1.0  0.6866
  C  C3695  1  0.680210  0.643350  0.429450  1.0  0.6858
  C  C3696  1  0.346880  0.976680  0.762790  1.0  0.6903
  C  C3697  1  0.973530  0.225620  0.111110  1.0  0.6832
  C  C3698  1  0.640200  0.558960  0.444450  1.0  0.6793
  C  C3699  1  0.306870  0.892290  0.777780  1.0  0.6798
  C  C3700  1  0.909860  0.258460  0.101700  1.0  0.6925
  C  C3701  1  0.576530  0.591790  0.435030  1.0  0.6929
  C  C3702  1  0.243190  0.925130  0.768360  1.0  0.6939
  C  C3703  1  0.935710  0.272160  0.125990  1.0  0.6806
  C  C3704  1  0.602380  0.605500  0.459320  1.0  0.6853
  C  C3705  1  0.269040  0.938830  0.792650  1.0  0.6869
  C  C3706  1  0.974040  0.356560  0.110870  1.0  0.6738
  C  C3707  1  0.640710  0.689900  0.444210  1.0  0.6741
  C  C3708  1  0.307370  0.023230  0.777540  1.0  0.674
  C  C3709  1  0.822110  0.701450  0.277640  1.0  -0.0279
  C  C3710  1  0.488780  0.034790  0.610970  1.0  -0.0196
  C  C3711  1  0.155450  0.368120  0.944310  1.0  -0.0296
  C  C3712  1  0.785170  0.709380  0.271600  1.0  0.0537
  C  C3713  1  0.451830  0.042710  0.604930  1.0  0.0559
  C  C3714  1  0.118500  0.376040  0.938270  1.0  0.0546
  C  C3715  1  0.777100  0.693250  0.283690  1.0  0.0413
  C  C3716  1  0.443760  0.026580  0.617020  1.0  0.0408
  C  C3717  1  0.110430  0.359920  0.950360  1.0  0.038
  C  C3718  1  0.812460  0.709470  0.271590  1.0  -0.0779
  C  C3719  1  0.479130  0.042810  0.604920  1.0  -0.0798
  C  C3720  1  0.145800  0.376140  0.938260  1.0  -0.0869
  C  C3721  1  0.767560  0.701280  0.277650  1.0  -0.0865
  C  C3722  1  0.434220  0.034610  0.610980  1.0  -0.0882
  C  C3723  1  0.100890  0.367940  0.944310  1.0  -0.0815
  C  C3724  1  0.804390  0.693330  0.283690  1.0  -0.0815
  C  C3725  1  0.471050  0.026670  0.617020  1.0  -0.074
  C  C3726  1  0.137720  0.360000  0.950360  1.0  -0.0731
  C  C3727  1  0.918840  0.708490  0.271520  1.0  -0.1558
  C  C3728  1  0.585500  0.041820  0.604860  1.0  -0.1464
  C  C3729  1  0.252170  0.375160  0.938190  1.0  -0.1441
  C  C3730  1  0.946150  0.708660  0.271520  1.0  -0.0813
  C  C3731  1  0.612810  0.041990  0.604860  1.0  -0.0851
  C  C3732  1  0.279480  0.375330  0.938190  1.0  -0.0856
  C  C3733  1  0.956880  0.702290  0.277680  1.0  -0.0887
  C  C3734  1  0.623550  0.035620  0.611010  1.0  -0.0866
  C  C3735  1  0.290210  0.368950  0.944340  1.0  -0.0888
  C  C3736  1  0.939600  0.695780  0.283820  1.0  -0.0817
  C  C3737  1  0.606270  0.029110  0.617150  1.0  -0.0856
  C  C3738  1  0.272940  0.362450  0.950480  1.0  -0.0886
  C  C3739  1  0.912310  0.695640  0.283790  1.0  -0.1373
  C  C3740  1  0.578980  0.028970  0.617130  1.0  -0.1566
  C  C3741  1  0.245650  0.362300  0.950460  1.0  -0.1544
  C  C3742  1  0.901870  0.701970  0.277650  1.0  0.0294
  C  C3743  1  0.568540  0.035310  0.610980  1.0  0.0291
  C  C3744  1  0.235210  0.368640  0.944320  1.0  0.0286
  C  C3745  1  0.728310  0.656000  0.306670  1.0  -0.156
  C  C3746  1  0.394980  0.989330  0.640010  1.0  -0.1437
  C  C3747  1  0.061640  0.322660  0.973340  1.0  -0.1466
  C  C3748  1  0.708260  0.645950  0.312300  1.0  -0.0844
  C  C3749  1  0.374930  0.979290  0.645630  1.0  -0.0871
  C  C3750  1  0.041600  0.312620  0.978960  1.0  -0.0892
  C  C3751  1  0.681990  0.648100  0.312110  1.0  -0.0944
  C  C3752  1  0.348660  0.981440  0.645450  1.0  -0.095
  C  C3753  1  0.015320  0.314770  0.978780  1.0  -0.093
  C  C3754  1  0.676600  0.661040  0.306220  1.0  -0.0772
  C  C3755  1  0.343260  0.994370  0.639550  1.0  -0.0798
  C  C3756  1  0.009930  0.327710  0.972880  1.0  -0.0761
  C  C3757  1  0.696720  0.671060  0.300600  1.0  -0.1329
  C  C3758  1  0.363380  0.004400  0.633930  1.0  -0.1585
  C  C3759  1  0.030050  0.337730  0.967270  1.0  -0.136
  C  C3760  1  0.722470  0.668360  0.300800  1.0  0.1416
  C  C3761  1  0.389140  0.001690  0.634130  1.0  0.1365
  C  C3762  1  0.055800  0.335030  0.967470  1.0  0.1415
  C  C3763  1  0.773830  0.747070  0.248690  1.0  -0.0977
  C  C3764  1  0.440500  0.080410  0.582020  1.0  -0.1298
  C  C3765  1  0.107160  0.413740  0.915350  1.0  -0.1008
  C  C3766  1  0.763800  0.757150  0.243080  1.0  -0.0719
  C  C3767  1  0.430470  0.090480  0.576420  1.0  -0.082
  C  C3768  1  0.097140  0.423810  0.909750  1.0  -0.0769
  C  C3769  1  0.735210  0.754600  0.243260  1.0  -0.0941
  C  C3770  1  0.401870  0.087930  0.576600  1.0  -0.0933
  C  C3771  1  0.068540  0.421260  0.909930  1.0  -0.0933
  C  C3772  1  0.716720  0.741250  0.249130  1.0  -0.0792
  C  C3773  1  0.383390  0.074590  0.582460  1.0  -0.0796
  C  C3774  1  0.050060  0.407920  0.915800  1.0  -0.0842
  C  C3775  1  0.726840  0.731200  0.254720  1.0  -0.1462
  C  C3776  1  0.393510  0.064540  0.588050  1.0  -0.1445
  C  C3777  1  0.060170  0.397870  0.921390  1.0  -0.1413
  C  C3778  1  0.755460  0.734290  0.254530  1.0  0.1254
  C  C3779  1  0.422130  0.067620  0.587860  1.0  0.1269
  C  C3780  1  0.088800  0.400950  0.921190  1.0  0.137
  C  C3781  1  0.873760  0.701780  0.277640  1.0  -0.0817
  C  C3782  1  0.540420  0.035110  0.610970  1.0  -0.0809
  C  C3783  1  0.207090  0.368440  0.944310  1.0  -0.0813
  C  C3784  1  0.850210  0.701620  0.277640  1.0  -0.0812
  C  C3785  1  0.516880  0.034950  0.610970  1.0  -0.0849
  C  C3786  1  0.183540  0.368290  0.944300  1.0  -0.0784
  C  C3787  1  0.742370  0.677430  0.294880  1.0  -0.0734
  C  C3788  1  0.409040  0.010760  0.628220  1.0  -0.0755
  C  C3789  1  0.075710  0.344100  0.961550  1.0  -0.0723
  C  C3790  1  0.758540  0.684720  0.289840  1.0  -0.0801
  C  C3791  1  0.425210  0.018060  0.623170  1.0  -0.0767
  C  C3792  1  0.091880  0.351390  0.956510  1.0  -0.0795
  C  C3793  1  0.775160  0.717890  0.265460  1.0  -0.0818
  C  C3794  1  0.441820  0.051230  0.598790  1.0  -0.0829
  C  C3795  1  0.108490  0.384560  0.932130  1.0  -0.08
  C  C3796  1  0.766300  0.725200  0.260430  1.0  -0.0692
  C  C3797  1  0.432960  0.058530  0.593760  1.0  -0.0705
  C  C3798  1  0.099630  0.391870  0.927090  1.0  -0.0712
  C  C3799  1  0.315880  0.180290  0.283810  1.0  0.0373
  C  C3800  1  0.982550  0.513620  0.617150  1.0  0.046
  C  C3801  1  0.649210  0.846960  0.950480  1.0  0.0355
  C  C3802  1  0.300240  0.172680  0.271690  1.0  0.0511
  C  C3803  1  0.966910  0.506020  0.605020  1.0  0.051
  C  C3804  1  0.633570  0.839350  0.938360  1.0  0.0516
  C  C3805  1  0.308210  0.217480  0.277810  1.0  -0.0278
  C  C3806  1  0.974880  0.550810  0.611140  1.0  -0.0188
  C  C3807  1  0.641540  0.884140  0.944470  1.0  -0.0287
  C  C3808  1  0.308000  0.162910  0.277730  1.0  -0.0871
  C  C3809  1  0.974670  0.496250  0.611070  1.0  -0.0849
  C  C3810  1  0.641330  0.829580  0.944400  1.0  -0.0872
  C  C3811  1  0.300340  0.199980  0.271720  1.0  -0.0775
  C  C3812  1  0.967010  0.533310  0.605060  1.0  -0.0856
  C  C3813  1  0.633670  0.866650  0.938390  1.0  -0.0822
  C  C3814  1  0.316000  0.207600  0.283850  1.0  -0.066
  C  C3815  1  0.982660  0.540930  0.617190  1.0  -0.0616
  C  C3816  1  0.649330  0.874260  0.950520  1.0  -0.0645
  C  C3817  1  0.351920  0.167610  0.306810  1.0  -0.1449
  C  C3818  1  0.018590  0.500940  0.640150  1.0  -0.1314
  C  C3819  1  0.685260  0.834270  0.973480  1.0  -0.1264
  C  C3820  1  0.361760  0.157390  0.312420  1.0  -0.0896
  C  C3821  1  0.028430  0.490730  0.645760  1.0  -0.0837
  C  C3822  1  0.695100  0.824060  0.979090  1.0  -0.0811
  C  C3823  1  0.359730  0.129040  0.312160  1.0  -0.0953
  C  C3824  1  0.026400  0.462370  0.645500  1.0  -0.097
  C  C3825  1  0.693070  0.795700  0.978830  1.0  -0.0959
  C  C3826  1  0.347120  0.110970  0.306210  1.0  -0.0846
  C  C3827  1  0.013790  0.444300  0.639540  1.0  -0.0835
  C  C3828  1  0.680450  0.777640  0.972870  1.0  -0.0813
  C  C3829  1  0.337300  0.121280  0.300600  1.0  -0.1389
  C  C3830  1  0.003960  0.454620  0.633940  1.0  -0.1407
  C  C3831  1  0.670630  0.787950  0.967270  1.0  -0.1373
  C  C3832  1  0.339890  0.149690  0.300880  1.0  0.1447
  C  C3833  1  0.006560  0.483020  0.634210  1.0  0.1465
  C  C3834  1  0.673220  0.816350  0.967550  1.0  0.1429
  C  C3835  1  0.301650  0.307400  0.271760  1.0  -0.1567
  C  C3836  1  0.968320  0.640730  0.605090  1.0  -0.16
  C  C3837  1  0.634990  0.974070  0.938430  1.0  -0.16
  C  C3838  1  0.301300  0.334440  0.271780  1.0  -0.0846
  C  C3839  1  0.967960  0.667770  0.605110  1.0  -0.0837
  C  C3840  1  0.634630  0.001100  0.938450  1.0  -0.0837
  C  C3841  1  0.307150  0.351320  0.277970  1.0  -0.0859
  C  C3842  1  0.973820  0.684650  0.611300  1.0  -0.0847
  C  C3843  1  0.640490  0.017990  0.944630  1.0  -0.0851
  C  C3844  1  0.313400  0.340450  0.284110  1.0  -0.0869
  C  C3845  1  0.980070  0.673780  0.617450  1.0  -0.0875
  C  C3846  1  0.646730  0.007120  0.950780  1.0  -0.0858
  C  C3847  1  0.313730  0.313400  0.284070  1.0  -0.1579
  C  C3848  1  0.980400  0.646730  0.617400  1.0  -0.1543
  C  C3849  1  0.647060  0.980060  0.950740  1.0  -0.1563
  C  C3850  1  0.307850  0.296820  0.277900  1.0  0.0465
  C  C3851  1  0.974520  0.630150  0.611230  1.0  0.0464
  C  C3852  1  0.641180  0.963480  0.944570  1.0  0.037
  C  C3853  1  0.278690  0.092690  0.254750  1.0  -0.1391
  C  C3854  1  0.945350  0.426020  0.588090  1.0  -0.1379
  C  C3855  1  0.612020  0.759350  0.921420  1.0  -0.1371
  C  C3856  1  0.268580  0.072440  0.249170  1.0  -0.0821
  C  C3857  1  0.935240  0.405770  0.582500  1.0  -0.0853
  C  C3858  1  0.601910  0.739100  0.915830  1.0  -0.08
  C  C3859  1  0.255130  0.077460  0.243310  1.0  -0.0941
  C  C3860  1  0.921800  0.410790  0.576650  1.0  -0.0923
  C  C3861  1  0.588470  0.744120  0.909980  1.0  -0.0935
  C  C3862  1  0.252590  0.103500  0.243140  1.0  -0.0867
  C  C3863  1  0.919260  0.436830  0.576470  1.0  -0.0866
  C  C3864  1  0.585930  0.770170  0.909810  1.0  -0.0858
  C  C3865  1  0.262720  0.123670  0.248740  1.0  -0.1384
  C  C3866  1  0.929390  0.457010  0.582070  1.0  -0.1281
  C  C3867  1  0.596060  0.790340  0.915400  1.0  -0.1219
  C  C3868  1  0.275570  0.118190  0.254570  1.0  0.1202
  C  C3869  1  0.942230  0.451530  0.587900  1.0  0.1318
  C  C3870  1  0.608900  0.784860  0.921240  1.0  0.125
  C  C3871  1  0.331100  0.160810  0.294980  1.0  -0.0649
  C  C3872  1  0.997770  0.494140  0.628310  1.0  -0.0811
  C  C3873  1  0.664440  0.827470  0.961650  1.0  -0.0673
  C  C3874  1  0.324070  0.169960  0.289950  1.0  -0.0777
  C  C3875  1  0.990740  0.503290  0.623290  1.0  -0.0622
  C  C3876  1  0.657410  0.836630  0.956620  1.0  -0.0775
  C  C3877  1  0.308070  0.268900  0.277870  1.0  -0.0803
  C  C3878  1  0.974740  0.602230  0.611210  1.0  -0.0805
  C  C3879  1  0.641400  0.935570  0.944540  1.0  -0.0791
  C  C3880  1  0.308180  0.245480  0.277850  1.0  -0.0828
  C  C3881  1  0.974840  0.578820  0.611180  1.0  -0.0834
  C  C3882  1  0.641510  0.912150  0.944510  1.0  -0.084
  C  C3883  1  0.291840  0.154280  0.265520  1.0  -0.082
  C  C3884  1  0.958510  0.487610  0.598860  1.0  -0.0775
  C  C3885  1  0.625170  0.820950  0.932190  1.0  -0.0818
  C  C3886  1  0.284610  0.138140  0.260470  1.0  -0.0707
  C  C3887  1  0.951280  0.471470  0.593810  1.0  -0.071
  C  C3888  1  0.617940  0.804810  0.927140  1.0  -0.0711
  C  C3889  1  0.978940  0.064210  0.227290  1.0  0.1399
  C  C3890  1  0.645600  0.397550  0.560620  1.0  0.1421
  C  C3891  1  0.312270  0.730880  0.893950  1.0  0.1422
  C  C3892  1  0.944820  0.010390  0.227240  1.0  0.1396
  C  C3893  1  0.611490  0.343730  0.560570  1.0  0.1326
  C  C3894  1  0.278150  0.677060  0.893900  1.0  0.1383
  C  C3895  1  0.998650  0.030140  0.227300  1.0  0.1399
  C  C3896  1  0.665320  0.363470  0.560630  1.0  0.1417
  C  C3897  1  0.331990  0.696810  0.893970  1.0  0.1351
  C  C3898  1  0.949620  0.039680  0.227250  1.0  -0.0397
  C  C3899  1  0.616290  0.373010  0.560590  1.0  -0.0157
  C  C3900  1  0.282950  0.706350  0.893920  1.0  -0.0093
  C  C3901  1  0.969340  0.005620  0.227260  1.0  -0.0389
  C  C3902  1  0.636010  0.338950  0.560600  1.0  -0.0508
  C  C3903  1  0.302680  0.672290  0.893930  1.0  -0.0514
  C  C3904  1  0.003450  0.059440  0.227320  1.0  -0.0296
  C  C3905  1  0.670120  0.392780  0.560650  1.0  -0.044
  C  C3906  1  0.336780  0.726110  0.893980  1.0  -0.0344
  C  C3907  1  0.019360  0.174200  0.226370  1.0  -0.146
  C  C3908  1  0.686030  0.507540  0.559700  1.0  -0.1573
  C  C3909  1  0.352690  0.840870  0.893030  1.0  -0.148
  C  C3910  1  0.022470  0.202820  0.226040  1.0  -0.0856
  C  C3911  1  0.689140  0.536150  0.559370  1.0  -0.0796
  C  C3912  1  0.355800  0.869480  0.892710  1.0  -0.083
  C  C3913  1  0.996910  0.206180  0.226160  1.0  -0.0832
  C  C3914  1  0.663580  0.539520  0.559500  1.0  -0.0898
  C  C3915  1  0.330250  0.872850  0.892830  1.0  -0.0941
  C  C3916  1  0.968280  0.180310  0.226660  1.0  -0.0737
  C  C3917  1  0.634940  0.513650  0.560000  1.0  -0.072
  C  C3918  1  0.301610  0.846980  0.893330  1.0  -0.0735
  C  C3919  1  0.965280  0.151820  0.226990  1.0  -0.1407
  C  C3920  1  0.631950  0.485150  0.560320  1.0  -0.1424
  C  C3921  1  0.298620  0.818480  0.893660  1.0  -0.1416
  C  C3922  1  0.990760  0.148710  0.226830  1.0  0.1375
  C  C3923  1  0.657430  0.482040  0.560160  1.0  0.138
  C  C3924  1  0.324100  0.815370  0.893500  1.0  0.1429
  C  C3925  1  0.099960  0.043790  0.227080  1.0  -0.1486
  C  C3926  1  0.766630  0.377120  0.560420  1.0  -0.1422
  C  C3927  1  0.433290  0.710460  0.893750  1.0  -0.1426
  C  C3928  1  0.125480  0.040820  0.226760  1.0  -0.08
  C  C3929  1  0.792150  0.374160  0.560090  1.0  -0.0742
  C  C3930  1  0.458820  0.707490  0.893420  1.0  -0.0775
  C  C3931  1  0.122710  0.012230  0.226200  1.0  -0.0951
  C  C3932  1  0.789380  0.345560  0.559530  1.0  -0.0953
  C  C3933  1  0.456050  0.678890  0.892860  1.0  -0.0877
  C  C3934  1  0.093760  0.986670  0.226010  1.0  -0.0873
  C  C3935  1  0.760430  0.320010  0.559350  1.0  -0.0889
  C  C3936  1  0.427090  0.653340  0.892680  1.0  -0.0841
  C  C3937  1  0.068230  0.989760  0.226340  1.0  -0.1381
  C  C3938  1  0.734900  0.323090  0.559680  1.0  -0.1381
  C  C3939  1  0.401570  0.656420  0.893010  1.0  -0.1386
  C  C3940  1  0.071340  0.018320  0.226860  1.0  0.1439
  C  C3941  1  0.738010  0.351650  0.560200  1.0  0.1435
  C  C3942  1  0.404670  0.684990  0.893530  1.0  0.1426
  C  C3943  1  0.834760  0.941010  0.226240  1.0  -0.1349
  C  C3944  1  0.501430  0.274350  0.559570  1.0  -0.1561
  C  C3945  1  0.168100  0.607680  0.892910  1.0  -0.1327
  C  C3946  1  0.806080  0.915550  0.225920  1.0  -0.0799
  C  C3947  1  0.472740  0.248890  0.559250  1.0  -0.081
  C  C3948  1  0.139410  0.582220  0.892580  1.0  -0.0811
  C  C3949  1  0.802570  0.886580  0.226020  1.0  -0.0667
  C  C3950  1  0.469230  0.219910  0.559360  1.0  -0.0859
  C  C3951  1  0.135900  0.553240  0.892690  1.0  -0.0851
  C  C3952  1  0.828360  0.883710  0.226500  1.0  -0.0737
  C  C3953  1  0.495030  0.217050  0.559830  1.0  -0.0743
  C  C3954  1  0.161700  0.550380  0.893170  1.0  -0.0771
  C  C3955  1  0.856930  0.909170  0.226830  1.0  -0.134
  C  C3956  1  0.523590  0.242500  0.560160  1.0  -0.137
  C  C3957  1  0.190260  0.575830  0.893490  1.0  -0.1371
  C  C3958  1  0.860180  0.937810  0.226690  1.0  0.1462
  C  C3959  1  0.526850  0.271140  0.560020  1.0  0.1406
  C  C3960  1  0.193510  0.604480  0.893350  1.0  0.1453
  C  C3961  1  0.987310  0.119220  0.227050  1.0  -0.0633
  C  C3962  1  0.653980  0.452550  0.560380  1.0  -0.0637
  C  C3963  1  0.320650  0.785890  0.893710  1.0  -0.0656
  C  C3964  1  0.983760  0.094240  0.227180  1.0  -0.0728
  C  C3965  1  0.650430  0.427570  0.560520  1.0  -0.0606
  C  C3966  1  0.317100  0.760910  0.893850  1.0  -0.0617
  C  C3967  1  0.045290  0.021770  0.227070  1.0  -0.0656
  C  C3968  1  0.711960  0.355100  0.560410  1.0  -0.0648
  C  C3969  1  0.378630  0.688430  0.893740  1.0  -0.0649
  C  C3970  1  0.023870  0.025320  0.227200  1.0  -0.0597
  C  C3971  1  0.690530  0.358660  0.560540  1.0  -0.0597
  C  C3972  1  0.357200  0.691990  0.893870  1.0  -0.0615
  C  C3973  1  0.914760  0.985190  0.227090  1.0  -0.0675
  C  C3974  1  0.581430  0.318520  0.560420  1.0  -0.0683
  C  C3975  1  0.248100  0.651860  0.893760  1.0  -0.0614
  C  C3976  1  0.889740  0.963790  0.226930  1.0  -0.0629
  C  C3977  1  0.556400  0.297130  0.560260  1.0  -0.0635
  C  C3978  1  0.223070  0.630460  0.893590  1.0  -0.0635
  C  C3979  1  0.850670  0.665110  0.070130  1.0  0.6852
  C  C3980  1  0.517330  0.998440  0.403470  1.0  0.6875
  C  C3981  1  0.184000  0.331770  0.736800  1.0  0.6862
  C  C3982  1  0.943030  0.704700  0.056830  1.0  0.6725
  C  C3983  1  0.609700  0.038030  0.390160  1.0  0.6731
  C  C3984  1  0.276370  0.371370  0.723500  1.0  0.6742
  C  C3985  1  0.910480  0.618710  0.070890  1.0  0.6867
  C  C3986  1  0.577150  0.952040  0.404220  1.0  0.6844
  C  C3987  1  0.243810  0.285370  0.737550  1.0  0.6852
  C  C3988  1  0.904760  0.610270  0.045670  1.0  0.6771
  C  C3989  1  0.571430  0.943600  0.379000  1.0  0.6836
  C  C3990  1  0.238090  0.276930  0.712330  1.0  0.6834
  C  C3991  1  0.817540  0.570550  0.059100  1.0  0.6868
  C  C3992  1  0.484210  0.903890  0.392440  1.0  0.6873
  C  C3993  1  0.150880  0.237220  0.725770  1.0  0.687
  C  C3994  1  0.848320  0.660150  0.045800  1.0  0.6906
  C  C3995  1  0.514990  0.993490  0.379130  1.0  0.693
  C  C3996  1  0.181650  0.326820  0.712470  1.0  0.6903
  C  C3997  1  0.146140  0.909020  0.058280  1.0  0.0688
  C  C3998  1  0.812800  0.242350  0.391610  1.0  0.0741
  C  C3999  1  0.479470  0.575680  0.724940  1.0  0.0712
  C  C4000  1  0.105160  0.866950  0.052290  1.0  -0.021
  C  C4001  1  0.771830  0.200290  0.385630  1.0  -0.0222
  C  C4002  1  0.438490  0.533620  0.718960  1.0  -0.0184
  C  C4003  1  0.143430  0.908860  0.045640  1.0  0.0622
  C  C4004  1  0.810100  0.242200  0.378970  1.0  0.0569
  C  C4005  1  0.476760  0.575530  0.712310  1.0  0.0589
  C  C4006  1  0.119830  0.881060  0.058480  1.0  0.008
  C  C4007  1  0.786490  0.214390  0.391810  1.0  0.0513
  C  C4008  1  0.453160  0.547730  0.725150  1.0  0.0114
  C  C4009  1  0.116960  0.880810  0.045850  1.0  0.0609
  C  C4010  1  0.783630  0.214140  0.379180  1.0  0.0805
  C  C4011  1  0.450290  0.547470  0.712520  1.0  0.0746
  C  C4012  1  0.157990  0.922920  0.051860  1.0  -0.0528
  C  C4013  1  0.824660  0.256260  0.385200  1.0  -0.0461
  C  C4014  1  0.491330  0.589590  0.718530  1.0  -0.0572
  C  C4015  1  0.160570  0.940540  0.082580  1.0  -0.1415
  C  C4016  1  0.827230  0.273880  0.415920  1.0  -0.1311
  C  C4017  1  0.493900  0.607210  0.749250  1.0  -0.1405
  C  C4018  1  0.170040  0.954970  0.089030  1.0  -0.076
  C  C4019  1  0.836710  0.288300  0.422360  1.0  -0.0702
  C  C4020  1  0.503380  0.621640  0.755690  1.0  -0.0777
  C  C4021  1  0.199560  0.979070  0.089880  1.0  -0.0904
  C  C4022  1  0.866220  0.312410  0.423220  1.0  -0.091
  C  C4023  1  0.532890  0.645740  0.756550  1.0  -0.0911
  C  C4024  1  0.219520  0.987950  0.084170  1.0  -0.0833
  C  C4025  1  0.886180  0.321280  0.417510  1.0  -0.0823
  C  C4026  1  0.552850  0.654620  0.750840  1.0  -0.0814
  C  C4027  1  0.209920  0.973450  0.077730  1.0  -0.1418
  C  C4028  1  0.876590  0.306780  0.411060  1.0  -0.1488
  C  C4029  1  0.543250  0.640110  0.744400  1.0  -0.1459
  C  C4030  1  0.180380  0.949920  0.076920  1.0  0.0356
  C  C4031  1  0.847040  0.283250  0.410250  1.0  0.0349
  C  C4032  1  0.513710  0.616590  0.743590  1.0  0.0367
  C  C4033  1  0.206940  0.980600  0.027730  1.0  -0.1397
  C  C4034  1  0.873600  0.313930  0.361060  1.0  -0.1364
  C  C4035  1  0.540270  0.647260  0.694400  1.0  -0.1446
  C  C4036  1  0.218710  0.998990  0.021860  1.0  -0.0702
  C  C4037  1  0.885380  0.332320  0.355190  1.0  -0.0683
  C  C4038  1  0.552050  0.665650  0.688520  1.0  -0.0735
  C  C4039  1  0.201710  0.992430  0.015680  1.0  -0.097
  C  C4040  1  0.868380  0.325770  0.349020  1.0  -0.097
  C  C4041  1  0.535040  0.659100  0.682350  1.0  -0.0972
  C  C4042  1  0.172910  0.966630  0.015490  1.0  -0.0765
  C  C4043  1  0.839570  0.299970  0.348820  1.0  -0.0728
  C  C4044  1  0.506240  0.633300  0.682160  1.0  -0.0774
  C  C4045  1  0.161190  0.948290  0.021390  1.0  -0.1032
  C  C4046  1  0.827850  0.281630  0.354720  1.0  -0.1141
  C  C4047  1  0.494520  0.614960  0.688050  1.0  -0.119
  C  C4048  1  0.178080  0.955400  0.027530  1.0  0.1109
  C  C4049  1  0.844740  0.288730  0.360870  1.0  0.106
  C  C4050  1  0.511410  0.622070  0.694200  1.0  0.1101
  C  C4051  1  0.014880  0.777640  0.060950  1.0  -0.1653
  C  C4052  1  0.681540  0.110970  0.394280  1.0  -0.1526
  C  C4053  1  0.348210  0.444310  0.727610  1.0  -0.1489
  C  C4054  1  0.987730  0.750680  0.061830  1.0  -0.0801
  C  C4055  1  0.654400  0.084010  0.395170  1.0  -0.0797
  C  C4056  1  0.321070  0.417350  0.728500  1.0  -0.0789
  C  C4057  1  0.971710  0.733500  0.056000  1.0  -0.0913
  C  C4058  1  0.638380  0.066830  0.389330  1.0  -0.0879
  C  C4059  1  0.305040  0.400170  0.722670  1.0  -0.0913
  C  C4060  1  0.983480  0.743960  0.049270  1.0  -0.077
  C  C4061  1  0.650140  0.077300  0.382610  1.0  -0.0746
  C  C4062  1  0.316810  0.410630  0.715940  1.0  -0.0771
  C  C4063  1  0.010560  0.770870  0.048410  1.0  -0.157
  C  C4064  1  0.677230  0.104200  0.381750  1.0  -0.1411
  C  C4065  1  0.343890  0.437530  0.715080  1.0  -0.1434
  C  C4066  1  0.026310  0.787730  0.054240  1.0  0.032
  C  C4067  1  0.692970  0.121060  0.387570  1.0  0.0408
  C  C4068  1  0.359640  0.454390  0.720900  1.0  0.0347
  C  C4069  1  0.169790  0.935960  0.070230  1.0  -0.1354
  C  C4070  1  0.836460  0.269300  0.403570  1.0  -0.1355
  C  C4071  1  0.503120  0.602630  0.736900  1.0  -0.1349
  C  C4072  1  0.159710  0.923940  0.064710  1.0  -0.1251
  C  C4073  1  0.826380  0.257270  0.398050  1.0  -0.125
  C  C4074  1  0.493050  0.590610  0.731380  1.0  -0.1246
  C  C4075  1  0.165410  0.937830  0.033750  1.0  -0.0763
  C  C4076  1  0.832080  0.271170  0.367090  1.0  -0.0731
  C  C4077  1  0.498740  0.604500  0.700420  1.0  -0.075
  C  C4078  1  0.155150  0.924070  0.039100  1.0  -0.0863
  C  C4079  1  0.821820  0.257410  0.372430  1.0  -0.1045
  C  C4080  1  0.488490  0.590740  0.705770  1.0  -0.0827
  C  C4081  1  0.077430  0.838810  0.052700  1.0  -0.1216
  C  C4082  1  0.744100  0.172150  0.386030  1.0  -0.1235
  C  C4083  1  0.410770  0.505480  0.719370  1.0  -0.117
  C  C4084  1  0.054140  0.815450  0.053330  1.0  -0.089
  C  C4085  1  0.720800  0.148780  0.386660  1.0  -0.0885
  C  C4086  1  0.387470  0.482110  0.719990  1.0  -0.0885
  C  C4087  1  0.294490  0.034910  0.111470  1.0  0.6706
  C  C4088  1  0.961150  0.368240  0.444800  1.0  0.6725
  C  C4089  1  0.627820  0.701570  0.778130  1.0  0.6716
  C  C4090  1  0.196410  0.971040  0.120870  1.0  0.6927
  C  C4091  1  0.863080  0.304370  0.454210  1.0  0.6934
  C  C4092  1  0.529750  0.637710  0.787540  1.0  0.6939
  C  C4093  1  0.248720  0.074700  0.126310  1.0  0.68
  C  C4094  1  0.915390  0.408030  0.459640  1.0  0.6856
  C  C4095  1  0.582060  0.741360  0.792970  1.0  0.6907
  C  C4096  1  0.164060  0.035360  0.111490  1.0  0.6807
  C  C4097  1  0.830730  0.368690  0.444830  1.0  0.6699
  C  C4098  1  0.497400  0.702020  0.778160  1.0  0.6701
  C  C4099  1  0.261000  0.099060  0.102020  1.0  0.6952
  C  C4100  1  0.927670  0.432390  0.435350  1.0  0.696
  C  C4101  1  0.594330  0.765730  0.768680  1.0  0.6952
  C  C4102  1  0.208980  0.995650  0.096590  1.0  0.673
  C  C4103  1  0.875640  0.328990  0.429920  1.0  0.6736
  C  C4104  1  0.542310  0.662320  0.763260  1.0  0.6731
  C  C4105  1  0.000990  0.035520  0.111540  1.0  0.0332
  C  C4106  1  0.667660  0.368850  0.444880  1.0  0.0238
  C  C4107  1  0.334320  0.702190  0.778210  1.0  0.0167
  C  C4108  1  0.946460  0.008080  0.111480  1.0  0.0327
  C  C4109  1  0.613130  0.341410  0.444820  1.0  0.0304
  C  C4110  1  0.279790  0.674750  0.778150  1.0  0.0256
  C  C4111  1  0.973580  0.062580  0.111470  1.0  0.0333
  C  C4112  1  0.640240  0.395920  0.444810  1.0  0.0316
  C  C4113  1  0.306910  0.729250  0.778140  1.0  0.0285
  C  C4114  1  0.973770  0.008230  0.111530  1.0  -0.0812
  C  C4115  1  0.640440  0.341560  0.444860  1.0  -0.0331
  C  C4116  1  0.307100  0.674890  0.778190  1.0  -0.0691
  C  C4117  1  0.946390  0.035270  0.111460  1.0  -0.0793
  C  C4118  1  0.613050  0.368600  0.444790  1.0  -0.0446
  C  C4119  1  0.279720  0.701940  0.778120  1.0  -0.047
  C  C4120  1  0.000870  0.062690  0.111520  1.0  -0.0881
  C  C4121  1  0.667540  0.396020  0.444850  1.0  -0.0483
  C  C4122  1  0.334200  0.729360  0.778180  1.0  -0.0482
  C  C4123  1  0.080730  0.009020  0.110180  1.0  -0.1568
  C  C4124  1  0.747400  0.342360  0.443510  1.0  -0.1433
  C  C4125  1  0.414070  0.675690  0.776840  1.0  -0.1443
  C  C4126  1  0.107880  0.008900  0.110150  1.0  -0.0882
  C  C4127  1  0.774550  0.342230  0.443490  1.0  -0.0912
  C  C4128  1  0.441210  0.675560  0.776820  1.0  -0.0918
  C  C4129  1  0.135200  0.035440  0.111520  1.0  -0.0927
  C  C4130  1  0.801870  0.368780  0.444860  1.0  -0.0927
  C  C4131  1  0.468530  0.702110  0.778190  1.0  -0.0911
  C  C4132  1  0.134640  0.062060  0.112930  1.0  -0.0873
  C  C4133  1  0.801300  0.395390  0.446260  1.0  -0.083
  C  C4134  1  0.467970  0.728730  0.779590  1.0  -0.0882
  C  C4135  1  0.107430  0.062080  0.112950  1.0  -0.1588
  C  C4136  1  0.774100  0.395410  0.446280  1.0  -0.1585
  C  C4137  1  0.440770  0.728750  0.779610  1.0  -0.147
  C  C4138  1  0.080460  0.035590  0.111570  1.0  0.0277
  C  C4139  1  0.747130  0.368920  0.444900  1.0  0.029
  C  C4140  1  0.413790  0.702250  0.778240  1.0  0.0276
  C  C4141  1  0.999760  0.168620  0.109760  1.0  -0.1519
  C  C4142  1  0.666420  0.501960  0.443100  1.0  -0.1418
  C  C4143  1  0.333090  0.835290  0.776430  1.0  -0.1444
  C  C4144  1  0.999840  0.195860  0.109690  1.0  -0.081
  C  C4145  1  0.666510  0.529190  0.443020  1.0  -0.0806
  C  C4146  1  0.333170  0.862520  0.776360  1.0  -0.082
  C  C4147  1  0.973390  0.196660  0.111170  1.0  -0.0909
  C  C4148  1  0.640060  0.530000  0.444500  1.0  -0.0895
  C  C4149  1  0.306730  0.863330  0.777830  1.0  -0.0892
  C  C4150  1  0.946900  0.169540  0.112710  1.0  -0.0802
  C  C4151  1  0.613570  0.502880  0.446050  1.0  -0.0775
  C  C4152  1  0.280240  0.836210  0.779380  1.0  -0.0805
  C  C4153  1  0.946920  0.142350  0.112780  1.0  -0.1605
  C  C4154  1  0.613590  0.475680  0.446110  1.0  -0.1492
  C  C4155  1  0.280260  0.809010  0.779450  1.0  -0.1602
  C  C4156  1  0.973330  0.141850  0.111310  1.0  0.0288
  C  C4157  1  0.640000  0.475180  0.444640  1.0  0.0283
  C  C4158  1  0.306660  0.808520  0.777980  1.0  0.0283
  C  C4159  1  0.866650  0.901650  0.112770  1.0  -0.1563
  C  C4160  1  0.533310  0.234990  0.446110  1.0  -0.1469
  C  C4161  1  0.199980  0.568320  0.779440  1.0  -0.156
  C  C4162  1  0.839460  0.874390  0.112730  1.0  -0.0801
  C  C4163  1  0.506120  0.207730  0.446060  1.0  -0.079
  C  C4164  1  0.172790  0.541060  0.779400  1.0  -0.085
  C  C4165  1  0.812250  0.873700  0.111280  1.0  -0.0845
  C  C4166  1  0.478920  0.207040  0.444620  1.0  -0.0712
  C  C4167  1  0.145580  0.540370  0.777950  1.0  -0.0606
  C  C4168  1  0.812960  0.900950  0.109890  1.0  -0.081
  C  C4169  1  0.479630  0.234280  0.443230  1.0  -0.0834
  C  C4170  1  0.146290  0.567620  0.776560  1.0  -0.0797
  C  C4171  1  0.840200  0.928160  0.109940  1.0  -0.1617
  C  C4172  1  0.506870  0.261490  0.443270  1.0  -0.1636
  C  C4173  1  0.173540  0.594820  0.776610  1.0  -0.153
  C  C4174  1  0.867060  0.928550  0.111380  1.0  0.0273
  C  C4175  1  0.533730  0.261880  0.444710  1.0  0.0268
  C  C4176  1  0.200400  0.595220  0.778050  1.0  0.0293
  C  C4177  1  0.052500  0.035650  0.111570  1.0  -0.0797
  C  C4178  1  0.719160  0.368980  0.444910  1.0  -0.0764
  C  C4179  1  0.385830  0.702310  0.778240  1.0  -0.0766
  C  C4180  1  0.029040  0.035630  0.111570  1.0  -0.0815
  C  C4181  1  0.695700  0.368960  0.444900  1.0  -0.0816
  C  C4182  1  0.362370  0.702290  0.778230  1.0  -0.0807
  C  C4183  1  0.973350  0.113880  0.111380  1.0  -0.0763
  C  C4184  1  0.640020  0.447220  0.444710  1.0  -0.0762
  C  C4185  1  0.306690  0.780550  0.778040  1.0  -0.0759
  C  C4186  1  0.973450  0.090490  0.111430  1.0  -0.0833
  C  C4187  1  0.640120  0.423830  0.444760  1.0  -0.0835
  C  C4188  1  0.306780  0.757160  0.778090  1.0  -0.0812
  C  C4189  1  0.918500  0.980040  0.111450  1.0  -0.0825
  C  C4190  1  0.585170  0.313370  0.444780  1.0  -0.0825
  C  C4191  1  0.251840  0.646700  0.778120  1.0  -0.082
  C  C4192  1  0.895060  0.956560  0.111420  1.0  -0.0762
  C  C4193  1  0.561730  0.289890  0.444750  1.0  -0.0762
  C  C4194  1  0.228400  0.623230  0.778090  1.0  -0.0765
  C  C4195  1  0.750930  0.748210  0.101690  1.0  0.6909
  C  C4196  1  0.417590  0.081550  0.435020  1.0  0.6914
  C  C4197  1  0.084260  0.414880  0.768350  1.0  0.6926
  C  C4198  1  0.699170  0.799910  0.096220  1.0  0.6904
  C  C4199  1  0.365830  0.133240  0.429550  1.0  0.6897
  C  C4200  1  0.032500  0.466570  0.762880  1.0  0.6929
  C  C4201  1  0.652600  0.714200  0.110990  1.0  0.6699
  C  C4202  1  0.319270  0.047530  0.444320  1.0  0.6701
  C  C4203  1  0.985940  0.380860  0.777660  1.0  0.67
  C  C4204  1  0.686360  0.811870  0.120520  1.0  0.6927
  C  C4205  1  0.353030  0.145200  0.453850  1.0  0.6947
  C  C4206  1  0.019700  0.478540  0.787180  1.0  0.6927
  C  C4207  1  0.737720  0.759660  0.125970  1.0  0.6839
  C  C4208  1  0.404390  0.092990  0.459300  1.0  0.6793
  C  C4209  1  0.071060  0.426330  0.792630  1.0  0.6794
  C  C4210  1  0.783350  0.844770  0.111230  1.0  0.6769
  C  C4211  1  0.450010  0.178110  0.444560  1.0  0.6866
  C  C4212  1  0.116680  0.511440  0.777890  1.0  0.6867
  C  C4213  1  0.124130  0.339420  0.201310  1.0  -0.1405
  C  C4214  1  0.790790  0.672750  0.534640  1.0  -0.1364
  C  C4215  1  0.457460  0.006090  0.867980  1.0  -0.1398
  C  C4216  1  0.101220  0.327540  0.206300  1.0  -0.0862
  C  C4217  1  0.767880  0.660870  0.539630  1.0  -0.085
  C  C4218  1  0.434550  0.994210  0.872970  1.0  -0.0839
  C  C4219  1  0.081610  0.338990  0.207000  1.0  -0.0743
  C  C4220  1  0.748280  0.672320  0.540330  1.0  -0.0749
  C  C4221  1  0.414950  0.005650  0.873670  1.0  -0.079
  C  C4222  1  0.085460  0.362590  0.202620  1.0  -0.0875
  C  C4223  1  0.752130  0.695920  0.535960  1.0  -0.0862
  C  C4224  1  0.418790  0.029260  0.869290  1.0  -0.0875
  C  C4225  1  0.108660  0.374780  0.197730  1.0  -0.1422
  C  C4226  1  0.775330  0.708110  0.531060  1.0  -0.1427
  C  C4227  1  0.442000  0.041450  0.864390  1.0  -0.143
  C  C4228  1  0.128250  0.363330  0.197000  1.0  0.0775
  C  C4229  1  0.794920  0.696660  0.530340  1.0  0.0742
  C  C4230  1  0.461590  0.030000  0.863670  1.0  0.079
  C  C4231  1  0.180960  0.379120  0.193290  1.0  -0.1381
  C  C4232  1  0.847630  0.712460  0.526630  1.0  -0.1352
  C  C4233  1  0.514300  0.045790  0.859960  1.0  -0.1377
  C  C4234  1  0.203970  0.390780  0.188340  1.0  -0.0652
  C  C4235  1  0.870640  0.724110  0.521670  1.0  -0.0829
  C  C4236  1  0.537300  0.057450  0.855000  1.0  -0.0805
  C  C4237  1  0.199630  0.400420  0.181800  1.0  -0.0754
  C  C4238  1  0.866300  0.733750  0.515140  1.0  -0.0811
  C  C4239  1  0.532970  0.067090  0.848470  1.0  -0.0755
  C  C4240  1  0.171840  0.398260  0.180340  1.0  -0.0799
  C  C4241  1  0.838510  0.731590  0.513670  1.0  -0.0794
  C  C4242  1  0.505180  0.064920  0.847010  1.0  -0.0817
  C  C4243  1  0.148670  0.386110  0.185250  1.0  -0.1398
  C  C4244  1  0.815330  0.719450  0.518590  1.0  -0.1376
  C  C4245  1  0.482000  0.052780  0.851920  1.0  -0.1382
  C  C4246  1  0.152940  0.376360  0.191790  1.0  0.0798
  C  C4247  1  0.819600  0.709690  0.525120  1.0  0.0739
  C  C4248  1  0.486270  0.043030  0.858450  1.0  0.0733
  C  C4249  1  0.171410  0.371130  0.136060  1.0  -0.1374
  C  C4250  1  0.838080  0.704470  0.469390  1.0  -0.1136
  C  C4251  1  0.504740  0.037800  0.802730  1.0  -0.1369
  C  C4252  1  0.195770  0.381820  0.140700  1.0  -0.0862
  C  C4253  1  0.862440  0.715160  0.474030  1.0  -0.0876
  C  C4254  1  0.529110  0.048490  0.807360  1.0  -0.0868
  C  C4255  1  0.194480  0.393570  0.147240  1.0  -0.1148
  C  C4256  1  0.861150  0.726900  0.480570  1.0  -0.1154
  C  C4257  1  0.527820  0.060230  0.813900  1.0  -0.1142
  C  C4258  1  0.168100  0.393800  0.149070  1.0  -0.0769
  C  C4259  1  0.834770  0.727140  0.482400  1.0  -0.077
  C  C4260  1  0.501430  0.060470  0.815740  1.0  -0.0719
  C  C4261  1  0.143670  0.382640  0.144510  1.0  -0.1478
  C  C4262  1  0.810340  0.715980  0.477850  1.0  -0.1394
  C  C4263  1  0.477000  0.049310  0.811180  1.0  -0.1485
  C  C4264  1  0.145010  0.371450  0.137900  1.0  0.0689
  C  C4265  1  0.811680  0.704790  0.471240  1.0  0.0699
  C  C4266  1  0.478350  0.038120  0.804570  1.0  0.0681
  C  C4267  1  0.100410  0.373140  0.132970  1.0  -0.1134
  C  C4268  1  0.767070  0.706480  0.466300  1.0  -0.1135
  C  C4269  1  0.433740  0.039810  0.799630  1.0  -0.1135
  C  C4270  1  0.074680  0.361340  0.128780  1.0  -0.0796
  C  C4271  1  0.741350  0.694670  0.462120  1.0  -0.0789
  C  C4272  1  0.408010  0.028010  0.795450  1.0  -0.0796
  C  C4273  1  0.066940  0.336500  0.124440  1.0  -0.1121
  C  C4274  1  0.733610  0.669830  0.457770  1.0  -0.1121
  C  C4275  1  0.400280  0.003170  0.791100  1.0  -0.1105
  C  C4276  1  0.085820  0.323990  0.124310  1.0  -0.0788
  C  C4277  1  0.752480  0.657320  0.457640  1.0  -0.0786
  C  C4278  1  0.419150  0.990660  0.790980  1.0  -0.0823
  C  C4279  1  0.111250  0.335440  0.128610  1.0  -0.126
  C  C4280  1  0.777920  0.668770  0.461940  1.0  -0.112
  C  C4281  1  0.444590  0.002100  0.795270  1.0  -0.1125
  C  C4282  1  0.118780  0.360030  0.133050  1.0  0.0425
  C  C4283  1  0.785440  0.693360  0.466380  1.0  0.0399
  C  C4284  1  0.452110  0.026690  0.799710  1.0  0.0398
  C  C4285  1  0.338550  0.216710  0.034970  1.0  -0.1405
  C  C4286  1  0.005210  0.550050  0.368300  1.0  -0.1411
  C  C4287  1  0.671880  0.883380  0.701630  1.0  -0.1415
  C  C4288  1  0.349730  0.239280  0.040050  1.0  -0.0789
  C  C4289  1  0.016400  0.572610  0.373390  1.0  -0.0795
  C  C4290  1  0.683060  0.905950  0.706720  1.0  -0.0792
  C  C4291  1  0.337600  0.258290  0.040790  1.0  -0.0853
  C  C4292  1  0.004260  0.591620  0.374130  1.0  -0.0795
  C  C4293  1  0.670930  0.924950  0.707460  1.0  -0.0917
  C  C4294  1  0.313740  0.253910  0.036450  1.0  -0.0809
  C  C4295  1  0.980400  0.587240  0.369780  1.0  -0.0788
  C  C4296  1  0.647070  0.920580  0.703110  1.0  -0.0766
  C  C4297  1  0.302240  0.231070  0.031470  1.0  -0.1517
  C  C4298  1  0.968900  0.564400  0.364810  1.0  -0.1481
  C  C4299  1  0.635570  0.897740  0.698140  1.0  -0.1485
  C  C4300  1  0.314680  0.212390  0.030610  1.0  0.0778
  C  C4301  1  0.981350  0.545730  0.363940  1.0  0.0827
  C  C4302  1  0.648010  0.879060  0.697280  1.0  0.0777
  C  C4303  1  0.292990  0.193840  0.018710  1.0  -0.1502
  C  C4304  1  0.959650  0.527170  0.352050  1.0  -0.15
  C  C4305  1  0.626320  0.860510  0.685380  1.0  -0.149
  C  C4306  1  0.280820  0.171400  0.013640  1.0  -0.0795
  C  C4307  1  0.947490  0.504740  0.346970  1.0  -0.0752
  C  C4308  1  0.614150  0.838070  0.680310  1.0  -0.0793
  C  C4309  1  0.278710  0.143450  0.014810  1.0  -0.0808
  C  C4310  1  0.945370  0.476780  0.348150  1.0  -0.0764
  C  C4311  1  0.612040  0.810120  0.681480  1.0  -0.0811
  C  C4312  1  0.289010  0.138410  0.021180  1.0  -0.0802
  C  C4313  1  0.955680  0.471750  0.354510  1.0  -0.0804
  C  C4314  1  0.622340  0.805080  0.687850  1.0  -0.0806
  C  C4315  1  0.300690  0.160730  0.026320  1.0  -0.1458
  C  C4316  1  0.967350  0.494060  0.359650  1.0  -0.1424
  C  C4317  1  0.634020  0.827400  0.692980  1.0  -0.1432
  C  C4318  1  0.302770  0.188700  0.025140  1.0  0.0652
  C  C4319  1  0.969430  0.522030  0.358480  1.0  0.0785
  C  C4320  1  0.636100  0.855370  0.691810  1.0  0.0717
  C  C4321  1  0.650730  0.837410  0.195270  1.0  -0.134
  C  C4322  1  0.317400  0.170740  0.528610  1.0  -0.1348
  C  C4323  1  0.984060  0.504070  0.861940  1.0  -0.1348
  C  C4324  1  0.662080  0.826010  0.200290  1.0  -0.0847
  C  C4325  1  0.328740  0.159350  0.533620  1.0  -0.0869
  C  C4326  1  0.995410  0.492680  0.866950  1.0  -0.0875
  C  C4327  1  0.671630  0.840130  0.206820  1.0  -0.0801
  C  C4328  1  0.338300  0.173460  0.540150  1.0  -0.079
  C  C4329  1  0.004970  0.506790  0.873480  1.0  -0.0796
  C  C4330  1  0.669590  0.865850  0.208230  1.0  -0.0839
  C  C4331  1  0.336260  0.199190  0.541560  1.0  -0.0838
  C  C4332  1  0.002920  0.532520  0.874890  1.0  -0.0802
  C  C4333  1  0.657750  0.876920  0.203260  1.0  -0.1384
  C  C4334  1  0.324420  0.210250  0.536590  1.0  -0.137
  C  C4335  1  0.991080  0.543590  0.869930  1.0  -0.1386
  C  C4336  1  0.648210  0.862860  0.196720  1.0  0.0799
  C  C4337  1  0.314870  0.196190  0.530050  1.0  0.0829
  C  C4338  1  0.981540  0.529520  0.863390  1.0  0.0811
  C  C4339  1  0.611910  0.855110  0.187060  1.0  -0.1342
  C  C4340  1  0.278580  0.188440  0.520390  1.0  -0.1353
  C  C4341  1  0.945250  0.521770  0.853730  1.0  -0.1338
  C  C4342  1  0.600270  0.866370  0.182080  1.0  -0.0858
  C  C4343  1  0.266930  0.199710  0.515410  1.0  -0.0857
  C  C4344  1  0.933600  0.533040  0.848750  1.0  -0.0867
  C  C4345  1  0.611790  0.897470  0.181460  1.0  -0.0689
  C  C4346  1  0.278460  0.230800  0.514800  1.0  -0.0749
  C  C4347  1  0.945120  0.564140  0.848130  1.0  -0.085
  C  C4348  1  0.635390  0.917040  0.185870  1.0  -0.0816
  C  C4349  1  0.302060  0.250380  0.519200  1.0  -0.0862
  C  C4350  1  0.968730  0.583710  0.852540  1.0  -0.083
  C  C4351  1  0.647360  0.905810  0.190750  1.0  -0.1363
  C  C4352  1  0.314020  0.239140  0.524090  1.0  -0.1569
  C  C4353  1  0.980690  0.572480  0.857420  1.0  -0.139
  C  C4354  1  0.635670  0.874710  0.191440  1.0  0.0826
  C  C4355  1  0.302330  0.208040  0.524770  1.0  0.0815
  C  C4356  1  0.969000  0.541380  0.858110  1.0  0.0831
  C  C4357  1  0.644530  0.912890  0.255840  1.0  -0.1301
  C  C4358  1  0.311200  0.246220  0.589180  1.0  -0.1308
  C  C4359  1  0.977870  0.579550  0.922510  1.0  -0.1158
  C  C4360  1  0.632560  0.926630  0.260030  1.0  -0.0831
  C  C4361  1  0.299220  0.259970  0.593370  1.0  -0.0766
  C  C4362  1  0.965890  0.593300  0.926700  1.0  -0.077
  C  C4363  1  0.607710  0.909360  0.264370  1.0  -0.1141
  C  C4364  1  0.274380  0.242690  0.597710  1.0  -0.1101
  C  C4365  1  0.941040  0.576020  0.931040  1.0  -0.1122
  C  C4366  1  0.595360  0.877980  0.264480  1.0  -0.0825
  C  C4367  1  0.262020  0.211320  0.597810  1.0  -0.0749
  C  C4368  1  0.928690  0.544650  0.931140  1.0  -0.0757
  C  C4369  1  0.606980  0.864170  0.260170  1.0  -0.1126
  C  C4370  1  0.273650  0.197510  0.593510  1.0  -0.125
  C  C4371  1  0.940310  0.530840  0.926840  1.0  -0.1127
  C  C4372  1  0.631590  0.881420  0.255750  1.0  0.0416
  C  C4373  1  0.298260  0.214750  0.589080  1.0  0.0438
  C  C4374  1  0.964930  0.548080  0.922410  1.0  0.0435
  C  C4375  1  0.643050  0.840170  0.252730  1.0  -0.1128
  C  C4376  1  0.309720  0.173500  0.586060  1.0  -0.1384
  C  C4377  1  0.976390  0.506830  0.919390  1.0  -0.1341
  C  C4378  1  0.653790  0.826560  0.248080  1.0  -0.0906
  C  C4379  1  0.320460  0.159900  0.581410  1.0  -0.0907
  C  C4380  1  0.987130  0.493230  0.914750  1.0  -0.0893
  C  C4381  1  0.665430  0.839570  0.241530  1.0  -0.1068
  C  C4382  1  0.332100  0.172900  0.574860  1.0  -0.1088
  C  C4383  1  0.998770  0.506230  0.908200  1.0  -0.1079
  C  C4384  1  0.665610  0.866140  0.239710  1.0  -0.0711
  C  C4385  1  0.332270  0.199470  0.573040  1.0  -0.0715
  C  C4386  1  0.998940  0.532800  0.906370  1.0  -0.0716
  C  C4387  1  0.654390  0.879340  0.244280  1.0  -0.1411
  C  C4388  1  0.321060  0.212680  0.577610  1.0  -0.1565
  C  C4389  1  0.987730  0.546010  0.910940  1.0  -0.142
  C  C4390  1  0.643210  0.866780  0.250880  1.0  0.0704
  C  C4391  1  0.309880  0.200110  0.584220  1.0  0.0674
  C  C4392  1  0.976550  0.533450  0.917550  1.0  0.0671
  C  C4393  1  0.971430  0.505230  0.302720  1.0  -0.1243
  C  C4394  1  0.638100  0.838560  0.636050  1.0  -0.125
  C  C4395  1  0.304760  0.171900  0.969380  1.0  -0.1141
  C  C4396  1  0.960920  0.480870  0.307340  1.0  -0.0825
  C  C4397  1  0.627580  0.814200  0.640680  1.0  -0.0821
  C  C4398  1  0.294250  0.147540  0.974010  1.0  -0.0825
  C  C4399  1  0.949130  0.482010  0.313890  1.0  -0.1116
  C  C4400  1  0.615800  0.815340  0.647220  1.0  -0.1167
  C  C4401  1  0.282460  0.148680  0.980560  1.0  -0.1122
  C  C4402  1  0.948630  0.508230  0.315740  1.0  -0.0726
  C  C4403  1  0.615290  0.841560  0.649070  1.0  -0.0729
  C  C4404  1  0.281960  0.174900  0.982410  1.0  -0.0723
  C  C4405  1  0.959650  0.532690  0.311190  1.0  -0.154
  C  C4406  1  0.626320  0.866020  0.644530  1.0  -0.1535
  C  C4407  1  0.292980  0.199350  0.977860  1.0  -0.1526
  C  C4408  1  0.970930  0.531510  0.304580  1.0  0.0714
  C  C4409  1  0.637600  0.864840  0.637910  1.0  0.064
  C  C4410  1  0.304270  0.198180  0.971250  1.0  0.0689
  C  C4411  1  0.006870  0.565300  0.295280  1.0  -0.1244
  C  C4412  1  0.673540  0.898630  0.628610  1.0  -0.1138
  C  C4413  1  0.340210  0.231960  0.961940  1.0  -0.1128
  C  C4414  1  0.018300  0.590730  0.290990  1.0  -0.0779
  C  C4415  1  0.684970  0.924070  0.624320  1.0  -0.0775
  C  C4416  1  0.351640  0.257400  0.957650  1.0  -0.0765
  C  C4417  1  0.005860  0.609650  0.291150  1.0  -0.1089
  C  C4418  1  0.672530  0.942980  0.624480  1.0  -0.1038
  C  C4419  1  0.339190  0.276320  0.957810  1.0  -0.1111
  C  C4420  1  0.981090  0.601970  0.295520  1.0  -0.0807
  C  C4421  1  0.647760  0.935300  0.628860  1.0  -0.0814
  C  C4422  1  0.314430  0.268630  0.962190  1.0  -0.0814
  C  C4423  1  0.969280  0.576210  0.299690  1.0  -0.1116
  C  C4424  1  0.635950  0.909550  0.633030  1.0  -0.1113
  C  C4425  1  0.302610  0.242880  0.966360  1.0  -0.1129
  C  C4426  1  0.982340  0.557790  0.299740  1.0  0.0422
  C  C4427  1  0.649010  0.891130  0.633070  1.0  0.0448
  C  C4428  1  0.315670  0.224460  0.966410  1.0  0.0418
  C  C4429  1  0.169620  0.400950  0.260320  1.0  -0.1141
  C  C4430  1  0.836290  0.734290  0.593650  1.0  -0.1143
  C  C4431  1  0.502950  0.067620  0.926990  1.0  -0.1154
  C  C4432  1  0.194850  0.412270  0.264680  1.0  -0.0771
  C  C4433  1  0.861520  0.745600  0.598020  1.0  -0.0757
  C  C4434  1  0.528180  0.078940  0.931350  1.0  -0.0753
  C  C4435  1  0.214040  0.400140  0.264500  1.0  -0.1126
  C  C4436  1  0.880710  0.733470  0.597840  1.0  -0.1116
  C  C4437  1  0.547380  0.066800  0.931170  1.0  -0.1154
  C  C4438  1  0.206850  0.375810  0.260020  1.0  -0.0812
  C  C4439  1  0.873510  0.709140  0.593350  1.0  -0.0797
  C  C4440  1  0.540180  0.042470  0.926690  1.0  -0.0802
  C  C4441  1  0.181330  0.364130  0.255770  1.0  -0.113
  C  C4442  1  0.847990  0.697460  0.589100  1.0  -0.1155
  C  C4443  1  0.514660  0.030790  0.922440  1.0  -0.1146
  C  C4444  1  0.162620  0.376860  0.255760  1.0  0.0413
  C  C4445  1  0.829280  0.710190  0.589090  1.0  0.0462
  C  C4446  1  0.495950  0.043520  0.922420  1.0  0.0399
  C  C4447  1  0.109850  0.365270  0.252740  1.0  -0.1376
  C  C4448  1  0.776520  0.698610  0.586080  1.0  -0.114
  C  C4449  1  0.443190  0.031940  0.919410  1.0  -0.1144
  C  C4450  1  0.085570  0.354640  0.248090  1.0  -0.0821
  C  C4451  1  0.752240  0.687980  0.581420  1.0  -0.0855
  C  C4452  1  0.418900  0.021310  0.914750  1.0  -0.0799
  C  C4453  1  0.087160  0.343490  0.241490  1.0  -0.1151
  C  C4454  1  0.753820  0.676830  0.574820  1.0  -0.1155
  C  C4455  1  0.420490  0.010160  0.908160  1.0  -0.1154
  C  C4456  1  0.113760  0.343780  0.239620  1.0  -0.0796
  C  C4457  1  0.780430  0.677120  0.572950  1.0  -0.0797
  C  C4458  1  0.447100  0.010450  0.906290  1.0  -0.0796
  C  C4459  1  0.138130  0.354900  0.244200  1.0  -0.1372
  C  C4460  1  0.804800  0.688230  0.577530  1.0  -0.1365
  C  C4461  1  0.471470  0.021560  0.910870  1.0  -0.1384
  C  C4462  1  0.136490  0.365500  0.250860  1.0  0.0669
  C  C4463  1  0.803160  0.698830  0.584200  1.0  0.0649
  C  C4464  1  0.469820  0.032170  0.917530  1.0  0.0685
  C  C4465  1  0.440890  0.024500  0.305010  1.0  -0.1208
  C  C4466  1  0.107550  0.357840  0.638340  1.0  -0.1207
  C  C4467  1  0.774220  0.691170  0.971680  1.0  -0.1367
  C  C4468  1  0.427380  0.035930  0.309490  1.0  -0.0885
  C  C4469  1  0.094040  0.369260  0.642820  1.0  -0.0796
  C  C4470  1  0.760710  0.702590  0.976160  1.0  -0.0885
  C  C4471  1  0.445070  0.060690  0.313830  1.0  -0.1102
  C  C4472  1  0.111740  0.394020  0.647160  1.0  -0.1086
  C  C4473  1  0.778400  0.727350  0.980490  1.0  -0.109
  C  C4474  1  0.476540  0.074220  0.313430  1.0  -0.0854
  C  C4475  1  0.143210  0.407550  0.646760  1.0  -0.0856
  C  C4476  1  0.809870  0.740890  0.980090  1.0  -0.0854
  C  C4477  1  0.489980  0.063100  0.308890  1.0  -0.1303
  C  C4478  1  0.156640  0.396430  0.642230  1.0  -0.1319
  C  C4479  1  0.823310  0.729770  0.975560  1.0  -0.1338
  C  C4480  1  0.472390  0.037800  0.304700  1.0  0.0439
  C  C4481  1  0.139060  0.371130  0.638040  1.0  0.0424
  C  C4482  1  0.805720  0.704470  0.971370  1.0  0.0438
  C  C4483  1  0.475220  0.012810  0.293580  1.0  -0.1393
  C  C4484  1  0.141880  0.346150  0.626920  1.0  -0.1389
  C  C4485  1  0.808550  0.679480  0.960250  1.0  -0.1386
  C  C4486  1  0.489100  0.000890  0.289390  1.0  -0.0834
  C  C4487  1  0.155760  0.334220  0.622720  1.0  -0.083
  C  C4488  1  0.822430  0.667560  0.956060  1.0  -0.0843
  C  C4489  1  0.515330  0.001270  0.291660  1.0  -0.0983
  C  C4490  1  0.181990  0.334600  0.624990  1.0  -0.0972
  C  C4491  1  0.848660  0.667940  0.958320  1.0  -0.0979
  C  C4492  1  0.527170  0.013690  0.298230  1.0  -0.0769
  C  C4493  1  0.193840  0.347030  0.631570  1.0  -0.0783
  C  C4494  1  0.860510  0.680360  0.964900  1.0  -0.0782
  C  C4495  1  0.513110  0.025230  0.302450  1.0  -0.1286
  C  C4496  1  0.179770  0.358560  0.635780  1.0  -0.1293
  C  C4497  1  0.846440  0.691900  0.969110  1.0  -0.1294
  C  C4498  1  0.487030  0.025120  0.300180  1.0  0.0732
  C  C4499  1  0.153690  0.358450  0.633510  1.0  0.0738
  C  C4500  1  0.820360  0.691780  0.966840  1.0  0.0742
  C  C4501  1  0.103130  0.837340  0.190940  1.0  -0.1324
  C  C4502  1  0.769800  0.170680  0.524280  1.0  -0.1394
  C  C4503  1  0.436470  0.504010  0.857610  1.0  -0.1327
  C  C4504  1  0.091770  0.814030  0.186080  1.0  -0.0746
  C  C4505  1  0.758440  0.147360  0.519410  1.0  -0.0749
  C  C4506  1  0.425110  0.480690  0.852750  1.0  -0.0748
  C  C4507  1  0.111250  0.809970  0.181640  1.0  -0.086
  C  C4508  1  0.777910  0.143300  0.514970  1.0  -0.0737
  C  C4509  1  0.444580  0.476630  0.848310  1.0  -0.0805
  C  C4510  1  0.142370  0.829600  0.182220  1.0  -0.0757
  C  C4511  1  0.809040  0.162930  0.515550  1.0  -0.0776
  C  C4512  1  0.475710  0.496260  0.848880  1.0  -0.0768
  C  C4513  1  0.153770  0.852630  0.187180  1.0  -0.1296
  C  C4514  1  0.820430  0.185960  0.520510  1.0  -0.1321
  C  C4515  1  0.487100  0.519290  0.853850  1.0  -0.1298
  C  C4516  1  0.134260  0.856850  0.191580  1.0  0.0815
  C  C4517  1  0.800930  0.190180  0.524920  1.0  0.0856
  C  C4518  1  0.467600  0.523510  0.858250  1.0  0.0815
  C  C4519  1  0.171680  0.909400  0.195340  1.0  -0.1414
  C  C4520  1  0.838350  0.242740  0.528670  1.0  -0.1412
  C  C4521  1  0.505010  0.576070  0.862000  1.0  -0.1418
  C  C4522  1  0.183200  0.932320  0.200320  1.0  -0.0889
  C  C4523  1  0.849870  0.265650  0.533650  1.0  -0.0891
  C  C4524  1  0.516530  0.598990  0.866990  1.0  -0.0871
  C  C4525  1  0.169250  0.927940  0.206870  1.0  -0.0785
  C  C4526  1  0.835910  0.261270  0.540200  1.0  -0.0837
  C  C4527  1  0.502580  0.594610  0.873530  1.0  -0.083
  C  C4528  1  0.143550  0.900160  0.208330  1.0  -0.08
  C  C4529  1  0.810220  0.233490  0.541660  1.0  -0.0805
  C  C4530  1  0.476890  0.566830  0.874990  1.0  -0.0795
  C  C4531  1  0.132360  0.877090  0.203390  1.0  -0.1319
  C  C4532  1  0.799030  0.210420  0.536720  1.0  -0.1322
  C  C4533  1  0.465700  0.543750  0.870060  1.0  -0.1338
  C  C4534  1  0.146260  0.881430  0.196830  1.0  0.0825
  C  C4535  1  0.812930  0.214760  0.530170  1.0  0.0808
  C  C4536  1  0.479590  0.548100  0.863500  1.0  0.0762
  C  C4537  1  0.800200  0.210630  0.037380  1.0  -0.1375
  C  C4538  1  0.466860  0.543960  0.370710  1.0  -0.1364
  C  C4539  1  0.133530  0.877290  0.704050  1.0  -0.141
  C  C4540  1  0.776940  0.199620  0.042280  1.0  -0.0728
  C  C4541  1  0.443610  0.532960  0.375610  1.0  -0.072
  C  C4542  1  0.110270  0.866290  0.708950  1.0  -0.074
  C  C4543  1  0.748970  0.174300  0.040750  1.0  -0.0818
  C  C4544  1  0.415630  0.507640  0.374080  1.0  -0.0837
  C  C4545  1  0.082300  0.840970  0.707420  1.0  -0.084
  C  C4546  1  0.744580  0.160580  0.034180  1.0  -0.0882
  C  C4547  1  0.411250  0.493910  0.367510  1.0  -0.0866
  C  C4548  1  0.077910  0.827250  0.700840  1.0  -0.086
  C  C4549  1  0.767660  0.171890  0.029240  1.0  -0.1412
  C  C4550  1  0.434330  0.505220  0.362570  1.0  -0.1407
  C  C4551  1  0.101000  0.838560  0.695910  1.0  -0.1407
  C  C4552  1  0.795840  0.196870  0.030800  1.0  0.0798
  C  C4553  1  0.462510  0.530210  0.364140  1.0  0.0754
  C  C4554  1  0.129170  0.863540  0.697470  1.0  0.0815
  C  C4555  1  0.824300  0.188800  0.021170  1.0  -0.1414
  C  C4556  1  0.490970  0.522130  0.354500  1.0  -0.142
  C  C4557  1  0.157640  0.855470  0.687840  1.0  -0.1405
  C  C4558  1  0.847060  0.199870  0.016140  1.0  -0.0823
  C  C4559  1  0.513730  0.533200  0.349480  1.0  -0.0839
  C  C4560  1  0.180400  0.866530  0.682810  1.0  -0.0816
  C  C4561  1  0.866870  0.230920  0.015500  1.0  -0.087
  C  C4562  1  0.533540  0.564250  0.348830  1.0  -0.0851
  C  C4563  1  0.200200  0.897590  0.682170  1.0  -0.0797
  C  C4564  1  0.863420  0.250640  0.019980  1.0  -0.0845
  C  C4565  1  0.530090  0.583970  0.353320  1.0  -0.0844
  C  C4566  1  0.196750  0.917310  0.686650  1.0  -0.0841
  C  C4567  1  0.840370  0.239600  0.024930  1.0  -0.1457
  C  C4568  1  0.507040  0.572930  0.358260  1.0  -0.1452
  C  C4569  1  0.173700  0.906260  0.691590  1.0  -0.1448
  C  C4570  1  0.820530  0.208560  0.025580  1.0  0.0797
  C  C4571  1  0.487200  0.541890  0.358910  1.0  0.0797
  C  C4572  1  0.153860  0.875220  0.692250  1.0  0.0819
  C  C4573  1  0.475590  0.523230  0.311710  1.0  -0.1483
  C  C4574  1  0.142260  0.856570  0.645040  1.0  -0.1394
  C  C4575  1  0.808930  0.189900  0.978370  1.0  -0.1394
  C  C4576  1  0.500170  0.536540  0.316230  1.0  -0.0785
  C  C4577  1  0.166830  0.869880  0.649570  1.0  -0.0782
  C  C4578  1  0.833500  0.203210  0.982900  1.0  -0.079
  C  C4579  1  0.526690  0.562890  0.314320  1.0  -0.1143
  C  C4580  1  0.193360  0.896220  0.647650  1.0  -0.1135
  C  C4581  1  0.860020  0.229550  0.980990  1.0  -0.1129
  C  C4582  1  0.528010  0.575550  0.307740  1.0  -0.0822
  C  C4583  1  0.194680  0.908890  0.641070  1.0  -0.0836
  C  C4584  1  0.861340  0.242220  0.974400  1.0  -0.0834
  C  C4585  1  0.503530  0.561850  0.303140  1.0  -0.1362
  C  C4586  1  0.170190  0.895180  0.636470  1.0  -0.1374
  C  C4587  1  0.836860  0.228510  0.969800  1.0  -0.1147
  C  C4588  1  0.476950  0.535460  0.305060  1.0  0.0657
  C  C4589  1  0.143610  0.868790  0.638400  1.0  0.0702
  C  C4590  1  0.810280  0.202120  0.971730  1.0  0.0702
  C  C4591  1  0.443480  0.537820  0.295720  1.0  -0.1151
  C  C4592  1  0.110150  0.871160  0.629050  1.0  -0.116
  C  C4593  1  0.776810  0.204490  0.962380  1.0  -0.1153
  C  C4594  1  0.418090  0.523930  0.291400  1.0  -0.0741
  C  C4595  1  0.084750  0.857270  0.624740  1.0  -0.0765
  C  C4596  1  0.751420  0.190600  0.958070  1.0  -0.0744
  C  C4597  1  0.398820  0.492600  0.291590  1.0  -0.1138
  C  C4598  1  0.065480  0.825930  0.624920  1.0  -0.1131
  C  C4599  1  0.732150  0.159270  0.958260  1.0  -0.1135
  C  C4600  1  0.406080  0.475440  0.296030  1.0  -0.0843
  C  C4601  1  0.072740  0.808770  0.629370  1.0  -0.0835
  C  C4602  1  0.739410  0.142110  0.962700  1.0  -0.0846
  C  C4603  1  0.431760  0.489250  0.300230  1.0  -0.1349
  C  C4604  1  0.098430  0.822590  0.633570  1.0  -0.1238
  C  C4605  1  0.765090  0.155920  0.966900  1.0  -0.1264
  C  C4606  1  0.450580  0.520700  0.300230  1.0  0.0449
  C  C4607  1  0.117250  0.854030  0.633570  1.0  0.045
  C  C4608  1  0.783920  0.187370  0.966900  1.0  0.041
  C  C4609  1  0.096210  0.828240  0.255710  1.0  -0.1125
  C  C4610  1  0.762880  0.161570  0.589050  1.0  -0.1132
  C  C4611  1  0.429550  0.494910  0.922380  1.0  -0.1132
  C  C4612  1  0.082190  0.802550  0.259900  1.0  -0.0819
  C  C4613  1  0.748860  0.135880  0.593240  1.0  -0.0832
  C  C4614  1  0.415530  0.469210  0.926570  1.0  -0.0811
  C  C4615  1  0.099200  0.794990  0.264320  1.0  -0.1123
  C  C4616  1  0.765870  0.128330  0.597650  1.0  -0.1126
  C  C4617  1  0.432540  0.461660  0.930990  1.0  -0.1118
  C  C4618  1  0.130590  0.814010  0.264500  1.0  -0.0783
  C  C4619  1  0.797260  0.147340  0.597830  1.0  -0.0785
  C  C4620  1  0.463920  0.480680  0.931170  1.0  -0.0781
  C  C4621  1  0.144680  0.839410  0.260190  1.0  -0.1121
  C  C4622  1  0.811350  0.172750  0.593530  1.0  -0.1126
  C  C4623  1  0.478020  0.506080  0.926860  1.0  -0.1123
  C  C4624  1  0.127710  0.846760  0.255690  1.0  0.0448
  C  C4625  1  0.794380  0.180090  0.589020  1.0  0.0425
  C  C4626  1  0.461050  0.513420  0.922360  1.0  0.0415
  C  C4627  1  0.130380  0.871510  0.244180  1.0  -0.1495
  C  C4628  1  0.797040  0.204840  0.577520  1.0  -0.1465
  C  C4629  1  0.463710  0.538180  0.910850  1.0  -0.1502
  C  C4630  1  0.143740  0.895930  0.239620  1.0  -0.0679
  C  C4631  1  0.810410  0.229270  0.572960  1.0  -0.0724
  C  C4632  1  0.477070  0.562600  0.906290  1.0  -0.068
  C  C4633  1  0.170200  0.922420  0.241490  1.0  -0.1122
  C  C4634  1  0.836860  0.255760  0.574830  1.0  -0.1131
  C  C4635  1  0.503530  0.589090  0.908160  1.0  -0.1137
  C  C4636  1  0.182980  0.923830  0.248070  1.0  -0.0888
  C  C4637  1  0.849640  0.257160  0.581400  1.0  -0.0886
  C  C4638  1  0.516310  0.590500  0.914730  1.0  -0.0883
  C  C4639  1  0.169200  0.899470  0.252700  1.0  -0.1247
  C  C4640  1  0.835870  0.232810  0.586040  1.0  -0.1244
  C  C4641  1  0.502540  0.566140  0.919370  1.0  -0.1121
  C  C4642  1  0.142640  0.872970  0.250830  1.0  0.0687
  C  C4643  1  0.809310  0.206300  0.584160  1.0  0.0689
  C  C4644  1  0.475980  0.539630  0.917490  1.0  0.0698
  C  C4645  1  0.855140  0.241320  0.086730  1.0  -0.1407
  C  C4646  1  0.521800  0.574650  0.420060  1.0  -0.1396
  C  C4647  1  0.188470  0.907980  0.753400  1.0  -0.1398
  C  C4648  1  0.880970  0.255500  0.090870  1.0  -0.0884
  C  C4649  1  0.547640  0.588830  0.424200  1.0  -0.0887
  C  C4650  1  0.214310  0.922170  0.757530  1.0  -0.0874
  C  C4651  1  0.881950  0.243670  0.097410  1.0  -0.098
  C  C4652  1  0.548610  0.577010  0.430740  1.0  -0.101
  C  C4653  1  0.215280  0.910340  0.764080  1.0  -0.0964
  C  C4654  1  0.856260  0.217330  0.099720  1.0  -0.0848
  C  C4655  1  0.522930  0.550660  0.433060  1.0  -0.0822
  C  C4656  1  0.189590  0.884000  0.766390  1.0  -0.0851
  C  C4657  1  0.830240  0.203320  0.095610  1.0  -0.1411
  C  C4658  1  0.496900  0.536650  0.428940  1.0  -0.1408
  C  C4659  1  0.163570  0.869980  0.762270  1.0  -0.1408
  C  C4660  1  0.829340  0.215120  0.089050  1.0  0.0754
  C  C4661  1  0.496010  0.548450  0.422380  1.0  0.0751
  C  C4662  1  0.162680  0.881790  0.755710  1.0  0.0743
  C  C4663  1  0.783800  0.168860  0.084240  1.0  -0.1371
  C  C4664  1  0.450470  0.502190  0.417580  1.0  -0.1231
  C  C4665  1  0.117140  0.835520  0.750910  1.0  -0.1214
  C  C4666  1  0.758810  0.155280  0.079780  1.0  -0.0943
  C  C4667  1  0.425480  0.488620  0.413120  1.0  -0.0953
  C  C4668  1  0.092140  0.821950  0.746450  1.0  -0.0949
  C  C4669  1  0.751480  0.172950  0.075520  1.0  -0.1097
  C  C4670  1  0.418150  0.506280  0.408850  1.0  -0.1107
  C  C4671  1  0.084820  0.839610  0.742180  1.0  -0.1092
  C  C4672  1  0.769110  0.204420  0.076000  1.0  -0.0822
  C  C4673  1  0.435780  0.537750  0.409340  1.0  -0.086
  C  C4674  1  0.102440  0.871080  0.742670  1.0  -0.0842
  C  C4675  1  0.793720  0.217900  0.080510  1.0  -0.1197
  C  C4676  1  0.460390  0.551230  0.413840  1.0  -0.1279
  C  C4677  1  0.127050  0.884570  0.747180  1.0  -0.1191
  C  C4678  1  0.801800  0.200370  0.084600  1.0  0.0409
  C  C4679  1  0.468470  0.533710  0.417930  1.0  0.0399
  C  C4680  1  0.135130  0.867040  0.751270  1.0  0.041
  C  C4681  1  0.798820  0.685490  0.037000  1.0  -0.1366
  C  C4682  1  0.465490  0.018820  0.370330  1.0  -0.1343
  C  C4683  1  0.132160  0.352150  0.703660  1.0  -0.1336
  C  C4684  1  0.810050  0.673730  0.041950  1.0  -0.0706
  C  C4685  1  0.476710  0.007060  0.375290  1.0  -0.0712
  C  C4686  1  0.143380  0.340390  0.708620  1.0  -0.0712
  C  C4687  1  0.835480  0.671250  0.040460  1.0  -0.0849
  C  C4688  1  0.502140  0.004580  0.373790  1.0  -0.083
  C  C4689  1  0.168810  0.337920  0.707120  1.0  -0.0824
  C  C4690  1  0.849100  0.680260  0.033860  1.0  -0.0839
  C  C4691  1  0.515770  0.013590  0.367200  1.0  -0.0835
  C  C4692  1  0.182440  0.346930  0.700530  1.0  -0.0838
  C  C4693  1  0.837570  0.691530  0.028870  1.0  -0.1403
  C  C4694  1  0.504240  0.024860  0.362210  1.0  -0.1436
  C  C4695  1  0.170900  0.358190  0.695540  1.0  -0.143
  C  C4696  1  0.812460  0.694540  0.030400  1.0  0.0791
  C  C4697  1  0.479130  0.027870  0.363730  1.0  0.081
  C  C4698  1  0.145790  0.361200  0.697060  1.0  0.0823
  C  C4699  1  0.820140  0.730460  0.020660  1.0  -0.1328
  C  C4700  1  0.486810  0.063790  0.354000  1.0  -0.1299
  C  C4701  1  0.153470  0.397130  0.687330  1.0  -0.1327
  C  C4702  1  0.808870  0.741940  0.015640  1.0  -0.0825
  C  C4703  1  0.475540  0.075270  0.348980  1.0  -0.0827
  C  C4704  1  0.142200  0.408600  0.682310  1.0  -0.0825
  C  C4705  1  0.777780  0.730610  0.015070  1.0  -0.0812
  C  C4706  1  0.444450  0.063940  0.348400  1.0  -0.0883
  C  C4707  1  0.111120  0.397270  0.681740  1.0  -0.0884
  C  C4708  1  0.758220  0.707440  0.019580  1.0  -0.0837
  C  C4709  1  0.424890  0.040770  0.352910  1.0  -0.0846
  C  C4710  1  0.091560  0.374100  0.686250  1.0  -0.0829
  C  C4711  1  0.769470  0.695640  0.024510  1.0  -0.1373
  C  C4712  1  0.436130  0.028980  0.357840  1.0  -0.1372
  C  C4713  1  0.102800  0.362310  0.691170  1.0  -0.1376
  C  C4714  1  0.800560  0.707060  0.025130  1.0  0.087
  C  C4715  1  0.467220  0.040400  0.358460  1.0  0.0816
  C  C4716  1  0.133890  0.373730  0.691790  1.0  0.0814
  C  C4717  1  0.806280  0.724320  0.095430  1.0  -0.1382
  C  C4718  1  0.472950  0.057650  0.428770  1.0  -0.1383
  C  C4719  1  0.139620  0.390990  0.762100  1.0  -0.1378
  C  C4720  1  0.792210  0.736110  0.099610  1.0  -0.079
  C  C4721  1  0.458880  0.069450  0.432940  1.0  -0.0773
  C  C4722  1  0.125550  0.402780  0.766270  1.0  -0.0809
  C  C4723  1  0.765730  0.735240  0.097350  1.0  -0.0997
  C  C4724  1  0.432400  0.068580  0.430680  1.0  -0.0999
  C  C4725  1  0.099060  0.401910  0.764020  1.0  -0.0984
  C  C4726  1  0.753800  0.722430  0.090810  1.0  -0.0755
  C  C4727  1  0.420470  0.055760  0.424140  1.0  -0.0766
  C  C4728  1  0.087140  0.389090  0.757470  1.0  -0.0765
  C  C4729  1  0.768050  0.711000  0.086610  1.0  -0.1395
  C  C4730  1  0.434720  0.044330  0.419950  1.0  -0.1393
  C  C4731  1  0.101380  0.377670  0.753280  1.0  -0.1395
  C  C4732  1  0.794410  0.711630  0.088870  1.0  0.0736
  C  C4733  1  0.461070  0.044960  0.422210  1.0  0.0735
  C  C4734  1  0.127740  0.378300  0.755540  1.0  0.0735
  C  C4735  1  0.791760  0.673470  0.080260  1.0  -0.119
  C  C4736  1  0.458420  0.006800  0.413590  1.0  -0.1276
  C  C4737  1  0.125090  0.340130  0.746920  1.0  -0.1299
  C  C4738  1  0.805310  0.662450  0.075730  1.0  -0.0821
  C  C4739  1  0.471980  0.995780  0.409070  1.0  -0.0832
  C  C4740  1  0.138640  0.329110  0.742400  1.0  -0.0824
  C  C4741  1  0.836800  0.676370  0.075260  1.0  -0.1104
  C  C4742  1  0.503460  0.009700  0.408590  1.0  -0.1092
  C  C4743  1  0.170130  0.343040  0.741920  1.0  -0.111
  C  C4744  1  0.854410  0.701400  0.079530  1.0  -0.0901
  C  C4745  1  0.521070  0.034730  0.412860  1.0  -0.09
  C  C4746  1  0.187740  0.368070  0.746200  1.0  -0.0889
  C  C4747  1  0.840760  0.712720  0.084010  1.0  -0.1211
  C  C4748  1  0.507430  0.046050  0.417340  1.0  -0.1214
  C  C4749  1  0.174100  0.379390  0.750670  1.0  -0.1209
  C  C4750  1  0.809230  0.699060  0.084370  1.0  0.0413
  C  C4751  1  0.475900  0.032390  0.417700  1.0  0.0424
  C  C4752  1  0.142560  0.365720  0.751040  1.0  0.04
  C  C4753  1  0.285800  0.178310  0.095650  1.0  -0.1422
  C  C4754  1  0.952460  0.511640  0.428990  1.0  -0.1431
  C  C4755  1  0.619130  0.844970  0.762320  1.0  -0.142
  C  C4756  1  0.273690  0.152550  0.099860  1.0  -0.0798
  C  C4757  1  0.940360  0.485880  0.433190  1.0  -0.08
  C  C4758  1  0.607030  0.819220  0.766520  1.0  -0.0791
  C  C4759  1  0.274260  0.126720  0.097650  1.0  -0.0975
  C  C4760  1  0.940930  0.460050  0.430980  1.0  -0.0973
  C  C4761  1  0.607590  0.793390  0.764320  1.0  -0.1007
  C  C4762  1  0.287080  0.127270  0.091130  1.0  -0.0815
  C  C4763  1  0.953750  0.460600  0.424460  1.0  -0.0804
  C  C4764  1  0.620410  0.793930  0.757790  1.0  -0.0832
  C  C4765  1  0.298790  0.152820  0.086900  1.0  -0.1305
  C  C4766  1  0.965460  0.486150  0.420230  1.0  -0.1309
  C  C4767  1  0.632120  0.819490  0.753560  1.0  -0.1369
  C  C4768  1  0.298460  0.178760  0.089110  1.0  0.0736
  C  C4769  1  0.965130  0.512100  0.422440  1.0  0.0741
  C  C4770  1  0.631790  0.845430  0.755770  1.0  0.0736
  C  C4771  1  0.336640  0.213710  0.080400  1.0  -0.1364
  C  C4772  1  0.003310  0.547050  0.413740  1.0  -0.1314
  C  C4773  1  0.669970  0.880380  0.747070  1.0  -0.1377
  C  C4774  1  0.347760  0.238120  0.075830  1.0  -0.0766
  C  C4775  1  0.014430  0.571450  0.409170  1.0  -0.0771
  C  C4776  1  0.681090  0.904780  0.742500  1.0  -0.0768
  C  C4777  1  0.334100  0.255880  0.075350  1.0  -0.1051
  C  C4778  1  0.000760  0.589210  0.408690  1.0  -0.1022
  C  C4779  1  0.667430  0.922550  0.742020  1.0  -0.1054
  C  C4780  1  0.309220  0.248830  0.079660  1.0  -0.091
  C  C4781  1  0.975890  0.582160  0.412990  1.0  -0.0813
  C  C4782  1  0.642560  0.915490  0.746320  1.0  -0.0883
  C  C4783  1  0.297790  0.224040  0.084170  1.0  -0.1164
  C  C4784  1  0.964460  0.557370  0.417500  1.0  -0.131
  C  C4785  1  0.631130  0.890700  0.750840  1.0  -0.1189
  C  C4786  1  0.311210  0.205980  0.084550  1.0  0.0423
  C  C4787  1  0.977870  0.539310  0.417890  1.0  0.0423
  C  C4788  1  0.644540  0.872650  0.751220  1.0  0.0441
  C  C4789  1  0.141410  0.891630  0.127090  1.0  -0.1365
  C  C4790  1  0.808080  0.224970  0.460420  1.0  -0.1374
  C  C4791  1  0.474740  0.558300  0.793760  1.0  -0.1364
  C  C4792  1  0.155330  0.917530  0.122930  1.0  -0.0837
  C  C4793  1  0.822000  0.250860  0.456270  1.0  -0.0817
  C  C4794  1  0.488660  0.584200  0.789600  1.0  -0.0828
  C  C4795  1  0.181690  0.943280  0.125200  1.0  -0.0965
  C  C4796  1  0.848360  0.276610  0.458540  1.0  -0.0966
  C  C4797  1  0.515020  0.609940  0.791870  1.0  -0.096
  C  C4798  1  0.193610  0.942520  0.131750  1.0  -0.082
  C  C4799  1  0.860280  0.275850  0.465090  1.0  -0.0819
  C  C4800  1  0.526950  0.609190  0.798420  1.0  -0.081
  C  C4801  1  0.179500  0.916820  0.135930  1.0  -0.1292
  C  C4802  1  0.846170  0.250150  0.469270  1.0  -0.1284
  C  C4803  1  0.512830  0.583480  0.802600  1.0  -0.1294
  C  C4804  1  0.153310  0.890940  0.133650  1.0  0.0784
  C  C4805  1  0.819970  0.224270  0.466980  1.0  0.08
  C  C4806  1  0.486640  0.557600  0.800320  1.0  0.079
  C  C4807  1  0.156260  0.855600  0.142250  1.0  -0.1268
  C  C4808  1  0.822930  0.188930  0.475580  1.0  -0.1237
  C  C4809  1  0.489590  0.522260  0.808920  1.0  -0.1273
  C  C4810  1  0.142840  0.830930  0.146750  1.0  -0.0752
  C  C4811  1  0.809500  0.164260  0.480080  1.0  -0.0766
  C  C4812  1  0.476170  0.497600  0.813410  1.0  -0.0778
  C  C4813  1  0.111360  0.813060  0.147180  1.0  -0.1031
  C  C4814  1  0.778030  0.146390  0.480510  1.0  -0.1
  C  C4815  1  0.444700  0.479730  0.813850  1.0  -0.1021
  C  C4816  1  0.093650  0.820280  0.142910  1.0  -0.082
  C  C4817  1  0.760320  0.153610  0.476240  1.0  -0.0818
  C  C4818  1  0.426980  0.486940  0.809570  1.0  -0.0818
  C  C4819  1  0.107150  0.845320  0.138460  1.0  -0.1205
  C  C4820  1  0.773820  0.178660  0.471800  1.0  -0.1205
  C  C4821  1  0.440490  0.511990  0.805130  1.0  -0.1202
  C  C4822  1  0.138660  0.863490  0.138130  1.0  0.0415
  C  C4823  1  0.805330  0.196820  0.471460  1.0  0.0437
  C  C4824  1  0.472000  0.530150  0.804800  1.0  0.0418
  C  C4825  1  0.648740  0.828520  0.135580  1.0  -0.1232
  C  C4826  1  0.315410  0.161850  0.468910  1.0  -0.1218
  C  C4827  1  0.982080  0.495180  0.802240  1.0  -0.1306
  C  C4828  1  0.660370  0.814450  0.131390  1.0  -0.0798
  C  C4829  1  0.327040  0.147790  0.464720  1.0  -0.0805
  C  C4830  1  0.993710  0.481120  0.798060  1.0  -0.0839
  C  C4831  1  0.673170  0.826460  0.124850  1.0  -0.0974
  C  C4832  1  0.339840  0.159790  0.458180  1.0  -0.0983
  C  C4833  1  0.006510  0.493120  0.791510  1.0  -0.0967
  C  C4834  1  0.673810  0.852810  0.122590  1.0  -0.0835
  C  C4835  1  0.340470  0.186140  0.455920  1.0  -0.0805
  C  C4836  1  0.007140  0.519480  0.789250  1.0  -0.0809
  C  C4837  1  0.661800  0.866680  0.126750  1.0  -0.144
  C  C4838  1  0.328460  0.200010  0.460080  1.0  -0.1439
  C  C4839  1  0.995130  0.533350  0.793420  1.0  -0.1432
  C  C4840  1  0.649150  0.854750  0.133310  1.0  0.0734
  C  C4841  1  0.315820  0.188080  0.466650  1.0  0.0732
  C  C4842  1  0.982480  0.521410  0.799980  1.0  0.0735
  C  C4843  1  0.650020  0.900970  0.138160  1.0  -0.137
  C  C4844  1  0.316690  0.234300  0.471490  1.0  -0.1231
  C  C4845  1  0.983350  0.567640  0.804820  1.0  -0.1377
  C  C4846  1  0.638690  0.914550  0.142640  1.0  -0.0966
  C  C4847  1  0.305360  0.247890  0.475970  1.0  -0.0882
  C  C4848  1  0.972020  0.581220  0.809300  1.0  -0.0962
  C  C4849  1  0.613810  0.896920  0.146950  1.0  -0.1046
  C  C4850  1  0.280470  0.230260  0.480290  1.0  -0.1062
  C  C4851  1  0.947140  0.563590  0.813620  1.0  -0.1055
  C  C4852  1  0.600000  0.865450  0.146510  1.0  -0.078
  C  C4853  1  0.266670  0.198790  0.479840  1.0  -0.0807
  C  C4854  1  0.933330  0.532120  0.813180  1.0  -0.0775
  C  C4855  1  0.611020  0.851950  0.141970  1.0  -0.118
  C  C4856  1  0.277690  0.185280  0.475310  1.0  -0.1291
  C  C4857  1  0.944360  0.518610  0.808640  1.0  -0.1215
  C  C4858  1  0.636490  0.869460  0.137820  1.0  0.0402
  C  C4859  1  0.303160  0.202790  0.471150  1.0  0.0428
  C  C4860  1  0.969830  0.536130  0.804490  1.0  0.0427
  O  O4861  1  0.276210  0.433530  0.164000  1.0  -1.1953
  O  O4862  1  0.942870  0.766860  0.497330  1.0  -1.1987
  O  O4863  1  0.609540  0.100200  0.830670  1.0  -1.195
  O  O4864  1  0.306380  0.436370  0.177260  1.0  -0.6031
  O  O4865  1  0.973050  0.769700  0.510590  1.0  -0.6034
  O  O4866  1  0.639720  0.103040  0.843930  1.0  -0.6031
  O  O4867  1  0.332250  0.471370  0.156350  1.0  -0.6091
  O  O4868  1  0.998920  0.804700  0.489680  1.0  -0.6088
  O  O4869  1  0.665580  0.138040  0.823020  1.0  -0.6093
  O  O4870  1  0.272640  0.377060  0.159180  1.0  -0.6039
  O  O4871  1  0.939300  0.710390  0.492520  1.0  -0.6039
  O  O4872  1  0.605970  0.043730  0.825850  1.0  -0.6038
  O  O4873  1  0.333800  0.476600  0.170940  1.0  -0.6
  O  O4874  1  0.000460  0.809930  0.504270  1.0  -0.6002
  O  O4875  1  0.667130  0.143260  0.837600  1.0  -0.5998
  O  O4876  1  0.275230  0.382050  0.170610  1.0  -0.6048
  O  O4877  1  0.941900  0.715380  0.503950  1.0  -0.605
  O  O4878  1  0.608560  0.048720  0.837280  1.0  -0.605
  O  O4879  1  0.303650  0.428440  0.150950  1.0  -0.6091
  O  O4880  1  0.970320  0.761770  0.484280  1.0  -0.6089
  O  O4881  1  0.636980  0.095100  0.817610  1.0  -0.6094
  O  O4882  1  0.240850  0.399320  0.151550  1.0  -0.6043
  O  O4883  1  0.907510  0.732660  0.484880  1.0  -0.6048
  O  O4884  1  0.574180  0.065990  0.818220  1.0  -0.6046
  O  O4885  1  0.222210  0.425930  0.171250  1.0  -0.6088
  O  O4886  1  0.888880  0.759270  0.504590  1.0  -0.6047
  O  O4887  1  0.555550  0.092600  0.837920  1.0  -0.6046
  O  O4888  1  0.220840  0.422630  0.157060  1.0  -0.6092
  O  O4889  1  0.887510  0.755960  0.490400  1.0  -0.6054
  O  O4890  1  0.554170  0.089300  0.823730  1.0  -0.6096
  O  O4891  1  0.244910  0.406370  0.177140  1.0  -0.6087
  O  O4892  1  0.911580  0.739710  0.510470  1.0  -0.6033
  O  O4893  1  0.578250  0.073040  0.843800  1.0  -0.61
  O  O4894  1  0.305100  0.498930  0.162950  1.0  -0.6128
  O  O4895  1  0.971770  0.832260  0.496280  1.0  -0.6128
  O  O4896  1  0.638430  0.165590  0.829620  1.0  -0.6127
  O  O4897  1  0.255880  0.477940  0.163410  1.0  -0.6028
  O  O4898  1  0.922550  0.811270  0.496740  1.0  -0.6069
  O  O4899  1  0.589220  0.144600  0.830080  1.0  -0.6039
  O  O4900  1  0.371810  0.336140  0.058270  1.0  -1.1767
  O  O4901  1  0.038480  0.669470  0.391600  1.0  -1.1737
  O  O4902  1  0.705150  0.002800  0.724940  1.0  -1.1827
  O  O4903  1  0.315090  0.332310  0.063090  1.0  -0.5983
  O  O4904  1  0.981760  0.665640  0.396420  1.0  -0.599
  O  O4905  1  0.648420  0.998980  0.729760  1.0  -0.5983
  O  O4906  1  0.374150  0.365090  0.044860  1.0  -0.6013
  O  O4907  1  0.040820  0.698420  0.378190  1.0  -0.6014
  O  O4908  1  0.707480  0.031750  0.711530  1.0  -0.6016
  O  O4909  1  0.408980  0.392480  0.065820  1.0  -0.6107
  O  O4910  1  0.075650  0.725810  0.399150  1.0  -0.6132
  O  O4911  1  0.742310  0.059140  0.732480  1.0  -0.6131
  O  O4912  1  0.320120  0.335020  0.051680  1.0  -0.6052
  O  O4913  1  0.986790  0.668350  0.385010  1.0  -0.6052
  O  O4914  1  0.653450  0.001690  0.718340  1.0  -0.6051
  O  O4915  1  0.366360  0.363380  0.071300  1.0  -0.612
  O  O4916  1  0.033030  0.696720  0.404640  1.0  -0.6115
  O  O4917  1  0.699700  0.030050  0.737970  1.0  -0.6106
  O  O4918  1  0.413890  0.393610  0.051240  1.0  -0.6025
  O  O4919  1  0.080560  0.726950  0.384570  1.0  -0.6018
  O  O4920  1  0.747230  0.060280  0.717900  1.0  -0.6015
  O  O4921  1  0.437500  0.366190  0.059240  1.0  -0.6078
  O  O4922  1  0.104160  0.699520  0.392570  1.0  -0.6082
  O  O4923  1  0.770830  0.032850  0.725900  1.0  -0.608
  O  O4924  1  0.362920  0.281970  0.065450  1.0  -0.6084
  O  O4925  1  0.029590  0.615310  0.398780  1.0  -0.6094
  O  O4926  1  0.696260  0.948640  0.732110  1.0  -0.6112
  O  O4927  1  0.417200  0.317080  0.058790  1.0  -0.6029
  O  O4928  1  0.083870  0.650420  0.392120  1.0  -0.6033
  O  O4929  1  0.750540  0.983750  0.725450  1.0  -0.6025
  O  O4930  1  0.337550  0.300590  0.070630  1.0  -0.6007
  O  O4931  1  0.004220  0.633920  0.403960  1.0  -0.6012
  O  O4932  1  0.670880  0.967260  0.737290  1.0  -0.6009
  O  O4933  1  0.343330  0.303370  0.045460  1.0  -0.6035
  O  O4934  1  0.010000  0.636700  0.378790  1.0  -0.6037
  O  O4935  1  0.676670  0.970040  0.712120  1.0  -0.6037
  O  O4936  1  0.365010  0.282110  0.051100  1.0  -0.5948
  O  O4937  1  0.031680  0.615440  0.384430  1.0  -0.5954
  O  O4938  1  0.698340  0.948780  0.717770  1.0  -0.5955
  O  O4939  1  0.576550  0.940070  0.164020  1.0  -1.1846
  O  O4940  1  0.243220  0.273410  0.497350  1.0  -1.1803
  O  O4941  1  0.909890  0.606740  0.830680  1.0  -1.1849
  O  O4942  1  0.534460  0.955390  0.171070  1.0  -0.6083
  O  O4943  1  0.201130  0.288720  0.504400  1.0  -0.6088
  O  O4944  1  0.867800  0.622060  0.837730  1.0  -0.6037
  O  O4945  1  0.605630  0.936570  0.176810  1.0  -0.6061
  O  O4946  1  0.272300  0.269900  0.510140  1.0  -0.6065
  O  O4947  1  0.938970  0.603240  0.843480  1.0  -0.6062
  O  O4948  1  0.531280  0.875460  0.163670  1.0  -0.6077
  O  O4949  1  0.197940  0.208800  0.497000  1.0  -0.6076
  O  O4950  1  0.864610  0.542130  0.830340  1.0  -0.6017
  O  O4951  1  0.574410  0.967040  0.177400  1.0  -0.6023
  O  O4952  1  0.241070  0.300370  0.510730  1.0  -0.6026
  O  O4953  1  0.907740  0.633710  0.844070  1.0  -0.6021
  O  O4954  1  0.510800  0.904060  0.163150  1.0  -0.6062
  O  O4955  1  0.177470  0.237390  0.496480  1.0  -0.6067
  O  O4956  1  0.844130  0.570730  0.829820  1.0  -0.6079
  O  O4957  1  0.583920  0.893420  0.171220  1.0  -0.5966
  O  O4958  1  0.250590  0.226760  0.504560  1.0  -0.5969
  O  O4959  1  0.917250  0.560090  0.837890  1.0  -0.597
  O  O4960  1  0.585280  0.894590  0.156880  1.0  -0.6098
  O  O4961  1  0.251940  0.227920  0.490220  1.0  -0.6096
  O  O4962  1  0.918610  0.561250  0.823550  1.0  -0.6096
  O  O4963  1  0.581540  0.972180  0.150940  1.0  -0.6096
  O  O4964  1  0.248200  0.305520  0.484270  1.0  -0.6096
  O  O4965  1  0.914870  0.638850  0.817600  1.0  -0.6091
  O  O4966  1  0.610520  0.938400  0.151630  1.0  -0.6014
  O  O4967  1  0.277190  0.271740  0.484960  1.0  -0.6012
  O  O4968  1  0.943860  0.605070  0.818290  1.0  -0.6016
  O  O4969  1  0.539020  0.958680  0.156470  1.0  -0.6108
  O  O4970  1  0.205690  0.292010  0.489800  1.0  -0.6108
  O  O4971  1  0.872350  0.625340  0.823140  1.0  -0.6124
  O  O4972  1  0.628270  0.991180  0.170490  1.0  -0.6046
  O  O4973  1  0.294930  0.324520  0.503830  1.0  -0.6079
  O  O4974  1  0.961600  0.657850  0.837160  1.0  -0.6048
  O  O4975  1  0.633100  0.992970  0.159070  1.0  -0.5962
  O  O4976  1  0.299770  0.326300  0.492410  1.0  -0.5963
  O  O4977  1  0.966440  0.659630  0.825740  1.0  -0.5963
  O  O4978  1  0.704720  0.797230  0.224720  1.0  -1.1977
  O  O4979  1  0.371380  0.130560  0.558050  1.0  -1.1969
  O  O4980  1  0.038050  0.463890  0.891390  1.0  -1.1982
  O  O4981  1  0.699820  0.764990  0.237800  1.0  -0.6086
  O  O4982  1  0.366490  0.098320  0.571130  1.0  -0.6083
  O  O4983  1  0.033160  0.431650  0.904460  1.0  -0.6087
  O  O4984  1  0.747460  0.782260  0.217790  1.0  -0.5995
  O  O4985  1  0.414120  0.115600  0.551130  1.0  -0.5992
  O  O4986  1  0.080790  0.448930  0.884460  1.0  -0.5993
  O  O4987  1  0.652740  0.746530  0.218230  1.0  -0.6149
  O  O4988  1  0.319400  0.079860  0.551560  1.0  -0.6148
  O  O4989  1  0.986070  0.413190  0.884900  1.0  -0.6148
  O  O4990  1  0.742730  0.779350  0.232380  1.0  -0.6125
  O  O4991  1  0.409400  0.112680  0.565710  1.0  -0.6129
  O  O4992  1  0.076070  0.446020  0.899040  1.0  -0.6139
  O  O4993  1  0.648200  0.744680  0.229670  1.0  -0.6021
  O  O4994  1  0.314870  0.078010  0.563000  1.0  -0.6026
  O  O4995  1  0.981530  0.411340  0.896340  1.0  -0.6025
  O  O4996  1  0.706970  0.768940  0.211530  1.0  -0.6003
  O  O4997  1  0.373640  0.102270  0.544870  1.0  -0.6008
  O  O4998  1  0.040300  0.435600  0.878200  1.0  -0.601
  O  O4999  1  0.677450  0.800880  0.211560  1.0  -0.6066
  O  O5000  1  0.344120  0.134220  0.544890  1.0  -0.6076
  O  O5001  1  0.010790  0.467550  0.878230  1.0  -0.6087
  O  O5002  1  0.694080  0.842020  0.231620  1.0  -0.604
  O  O5003  1  0.360750  0.175350  0.564960  1.0  -0.6053
  O  O5004  1  0.027410  0.508680  0.898290  1.0  -0.6054
  O  O5005  1  0.697020  0.843330  0.217400  1.0  -0.6106
  O  O5006  1  0.363680  0.176670  0.550730  1.0  -0.6065
  O  O5007  1  0.030350  0.510000  0.884070  1.0  -0.6105
  O  O5008  1  0.671090  0.798910  0.237220  1.0  -0.6042
  O  O5009  1  0.337750  0.132240  0.570560  1.0  -0.6045
  O  O5010  1  0.004420  0.465580  0.903890  1.0  -0.6043
  O  O5011  1  0.770220  0.833860  0.225650  1.0  -0.6107
  O  O5012  1  0.436880  0.167190  0.558980  1.0  -0.6114
  O  O5013  1  0.103550  0.500520  0.892320  1.0  -0.6111
  O  O5014  1  0.749240  0.862050  0.225180  1.0  -0.6056
  O  O5015  1  0.415910  0.195390  0.558520  1.0  -0.6056
  O  O5016  1  0.082570  0.528720  0.891850  1.0  -0.6054
  O  O5017  1  0.907210  0.399590  0.329520  1.0  -1.0678
  O  O5018  1  0.573870  0.732930  0.662850  1.0  -1.0708
  O  O5019  1  0.240540  0.066260  0.996190  1.0  -1.0702
  O  O5020  1  0.843790  0.370250  0.329520  1.0  -0.6066
  O  O5021  1  0.510460  0.703580  0.662860  1.0  -0.6083
  O  O5022  1  0.177120  0.036920  0.996190  1.0  -0.6077
  O  O5023  1  0.250710  0.121980  0.004500  1.0  -0.594
  O  O5024  1  0.917380  0.455320  0.337830  1.0  -0.5939
  O  O5025  1  0.584050  0.788650  0.671170  1.0  -0.5928
  O  O5026  1  0.238580  0.037080  0.010060  1.0  -0.6022
  O  O5027  1  0.905250  0.370410  0.343390  1.0  -0.6023
  O  O5028  1  0.571920  0.703750  0.676730  1.0  -0.6023
  O  O5029  1  0.864560  0.419560  0.330460  1.0  -0.609
  O  O5030  1  0.531220  0.752900  0.663790  1.0  -0.6087
  O  O5031  1  0.197890  0.086230  0.997130  1.0  -0.6101
  O  O5032  1  0.198020  0.007140  0.004110  1.0  -0.5854
  O  O5033  1  0.864680  0.340470  0.337440  1.0  -0.5861
  O  O5034  1  0.531350  0.673800  0.670780  1.0  -0.5873
  O  O5035  1  0.270980  0.098180  0.009590  1.0  -0.5973
  O  O5036  1  0.937640  0.431510  0.342920  1.0  -0.5997
  O  O5037  1  0.604310  0.764850  0.676260  1.0  -0.5974
  O  O5038  1  0.292410  0.065290  0.003160  1.0  -0.6075
  O  O5039  1  0.959080  0.398630  0.336500  1.0  -0.6044
  O  O5040  1  0.625750  0.731960  0.669830  1.0  -0.6065
  O  O5041  1  0.914800  0.372350  0.317390  1.0  -0.6087
  O  O5042  1  0.581470  0.705680  0.650720  1.0  -0.6079
  O  O5043  1  0.248140  0.039010  0.984050  1.0  -0.6086
  O  O5044  1  0.967030  0.403300  0.325170  1.0  -0.586
  O  O5045  1  0.633690  0.736630  0.658500  1.0  -0.5872
  O  O5046  1  0.300360  0.069960  0.991840  1.0  -0.586
  O  O5047  1  0.872450  0.342630  0.323010  1.0  -0.6082
  O  O5048  1  0.539110  0.675970  0.656340  1.0  -0.6087
  O  O5049  1  0.205780  0.009300  0.989680  1.0  -0.6091
  O  O5050  1  0.920150  0.455370  0.323720  1.0  -0.6033
  O  O5051  1  0.586820  0.788710  0.657050  1.0  -0.6036
  O  O5052  1  0.253490  0.122040  0.990390  1.0  -0.6076
  O  O5053  1  0.944400  0.436100  0.318190  1.0  -0.6204
  O  O5054  1  0.611070  0.769440  0.651520  1.0  -0.6205
  O  O5055  1  0.277740  0.102770  0.984850  1.0  -0.6207
  O  O5056  1  0.005140  0.303890  0.224840  1.0  -1.1896
  O  O5057  1  0.671800  0.637230  0.558180  1.0  -1.1894
  O  O5058  1  0.338470  0.970560  0.891510  1.0  -1.1858
  O  O5059  1  0.005070  0.355330  0.218490  1.0  -0.6019
  O  O5060  1  0.671730  0.688660  0.551820  1.0  -0.6027
  O  O5061  1  0.338400  0.021990  0.885150  1.0  -0.603
  O  O5062  1  0.977810  0.308200  0.237980  1.0  -0.6116
  O  O5063  1  0.644480  0.641540  0.571320  1.0  -0.6113
  O  O5064  1  0.311140  0.974870  0.904650  1.0  -0.6116
  O  O5065  1  0.947770  0.261020  0.217850  1.0  -0.6005
  O  O5066  1  0.614440  0.594360  0.551180  1.0  -0.6002
  O  O5067  1  0.281110  0.927690  0.884520  1.0  -0.6006
  O  O5068  1  0.008430  0.360120  0.229910  1.0  -0.6039
  O  O5069  1  0.675090  0.693450  0.563240  1.0  -0.6037
  O  O5070  1  0.341760  0.026790  0.896580  1.0  -0.6036
  O  O5071  1  0.975140  0.301510  0.211600  1.0  -0.6051
  O  O5072  1  0.641810  0.634850  0.544930  1.0  -0.6051
  O  O5073  1  0.308470  0.968180  0.878260  1.0  -0.6047
  O  O5074  1  0.949110  0.265660  0.232450  1.0  -0.6106
  O  O5075  1  0.615780  0.598990  0.565780  1.0  -0.6109
  O  O5076  1  0.282450  0.932320  0.899110  1.0  -0.6128
  O  O5077  1  0.976380  0.238370  0.225770  1.0  -0.6102
  O  O5078  1  0.643050  0.571700  0.559110  1.0  -0.6105
  O  O5079  1  0.309720  0.905040  0.892440  1.0  -0.6103
  O  O5080  1  0.058620  0.311360  0.217310  1.0  -0.5931
  O  O5081  1  0.725290  0.644690  0.550650  1.0  -0.5927
  O  O5082  1  0.391950  0.978030  0.883980  1.0  -0.5939
  O  O5083  1  0.025580  0.259470  0.225250  1.0  -0.6037
  O  O5084  1  0.692250  0.592810  0.558580  1.0  -0.6033
  O  O5085  1  0.358920  0.926140  0.891910  1.0  -0.6031
  O  O5086  1  0.036770  0.333010  0.211920  1.0  -0.5968
  O  O5087  1  0.703430  0.666340  0.545250  1.0  -0.5973
  O  O5088  1  0.370100  0.999670  0.878580  1.0  -0.5968
  O  O5089  1  0.040620  0.337520  0.237280  1.0  -0.6011
  O  O5090  1  0.707290  0.670850  0.570610  1.0  -0.6006
  O  O5091  1  0.373950  0.004190  0.903950  1.0  -0.6003
  O  O5092  1  0.060910  0.314870  0.231580  1.0  -0.6074
  O  O5093  1  0.727580  0.648200  0.564910  1.0  -0.6076
  O  O5094  1  0.394240  0.981530  0.898250  1.0  -0.6048
  O  O5095  1  0.402130  0.098710  0.330760  1.0  -1.1825
  O  O5096  1  0.068790  0.432050  0.664100  1.0  -1.1859
  O  O5097  1  0.735460  0.765380  0.997430  1.0  -1.1718
  O  O5098  1  0.684230  0.713980  0.003950  1.0  -0.6066
  O  O5099  1  0.350900  0.047310  0.337280  1.0  -0.6036
  O  O5100  1  0.017560  0.380640  0.670620  1.0  -0.6067
  O  O5101  1  0.370180  0.093660  0.317640  1.0  -0.6106
  O  O5102  1  0.036850  0.426990  0.650970  1.0  -0.6097
  O  O5103  1  0.703520  0.760330  0.984310  1.0  -0.6103
  O  O5104  1  0.720350  0.807850  0.004370  1.0  -0.601
  O  O5105  1  0.387020  0.141190  0.337710  1.0  -0.6008
  O  O5106  1  0.053690  0.474520  0.671040  1.0  -0.6011
  O  O5107  1  0.349100  0.042230  0.325870  1.0  -0.5961
  O  O5108  1  0.015760  0.375560  0.659200  1.0  -0.5975
  O  O5109  1  0.682430  0.708900  0.992540  1.0  -0.5981
  O  O5110  1  0.708400  0.767990  0.010760  1.0  -0.6048
  O  O5111  1  0.375060  0.101330  0.344100  1.0  -0.605
  O  O5112  1  0.041730  0.434660  0.677430  1.0  -0.6049
  O  O5113  1  0.383910  0.136330  0.323110  1.0  -0.6151
  O  O5114  1  0.050570  0.469670  0.656440  1.0  -0.6143
  O  O5115  1  0.717240  0.803000  0.989780  1.0  -0.6148
  O  O5116  1  0.438420  0.164350  0.329820  1.0  -0.6093
  O  O5117  1  0.105090  0.497680  0.663150  1.0  -0.6107
  O  O5118  1  0.771760  0.831020  0.996490  1.0  -0.6078
  O  O5119  1  0.781890  0.757960  0.004730  1.0  -0.595
  O  O5120  1  0.448560  0.091290  0.338070  1.0  -0.5945
  O  O5121  1  0.115230  0.424630  0.671400  1.0  -0.5938
  O  O5122  1  0.466830  0.143670  0.330400  1.0  -0.6074
  O  O5123  1  0.133500  0.477000  0.663730  1.0  -0.6073
  O  O5124  1  0.800160  0.810340  0.997070  1.0  -0.6085
  O  O5125  1  0.738730  0.736650  0.010320  1.0  -0.6022
  O  O5126  1  0.405400  0.069990  0.343660  1.0  -0.6017
  O  O5127  1  0.072070  0.403320  0.676990  1.0  -0.6018
  O  O5128  1  0.403700  0.064380  0.318440  1.0  -0.5985
  O  O5129  1  0.070370  0.397720  0.651770  1.0  -0.598
  O  O5130  1  0.737040  0.731050  0.985100  1.0  -0.5977
  O  O5131  1  0.447480  0.089430  0.323720  1.0  -0.607
  O  O5132  1  0.114140  0.422770  0.657060  1.0  -0.6099
  O  O5133  1  0.780810  0.756100  0.990390  1.0  -0.6119
  O  O5134  1  0.068560  0.732180  0.164130  1.0  -1.1665
  O  O5135  1  0.735220  0.065510  0.497460  1.0  -1.1665
  O  O5136  1  0.401890  0.398850  0.830790  1.0  -1.1736
  O  O5137  1  0.053440  0.674710  0.171110  1.0  -0.606
  O  O5138  1  0.720110  0.008050  0.504440  1.0  -0.6036
  O  O5139  1  0.386770  0.341380  0.837770  1.0  -0.6037
  O  O5140  1  0.072050  0.764620  0.176990  1.0  -0.6047
  O  O5141  1  0.738720  0.097950  0.510320  1.0  -0.6047
  O  O5142  1  0.405390  0.431290  0.843650  1.0  -0.6046
  O  O5143  1  0.133180  0.751900  0.163720  1.0  -0.6071
  O  O5144  1  0.799840  0.085240  0.497050  1.0  -0.6073
  O  O5145  1  0.466510  0.418570  0.830380  1.0  -0.6073
  O  O5146  1  0.041720  0.702810  0.177510  1.0  -0.6036
  O  O5147  1  0.708390  0.036140  0.510840  1.0  -0.6028
  O  O5148  1  0.375050  0.369470  0.844170  1.0  -0.6031
  O  O5149  1  0.104750  0.702770  0.163170  1.0  -0.6088
  O  O5150  1  0.771420  0.036100  0.496510  1.0  -0.6076
  O  O5151  1  0.438090  0.369430  0.829840  1.0  -0.6096
  O  O5152  1  0.115140  0.786220  0.171370  1.0  -0.5928
  O  O5153  1  0.781810  0.119560  0.504700  1.0  -0.5941
  O  O5154  1  0.448480  0.452890  0.838030  1.0  -0.5939
  O  O5155  1  0.113860  0.786710  0.157040  1.0  -0.6088
  O  O5156  1  0.780530  0.120040  0.490380  1.0  -0.6101
  O  O5157  1  0.447190  0.453370  0.823710  1.0  -0.6085
  O  O5158  1  0.036570  0.705120  0.151020  1.0  -0.6112
  O  O5159  1  0.703240  0.038460  0.484360  1.0  -0.6112
  O  O5160  1  0.369900  0.371790  0.817690  1.0  -0.6108
  O  O5161  1  0.070020  0.767970  0.151800  1.0  -0.6011
  O  O5162  1  0.736680  0.101310  0.485130  1.0  -0.6011
  O  O5163  1  0.403350  0.434640  0.818470  1.0  -0.6011
  O  O5164  1  0.050130  0.676130  0.156500  1.0  -0.6136
  O  O5165  1  0.716800  0.009460  0.489840  1.0  -0.6153
  O  O5166  1  0.383470  0.342800  0.823170  1.0  -0.6141
  O  O5167  1  0.017370  0.732400  0.170660  1.0  -0.6043
  O  O5168  1  0.684040  0.065730  0.504000  1.0  -0.6038
  O  O5169  1  0.350710  0.399060  0.837330  1.0  -0.6074
  O  O5170  1  0.015530  0.735450  0.159250  1.0  -0.5958
  O  O5171  1  0.682200  0.068780  0.492580  1.0  -0.5959
  O  O5172  1  0.348870  0.402110  0.825910  1.0  -0.5959
  O  O5173  1  0.671420  0.130630  0.058320  1.0  -1.196
  O  O5174  1  0.338090  0.463960  0.391660  1.0  -1.1941
  O  O5175  1  0.004750  0.797300  0.724990  1.0  -1.1945
  O  O5176  1  0.641510  0.103460  0.045010  1.0  -0.603
  O  O5177  1  0.308180  0.436790  0.378340  1.0  -0.6029
  O  O5178  1  0.974840  0.770120  0.711670  1.0  -0.603
  O  O5179  1  0.615500  0.112430  0.065980  1.0  -0.6106
  O  O5180  1  0.282170  0.445760  0.399310  1.0  -0.6124
  O  O5181  1  0.948830  0.779100  0.732640  1.0  -0.6134
  O  O5182  1  0.675050  0.077670  0.063040  1.0  -0.6002
  O  O5183  1  0.341710  0.411000  0.396380  1.0  -0.6043
  O  O5184  1  0.008380  0.744340  0.729710  1.0  -0.6029
  O  O5185  1  0.613710  0.115540  0.051410  1.0  -0.6024
  O  O5186  1  0.280380  0.448870  0.384740  1.0  -0.6044
  O  O5187  1  0.947040  0.782210  0.718070  1.0  -0.6023
  O  O5188  1  0.672640  0.080250  0.051620  1.0  -0.6068
  O  O5189  1  0.339300  0.413580  0.384950  1.0  -0.6062
  O  O5190  1  0.005970  0.746920  0.718290  1.0  -0.6068
  O  O5191  1  0.643910  0.097790  0.071330  1.0  -0.6097
  O  O5192  1  0.310580  0.431130  0.404660  1.0  -0.6102
  O  O5193  1  0.977250  0.764460  0.738000  1.0  -0.6093
  O  O5194  1  0.706770  0.131570  0.070740  1.0  -0.6
  O  O5195  1  0.373440  0.464900  0.404070  1.0  -0.5997
  O  O5196  1  0.040110  0.798240  0.737400  1.0  -0.5995
  O  O5197  1  0.726140  0.177100  0.051300  1.0  -0.6069
  O  O5198  1  0.392800  0.510430  0.384630  1.0  -0.607
  O  O5199  1  0.059470  0.843770  0.717960  1.0  -0.6074
  O  O5200  1  0.725580  0.175600  0.065600  1.0  -0.6023
  O  O5201  1  0.392250  0.508930  0.398930  1.0  -0.6021
  O  O5202  1  0.058910  0.842260  0.732260  1.0  -0.6024
  O  O5203  1  0.703160  0.135200  0.045250  1.0  -0.6076
  O  O5204  1  0.369820  0.468530  0.378580  1.0  -0.6076
  O  O5205  1  0.036490  0.801860  0.711920  1.0  -0.6071
  O  O5206  1  0.642250  0.167030  0.059270  1.0  -0.6068
  O  O5207  1  0.308910  0.500370  0.392610  1.0  -0.6059
  O  O5208  1  0.975580  0.833700  0.725940  1.0  -0.6068
  O  O5209  1  0.691440  0.195300  0.058770  1.0  -0.6032
  O  O5210  1  0.358100  0.528640  0.392100  1.0  -0.6026
  O  O5211  1  0.024770  0.861970  0.725440  1.0  -0.6028
  O  O5212  1  0.609320  0.605750  0.330800  1.0  -1.1858
  O  O5213  1  0.275990  0.939080  0.664140  1.0  -1.1863
  O  O5214  1  0.942650  0.272420  0.997470  1.0  -1.189
  O  O5215  1  0.665140  0.623800  0.323060  1.0  -0.6116
  O  O5216  1  0.331810  0.957130  0.656390  1.0  -0.6107
  O  O5217  1  0.998480  0.290460  0.989730  1.0  -0.6116
  O  O5218  1  0.573340  0.603600  0.318450  1.0  -0.6036
  O  O5219  1  0.240000  0.936930  0.651790  1.0  -0.6035
  O  O5220  1  0.906670  0.270260  0.985120  1.0  -0.6041
  O  O5221  1  0.589010  0.540950  0.330390  1.0  -0.6027
  O  O5222  1  0.255680  0.874280  0.663720  1.0  -0.6032
  O  O5223  1  0.922340  0.207610  0.997050  1.0  -0.6037
  O  O5224  1  0.636120  0.637420  0.317620  1.0  -0.6074
  O  O5225  1  0.302780  0.970750  0.650960  1.0  -0.607
  O  O5226  1  0.969450  0.304090  0.984290  1.0  -0.6074
  O  O5227  1  0.638180  0.569210  0.329720  1.0  -0.6114
  O  O5228  1  0.304840  0.902550  0.663050  1.0  -0.6114
  O  O5229  1  0.971510  0.235880  0.996390  1.0  -0.6112
  O  O5230  1  0.553320  0.560720  0.324170  1.0  -0.6069
  O  O5231  1  0.219990  0.894050  0.657500  1.0  -0.6068
  O  O5232  1  0.886660  0.227380  0.990830  1.0  -0.6058
  O  O5233  1  0.889470  0.226330  0.005100  1.0  -0.593
  O  O5234  1  0.556130  0.559660  0.338430  1.0  -0.594
  O  O5235  1  0.222800  0.893000  0.671760  1.0  -0.5939
  O  O5236  1  0.973170  0.300190  0.010670  1.0  -0.5996
  O  O5237  1  0.639830  0.633520  0.344010  1.0  -0.6019
  O  O5238  1  0.306500  0.966850  0.677340  1.0  -0.6026
  O  O5239  1  0.911510  0.269870  0.010500  1.0  -0.6012
  O  O5240  1  0.578180  0.603200  0.343830  1.0  -0.6009
  O  O5241  1  0.244840  0.936540  0.677170  1.0  -0.6014
  O  O5242  1  0.000330  0.287140  0.004310  1.0  -0.6033
  O  O5243  1  0.667000  0.620470  0.337650  1.0  -0.6015
  O  O5244  1  0.333660  0.953810  0.670980  1.0  -0.6006
  O  O5245  1  0.605620  0.658450  0.325820  1.0  -0.5964
  O  O5246  1  0.272290  0.991780  0.659150  1.0  -0.5977
  O  O5247  1  0.938950  0.325120  0.992490  1.0  -0.5993
  O  O5248  1  0.942840  0.323860  0.003900  1.0  -0.6053
  O  O5249  1  0.609510  0.657200  0.337230  1.0  -0.605
  O  O5250  1  0.276180  0.990530  0.670560  1.0  -0.6046
  O  O5251  1  0.212300  0.004210  0.224750  1.0  -1.1935
  O  O5252  1  0.878970  0.337550  0.558090  1.0  -1.1964
  O  O5253  1  0.545630  0.670880  0.891420  1.0  -1.1934
  O  O5254  1  0.147390  0.983630  0.225270  1.0  -0.6015
  O  O5255  1  0.814060  0.316960  0.558610  1.0  -0.6015
  O  O5256  1  0.480730  0.650300  0.891940  1.0  -0.602
  O  O5257  1  0.230140  0.060040  0.232460  1.0  -0.6132
  O  O5258  1  0.896810  0.393380  0.565790  1.0  -0.6131
  O  O5259  1  0.563480  0.726710  0.899130  1.0  -0.6124
  O  O5260  1  0.210880  0.968860  0.237210  1.0  -0.6056
  O  O5261  1  0.877540  0.302190  0.570540  1.0  -0.6057
  O  O5262  1  0.544210  0.635520  0.903880  1.0  -0.6055
  O  O5263  1  0.175480  0.032830  0.225800  1.0  -0.6107
  O  O5264  1  0.842150  0.366160  0.559140  1.0  -0.6108
  O  O5265  1  0.508810  0.699500  0.892470  1.0  -0.6106
  O  O5266  1  0.167690  0.948720  0.231640  1.0  -0.605
  O  O5267  1  0.834360  0.282050  0.564970  1.0  -0.6048
  O  O5268  1  0.501020  0.615380  0.898310  1.0  -0.6046
  O  O5269  1  0.244720  0.031640  0.237830  1.0  -0.6074
  O  O5270  1  0.911380  0.364970  0.571160  1.0  -0.6094
  O  O5271  1  0.578050  0.698310  0.904490  1.0  -0.6088
  O  O5272  1  0.265090  0.000600  0.229600  1.0  -0.6016
  O  O5273  1  0.931760  0.333930  0.562940  1.0  -0.6016
  O  O5274  1  0.598420  0.667270  0.896270  1.0  -0.6011
  O  O5275  1  0.208550  0.973260  0.211560  1.0  -0.6081
  O  O5276  1  0.875220  0.306600  0.544890  1.0  -0.6074
  O  O5277  1  0.541890  0.639930  0.878220  1.0  -0.6066
  O  O5278  1  0.263120  0.003420  0.218170  1.0  -0.611
  O  O5279  1  0.929790  0.336750  0.551500  1.0  -0.6108
  O  O5280  1  0.596450  0.670080  0.884840  1.0  -0.6107
  O  O5281  1  0.166200  0.950310  0.217440  1.0  -0.6077
  O  O5282  1  0.832870  0.283640  0.550770  1.0  -0.6063
  O  O5283  1  0.499530  0.616970  0.884110  1.0  -0.6057
  O  O5284  1  0.226910  0.061850  0.217900  1.0  -0.6
  O  O5285  1  0.893570  0.395180  0.551240  1.0  -0.6002
  O  O5286  1  0.560240  0.728510  0.884570  1.0  -0.6
  O  O5287  1  0.240190  0.034870  0.211550  1.0  -0.6002
  O  O5288  1  0.906850  0.368210  0.544880  1.0  -0.6003
  O  O5289  1  0.573520  0.701540  0.878210  1.0  -0.5997
  O  O5290  1  0.051280  0.702340  0.277740  1.0  -1.1839
  O  O5291  1  0.717950  0.035670  0.611070  1.0  -1.1845
  O  O5292  1  0.384620  0.369000  0.944410  1.0  -1.1839
  O  O5293  1  0.098060  0.763920  0.273660  1.0  -0.6085
  O  O5294  1  0.764730  0.097260  0.606990  1.0  -0.6084
  O  O5295  1  0.431400  0.430590  0.940330  1.0  -0.6083
  O  O5296  1  0.028340  0.685810  0.263420  1.0  -0.6084
  O  O5297  1  0.695000  0.019150  0.596750  1.0  -0.6075
  O  O5298  1  0.361670  0.352480  0.930080  1.0  -0.6075
  O  O5299  1  0.092450  0.678260  0.276400  1.0  -0.6115
  O  O5300  1  0.759110  0.011600  0.609740  1.0  -0.6096
  O  O5301  1  0.425780  0.344930  0.943070  1.0  -0.6108
  O  O5302  1  0.058310  0.746280  0.266880  1.0  -0.606
  O  O5303  1  0.724970  0.079610  0.600210  1.0  -0.6055
  O  O5304  1  0.391640  0.412950  0.933550  1.0  -0.6054
  O  O5305  1  0.116560  0.726180  0.279160  1.0  -0.6087
  O  O5306  1  0.783230  0.059510  0.612490  1.0  -0.6086
  O  O5307  1  0.449900  0.392840  0.945830  1.0  -0.6084
  O  O5308  1  0.043080  0.655660  0.267750  1.0  -0.6125
  O  O5309  1  0.709750  0.989000  0.601090  1.0  -0.6127
  O  O5310  1  0.376420  0.322330  0.934420  1.0  -0.6125
  O  O5311  1  0.036070  0.640730  0.281840  1.0  -0.6091
  O  O5312  1  0.702740  0.974060  0.615170  1.0  -0.6092
  O  O5313  1  0.369410  0.307400  0.948500  1.0  -0.6089
  O  O5314  1  0.044460  0.718800  0.292030  1.0  -0.6096
  O  O5315  1  0.711130  0.052130  0.625360  1.0  -0.6097
  O  O5316  1  0.377800  0.385470  0.958700  1.0  -0.6098
  O  O5317  1  0.013850  0.658380  0.288580  1.0  -0.6053
  O  O5318  1  0.680510  0.991720  0.621910  1.0  -0.6054
  O  O5319  1  0.347180  0.325050  0.955240  1.0  -0.6054
  O  O5320  1  0.089630  0.748920  0.287770  1.0  -0.6136
  O  O5321  1  0.756300  0.082250  0.621100  1.0  -0.6135
  O  O5322  1  0.422960  0.415590  0.954440  1.0  -0.6124
  O  O5323  1  0.001030  0.708340  0.272130  1.0  -0.6049
  O  O5324  1  0.667690  0.041670  0.605460  1.0  -0.6025
  O  O5325  1  0.334360  0.375010  0.938800  1.0  -0.6043
  O  O5326  1  0.994890  0.696380  0.283270  1.0  -0.6066
  O  O5327  1  0.661560  0.029710  0.616600  1.0  -0.6059
  O  O5328  1  0.328230  0.363050  0.949930  1.0  -0.6063
  O  O5329  1  0.306380  0.445330  0.278060  1.0  -1.185
  O  O5330  1  0.973050  0.778660  0.611400  1.0  -1.185
  O  O5331  1  0.639720  0.112000  0.944730  1.0  -1.1849
  O  O5332  1  0.312340  0.394940  0.283600  1.0  -0.6071
  O  O5333  1  0.979010  0.728280  0.616930  1.0  -0.6073
  O  O5334  1  0.645680  0.061610  0.950260  1.0  -0.6068
  O  O5335  1  0.262730  0.408150  0.267160  1.0  -0.6034
  O  O5336  1  0.929400  0.741490  0.600490  1.0  -0.6033
  O  O5337  1  0.596070  0.074820  0.933830  1.0  -0.6038
  O  O5338  1  0.259440  0.436880  0.288040  1.0  -0.6105
  O  O5339  1  0.926100  0.770210  0.621370  1.0  -0.6103
  O  O5340  1  0.592770  0.103540  0.954710  1.0  -0.6114
  O  O5341  1  0.301000  0.389310  0.272430  1.0  -0.6056
  O  O5342  1  0.967670  0.722640  0.605760  1.0  -0.6051
  O  O5343  1  0.634340  0.055980  0.939090  1.0  -0.6043
  O  O5344  1  0.289480  0.421940  0.292350  1.0  -0.6089
  O  O5345  1  0.956150  0.755270  0.625680  1.0  -0.6089
  O  O5346  1  0.622810  0.088600  0.959020  1.0  -0.6083
  O  O5347  1  0.244780  0.430130  0.273890  1.0  -0.6073
  O  O5348  1  0.911450  0.763470  0.607230  1.0  -0.6091
  O  O5349  1  0.578110  0.096800  0.940560  1.0  -0.6086
  O  O5350  1  0.282250  0.486500  0.279430  1.0  -0.6111
  O  O5351  1  0.948920  0.819830  0.612760  1.0  -0.6118
  O  O5352  1  0.615590  0.153170  0.946090  1.0  -0.6091
  O  O5353  1  0.367990  0.491850  0.282230  1.0  -0.6063
  O  O5354  1  0.034660  0.825190  0.615570  1.0  -0.6065
  O  O5355  1  0.701330  0.158520  0.948900  1.0  -0.6064
  O  O5356  1  0.330340  0.510630  0.276810  1.0  -0.6115
  O  O5357  1  0.997000  0.843960  0.610150  1.0  -0.6116
  O  O5358  1  0.663670  0.177290  0.943480  1.0  -0.6132
  O  O5359  1  0.350040  0.451940  0.288960  1.0  -0.6041
  O  O5360  1  0.016710  0.785270  0.622300  1.0  -0.6039
  O  O5361  1  0.683380  0.118610  0.955630  1.0  -0.604
  O  O5362  1  0.323180  0.439230  0.263730  1.0  -0.6042
  O  O5363  1  0.989840  0.772570  0.597070  1.0  -0.604
  O  O5364  1  0.656510  0.105900  0.930400  1.0  -0.6045
  O  O5365  1  0.353140  0.484200  0.268100  1.0  -0.6092
  O  O5366  1  0.019810  0.817530  0.601430  1.0  -0.6078
  O  O5367  1  0.686480  0.150860  0.934760  1.0  -0.6084
  O  O5368  1  0.562480  0.956580  0.277900  1.0  -1.1849
  O  O5369  1  0.229150  0.289910  0.611230  1.0  -1.1847
  O  O5370  1  0.895820  0.623240  0.944570  1.0  -1.1852
  O  O5371  1  0.520880  0.891480  0.279170  1.0  -0.6086
  O  O5372  1  0.187550  0.224810  0.612500  1.0  -0.6098
  O  O5373  1  0.854210  0.558140  0.945830  1.0  -0.6087
  O  O5374  1  0.516490  0.972530  0.282010  1.0  -0.6023
  O  O5375  1  0.183160  0.305870  0.615340  1.0  -0.6022
  O  O5376  1  0.849830  0.639200  0.948680  1.0  -0.6023
  O  O5377  1  0.585940  0.962590  0.292140  1.0  -0.6184
  O  O5378  1  0.252600  0.295930  0.625480  1.0  -0.6184
  O  O5379  1  0.919270  0.629260  0.958810  1.0  -0.6182
  O  O5380  1  0.497080  0.915750  0.276580  1.0  -0.6076
  O  O5381  1  0.163750  0.249090  0.609910  1.0  -0.6077
  O  O5382  1  0.830410  0.582420  0.943250  1.0  -0.6082
  O  O5383  1  0.570390  0.917520  0.287810  1.0  -0.6116
  O  O5384  1  0.237060  0.250850  0.621140  1.0  -0.6114
  O  O5385  1  0.903720  0.584190  0.954480  1.0  -0.6108
  O  O5386  1  0.555590  0.992580  0.289010  1.0  -0.6053
  O  O5387  1  0.222260  0.325920  0.622340  1.0  -0.605
  O  O5388  1  0.888930  0.659250  0.955680  1.0  -0.6049
  O  O5389  1  0.612840  0.012730  0.283550  1.0  -0.6085
  O  O5390  1  0.279510  0.346060  0.616880  1.0  -0.608
  O  O5391  1  0.946170  0.679400  0.950220  1.0  -0.6083
  O  O5392  1  0.599800  0.950080  0.267030  1.0  -0.6015
  O  O5393  1  0.266470  0.283410  0.600360  1.0  -0.6014
  O  O5394  1  0.933140  0.616750  0.933700  1.0  -0.6013
  O  O5395  1  0.618810  0.007010  0.272390  1.0  -0.6057
  O  O5396  1  0.285480  0.340340  0.605730  1.0  -0.6055
  O  O5397  1  0.952150  0.673680  0.939060  1.0  -0.6053
  O  O5398  1  0.577200  0.909910  0.273670  1.0  -0.6079
  O  O5399  1  0.243870  0.243240  0.607000  1.0  -0.6079
  O  O5400  1  0.910540  0.576580  0.940340  1.0  -0.6073
  O  O5401  1  0.524270  0.965220  0.267900  1.0  -0.6102
  O  O5402  1  0.190940  0.298560  0.601240  1.0  -0.6105
  O  O5403  1  0.857610  0.631890  0.934570  1.0  -0.6106
  O  O5404  1  0.569280  0.979960  0.263600  1.0  -0.6067
  O  O5405  1  0.235940  0.313290  0.596930  1.0  -0.6062
  O  O5406  1  0.902610  0.646630  0.930260  1.0  -0.6059
  O  O5407  1  0.974260  0.291290  0.111000  1.0  -1.1857
  O  O5408  1  0.640930  0.624620  0.444340  1.0  -1.184
  O  O5409  1  0.307590  0.957950  0.777670  1.0  -1.1854
  O  O5410  1  0.912180  0.245180  0.107000  1.0  -0.6021
  O  O5411  1  0.578850  0.578520  0.440330  1.0  -0.6024
  O  O5412  1  0.245520  0.911850  0.773660  1.0  -0.6018
  O  O5413  1  0.968210  0.341380  0.105310  1.0  -0.6068
  O  O5414  1  0.634880  0.674710  0.438650  1.0  -0.6082
  O  O5415  1  0.301540  0.008050  0.771980  1.0  -0.607
  O  O5416  1  0.957950  0.298380  0.125320  1.0  -0.608
  O  O5417  1  0.624610  0.631710  0.458650  1.0  -0.6085
  O  O5418  1  0.291280  0.965050  0.791990  1.0  -0.6067
  O  O5419  1  0.931110  0.284020  0.099920  1.0  -0.6055
  O  O5420  1  0.597780  0.617350  0.433250  1.0  -0.6051
  O  O5421  1  0.264440  0.950680  0.766590  1.0  -0.606
  O  O5422  1  0.927540  0.253340  0.121060  1.0  -0.6074
  O  O5423  1  0.594200  0.586680  0.454400  1.0  -0.6088
  O  O5424  1  0.260870  0.920010  0.787730  1.0  -0.6093
  O  O5425  1  0.980140  0.347660  0.116460  1.0  -0.6076
  O  O5426  1  0.646810  0.681000  0.449790  1.0  -0.6077
  O  O5427  1  0.313470  0.014330  0.783120  1.0  -0.6079
  O  O5428  1  0.018360  0.328880  0.121800  1.0  -0.6003
  O  O5429  1  0.685030  0.662220  0.455130  1.0  -0.601
  O  O5430  1  0.351700  0.995550  0.788470  1.0  -0.6
  O  O5431  1  0.997660  0.249610  0.109770  1.0  -0.6103
  O  O5432  1  0.664330  0.582940  0.443100  1.0  -0.6104
  O  O5433  1  0.331000  0.916270  0.776430  1.0  -0.6101
  O  O5434  1  0.035670  0.305970  0.115180  1.0  -0.6075
  O  O5435  1  0.702340  0.639310  0.448510  1.0  -0.6076
  O  O5436  1  0.369010  0.972640  0.781850  1.0  -0.6071
  O  O5437  1  0.949600  0.225930  0.112430  1.0  -0.6092
  O  O5438  1  0.616270  0.559260  0.445760  1.0  -0.6088
  O  O5439  1  0.282940  0.892600  0.779090  1.0  -0.6088
  O  O5440  1  0.991600  0.314450  0.096720  1.0  -0.6166
  O  O5441  1  0.658260  0.647790  0.430050  1.0  -0.6171
  O  O5442  1  0.324930  0.981120  0.763390  1.0  -0.6173
  O  O5443  1  0.021110  0.298960  0.101070  1.0  -0.6133
  O  O5444  1  0.687770  0.632290  0.434400  1.0  -0.6137
  O  O5445  1  0.354440  0.965620  0.767730  1.0  -0.6126
  O  O5446  1  0.879390  0.638420  0.058150  1.0  -1.2056
  O  O5447  1  0.546060  0.971760  0.391480  1.0  -1.2033
  O  O5448  1  0.212730  0.305090  0.724810  1.0  -1.2025
  O  O5449  1  0.894420  0.595680  0.051260  1.0  -0.6025
  O  O5450  1  0.561090  0.929020  0.384600  1.0  -0.6043
  O  O5451  1  0.227750  0.262350  0.717930  1.0  -0.6043
  O  O5452  1  0.874820  0.665210  0.045030  1.0  -0.6039
  O  O5453  1  0.541490  0.998550  0.378370  1.0  -0.6036
  O  O5454  1  0.208150  0.331880  0.711700  1.0  -0.6037
  O  O5455  1  0.814700  0.593500  0.058640  1.0  -0.6039
  O  O5456  1  0.481370  0.926840  0.391970  1.0  -0.6045
  O  O5457  1  0.148040  0.260170  0.725310  1.0  -0.6049
  O  O5458  1  0.906620  0.635470  0.044830  1.0  -0.604
  O  O5459  1  0.573290  0.968800  0.378170  1.0  -0.6041
  O  O5460  1  0.239950  0.302130  0.711500  1.0  -0.6044
  O  O5461  1  0.843170  0.572870  0.059190  1.0  -0.6088
  O  O5462  1  0.509830  0.906200  0.392530  1.0  -0.6089
  O  O5463  1  0.176500  0.239530  0.725860  1.0  -0.609
  O  O5464  1  0.832800  0.646090  0.051050  1.0  -0.6079
  O  O5465  1  0.499470  0.979420  0.384390  1.0  -0.6095
  O  O5466  1  0.166130  0.312760  0.717720  1.0  -0.6069
  O  O5467  1  0.834290  0.647660  0.065360  1.0  -0.6013
  O  O5468  1  0.500950  0.980990  0.398690  1.0  -0.604
  O  O5469  1  0.167620  0.314330  0.732030  1.0  -0.6013
  O  O5470  1  0.912230  0.644130  0.071180  1.0  -0.6107
  O  O5471  1  0.578890  0.977470  0.404510  1.0  -0.6107
  O  O5472  1  0.245560  0.310800  0.737840  1.0  -0.6112
  O  O5473  1  0.878260  0.673030  0.070530  1.0  -0.5977
  O  O5474  1  0.544920  0.006370  0.403860  1.0  -0.5979
  O  O5475  1  0.211590  0.339700  0.737190  1.0  -0.5983
  O  O5476  1  0.897870  0.601100  0.065820  1.0  -0.6098
  O  O5477  1  0.564530  0.934440  0.399150  1.0  -0.6096
  O  O5478  1  0.231200  0.267770  0.732480  1.0  -0.6101
  O  O5479  1  0.929830  0.690030  0.051420  1.0  -0.6053
  O  O5480  1  0.596490  0.023360  0.384760  1.0  -0.6061
  O  O5481  1  0.263160  0.356700  0.718090  1.0  -0.6053
  O  O5482  1  0.932240  0.695210  0.062850  1.0  -0.6022
  O  O5483  1  0.598910  0.028540  0.396180  1.0  -0.602
  O  O5484  1  0.265580  0.361880  0.729510  1.0  -0.6028
  O  O5485  1  0.229190  0.035090  0.111460  1.0  -1.1831
  O  O5486  1  0.895860  0.368430  0.444800  1.0  -1.1836
  O  O5487  1  0.562530  0.701760  0.778130  1.0  -1.1832
  O  O5488  1  0.188290  0.059440  0.112720  1.0  -0.6125
  O  O5489  1  0.854960  0.392770  0.446060  1.0  -0.6119
  O  O5490  1  0.521630  0.726110  0.779390  1.0  -0.6137
  O  O5491  1  0.190210  0.988050  0.101520  1.0  -0.6087
  O  O5492  1  0.856880  0.321380  0.434850  1.0  -0.6081
  O  O5493  1  0.523550  0.654720  0.768190  1.0  -0.6071
  O  O5494  1  0.265530  0.077860  0.100370  1.0  -0.6066
  O  O5495  1  0.932200  0.411190  0.433700  1.0  -0.6053
  O  O5496  1  0.598870  0.744520  0.767040  1.0  -0.6071
  O  O5497  1  0.163990  0.011200  0.110240  1.0  -0.6143
  O  O5498  1  0.830650  0.344530  0.443570  1.0  -0.611
  O  O5499  1  0.497320  0.677860  0.776900  1.0  -0.6103
  O  O5500  1  0.245050  0.096870  0.107250  1.0  -0.6009
  O  O5501  1  0.911710  0.430210  0.440580  1.0  -0.6008
  O  O5502  1  0.578380  0.763540  0.773920  1.0  -0.6009
  O  O5503  1  0.235390  0.017530  0.097220  1.0  -0.6071
  O  O5504  1  0.902060  0.350870  0.430560  1.0  -0.608
  O  O5505  1  0.568720  0.684200  0.763890  1.0  -0.6106
  O  O5506  1  0.285290  0.040700  0.105890  1.0  -0.6089
  O  O5507  1  0.951960  0.374030  0.439220  1.0  -0.6094
  O  O5508  1  0.618630  0.707360  0.772550  1.0  -0.6088
  O  O5509  1  0.252860  0.052570  0.125710  1.0  -0.6094
  O  O5510  1  0.919530  0.385900  0.459050  1.0  -0.6072
  O  O5511  1  0.586190  0.719240  0.792380  1.0  -0.6078
  O  O5512  1  0.279470  0.029140  0.117050  1.0  -0.6091
  O  O5513  1  0.946140  0.362470  0.450390  1.0  -0.6103
  O  O5514  1  0.612800  0.695810  0.783720  1.0  -0.6104
  O  O5515  1  0.237810  0.082410  0.121360  1.0  -0.6074
  O  O5516  1  0.904470  0.415740  0.454690  1.0  -0.6078
  O  O5517  1  0.571140  0.749080  0.788030  1.0  -0.6091
  O  O5518  1  0.182850  0.973400  0.115630  1.0  -0.601
  O  O5519  1  0.849520  0.306730  0.448960  1.0  -0.6024
  O  O5520  1  0.516190  0.640060  0.782300  1.0  -0.6026
  O  O5521  1  0.222200  0.992140  0.122550  1.0  -0.6071
  O  O5522  1  0.888860  0.325470  0.455890  1.0  -0.6069
  O  O5523  1  0.555530  0.658800  0.789220  1.0  -0.6069
  O  O5524  1  0.718090  0.779490  0.111100  1.0  -1.1834
  O  O5525  1  0.384750  0.112820  0.444430  1.0  -1.1835
  O  O5526  1  0.051420  0.446160  0.777770  1.0  -1.1834
  O  O5527  1  0.681700  0.786100  0.122180  1.0  -0.6093
  O  O5528  1  0.348370  0.119440  0.455510  1.0  -0.6094
  O  O5529  1  0.015040  0.452770  0.788850  1.0  -0.6087
  O  O5530  1  0.759230  0.844730  0.109930  1.0  -0.6084
  O  O5531  1  0.425900  0.178060  0.443270  1.0  -0.6118
  O  O5532  1  0.092570  0.511390  0.776600  1.0  -0.6123
  O  O5533  1  0.756580  0.770870  0.121060  1.0  -0.607
  O  O5534  1  0.423250  0.104200  0.454390  1.0  -0.6071
  O  O5535  1  0.089910  0.437530  0.787720  1.0  -0.6071
  O  O5536  1  0.702390  0.825540  0.115290  1.0  -0.6031
  O  O5537  1  0.369060  0.158870  0.448620  1.0  -0.6035
  O  O5538  1  0.035730  0.492210  0.781950  1.0  -0.604
  O  O5539  1  0.711420  0.755410  0.125330  1.0  -0.607
  O  O5540  1  0.378080  0.088740  0.458670  1.0  -0.6058
  O  O5541  1  0.044750  0.422070  0.792000  1.0  -0.6048
  O  O5542  1  0.783270  0.820620  0.112470  1.0  -0.6116
  O  O5543  1  0.449940  0.153950  0.445800  1.0  -0.6126
  O  O5544  1  0.116610  0.487280  0.779140  1.0  -0.6113
  O  O5545  1  0.764400  0.764090  0.106950  1.0  -0.6037
  O  O5546  1  0.431070  0.097420  0.440280  1.0  -0.6037
  O  O5547  1  0.097740  0.430760  0.773610  1.0  -0.6038
  O  O5548  1  0.667820  0.723450  0.105430  1.0  -0.6119
  O  O5549  1  0.334480  0.056780  0.438760  1.0  -0.6101
  O  O5550  1  0.001150  0.390120  0.772100  1.0  -0.6115
  O  O5551  1  0.725170  0.743540  0.099990  1.0  -0.6037
  O  O5552  1  0.391840  0.076870  0.433320  1.0  -0.6035
  O  O5553  1  0.058510  0.410200  0.766660  1.0  -0.6037
  O  O5554  1  0.661680  0.729110  0.116590  1.0  -0.6113
  O  O5555  1  0.328350  0.062450  0.449920  1.0  -0.6104
  O  O5556  1  0.995010  0.395780  0.783260  1.0  -0.6115
  O  O5557  1  0.710050  0.818500  0.101180  1.0  -0.6091
  O  O5558  1  0.376720  0.151830  0.434510  1.0  -0.6091
  O  O5559  1  0.043390  0.485160  0.767850  1.0  -0.6106
  O  O5560  1  0.694830  0.773560  0.096810  1.0  -0.6086
  O  O5561  1  0.361490  0.106900  0.430140  1.0  -0.6087
  O  O5562  1  0.028160  0.440230  0.763470  1.0  -0.6074
