# generated using pymatgen
data_Zn4H68C132O13
_symmetry_space_group_name_H-M   'P 1'
_cell_length_a   69.29800000
_cell_length_b   69.30550000
_cell_length_c   69.30130000
_cell_angle_alpha   89.64940000
_cell_angle_beta   92.91930000
_cell_angle_gamma   90.43360000
_symmetry_Int_Tables_number   1
_chemical_formula_structural   Zn4H68C132O13
_chemical_formula_sum   'Zn24 H408 C792 O78'
_cell_volume   332388.67712041
_cell_formula_units_Z   6
loop_
 _symmetry_equiv_pos_site_id
 _symmetry_equiv_pos_as_xyz
  1  'x, y, z'
loop_
 _atom_site_type_symbol
 _atom_site_label
 _atom_site_symmetry_multiplicity
 _atom_site_fract_x
 _atom_site_fract_y
 _atom_site_fract_z
 _atom_site_occupancy
 _atom_site_charge
  Zn  Zn1  1  0.519060  0.484250  0.504120  1.0  1.117
  Zn  Zn2  1  0.519190  0.529570  0.503900  1.0  1.1169
  Zn  Zn3  1  0.486020  0.506800  0.480310  1.0  1.1175
  Zn  Zn4  1  0.486930  0.506730  0.525650  1.0  1.1139
  Zn  Zn5  1  0.723680  0.006890  0.764420  1.0  1.1131
  Zn  Zn6  1  0.745150  0.984390  0.732220  1.0  1.1171
  Zn  Zn7  1  0.745470  0.029700  0.732180  1.0  1.118
  Zn  Zn8  1  0.769050  0.006910  0.765310  1.0  1.1172
  Zn  Zn9  1  0.018960  0.508090  0.515410  1.0  1.1208
  Zn  Zn10  1  0.985950  0.530590  0.491520  1.0  1.1137
  Zn  Zn11  1  0.018110  0.508090  0.470040  1.0  1.1138
  Zn  Zn12  1  0.985830  0.485270  0.491760  1.0  1.1184
  Zn  Zn13  1  0.253320  0.273930  0.021290  1.0  1.1145
  Zn  Zn14  1  0.229920  0.241320  0.998170  1.0  1.119
  Zn  Zn15  1  0.252190  0.274030  0.975920  1.0  1.1235
  Zn  Zn16  1  0.275300  0.241450  0.999260  1.0  1.1092
  Zn  Zn17  1  0.757740  0.985460  0.265510  1.0  1.1224
  Zn  Zn18  1  0.779450  0.008320  0.233240  1.0  1.1124
  Zn  Zn19  1  0.734100  0.008200  0.232380  1.0  1.1149
  Zn  Zn20  1  0.757930  0.030790  0.265430  1.0  1.1063
  Zn  Zn21  1  0.251070  0.741000  0.019640  1.0  1.1209
  Zn  Zn22  1  0.249880  0.741070  0.974250  1.0  1.1165
  Zn  Zn23  1  0.228000  0.773600  0.996280  1.0  1.1125
  Zn  Zn24  1  0.273370  0.773680  0.997340  1.0  1.1204
  H  H25  1  0.984240  0.258450  0.267820  1.0  0.1118
  H  H26  1  0.009130  0.232320  0.219610  1.0  0.1246
  H  H27  1  0.032870  0.284730  0.242830  1.0  0.1227
  H  H28  1  0.060660  0.268320  0.234040  1.0  0.1178
  H  H29  1  0.084760  0.268390  0.209560  1.0  0.1219
  H  H30  1  0.042400  0.248470  0.167590  1.0  0.1208
  H  H31  1  0.017950  0.248790  0.191680  1.0  0.1152
  H  H32  1  0.981090  0.225680  0.274800  1.0  0.1183
  H  H33  1  0.956010  0.200840  0.275270  1.0  0.1162
  H  H34  1  0.950820  0.201660  0.213830  1.0  0.1173
  H  H35  1  0.975540  0.226930  0.213030  1.0  0.1166
  H  H36  1  0.977530  0.291170  0.270460  1.0  0.1155
  H  H37  1  0.977090  0.315900  0.295300  1.0  0.118
  H  H38  1  0.038510  0.315370  0.300920  1.0  0.1205
  H  H39  1  0.039280  0.290210  0.276430  1.0  0.1175
  H  H40  1  0.917850  0.143560  0.221260  1.0  0.1249
  H  H41  1  0.892310  0.118810  0.222560  1.0  0.1201
  H  H42  1  0.871780  0.145090  0.272920  1.0  0.1221
  H  H43  1  0.897320  0.169830  0.271610  1.0  0.128
  H  H44  1  0.031160  0.373280  0.333630  1.0  0.125
  H  H45  1  0.029600  0.397890  0.358910  1.0  0.1182
  H  H46  1  0.978670  0.371200  0.378800  1.0  0.122
  H  H47  1  0.980230  0.346590  0.353510  1.0  0.1252
  H  H48  1  0.093280  0.233980  0.130790  1.0  0.1253
  H  H49  1  0.117660  0.233720  0.106210  1.0  0.1264
  H  H50  1  0.146200  0.281740  0.133430  1.0  0.1246
  H  H51  1  0.121820  0.281990  0.158010  1.0  0.1262
  H  H52  1  0.822450  0.102460  0.271190  1.0  0.1221
  H  H53  1  0.797350  0.077550  0.271670  1.0  0.1277
  H  H54  1  0.825710  0.046710  0.227980  1.0  0.1282
  H  H55  1  0.850540  0.071750  0.227780  1.0  0.1218
  H  H56  1  0.191630  0.279380  0.091050  1.0  0.1251
  H  H57  1  0.215980  0.279510  0.066860  1.0  0.1305
  H  H58  1  0.184280  0.235330  0.035780  1.0  0.1289
  H  H59  1  0.160110  0.235490  0.060190  1.0  0.1235
  H  H60  1  0.980240  0.413560  0.428030  1.0  0.1225
  H  H61  1  0.979600  0.438450  0.452820  1.0  0.1283
  H  H62  1  0.023290  0.470010  0.424190  1.0  0.1278
  H  H63  1  0.023640  0.445010  0.399690  1.0  0.1225
  H  H64  1  0.030720  0.733010  0.240630  1.0  0.1221
  H  H65  1  0.005820  0.784320  0.216190  1.0  0.1118
  H  H66  1  0.981690  0.759290  0.265880  1.0  0.1254
  H  H67  1  0.953860  0.769090  0.247640  1.0  0.1168
  H  H68  1  0.929600  0.794300  0.248760  1.0  0.1182
  H  H69  1  0.971370  0.836470  0.234010  1.0  0.1204
  H  H70  1  0.996040  0.811520  0.233330  1.0  0.1168
  H  H71  1  0.058180  0.750800  0.232100  1.0  0.1159
  H  H72  1  0.082250  0.750540  0.207600  1.0  0.1198
  H  H73  1  0.039530  0.767650  0.164750  1.0  0.1163
  H  H74  1  0.015100  0.767480  0.188910  1.0  0.1178
  H  H75  1  0.037280  0.726340  0.273470  1.0  0.119
  H  H76  1  0.036710  0.701080  0.298130  1.0  0.124
  H  H77  1  0.975240  0.701360  0.294780  1.0  0.1206
  H  H78  1  0.975440  0.726190  0.269730  1.0  0.1152
  H  H79  1  0.091990  0.782960  0.128300  1.0  0.1281
  H  H80  1  0.116570  0.782510  0.103920  1.0  0.1285
  H  H81  1  0.142560  0.733460  0.131580  1.0  0.1227
  H  H82  1  0.117990  0.733900  0.155960  1.0  0.1258
  H  H83  1  0.980100  0.670220  0.353310  1.0  0.1261
  H  H84  1  0.978990  0.645390  0.378760  1.0  0.1213
  H  H85  1  0.027850  0.618010  0.356370  1.0  0.1214
  H  H86  1  0.028960  0.642840  0.330930  1.0  0.125
  H  H87  1  0.916990  0.875010  0.220530  1.0  0.1219
  H  H88  1  0.891840  0.899680  0.222510  1.0  0.1256
  H  H89  1  0.869410  0.870180  0.270690  1.0  0.1219
  H  H90  1  0.894560  0.845510  0.268710  1.0  0.1258
  H  H91  1  0.189100  0.735450  0.089560  1.0  0.1212
  H  H92  1  0.213480  0.735160  0.065360  1.0  0.1294
  H  H93  1  0.182530  0.779320  0.033630  1.0  0.1289
  H  H94  1  0.158370  0.779320  0.058010  1.0  0.1246
  H  H95  1  0.821520  0.913830  0.270880  1.0  0.1238
  H  H96  1  0.796730  0.938680  0.271630  1.0  0.1286
  H  H97  1  0.825350  0.970400  0.228070  1.0  0.1279
  H  H98  1  0.849850  0.945440  0.227600  1.0  0.1203
  H  H99  1  0.023610  0.571480  0.398920  1.0  0.1216
  H  H100  1  0.023430  0.546450  0.423740  1.0  0.1286
  H  H101  1  0.979710  0.577210  0.452120  1.0  0.1276
  H  H102  1  0.980170  0.602100  0.427050  1.0  0.1248
  H  H103  1  0.021830  0.282460  0.742820  1.0  0.1238
  H  H104  1  0.970480  0.257630  0.716830  1.0  0.1172
  H  H105  1  0.996540  0.232870  0.768130  1.0  0.125
  H  H106  1  0.963430  0.230150  0.773730  1.0  0.116
  H  H107  1  0.938640  0.205010  0.774240  1.0  0.1183
  H  H108  1  0.939670  0.199580  0.713180  1.0  0.1209
  H  H109  1  0.964880  0.224340  0.712380  1.0  0.1166
  H  H110  1  0.027380  0.285160  0.709710  1.0  0.1157
  H  H111  1  0.027870  0.310260  0.684910  1.0  0.1187
  H  H112  1  0.966810  0.315630  0.686030  1.0  0.1171
  H  H113  1  0.966040  0.290900  0.711250  1.0  0.1151
  H  H114  1  0.049070  0.264530  0.753710  1.0  0.1169
  H  H115  1  0.074490  0.264750  0.779410  1.0  0.1234
  H  H116  1  0.033210  0.250620  0.820740  1.0  0.1181
  H  H117  1  0.007470  0.250840  0.795360  1.0  0.1167
  H  H118  1  0.973340  0.347600  0.627200  1.0  0.1232
  H  H119  1  0.974690  0.373060  0.602410  1.0  0.122
  H  H120  1  0.026550  0.395040  0.629990  1.0  0.1264
  H  H121  1  0.025200  0.369570  0.654780  1.0  0.1255
  H  H122  1  0.085600  0.234890  0.860510  1.0  0.1223
  H  H123  1  0.111380  0.234870  0.886260  1.0  0.124
  H  H124  1  0.140170  0.280420  0.857530  1.0  0.1279
  H  H125  1  0.114390  0.280430  0.831780  1.0  0.1263
  H  H126  1  0.880920  0.167450  0.719730  1.0  0.1223
  H  H127  1  0.856150  0.141940  0.721110  1.0  0.1272
  H  H128  1  0.883710  0.120170  0.773020  1.0  0.125
  H  H129  1  0.908490  0.145690  0.771640  1.0  0.1262
  H  H130  1  0.024500  0.444410  0.587620  1.0  0.1209
  H  H131  1  0.025030  0.469390  0.562620  1.0  0.1293
  H  H132  1  0.980630  0.438830  0.529870  1.0  0.1264
  H  H133  1  0.980400  0.414140  0.555010  1.0  0.122
  H  H134  1  0.841330  0.070660  0.770940  1.0  0.1259
  H  H135  1  0.816320  0.045660  0.771440  1.0  0.128
  H  H136  1  0.783610  0.076140  0.727040  1.0  0.1265
  H  H137  1  0.808770  0.100860  0.726840  1.0  0.121
  H  H138  1  0.186860  0.279580  0.903020  1.0  0.1237
  H  H139  1  0.212520  0.279740  0.928440  1.0  0.1291
  H  H140  1  0.182420  0.235530  0.958530  1.0  0.1279
  H  H141  1  0.156970  0.235670  0.932900  1.0  0.1231
  H  H142  1  0.020060  0.733880  0.740680  1.0  0.1117
  H  H143  1  0.993960  0.781920  0.766660  1.0  0.1221
  H  H144  1  0.969310  0.758860  0.714030  1.0  0.1209
  H  H145  1  0.941690  0.767980  0.730690  1.0  0.1166
  H  H146  1  0.916760  0.792690  0.731370  1.0  0.1246
  H  H147  1  0.958950  0.834060  0.750820  1.0  0.1202
  H  H148  1  0.984140  0.809790  0.749740  1.0  0.1171
  H  H149  1  0.024800  0.727120  0.773760  1.0  0.1214
  H  H150  1  0.050420  0.727130  0.799250  1.0  0.1196
  H  H151  1  0.052520  0.788490  0.797670  1.0  0.125
  H  H152  1  0.027280  0.788820  0.771790  1.0  0.1166
  H  H153  1  0.026910  0.730910  0.708110  1.0  0.1179
  H  H154  1  0.027540  0.705760  0.683510  1.0  0.1381
  H  H155  1  0.965270  0.701100  0.682840  1.0  0.118
  H  H156  1  0.964360  0.725610  0.707760  1.0  0.1142
  H  H157  1  0.086260  0.783240  0.856150  1.0  0.1276
  H  H158  1  0.112100  0.783140  0.881840  1.0  0.1246
  H  H159  1  0.134810  0.731760  0.858690  1.0  0.1235
  H  H160  1  0.108970  0.731870  0.833000  1.0  0.1267
  H  H161  1  0.972060  0.667660  0.625120  1.0  0.1241
  H  H162  1  0.973830  0.642180  0.600730  1.0  0.1239
  H  H163  1  0.025530  0.621290  0.629180  1.0  0.1218
  H  H164  1  0.023760  0.646770  0.653560  1.0  0.1272
  H  H165  1  0.908570  0.869980  0.768800  1.0  0.1228
  H  H166  1  0.883980  0.895220  0.770740  1.0  0.1218
  H  H167  1  0.853120  0.871460  0.721620  1.0  0.1213
  H  H168  1  0.877720  0.846230  0.719680  1.0  0.1214
  H  H169  1  0.184330  0.735430  0.901520  1.0  0.1235
  H  H170  1  0.210030  0.735270  0.926910  1.0  0.1287
  H  H171  1  0.180570  0.779400  0.956590  1.0  0.1292
  H  H172  1  0.155070  0.779260  0.931000  1.0  0.1212
  H  H173  1  0.807490  0.913490  0.726770  1.0  0.1214
  H  H174  1  0.782620  0.938070  0.727180  1.0  0.1251
  H  H175  1  0.815940  0.968150  0.771400  1.0  0.1276
  H  H176  1  0.840690  0.943270  0.770690  1.0  0.1216
  H  H177  1  0.024200  0.571740  0.587170  1.0  0.1205
  H  H178  1  0.024980  0.546870  0.562380  1.0  0.1295
  H  H179  1  0.980820  0.576870  0.529020  1.0  0.1255
  H  H180  1  0.980330  0.601440  0.553940  1.0  0.1223
  H  H181  1  0.508620  0.232860  0.229610  1.0  0.1243
  H  H182  1  0.534730  0.257430  0.280870  1.0  0.1173
  H  H183  1  0.483560  0.282000  0.254700  1.0  0.124
  H  H184  1  0.477910  0.284380  0.287740  1.0  0.1172
  H  H185  1  0.477430  0.309350  0.312350  1.0  0.121
  H  H186  1  0.538540  0.315310  0.311490  1.0  0.1204
  H  H187  1  0.539310  0.290710  0.286460  1.0  0.1163
  H  H188  1  0.541680  0.230450  0.224040  1.0  0.1156
  H  H189  1  0.566260  0.205490  0.223590  1.0  0.1158
  H  H190  1  0.565260  0.199560  0.284680  1.0  0.1199
  H  H191  1  0.540250  0.224140  0.285420  1.0  0.1155
  H  H192  1  0.497800  0.250910  0.202290  1.0  0.1167
  H  H193  1  0.472100  0.250710  0.176870  1.0  0.1171
  H  H194  1  0.430850  0.264210  0.218080  1.0  0.1181
  H  H195  1  0.456230  0.263950  0.243820  1.0  0.1151
  H  H196  1  0.623630  0.167520  0.278180  1.0  0.1207
  H  H197  1  0.648160  0.142170  0.276730  1.0  0.123
  H  H198  1  0.620520  0.121140  0.224650  1.0  0.1222
  H  H199  1  0.595990  0.146500  0.226100  1.0  0.1264
  H  H200  1  0.391710  0.280840  0.165040  1.0  0.1277
  H  H201  1  0.365950  0.280890  0.139270  1.0  0.1247
  H  H202  1  0.393230  0.234330  0.111810  1.0  0.1238
  H  H203  1  0.419000  0.234280  0.137580  1.0  0.1259
  H  H204  1  0.531780  0.347240  0.370020  1.0  0.1226
  H  H205  1  0.530280  0.372600  0.394550  1.0  0.1232
  H  H206  1  0.478530  0.393870  0.366520  1.0  0.1246
  H  H207  1  0.480040  0.368500  0.341970  1.0  0.1247
  H  H208  1  0.662390  0.071670  0.226710  1.0  0.1222
  H  H209  1  0.687190  0.046830  0.226160  1.0  0.1311
  H  H210  1  0.720260  0.077030  0.270460  1.0  0.1257
  H  H211  1  0.695330  0.101580  0.270710  1.0  0.1215
  H  H212  1  0.480340  0.443190  0.408600  1.0  0.1222
  H  H213  1  0.479760  0.468060  0.433400  1.0  0.1303
  H  H214  1  0.524070  0.437980  0.466490  1.0  0.1251
  H  H215  1  0.524350  0.413410  0.441550  1.0  0.1236
  H  H216  1  0.348160  0.235830  0.064650  1.0  0.1225
  H  H217  1  0.322720  0.235700  0.039010  1.0  0.1293
  H  H218  1  0.293120  0.279730  0.068710  1.0  0.1286
  H  H219  1  0.318760  0.279560  0.094150  1.0  0.1234
  H  H220  1  0.533360  0.756610  0.278130  1.0  0.1235
  H  H221  1  0.481180  0.732700  0.252980  1.0  0.122
  H  H222  1  0.506840  0.781920  0.227340  1.0  0.1134
  H  H223  1  0.473710  0.787940  0.222450  1.0  0.1188
  H  H224  1  0.448260  0.787830  0.196770  1.0  0.1212
  H  H225  1  0.450480  0.726570  0.194300  1.0  0.1211
  H  H226  1  0.476320  0.726350  0.219590  1.0  0.1183
  H  H227  1  0.516550  0.746920  0.305500  1.0  0.1186
  H  H228  1  0.516260  0.721920  0.330470  1.0  0.1218
  H  H229  1  0.497610  0.680450  0.288370  1.0  0.1216
  H  H230  1  0.498300  0.705060  0.263110  1.0  0.1155
  H  H231  1  0.538330  0.790150  0.283540  1.0  0.1165
  H  H232  1  0.563530  0.814960  0.283110  1.0  0.122
  H  H233  1  0.564450  0.810560  0.221950  1.0  0.1191
  H  H234  1  0.539680  0.785390  0.222090  1.0  0.1171
  H  H235  1  0.480670  0.643360  0.339380  1.0  0.1242
  H  H236  1  0.479490  0.618050  0.364340  1.0  0.1235
  H  H237  1  0.528240  0.643530  0.394520  1.0  0.1236
  H  H238  1  0.529420  0.668840  0.369570  1.0  0.1232
  H  H239  1  0.594920  0.869500  0.225200  1.0  0.1267
  H  H240  1  0.619750  0.895000  0.224140  1.0  0.1259
  H  H241  1  0.646890  0.872960  0.276130  1.0  0.1233
  H  H242  1  0.622060  0.847470  0.277200  1.0  0.122
  H  H243  1  0.391280  0.731710  0.161310  1.0  0.1252
  H  H244  1  0.365530  0.731740  0.135530  1.0  0.12
  H  H245  1  0.389440  0.782900  0.111790  1.0  0.1244
  H  H246  1  0.415200  0.782870  0.137580  1.0  0.1281
  H  H247  1  0.524470  0.600770  0.440650  1.0  0.124
  H  H248  1  0.524350  0.576050  0.465780  1.0  0.127
  H  H249  1  0.479840  0.545510  0.433160  1.0  0.1298
  H  H250  1  0.480260  0.570490  0.408190  1.0  0.125
  H  H251  1  0.346360  0.779280  0.062590  1.0  0.1214
  H  H252  1  0.320920  0.779430  0.036960  1.0  0.1289
  H  H253  1  0.290770  0.735260  0.067070  1.0  0.1272
  H  H254  1  0.316430  0.735410  0.092490  1.0  0.1242
  H  H255  1  0.694470  0.914180  0.270770  1.0  0.1226
  H  H256  1  0.719600  0.938940  0.270660  1.0  0.1275
  H  H257  1  0.686950  0.969410  0.226210  1.0  0.1305
  H  H258  1  0.661980  0.944380  0.226620  1.0  0.1252
  H  H259  1  0.497310  0.230820  0.779340  1.0  0.1145
  H  H260  1  0.521750  0.256550  0.730160  1.0  0.1226
  H  H261  1  0.472520  0.281750  0.754030  1.0  0.1226
  H  H262  1  0.490370  0.309090  0.744360  1.0  0.1172
  H  H263  1  0.490870  0.334080  0.719380  1.0  0.1229
  H  H264  1  0.504770  0.292070  0.677880  1.0  0.1199
  H  H265  1  0.503820  0.266800  0.702460  1.0  0.1164
  H  H266  1  0.530610  0.225200  0.785080  1.0  0.1153
  H  H267  1  0.555160  0.200150  0.784370  1.0  0.1199
  H  H268  1  0.549100  0.198920  0.722990  1.0  0.1192
  H  H269  1  0.524180  0.223540  0.723370  1.0  0.1163
  H  H270  1  0.464330  0.225930  0.783420  1.0  0.1154
  H  H271  1  0.440250  0.226330  0.807900  1.0  0.1227
  H  H272  1  0.445010  0.287470  0.811270  1.0  0.1229
  H  H273  1  0.469510  0.287370  0.787210  1.0  0.1179
  H  H274  1  0.607460  0.168330  0.726180  1.0  0.129
  H  H275  1  0.632680  0.143670  0.724730  1.0  0.1203
  H  H276  1  0.612820  0.117410  0.775860  1.0  0.1223
  H  H277  1  0.587600  0.142070  0.777310  1.0  0.122
  H  H278  1  0.386270  0.282860  0.840660  1.0  0.1255
  H  H279  1  0.361670  0.283130  0.865030  1.0  0.1268
  H  H280  1  0.385870  0.232190  0.890640  1.0  0.126
  H  H281  1  0.410470  0.231920  0.866280  1.0  0.1226
  H  H282  1  0.523680  0.343660  0.641510  1.0  0.1269
  H  H283  1  0.525030  0.368540  0.616130  1.0  0.1273
  H  H284  1  0.477890  0.397570  0.639970  1.0  0.1246
  H  H285  1  0.476540  0.372690  0.665340  1.0  0.1222
  H  H286  1  0.653400  0.070040  0.769920  1.0  0.122
  H  H287  1  0.677860  0.045010  0.769600  1.0  0.126
  H  H288  1  0.706600  0.076490  0.725940  1.0  0.1284
  H  H289  1  0.681870  0.101390  0.726550  1.0  0.1235
  H  H290  1  0.481490  0.443330  0.596750  1.0  0.1205
  H  H291  1  0.481670  0.468370  0.571940  1.0  0.1271
  H  H292  1  0.525310  0.437560  0.543480  1.0  0.1261
  H  H293  1  0.524840  0.412660  0.568550  1.0  0.122
  H  H294  1  0.345010  0.236020  0.937510  1.0  0.1229
  H  H295  1  0.320830  0.235890  0.961880  1.0  0.1292
  H  H296  1  0.289760  0.280040  0.930250  1.0  0.1259
  H  H297  1  0.314160  0.279890  0.906070  1.0  0.1248
  H  H298  1  0.494930  0.781600  0.777000  1.0  0.1147
  H  H299  1  0.470630  0.729880  0.752760  1.0  0.123
  H  H300  1  0.519400  0.756300  0.728140  1.0  0.1214
  H  H301  1  0.526360  0.723470  0.725520  1.0  0.1157
  H  H302  1  0.526960  0.698900  0.700560  1.0  0.119
  H  H303  1  0.465560  0.699370  0.694600  1.0  0.1212
  H  H304  1  0.464620  0.724390  0.719220  1.0  0.1166
  H  H305  1  0.485480  0.764980  0.804350  1.0  0.1184
  H  H306  1  0.460850  0.765290  0.828250  1.0  0.1211
  H  H307  1  0.418520  0.746540  0.785690  1.0  0.1217
  H  H308  1  0.442820  0.746650  0.761390  1.0  0.1163
  H  H309  1  0.504870  0.808710  0.759350  1.0  0.1179
  H  H310  1  0.529770  0.833810  0.759030  1.0  0.1222
  H  H311  1  0.571580  0.791960  0.745620  1.0  0.1194
  H  H312  1  0.547060  0.766580  0.746390  1.0  0.1165
  H  H313  1  0.381910  0.731770  0.838110  1.0  0.1226
  H  H314  1  0.357530  0.732140  0.862690  1.0  0.1227
  H  H315  1  0.384800  0.781610  0.888410  1.0  0.1247
  H  H316  1  0.409170  0.781240  0.863830  1.0  0.1247
  H  H317  1  0.608430  0.843260  0.727560  1.0  0.1266
  H  H318  1  0.633760  0.868240  0.726460  1.0  0.1248
  H  H319  1  0.608450  0.898080  0.772290  1.0  0.1238
  H  H320  1  0.583120  0.873100  0.773380  1.0  0.1223
  H  H321  1  0.473160  0.641610  0.661720  1.0  0.123
  H  H322  1  0.474940  0.617030  0.636430  1.0  0.1225
  H  H323  1  0.526060  0.643740  0.617020  1.0  0.127
  H  H324  1  0.524270  0.668320  0.642310  1.0  0.1257
  H  H325  1  0.343110  0.779290  0.935170  1.0  0.1242
  H  H326  1  0.318990  0.779540  0.959630  1.0  0.1305
  H  H327  1  0.287130  0.735390  0.928660  1.0  0.1287
  H  H328  1  0.311440  0.735420  0.904420  1.0  0.1232
  H  H329  1  0.524670  0.601370  0.567580  1.0  0.1212
  H  H330  1  0.525390  0.576440  0.542850  1.0  0.1311
  H  H331  1  0.481800  0.544800  0.571530  1.0  0.1264
  H  H332  1  0.481360  0.569840  0.595980  1.0  0.1209
  H  H333  1  0.652430  0.943480  0.769710  1.0  0.1201
  H  H334  1  0.677290  0.968520  0.769610  1.0  0.1281
  H  H335  1  0.705710  0.937760  0.725910  1.0  0.1273
  H  H336  1  0.680590  0.912860  0.726290  1.0  0.1224
  H  H337  1  0.285820  0.476580  0.498640  1.0  0.1322
  H  H338  1  0.321300  0.476420  0.499250  1.0  0.1336
  H  H339  1  0.322030  0.537820  0.498860  1.0  0.1302
  H  H340  1  0.286540  0.537980  0.498260  1.0  0.1396
  H  H341  1  0.219180  0.538280  0.497140  1.0  0.1346
  H  H342  1  0.183700  0.538440  0.496540  1.0  0.1296
  H  H343  1  0.182980  0.477040  0.496900  1.0  0.1266
  H  H344  1  0.218460  0.476880  0.497500  1.0  0.1342
  H  H345  1  0.388180  0.506870  0.469640  1.0  0.1285
  H  H346  1  0.423530  0.506740  0.470360  1.0  0.1216
  H  H347  1  0.425220  0.506650  0.532000  1.0  0.1219
  H  H348  1  0.389890  0.506780  0.531080  1.0  0.1263
  H  H349  1  0.116820  0.508040  0.526130  1.0  0.129
  H  H350  1  0.081460  0.508160  0.525400  1.0  0.1191
  H  H351  1  0.079790  0.508160  0.463770  1.0  0.1238
  H  H352  1  0.115120  0.508040  0.464690  1.0  0.1278
  H  H353  1  0.783320  0.503590  0.466020  1.0  0.1358
  H  H354  1  0.818690  0.503620  0.464640  1.0  0.1335
  H  H355  1  0.824200  0.511350  0.525550  1.0  0.1292
  H  H356  1  0.788840  0.511320  0.526920  1.0  0.134
  H  H357  1  0.721680  0.511290  0.529540  1.0  0.1346
  H  H358  1  0.686320  0.511260  0.530920  1.0  0.1282
  H  H359  1  0.680800  0.503480  0.470020  1.0  0.1299
  H  H360  1  0.716160  0.503510  0.468640  1.0  0.1424
  H  H361  1  0.888750  0.538270  0.492370  1.0  0.1279
  H  H362  1  0.923980  0.538450  0.491250  1.0  0.1233
  H  H363  1  0.923700  0.476880  0.491610  1.0  0.1235
  H  H364  1  0.888460  0.476890  0.492730  1.0  0.1272
  H  H365  1  0.616250  0.476580  0.503160  1.0  0.1269
  H  H366  1  0.581020  0.476390  0.504290  1.0  0.1209
  H  H367  1  0.581310  0.537960  0.504020  1.0  0.1234
  H  H368  1  0.616550  0.537960  0.502890  1.0  0.1243
  H  H369  1  0.251610  0.973180  0.028290  1.0  0.1353
  H  H370  1  0.251470  0.937720  0.028060  1.0  0.1283
  H  H371  1  0.251360  0.938490  0.966650  1.0  0.1234
  H  H372  1  0.251490  0.973950  0.966880  1.0  0.1357
  H  H373  1  0.251530  0.041260  0.967610  1.0  0.1367
  H  H374  1  0.251640  0.076630  0.967550  1.0  0.1336
  H  H375  1  0.252200  0.075320  0.029880  1.0  0.1408
  H  H376  1  0.252070  0.039830  0.029060  1.0  0.1368
  H  H377  1  0.281870  0.871000  0.997670  1.0  0.125
  H  H378  1  0.281810  0.835700  0.997510  1.0  0.1255
  H  H379  1  0.220180  0.835500  0.996090  1.0  0.1223
  H  H380  1  0.220430  0.870800  0.996250  1.0  0.1269
  H  H381  1  0.221080  0.143140  0.997770  1.0  0.1285
  H  H382  1  0.220580  0.178520  0.997940  1.0  0.1269
  H  H383  1  0.283080  0.179240  0.999430  1.0  0.1298
  H  H384  1  0.282560  0.144000  0.999250  1.0  0.1255
  H  H385  1  0.250940  0.541200  0.966970  1.0  0.133
  H  H386  1  0.250700  0.576650  0.966850  1.0  0.1364
  H  H387  1  0.251490  0.576470  0.028290  1.0  0.1404
  H  H388  1  0.251740  0.541020  0.028410  1.0  0.1365
  H  H389  1  0.252340  0.473820  0.028640  1.0  0.1342
  H  H390  1  0.252590  0.438360  0.028760  1.0  0.1389
  H  H391  1  0.251530  0.438540  0.967310  1.0  0.1376
  H  H392  1  0.251280  0.473990  0.967190  1.0  0.1358
  H  H393  1  0.251440  0.643700  0.028060  1.0  0.1319
  H  H394  1  0.251240  0.679000  0.028020  1.0  0.1237
  H  H395  1  0.249660  0.679130  0.966390  1.0  0.1247
  H  H396  1  0.249860  0.643830  0.966620  1.0  0.1295
  H  H397  1  0.251770  0.371330  0.967550  1.0  0.128
  H  H398  1  0.251970  0.336030  0.967570  1.0  0.1241
  H  H399  1  0.253490  0.335870  0.029210  1.0  0.1232
  H  H400  1  0.253280  0.371170  0.028980  1.0  0.1323
  H  H401  1  0.751340  0.038130  0.964850  1.0  0.1365
  H  H402  1  0.750710  0.037970  0.929370  1.0  0.1316
  H  H403  1  0.749930  0.976570  0.929980  1.0  0.1314
  H  H404  1  0.750560  0.976720  0.965460  1.0  0.1338
  H  H405  1  0.751600  0.977030  0.032830  1.0  0.1342
  H  H406  1  0.752230  0.977180  0.068310  1.0  0.1233
  H  H407  1  0.753290  0.038580  0.067700  1.0  0.1341
  H  H408  1  0.752660  0.038430  0.032220  1.0  0.1392
  H  H409  1  0.779710  0.007010  0.863150  1.0  0.1263
  H  H410  1  0.778980  0.006880  0.827800  1.0  0.1211
  H  H411  1  0.717350  0.006820  0.826120  1.0  0.123
  H  H412  1  0.718270  0.006940  0.861440  1.0  0.1284
  H  H413  1  0.784820  0.008280  0.136220  1.0  0.1255
  H  H414  1  0.785760  0.008410  0.171540  1.0  0.1208
  H  H415  1  0.724120  0.008200  0.169890  1.0  0.121
  H  H416  1  0.723380  0.008070  0.134540  1.0  0.1255
  H  H417  1  0.783610  0.007330  0.468030  1.0  0.1351
  H  H418  1  0.785000  0.007370  0.432680  1.0  0.1298
  H  H419  1  0.723570  0.007990  0.427140  1.0  0.1262
  H  H420  1  0.722180  0.007940  0.462500  1.0  0.1319
  H  H421  1  0.719540  0.007730  0.529660  1.0  0.1323
  H  H422  1  0.718150  0.007690  0.565020  1.0  0.1284
  H  H423  1  0.779580  0.007320  0.570550  1.0  0.1283
  H  H424  1  0.780970  0.007360  0.535190  1.0  0.1344
  H  H425  1  0.756990  0.038490  0.362640  1.0  0.128
  H  H426  1  0.758130  0.038680  0.327410  1.0  0.1211
  H  H427  1  0.757860  0.977110  0.327620  1.0  0.1239
  H  H428  1  0.756730  0.977120  0.362850  1.0  0.1265
  H  H429  1  0.746490  0.038070  0.634850  1.0  0.1279
  H  H430  1  0.745350  0.038070  0.670080  1.0  0.1233
  H  H431  1  0.744970  0.976500  0.670270  1.0  0.1199
  H  H432  1  0.746100  0.976690  0.635040  1.0  0.1246
  C  C433  1  0.449740  0.506650  0.501840  1.0  0.5144
  C  C434  1  0.503670  0.543600  0.540300  1.0  0.5752
  C  C435  1  0.503490  0.469980  0.540620  1.0  0.5775
  C  C436  1  0.555840  0.507090  0.504660  1.0  0.55
  C  C437  1  0.501900  0.469950  0.466870  1.0  0.5742
  C  C438  1  0.502110  0.543790  0.466520  1.0  0.5535
  C  C439  1  0.994900  0.243870  0.243540  1.0  0.0712
  C  C440  1  0.008720  0.244050  0.229750  1.0  -0.1451
  C  C441  1  0.022650  0.258540  0.229540  1.0  0.0643
  C  C442  1  0.022580  0.272990  0.243330  1.0  -0.1372
  C  C443  1  0.008730  0.273120  0.257090  1.0  0.0721
  C  C444  1  0.995010  0.258480  0.257100  1.0  -0.157
  C  C445  1  0.056300  0.264180  0.219450  1.0  -0.1219
  C  C446  1  0.070060  0.264080  0.205650  1.0  -0.0646
  C  C447  1  0.065180  0.258410  0.186970  1.0  0.0404
  C  C448  1  0.046400  0.252840  0.182210  1.0  -0.0606
  C  C449  1  0.032610  0.252880  0.195970  1.0  -0.1264
  C  C450  1  0.037400  0.258550  0.214770  1.0  0.0799
  C  C451  1  0.974440  0.220770  0.261260  1.0  -0.1195
  C  C452  1  0.960350  0.206560  0.261590  1.0  -0.0758
  C  C453  1  0.951770  0.199640  0.244600  1.0  0.0324
  C  C454  1  0.957520  0.206950  0.227220  1.0  -0.1065
  C  C455  1  0.971650  0.221140  0.226830  1.0  -0.1288
  C  C456  1  0.980190  0.228290  0.243860  1.0  0.0876
  C  C457  1  0.991080  0.296120  0.277160  1.0  -0.1192
  C  C458  1  0.990760  0.310270  0.291110  1.0  -0.0746
  C  C459  1  0.007750  0.317240  0.299750  1.0  0.0287
  C  C460  1  0.025120  0.310050  0.294180  1.0  -0.1071
  C  C461  1  0.025500  0.295910  0.280180  1.0  -0.1324
  C  C462  1  0.008450  0.288690  0.271610  1.0  0.0801
  C  C463  1  0.936820  0.185020  0.245080  1.0  -0.0089
  C  C464  1  0.924250  0.172820  0.245610  1.0  -0.0063
  C  C465  1  0.079580  0.258290  0.172560  1.0  -0.0139
  C  C466  1  0.091610  0.258160  0.160470  1.0  -0.0139
  C  C467  1  0.007260  0.331770  0.314580  1.0  -0.0042
  C  C468  1  0.006660  0.343900  0.327040  1.0  -0.0082
  C  C469  1  0.907740  0.143930  0.232620  1.0  -0.1368
  C  C470  1  0.893380  0.130020  0.233360  1.0  -0.1219
  C  C471  1  0.880390  0.130350  0.247820  1.0  0.0536
  C  C472  1  0.881880  0.144720  0.261550  1.0  -0.1181
  C  C473  1  0.896250  0.158640  0.260810  1.0  -0.1394
  C  C474  1  0.909230  0.158300  0.246350  1.0  0.0764
  C  C475  1  0.019620  0.372780  0.343540  1.0  -0.1323
  C  C476  1  0.018740  0.386620  0.357770  1.0  -0.1252
  C  C477  1  0.004040  0.386140  0.370500  1.0  0.058
  C  C478  1  0.990230  0.371690  0.368900  1.0  -0.1172
  C  C479  1  0.991110  0.357840  0.354680  1.0  -0.1367
  C  C480  1  0.005810  0.358330  0.341940  1.0  0.0791
  C  C481  1  0.104900  0.244490  0.131420  1.0  -0.1411
  C  C482  1  0.118610  0.244350  0.117580  1.0  -0.1359
  C  C483  1  0.133520  0.257710  0.118210  1.0  0.0662
  C  C484  1  0.134590  0.271220  0.132810  1.0  -0.1318
  C  C485  1  0.120870  0.271370  0.146650  1.0  -0.1323
  C  C486  1  0.105960  0.258000  0.146020  1.0  0.072
  C  C487  1  0.865410  0.115780  0.248570  1.0  -0.0783
  C  C488  1  0.852930  0.103500  0.249070  1.0  -0.0818
  C  C489  1  0.147860  0.257570  0.103740  1.0  -0.0861
  C  C490  1  0.159890  0.257490  0.091640  1.0  -0.0874
  C  C491  1  0.003130  0.400650  0.385310  1.0  -0.0759
  C  C492  1  0.002500  0.412900  0.397640  1.0  -0.0821
  C  C493  1  0.823130  0.090170  0.261720  1.0  -0.1367
  C  C494  1  0.808940  0.076020  0.261950  1.0  -0.0966
  C  C495  1  0.809600  0.060200  0.249860  1.0  -0.0766
  C  C496  1  0.824710  0.058820  0.237610  1.0  -0.0949
  C  C497  1  0.838850  0.072990  0.237430  1.0  -0.1328
  C  C498  1  0.838130  0.088720  0.249450  1.0  0.062
  C  C499  1  0.190040  0.269710  0.078890  1.0  -0.1302
  C  C500  1  0.203820  0.269720  0.065130  1.0  -0.094
  C  C501  1  0.202020  0.257420  0.049430  1.0  -0.0781
  C  C502  1  0.186160  0.245110  0.047820  1.0  -0.0901
  C  C503  1  0.172410  0.245150  0.061630  1.0  -0.129
  C  C504  1  0.174270  0.257440  0.077220  1.0  0.0584
  C  C505  1  0.989660  0.426010  0.427220  1.0  -0.1365
  C  C506  1  0.989340  0.440150  0.441230  1.0  -0.1014
  C  C507  1  0.001390  0.456160  0.440410  1.0  -0.0813
  C  C508  1  0.013680  0.457750  0.425310  1.0  -0.1021
  C  C509  1  0.013950  0.443600  0.411360  1.0  -0.131
  C  C510  1  0.001990  0.427670  0.412250  1.0  0.0584
  C  C511  1  0.020010  0.758940  0.227180  1.0  0.066
  C  C512  1  0.005840  0.773090  0.227050  1.0  -0.1466
  C  C513  1  0.991740  0.773140  0.240600  1.0  0.0377
  C  C514  1  0.991800  0.758770  0.254550  1.0  -0.1572
  C  C515  1  0.006470  0.743760  0.254910  1.0  0.0228
  C  C516  1  0.020240  0.744420  0.241120  1.0  -0.1444
  C  C517  1  0.958050  0.783840  0.244810  1.0  -0.1239
  C  C518  1  0.944200  0.798060  0.245300  1.0  -0.1045
  C  C519  1  0.948890  0.817020  0.241470  1.0  0.0237
  C  C520  1  0.967540  0.821630  0.236950  1.0  -0.0994
  C  C521  1  0.981440  0.807420  0.236410  1.0  -0.1181
  C  C522  1  0.976860  0.788370  0.240460  1.0  0.0744
  C  C523  1  0.053750  0.754310  0.217320  1.0  -0.1268
  C  C524  1  0.067490  0.754300  0.203510  1.0  -0.1046
  C  C525  1  0.062490  0.759090  0.184570  1.0  0.0367
  C  C526  1  0.043620  0.763960  0.179570  1.0  -0.0834
  C  C527  1  0.029840  0.764030  0.193360  1.0  -0.128
  C  C528  1  0.034750  0.759150  0.212410  1.0  0.0871
  C  C529  1  0.023500  0.720790  0.277710  1.0  -0.1221
  C  C530  1  0.023250  0.706600  0.291840  1.0  -0.0905
  C  C531  1  0.005940  0.699590  0.298080  1.0  0.0537
  C  C532  1  0.988870  0.706820  0.290030  1.0  -0.0766
  C  C533  1  0.989060  0.721030  0.275960  1.0  -0.1265
  C  C534  1  0.006380  0.728220  0.269660  1.0  0.0665
  C  C535  1  0.076870  0.758910  0.170140  1.0  -0.0045
  C  C536  1  0.088940  0.758720  0.158090  1.0  -0.0056
  C  C537  1  0.934400  0.831840  0.242400  1.0  -0.0091
  C  C538  1  0.922140  0.844120  0.243320  1.0  -0.0084
  C  C539  1  0.005620  0.684940  0.312980  1.0  -0.0054
  C  C540  1  0.005210  0.672700  0.325510  1.0  -0.006
  C  C541  1  0.103090  0.772060  0.129060  1.0  -0.1403
  C  C542  1  0.116920  0.771810  0.115340  1.0  -0.1379
  C  C543  1  0.131170  0.757960  0.116150  1.0  0.0575
  C  C544  1  0.131460  0.744350  0.130820  1.0  -0.1333
  C  C545  1  0.117630  0.744600  0.144540  1.0  -0.1354
  C  C546  1  0.103380  0.758460  0.143730  1.0  0.076
  C  C547  1  0.990620  0.658760  0.353960  1.0  -0.1396
  C  C548  1  0.989990  0.644800  0.368270  1.0  -0.1168
  C  C549  1  0.003350  0.630100  0.369210  1.0  0.0596
  C  C550  1  0.017350  0.629480  0.355730  1.0  -0.1194
  C  C551  1  0.017970  0.643440  0.341420  1.0  -0.1298
  C  C552  1  0.004610  0.658140  0.340480  1.0  0.0779
  C  C553  1  0.906560  0.873920  0.231580  1.0  -0.1345
  C  C554  1  0.892410  0.887790  0.232690  1.0  -0.1428
  C  C555  1  0.879000  0.886530  0.246730  1.0  0.0634
  C  C556  1  0.879860  0.871290  0.259660  1.0  -0.1319
  C  C557  1  0.894000  0.857410  0.258550  1.0  -0.1382
  C  C558  1  0.907410  0.858660  0.244500  1.0  0.0785
  C  C559  1  0.145630  0.757710  0.101810  1.0  -0.0834
  C  C560  1  0.157730  0.757540  0.089780  1.0  -0.0842
  C  C561  1  0.864210  0.901030  0.247820  1.0  -0.0801
  C  C562  1  0.851890  0.913270  0.248570  1.0  -0.079
  C  C563  1  0.002710  0.615490  0.384130  1.0  -0.0746
  C  C564  1  0.002270  0.603190  0.396580  1.0  -0.0813
  C  C565  1  0.187680  0.745080  0.077250  1.0  -0.1266
  C  C566  1  0.201480  0.744960  0.063480  1.0  -0.0929
  C  C567  1  0.199900  0.757220  0.047610  1.0  -0.0814
  C  C568  1  0.184240  0.769560  0.045810  1.0  -0.0895
  C  C569  1  0.170490  0.769620  0.059600  1.0  -0.1315
  C  C570  1  0.172130  0.757400  0.075380  1.0  0.0664
  C  C571  1  0.822330  0.926310  0.261510  1.0  -0.1347
  C  C572  1  0.808320  0.940430  0.261900  1.0  -0.0965
  C  C573  1  0.809130  0.956470  0.249910  1.0  -0.0834
  C  C574  1  0.824240  0.958110  0.237630  1.0  -0.103
  C  C575  1  0.838190  0.943990  0.237300  1.0  -0.1283
  C  C576  1  0.837300  0.928020  0.249190  1.0  0.0646
  C  C577  1  0.013950  0.572710  0.410620  1.0  -0.1254
  C  C578  1  0.013790  0.558540  0.424740  1.0  -0.0913
  C  C579  1  0.001540  0.559900  0.439860  1.0  -0.0781
  C  C580  1  0.989430  0.575690  0.440530  1.0  -0.0947
  C  C581  1  0.989650  0.589840  0.426350  1.0  -0.143
  C  C582  1  0.001920  0.588410  0.411360  1.0  0.0629
  C  C583  1  0.996440  0.271380  0.727880  1.0  0.0844
  C  C584  1  0.981800  0.257640  0.728130  1.0  -0.1612
  C  C585  1  0.981570  0.243910  0.742760  1.0  0.0838
  C  C586  1  0.996160  0.244030  0.757180  1.0  -0.1419
  C  C587  1  0.010850  0.257670  0.757140  1.0  0.0808
  C  C588  1  0.010880  0.271290  0.742450  1.0  -0.142
  C  C589  1  0.958560  0.223430  0.760300  1.0  -0.1219
  C  C590  1  0.944390  0.209320  0.760650  1.0  -0.113
  C  C591  1  0.937560  0.200680  0.743760  1.0  0.0366
  C  C592  1  0.944900  0.206350  0.726470  1.0  -0.09
  C  C593  1  0.959050  0.220510  0.726060  1.0  -0.116
  C  C594  1  0.966090  0.229130  0.743000  1.0  0.0918
  C  C595  1  0.013950  0.291860  0.704850  1.0  -0.1243
  C  C596  1  0.014280  0.305950  0.690680  1.0  -0.1125
  C  C597  1  0.997390  0.314560  0.683870  1.0  0.0359
  C  C598  1  0.980110  0.308880  0.691240  1.0  -0.092
  C  C599  1  0.979710  0.294740  0.705390  1.0  -0.1182
  C  C600  1  0.996660  0.286150  0.712410  1.0  0.0937
  C  C601  1  0.045280  0.261720  0.768390  1.0  -0.1246
  C  C602  1  0.059740  0.261690  0.782870  1.0  -0.0719
  C  C603  1  0.055480  0.257680  0.801700  1.0  0.0365
  C  C604  1  0.036650  0.253680  0.805990  1.0  -0.0675
  C  C605  1  0.022160  0.253650  0.791540  1.0  -0.13
  C  C606  1  0.026330  0.257680  0.772590  1.0  0.083
  C  C607  1  0.997880  0.329470  0.669280  1.0  -0.0035
  C  C608  1  0.998420  0.342000  0.657090  1.0  -0.001
  C  C609  1  0.922980  0.185740  0.744270  1.0  -0.0063
  C  C610  1  0.910800  0.173180  0.744830  1.0  -0.0019
  C  C611  1  0.070590  0.257680  0.816780  1.0  -0.0063
  C  C612  1  0.083260  0.257670  0.829430  1.0  -0.006
  C  C613  1  0.985040  0.358010  0.627850  1.0  -0.1366
  C  C614  1  0.985800  0.372320  0.613910  1.0  -0.1211
  C  C615  1  0.000710  0.385670  0.614620  1.0  0.0606
  C  C616  1  0.014840  0.384630  0.629350  1.0  -0.1233
  C  C617  1  0.014080  0.370320  0.643290  1.0  -0.1303
  C  C618  1  0.999180  0.356960  0.642580  1.0  0.1037
  C  C619  1  0.097580  0.244900  0.859840  1.0  -0.1322
  C  C620  1  0.112060  0.244890  0.874300  1.0  -0.1379
  C  C621  1  0.127410  0.257640  0.873520  1.0  0.0933
  C  C622  1  0.128190  0.270400  0.858210  1.0  -0.117
  C  C623  1  0.113710  0.270410  0.843740  1.0  -0.1318
  C  C624  1  0.098370  0.257660  0.844520  1.0  0.0966
  C  C625  1  0.881570  0.157070  0.731450  1.0  -0.1367
  C  C626  1  0.867650  0.142740  0.732220  1.0  -0.1231
  C  C627  1  0.868350  0.129430  0.747150  1.0  0.0557
  C  C628  1  0.883080  0.130540  0.761290  1.0  -0.1159
  C  C629  1  0.897000  0.144880  0.760520  1.0  -0.132
  C  C630  1  0.896290  0.158190  0.745600  1.0  0.0789
  C  C631  1  0.001490  0.400560  0.600030  1.0  -0.077
  C  C632  1  0.002010  0.412980  0.587720  1.0  -0.0833
  C  C633  1  0.853770  0.114510  0.747940  1.0  -0.08
  C  C634  1  0.841470  0.102070  0.748460  1.0  -0.0878
  C  C635  1  0.142510  0.257630  0.888610  1.0  -0.0818
  C  C636  1  0.155180  0.257630  0.901260  1.0  -0.0847
  C  C637  1  0.014900  0.443230  0.574880  1.0  -0.1207
  C  C638  1  0.015150  0.457340  0.560690  1.0  -0.091
  C  C639  1  0.002870  0.456020  0.544320  1.0  -0.0865
  C  C640  1  0.990410  0.440330  0.542420  1.0  -0.0879
  C  C641  1  0.990220  0.426280  0.556640  1.0  -0.1442
  C  C642  1  0.002420  0.427680  0.572910  1.0  0.0629
  C  C643  1  0.828610  0.071820  0.761330  1.0  -0.1297
  C  C644  1  0.814400  0.057700  0.761560  1.0  -0.0917
  C  C645  1  0.798050  0.058990  0.749280  1.0  -0.0913
  C  C646  1  0.796160  0.074660  0.736820  1.0  -0.0881
  C  C647  1  0.810380  0.088720  0.736650  1.0  -0.1404
  C  C648  1  0.826650  0.087360  0.748860  1.0  0.0626
  C  C649  1  0.185940  0.269920  0.915250  1.0  -0.131
  C  C650  1  0.200440  0.269950  0.929690  1.0  -0.1004
  C  C651  1  0.199420  0.257630  0.945430  1.0  -0.0847
  C  C652  1  0.183670  0.245310  0.946460  1.0  -0.0923
  C  C653  1  0.169200  0.245340  0.931970  1.0  -0.1325
  C  C654  1  0.170290  0.257630  0.916340  1.0  0.068
  C  C655  1  0.008840  0.758110  0.755150  1.0  0.0879
  C  C656  1  0.994410  0.771820  0.754890  1.0  -0.1403
  C  C657  1  0.980000  0.772080  0.740290  1.0  0.0796
  C  C658  1  0.980070  0.758310  0.725840  1.0  -0.1367
  C  C659  1  0.994520  0.744550  0.725840  1.0  0.0643
  C  C660  1  0.008800  0.744560  0.740570  1.0  -0.1424
  C  C661  1  0.945780  0.782510  0.734850  1.0  -0.1205
  C  C662  1  0.931590  0.796410  0.735370  1.0  -0.0754
  C  C663  1  0.936240  0.814950  0.741190  1.0  0.0242
  C  C664  1  0.955180  0.819540  0.746350  1.0  -0.0639
  C  C665  1  0.969380  0.805680  0.745880  1.0  -0.1214
  C  C666  1  0.964820  0.786980  0.740230  1.0  0.0697
  C  C667  1  0.030910  0.740740  0.778640  1.0  -0.1293
  C  C668  1  0.045290  0.740680  0.793200  1.0  -0.0825
  C  C669  1  0.053100  0.757800  0.800100  1.0  0.0526
  C  C670  1  0.046400  0.775020  0.792390  1.0  -0.1135
  C  C671  1  0.031990  0.775140  0.777860  1.0  -0.1303
  C  C672  1  0.024120  0.757980  0.770810  1.0  0.0885
  C  C673  1  0.013520  0.724170  0.702980  1.0  -0.1617
  C  C674  1  0.013930  0.710180  0.688970  1.0  -0.1087
  C  C675  1  0.995930  0.701470  0.681480  1.0  -0.0141
  C  C676  1  0.978650  0.707590  0.688360  1.0  -0.1049
  C  C677  1  0.978180  0.721700  0.702450  1.0  -0.0928
  C  C678  1  0.995030  0.730150  0.710210  1.0  0.02
  C  C679  1  0.068190  0.757710  0.815210  1.0  -0.0079
  C  C680  1  0.080850  0.757640  0.827870  1.0  -0.008
  C  C681  1  0.921450  0.829450  0.742070  1.0  -0.0131
  C  C682  1  0.909210  0.841730  0.742960  1.0  -0.01
  C  C683  1  0.996280  0.686470  0.667130  1.0  0.0257
  C  C684  1  0.996860  0.673880  0.655160  1.0  -0.0042
  C  C685  1  0.096910  0.771920  0.856690  1.0  -0.1406
  C  C686  1  0.111430  0.771860  0.871120  1.0  -0.1182
  C  C687  1  0.125090  0.757440  0.871900  1.0  0.0967
  C  C688  1  0.124150  0.743080  0.858160  1.0  -0.1223
  C  C689  1  0.109630  0.743140  0.843720  1.0  -0.133
  C  C690  1  0.095980  0.757560  0.842950  1.0  0.0981
  C  C691  1  0.983810  0.657470  0.626060  1.0  -0.1353
  C  C692  1  0.984810  0.643150  0.612350  1.0  -0.1211
  C  C693  1  0.999790  0.630090  0.613400  1.0  0.06
  C  C694  1  0.013750  0.631450  0.628270  1.0  -0.1221
  C  C695  1  0.012760  0.645770  0.641980  1.0  -0.1359
  C  C696  1  0.997790  0.658840  0.640920  1.0  0.0778
  C  C697  1  0.896390  0.870270  0.758420  1.0  -0.133
  C  C698  1  0.882560  0.884460  0.759510  1.0  -0.1401
  C  C699  1  0.866970  0.884960  0.746300  1.0  0.059
  C  C700  1  0.865290  0.871160  0.732010  1.0  -0.1328
  C  C701  1  0.879110  0.856970  0.730920  1.0  -0.1338
  C  C702  1  0.894720  0.856480  0.744120  1.0  0.0737
  C  C703  1  0.140240  0.757390  0.886950  1.0  -0.0769
  C  C704  1  0.152940  0.757360  0.899570  1.0  -0.0867
  C  C705  1  0.852540  0.899780  0.747370  1.0  -0.08
  C  C706  1  0.840360  0.912140  0.748090  1.0  -0.0794
  C  C707  1  0.000850  0.615210  0.599000  1.0  -0.0724
  C  C708  1  0.001590  0.602830  0.586830  1.0  -0.0858
  C  C709  1  0.183560  0.745080  0.913650  1.0  -0.1297
  C  C710  1  0.198080  0.745040  0.928070  1.0  -0.0983
  C  C711  1  0.197260  0.757340  0.943700  1.0  -0.0847
  C  C712  1  0.181660  0.769630  0.944610  1.0  -0.0983
  C  C713  1  0.167180  0.769610  0.930150  1.0  -0.1342
  C  C714  1  0.168070  0.757350  0.914640  1.0  0.0617
  C  C715  1  0.809310  0.925490  0.736600  1.0  -0.1307
  C  C716  1  0.795240  0.939490  0.736900  1.0  -0.1024
  C  C717  1  0.797370  0.955020  0.749350  1.0  -0.0853
  C  C718  1  0.813820  0.956220  0.761530  1.0  -0.0901
  C  C719  1  0.827880  0.942160  0.761170  1.0  -0.1292
  C  C720  1  0.825680  0.926770  0.748680  1.0  0.0644
  C  C721  1  0.014710  0.572830  0.574340  1.0  -0.1234
  C  C722  1  0.015110  0.558780  0.560260  1.0  -0.0893
  C  C723  1  0.002970  0.559970  0.543790  1.0  -0.0883
  C  C724  1  0.990500  0.575470  0.541660  1.0  -0.0905
  C  C725  1  0.990160  0.589450  0.555750  1.0  -0.1388
  C  C726  1  0.002210  0.588190  0.572140  1.0  0.0581
  C  C727  1  0.782900  0.043920  0.749240  1.0  0.5683
  C  C728  1  0.782400  0.970060  0.749360  1.0  0.5747
  C  C729  1  0.747510  0.006800  0.801590  1.0  0.5191
  C  C730  1  0.708620  0.970150  0.747800  1.0  0.5841
  C  C731  1  0.709100  0.043740  0.747720  1.0  0.5774
  C  C732  1  0.744660  0.007210  0.695500  1.0  0.5519
  C  C733  1  0.523630  0.243820  0.254960  1.0  0.0728
  C  C734  1  0.523430  0.257430  0.269550  1.0  -0.1556
  C  C735  1  0.508860  0.271030  0.269740  1.0  0.077
  C  C736  1  0.494450  0.270920  0.255130  1.0  -0.1338
  C  C737  1  0.494420  0.257430  0.240490  1.0  0.0809
  C  C738  1  0.509050  0.243930  0.240520  1.0  -0.1366
  C  C739  1  0.491360  0.291180  0.292610  1.0  -0.124
  C  C740  1  0.491030  0.305200  0.306680  1.0  -0.1128
  C  C741  1  0.507930  0.313950  0.313510  1.0  0.0353
  C  C742  1  0.525230  0.308460  0.306270  1.0  -0.0922
  C  C743  1  0.525620  0.294390  0.292220  1.0  -0.1179
  C  C744  1  0.508660  0.285670  0.285160  1.0  0.0898
  C  C745  1  0.546510  0.223660  0.237490  1.0  -0.1243
  C  C746  1  0.560570  0.209650  0.237180  1.0  -0.1082
  C  C747  1  0.567350  0.200900  0.254080  1.0  0.0331
  C  C748  1  0.560080  0.206400  0.271370  1.0  -0.0884
  C  C749  1  0.546030  0.220460  0.271740  1.0  -0.1168
  C  C750  1  0.539030  0.229170  0.254770  1.0  0.0797
  C  C751  1  0.483130  0.253580  0.206070  1.0  -0.129
  C  C752  1  0.468650  0.253630  0.191600  1.0  -0.0715
  C  C753  1  0.449840  0.257470  0.195840  1.0  0.033
  C  C754  1  0.445580  0.261280  0.214650  1.0  -0.0724
  C  C755  1  0.460030  0.261290  0.229150  1.0  -0.1252
  C  C756  1  0.478960  0.257430  0.225000  1.0  0.0825
  C  C757  1  0.581800  0.186040  0.253600  1.0  -0.0063
  C  C758  1  0.593870  0.173550  0.253040  1.0  -0.0097
  C  C759  1  0.507430  0.328820  0.327970  1.0  -0.0062
  C  C760  1  0.506840  0.341320  0.340040  1.0  -0.005
  C  C761  1  0.434750  0.257490  0.180720  1.0  -0.0098
  C  C762  1  0.422090  0.257520  0.168050  1.0  -0.0064
  C  C763  1  0.622910  0.157340  0.266410  1.0  -0.1321
  C  C764  1  0.636700  0.143090  0.265600  1.0  -0.1219
  C  C765  1  0.635910  0.130030  0.250600  1.0  0.0624
  C  C766  1  0.621230  0.131310  0.236430  1.0  -0.1199
  C  C767  1  0.607440  0.145560  0.237250  1.0  -0.1393
  C  C768  1  0.608230  0.158630  0.252240  1.0  0.077
  C  C769  1  0.392070  0.270610  0.153350  1.0  -0.1349
  C  C770  1  0.377600  0.270640  0.138870  1.0  -0.1357
  C  C771  1  0.377960  0.257620  0.123910  1.0  0.0612
  C  C772  1  0.392880  0.244560  0.123500  1.0  -0.1382
  C  C773  1  0.407350  0.244530  0.137970  1.0  -0.1346
  C  C774  1  0.406990  0.257550  0.152940  1.0  0.0995
  C  C775  1  0.520080  0.357470  0.369210  1.0  -0.1325
  C  C776  1  0.519230  0.371730  0.383000  1.0  -0.1207
  C  C777  1  0.504310  0.384860  0.382110  1.0  0.055
  C  C778  1  0.490250  0.383640  0.367310  1.0  -0.1179
  C  C779  1  0.491100  0.369380  0.353510  1.0  -0.1347
  C  C780  1  0.506010  0.356240  0.354420  1.0  0.0762
  C  C781  1  0.650360  0.115200  0.249760  1.0  -0.0747
  C  C782  1  0.662560  0.102840  0.249190  1.0  -0.0837
  C  C783  1  0.503440  0.399700  0.396560  1.0  -0.0751
  C  C784  1  0.502850  0.412070  0.408770  1.0  -0.0804
  C  C785  1  0.362850  0.257650  0.108800  1.0  -0.0785
  C  C786  1  0.350190  0.257670  0.096140  1.0  -0.0831
  C  C787  1  0.675150  0.072800  0.236280  1.0  -0.1246
  C  C788  1  0.689240  0.058770  0.236020  1.0  -0.0917
  C  C789  1  0.705640  0.060020  0.248270  1.0  -0.0821
  C  C790  1  0.707680  0.075570  0.260700  1.0  -0.0882
  C  C791  1  0.693580  0.089550  0.260910  1.0  -0.138
  C  C792  1  0.677270  0.088220  0.248750  1.0  0.0564
  C  C793  1  0.489910  0.442090  0.421360  1.0  -0.1296
  C  C794  1  0.489630  0.456140  0.435460  1.0  -0.0974
  C  C795  1  0.501870  0.454920  0.451860  1.0  -0.0843
  C  C796  1  0.514310  0.439400  0.453910  1.0  -0.09
  C  C797  1  0.514540  0.425410  0.439800  1.0  -0.1416
  C  C798  1  0.502380  0.426700  0.423480  1.0  0.0642
  C  C799  1  0.336040  0.245460  0.065490  1.0  -0.131
  C  C800  1  0.321580  0.245450  0.051000  1.0  -0.0975
  C  C801  1  0.305970  0.257710  0.051900  1.0  -0.085
  C  C802  1  0.305090  0.269980  0.067550  1.0  -0.0962
  C  C803  1  0.319580  0.269940  0.082000  1.0  -0.1307
  C  C804  1  0.335090  0.257690  0.081030  1.0  0.0592
  C  C805  1  0.507320  0.742960  0.267190  1.0  0.0775
  C  C806  1  0.492840  0.743100  0.252660  1.0  -0.1404
  C  C807  1  0.492550  0.757080  0.238300  1.0  0.083
  C  C808  1  0.506990  0.771000  0.238520  1.0  -0.1624
  C  C809  1  0.521610  0.771080  0.252920  1.0  0.082
  C  C810  1  0.521630  0.757060  0.267270  1.0  -0.1446
  C  C811  1  0.468980  0.774330  0.216240  1.0  -0.1262
  C  C812  1  0.454450  0.774330  0.201830  1.0  -0.0884
  C  C813  1  0.447740  0.757200  0.193910  1.0  0.0298
  C  C814  1  0.455620  0.740040  0.200520  1.0  -0.1207
  C  C815  1  0.470130  0.739980  0.214950  1.0  -0.1286
  C  C816  1  0.476980  0.757140  0.222940  1.0  0.084
  C  C817  1  0.512650  0.732330  0.301430  1.0  -0.1196
  C  C818  1  0.512340  0.718250  0.315650  1.0  -0.0568
  C  C819  1  0.506880  0.699590  0.311040  1.0  0.0377
  C  C820  1  0.501810  0.695070  0.292100  1.0  -0.0627
  C  C821  1  0.502050  0.709100  0.277870  1.0  -0.121
  C  C822  1  0.507410  0.727900  0.282400  1.0  0.0903
  C  C823  1  0.544120  0.794250  0.269910  1.0  -0.1259
  C  C824  1  0.558270  0.808420  0.269720  1.0  -0.1136
  C  C825  1  0.565570  0.814390  0.252500  1.0  0.0289
  C  C826  1  0.558710  0.806030  0.235480  1.0  -0.0776
  C  C827  1  0.544550  0.791900  0.235620  1.0  -0.117
  C  C828  1  0.537040  0.785920  0.252830  1.0  0.0929
  C  C829  1  0.506350  0.684920  0.325870  1.0  -0.0064
  C  C830  1  0.505820  0.672540  0.338220  1.0  -0.0029
  C  C831  1  0.432630  0.757240  0.178830  1.0  -0.0103
  C  C832  1  0.419960  0.757260  0.166170  1.0  -0.0072
  C  C833  1  0.580170  0.829330  0.252220  1.0  -0.0066
  C  C834  1  0.592370  0.841880  0.251840  1.0  -0.0066
  C  C835  1  0.491130  0.643430  0.351490  1.0  -0.1344
  C  C836  1  0.490470  0.629200  0.365520  1.0  -0.1382
  C  C837  1  0.503790  0.629180  0.381020  1.0  0.0574
  C  C838  1  0.517770  0.643470  0.382420  1.0  -0.1293
  C  C839  1  0.518430  0.657700  0.368390  1.0  -0.135
  C  C840  1  0.505120  0.657720  0.352880  1.0  0.0747
  C  C841  1  0.606320  0.870250  0.236410  1.0  -0.1367
  C  C842  1  0.620280  0.884580  0.235810  1.0  -0.1254
  C  C843  1  0.634900  0.885610  0.250070  1.0  0.0929
  C  C844  1  0.635470  0.872230  0.264930  1.0  -0.1223
  C  C845  1  0.621520  0.857900  0.265530  1.0  -0.132
  C  C846  1  0.606910  0.856870  0.251270  1.0  0.0773
  C  C847  1  0.390900  0.742970  0.150440  1.0  -0.1319
  C  C848  1  0.376430  0.742990  0.135960  1.0  -0.125
  C  C849  1  0.375860  0.757320  0.122030  1.0  0.0881
  C  C850  1  0.389830  0.771640  0.122670  1.0  -0.1265
  C  C851  1  0.404290  0.771630  0.137150  1.0  -0.1357
  C  C852  1  0.404860  0.757290  0.151070  1.0  0.102
  C  C853  1  0.503140  0.614330  0.395670  1.0  -0.0816
  C  C854  1  0.502710  0.601930  0.408000  1.0  -0.0872
  C  C855  1  0.360770  0.757340  0.106930  1.0  -0.0769
  C  C856  1  0.348120  0.757350  0.094260  1.0  -0.0847
  C  C857  1  0.649500  0.900510  0.249450  1.0  -0.0744
  C  C858  1  0.661820  0.912950  0.249040  1.0  -0.0927
  C  C859  1  0.514660  0.588620  0.439050  1.0  -0.1349
  C  C860  1  0.514520  0.574550  0.453260  1.0  -0.0838
  C  C861  1  0.502060  0.558870  0.451390  1.0  -0.0872
  C  C862  1  0.489730  0.557550  0.435070  1.0  -0.0921
  C  C863  1  0.489910  0.571670  0.420880  1.0  -0.1302
  C  C864  1  0.502390  0.587230  0.422820  1.0  0.0612
  C  C865  1  0.334120  0.769620  0.063520  1.0  -0.1314
  C  C866  1  0.319660  0.769650  0.049040  1.0  -0.0993
  C  C867  1  0.303890  0.757340  0.050060  1.0  -0.0857
  C  C868  1  0.302860  0.745040  0.065810  1.0  -0.0947
  C  C869  1  0.317360  0.745070  0.080260  1.0  -0.1291
  C  C870  1  0.333020  0.757350  0.079160  1.0  0.0655
  C  C871  1  0.692860  0.926330  0.260980  1.0  -0.1359
  C  C872  1  0.707070  0.940410  0.260850  1.0  -0.0865
  C  C873  1  0.705200  0.956080  0.248400  1.0  -0.0873
  C  C874  1  0.688870  0.957370  0.236080  1.0  -0.0923
  C  C875  1  0.674680  0.943230  0.236260  1.0  -0.1325
  C  C876  1  0.676620  0.927680  0.248720  1.0  0.061
  C  C877  1  0.001380  0.471230  0.455400  1.0  0.5781
  C  C878  1  0.949160  0.507750  0.490950  1.0  0.5525
  C  C879  1  0.002860  0.471080  0.529190  1.0  0.5683
  C  C880  1  0.003010  0.544930  0.528790  1.0  0.5738
  C  C881  1  0.055260  0.508210  0.493910  1.0  0.5106
  C  C882  1  0.001560  0.544820  0.455020  1.0  0.5801
  C  C883  1  0.510840  0.241750  0.754450  1.0  0.0728
  C  C884  1  0.510660  0.256200  0.740540  1.0  -0.139
  C  C885  1  0.497090  0.270780  0.740420  1.0  0.072
  C  C886  1  0.483600  0.270870  0.754520  1.0  -0.1367
  C  C887  1  0.483520  0.256530  0.768590  1.0  0.0782
  C  C888  1  0.497230  0.242020  0.768450  1.0  -0.1489
  C  C889  1  0.493260  0.305040  0.729760  1.0  -0.1232
  C  C890  1  0.493700  0.319270  0.715690  1.0  -0.0816
  C  C891  1  0.497900  0.314710  0.697010  1.0  0.0312
  C  C892  1  0.501570  0.295790  0.692490  1.0  -0.0683
  C  C893  1  0.501190  0.281540  0.706520  1.0  -0.1199
  C  C894  1  0.497100  0.286010  0.725350  1.0  0.0848
  C  C895  1  0.534260  0.219370  0.771320  1.0  -0.1197
  C  C896  1  0.548310  0.205290  0.770980  1.0  -0.0964
  C  C897  1  0.553760  0.197920  0.753640  1.0  0.0287
  C  C898  1  0.544990  0.204670  0.736640  1.0  -0.1006
  C  C899  1  0.530990  0.218760  0.736920  1.0  -0.1236
  C  C900  1  0.525510  0.226330  0.754270  1.0  0.082
  C  C901  1  0.460500  0.239570  0.789590  1.0  -0.1266
  C  C902  1  0.446700  0.239750  0.803340  1.0  -0.0924
  C  C903  1  0.441030  0.256920  0.811190  1.0  0.0381
  C  C904  1  0.449290  0.273950  0.805150  1.0  -0.1227
  C  C905  1  0.463060  0.273840  0.791370  1.0  -0.128
  C  C906  1  0.468840  0.256630  0.783420  1.0  0.0818
  C  C907  1  0.568590  0.183400  0.753190  1.0  -0.0059
  C  C908  1  0.581040  0.171270  0.752640  1.0  -0.0119
  C  C909  1  0.498560  0.329560  0.682320  1.0  -0.0066
  C  C910  1  0.499210  0.341910  0.669930  1.0  -0.0073
  C  C911  1  0.426570  0.257070  0.825540  1.0  -0.0043
  C  C912  1  0.414450  0.257210  0.837550  1.0  -0.0062
  C  C913  1  0.608620  0.157170  0.737130  1.0  -0.1352
  C  C914  1  0.622800  0.143290  0.736310  1.0  -0.1189
  C  C915  1  0.624390  0.128940  0.750200  1.0  0.0592
  C  C916  1  0.611680  0.128590  0.764930  1.0  -0.1235
  C  C917  1  0.597500  0.142470  0.765750  1.0  -0.1398
  C  C918  1  0.595900  0.156810  0.751850  1.0  0.0786
  C  C919  1  0.386220  0.271710  0.851630  1.0  -0.1329
  C  C920  1  0.372370  0.271860  0.865340  1.0  -0.1304
  C  C921  1  0.372160  0.257680  0.879430  1.0  0.0589
  C  C922  1  0.385920  0.243350  0.879680  1.0  -0.1199
  C  C923  1  0.399770  0.243200  0.865970  1.0  -0.1378
  C  C924  1  0.399980  0.257380  0.851880  1.0  0.0846
  C  C925  1  0.513610  0.355500  0.641210  1.0  -0.136
  C  C926  1  0.514370  0.369500  0.626940  1.0  -0.1359
  C  C927  1  0.501550  0.384670  0.626420  1.0  0.0564
  C  C928  1  0.487970  0.385740  0.640280  1.0  -0.1414
  C  C929  1  0.487220  0.371750  0.654550  1.0  -0.1341
  C  C930  1  0.500030  0.356570  0.655070  1.0  0.0782
  C  C931  1  0.639150  0.114390  0.749350  1.0  -0.0726
  C  C932  1  0.651450  0.102120  0.748760  1.0  -0.0888
  C  C933  1  0.502280  0.399280  0.611500  1.0  -0.0785
  C  C934  1  0.502760  0.411590  0.599050  1.0  -0.0799
  C  C935  1  0.357690  0.257830  0.893770  1.0  -0.0795
  C  C936  1  0.345590  0.257910  0.905800  1.0  -0.0864
  C  C937  1  0.665090  0.071420  0.760240  1.0  -0.129
  C  C938  1  0.679010  0.057260  0.759990  1.0  -0.0991
  C  C939  1  0.694130  0.058820  0.747710  1.0  -0.0791
  C  C940  1  0.695000  0.074810  0.735670  1.0  -0.0893
  C  C941  1  0.681010  0.088960  0.735970  1.0  -0.1398
  C  C942  1  0.666020  0.087330  0.748280  1.0  0.0613
  C  C943  1  0.491130  0.442100  0.585040  1.0  -0.1297
  C  C944  1  0.491300  0.456260  0.570920  1.0  -0.102
  C  C945  1  0.503530  0.454890  0.555780  1.0  -0.0761
  C  C946  1  0.515600  0.439090  0.555090  1.0  -0.0873
  C  C947  1  0.515390  0.424940  0.569270  1.0  -0.1366
  C  C948  1  0.503140  0.426380  0.584280  1.0  0.0674
  C  C949  1  0.332860  0.245690  0.935940  1.0  -0.1338
  C  C950  1  0.319100  0.245670  0.949730  1.0  -0.0925
  C  C951  1  0.303410  0.257970  0.947960  1.0  -0.0804
  C  C952  1  0.301800  0.270260  0.932110  1.0  -0.0939
  C  C953  1  0.315600  0.270230  0.918350  1.0  -0.1355
  C  C954  1  0.331180  0.257960  0.920190  1.0  0.0676
  C  C955  1  0.480890  0.755930  0.766290  1.0  0.0771
  C  C956  1  0.481050  0.741540  0.752450  1.0  -0.1331
  C  C957  1  0.495100  0.741350  0.738900  1.0  0.0786
  C  C958  1  0.508990  0.755850  0.739200  1.0  -0.1405
  C  C959  1  0.509060  0.770360  0.752850  1.0  0.0746
  C  C960  1  0.494950  0.770310  0.766340  1.0  -0.1473
  C  C961  1  0.512850  0.718550  0.718730  1.0  -0.1193
  C  C962  1  0.513260  0.704480  0.704700  1.0  -0.0678
  C  C963  1  0.496320  0.697540  0.695930  1.0  0.0359
  C  C964  1  0.478910  0.704680  0.701440  1.0  -0.0642
  C  C965  1  0.478440  0.718740  0.715520  1.0  -0.1247
  C  C966  1  0.495430  0.725910  0.724240  1.0  0.0855
  C  C967  1  0.470790  0.761160  0.799890  1.0  -0.1263
  C  C968  1  0.456900  0.761180  0.813550  1.0  -0.075
  C  C969  1  0.438070  0.755950  0.808560  1.0  0.0334
  C  C970  1  0.433250  0.750610  0.789770  1.0  -0.1097
  C  C971  1  0.447110  0.750520  0.776070  1.0  -0.125
  C  C972  1  0.466050  0.755850  0.780960  1.0  0.0817
  C  C973  1  0.519510  0.804720  0.756610  1.0  -0.1254
  C  C974  1  0.533550  0.819010  0.756270  1.0  -0.089
  C  C975  1  0.552290  0.814530  0.752270  1.0  0.0493
  C  C976  1  0.556910  0.795620  0.748670  1.0  -0.1042
  C  C977  1  0.542930  0.781310  0.748960  1.0  -0.1299
  C  C978  1  0.524050  0.785700  0.752880  1.0  0.0868
  C  C979  1  0.423580  0.756090  0.822880  1.0  -0.0083
  C  C980  1  0.411510  0.756260  0.834930  1.0  -0.0045
  C  C981  1  0.496920  0.683060  0.681050  1.0  -0.0048
  C  C982  1  0.497610  0.670970  0.668560  1.0  -0.0084
  C  C983  1  0.566940  0.829440  0.751740  1.0  -0.0068
  C  C984  1  0.579300  0.841850  0.751210  1.0  -0.0085
  C  C985  1  0.382580  0.742750  0.849140  1.0  -0.1397
  C  C986  1  0.368860  0.742950  0.862980  1.0  -0.1357
  C  C987  1  0.369570  0.756900  0.877160  1.0  0.06
  C  C988  1  0.384120  0.770650  0.877370  1.0  -0.1374
  C  C989  1  0.397840  0.770440  0.863530  1.0  -0.1412
  C  C990  1  0.397130  0.756490  0.849360  1.0  0.0768
  C  C991  1  0.608390  0.855300  0.737390  1.0  -0.1364
  C  C992  1  0.622640  0.869350  0.736770  1.0  -0.117
  C  C993  1  0.622740  0.884780  0.749300  1.0  0.0611
  C  C994  1  0.608470  0.886050  0.762430  1.0  -0.1417
  C  C995  1  0.594220  0.872000  0.763050  1.0  -0.1374
  C  C996  1  0.594130  0.856570  0.750530  1.0  0.0753
  C  C997  1  0.484790  0.642120  0.651910  1.0  -0.1359
  C  C998  1  0.485790  0.628290  0.637680  1.0  -0.1186
  C  C999  1  0.500610  0.628790  0.625080  1.0  0.0611
  C  C1000  1  0.514410  0.643240  0.626810  1.0  -0.1186
  C  C1001  1  0.513400  0.657070  0.641040  1.0  -0.1367
  C  C1002  1  0.498590  0.656570  0.653650  1.0  0.0793
  C  C1003  1  0.355240  0.757100  0.891630  1.0  -0.0845
  C  C1004  1  0.343230  0.757240  0.903750  1.0  -0.0883
  C  C1005  1  0.501650  0.614280  0.610290  1.0  -0.075
  C  C1006  1  0.502370  0.602020  0.597960  1.0  -0.0843
  C  C1007  1  0.637640  0.899440  0.748710  1.0  -0.0761
  C  C1008  1  0.650090  0.911770  0.748320  1.0  -0.0866
  C  C1009  1  0.330790  0.769660  0.933770  1.0  -0.1254
  C  C1010  1  0.317070  0.769750  0.947610  1.0  -0.0831
  C  C1011  1  0.301180  0.757480  0.946040  1.0  -0.0807
  C  C1012  1  0.299320  0.745150  0.930360  1.0  -0.0926
  C  C1013  1  0.313080  0.745120  0.916570  1.0  -0.1345
  C  C1014  1  0.328870  0.757350  0.918200  1.0  0.0625
  C  C1015  1  0.515280  0.588890  0.568420  1.0  -0.1305
  C  C1016  1  0.515660  0.574720  0.554440  1.0  -0.087
  C  C1017  1  0.503660  0.558680  0.555280  1.0  -0.0848
  C  C1018  1  0.491370  0.557080  0.570390  1.0  -0.0897
  C  C1019  1  0.491060  0.571250  0.584310  1.0  -0.136
  C  C1020  1  0.502960  0.587220  0.583390  1.0  0.0643
  C  C1021  1  0.664140  0.942260  0.760070  1.0  -0.1295
  C  C1022  1  0.678290  0.956430  0.759960  1.0  -0.1034
  C  C1023  1  0.693430  0.955070  0.747730  1.0  -0.0795
  C  C1024  1  0.694100  0.939280  0.735610  1.0  -0.0916
  C  C1025  1  0.679900  0.925130  0.735780  1.0  -0.1342
  C  C1026  1  0.664880  0.926560  0.748020  1.0  0.0626
  C  C1027  1  0.288680  0.257920  0.962680  1.0  0.5809
  C  C1028  1  0.252460  0.204720  0.998780  1.0  0.5043
  C  C1029  1  0.290520  0.257720  0.036460  1.0  0.5837
  C  C1030  1  0.216720  0.257460  0.034690  1.0  0.5709
  C  C1031  1  0.252830  0.310650  0.998480  1.0  0.516
  C  C1032  1  0.214870  0.257650  0.960860  1.0  0.5837
  C  C1033  1  0.720650  0.045020  0.248300  1.0  0.5718
  C  C1034  1  0.794430  0.045100  0.249840  1.0  0.5792
  C  C1035  1  0.758500  0.007970  0.302190  1.0  0.5507
  C  C1036  1  0.794130  0.971500  0.249950  1.0  0.5812
  C  C1037  1  0.720330  0.971180  0.248450  1.0  0.5546
  C  C1038  1  0.755610  0.008360  0.196080  1.0  0.5159
  C  C1039  1  0.250880  0.810300  0.996730  1.0  0.518
  C  C1040  1  0.286500  0.757480  0.960800  1.0  0.5736
  C  C1041  1  0.288440  0.757340  0.034630  1.0  0.5839
  C  C1042  1  0.250370  0.704360  0.997100  1.0  0.5175
  C  C1043  1  0.214620  0.757200  0.032890  1.0  0.5681
  C  C1044  1  0.212730  0.757330  0.959110  1.0  0.5901
  C  C1045  1  0.261470  0.507390  0.498030  1.0  -0.0353
  C  C1046  1  0.243530  0.507470  0.497730  1.0  -0.0867
  C  C1047  1  0.293560  0.490180  0.498680  1.0  -0.1343
  C  C1048  1  0.313880  0.490080  0.499030  1.0  -0.1339
  C  C1049  1  0.324730  0.507100  0.499100  1.0  0.0038
  C  C1050  1  0.314290  0.524220  0.498820  1.0  -0.1287
  C  C1051  1  0.293960  0.524310  0.498470  1.0  -0.1448
  C  C1052  1  0.283120  0.507290  0.498400  1.0  0.1852
  C  C1053  1  0.211440  0.524680  0.497090  1.0  -0.1339
  C  C1054  1  0.191120  0.524770  0.496750  1.0  -0.135
  C  C1055  1  0.180270  0.507760  0.496670  1.0  0.0051
  C  C1056  1  0.190720  0.490640  0.496950  1.0  -0.1345
  C  C1057  1  0.211040  0.490550  0.497290  1.0  -0.132
  C  C1058  1  0.221890  0.507570  0.497370  1.0  0.07
  C  C1059  1  0.346380  0.507010  0.499490  1.0  0.032
  C  C1060  1  0.364320  0.506930  0.499830  1.0  0.0318
  C  C1061  1  0.158630  0.507850  0.496280  1.0  0.0311
  C  C1062  1  0.140680  0.507930  0.495940  1.0  0.0329
  C  C1063  1  0.396140  0.506820  0.483460  1.0  -0.1303
  C  C1064  1  0.416470  0.506740  0.483910  1.0  -0.0958
  C  C1065  1  0.427650  0.506680  0.501250  1.0  -0.1076
  C  C1066  1  0.417410  0.506690  0.518090  1.0  -0.0892
  C  C1067  1  0.397090  0.506760  0.517610  1.0  -0.128
  C  C1068  1  0.385970  0.506830  0.500300  1.0  0.0072
  C  C1069  1  0.108850  0.508070  0.512310  1.0  -0.1228
  C  C1070  1  0.088520  0.508140  0.511850  1.0  -0.0937
  C  C1071  1  0.077350  0.508180  0.494510  1.0  -0.1048
  C  C1072  1  0.087590  0.508140  0.477670  1.0  -0.0908
  C  C1073  1  0.107910  0.508070  0.478160  1.0  -0.1331
  C  C1074  1  0.119030  0.508030  0.495480  1.0  0.008
  C  C1075  1  0.761450  0.507430  0.497430  1.0  -0.0701
  C  C1076  1  0.743560  0.507420  0.498130  1.0  -0.0712
  C  C1077  1  0.792100  0.505310  0.479250  1.0  -0.124
  C  C1078  1  0.812360  0.505330  0.478460  1.0  -0.1316
  C  C1079  1  0.824500  0.507480  0.494980  1.0  0.0046
  C  C1080  1  0.815420  0.509630  0.512320  1.0  -0.1287
  C  C1081  1  0.795170  0.509610  0.513100  1.0  0.048
  C  C1082  1  0.783020  0.507450  0.496590  1.0  0.1197
  C  C1083  1  0.712910  0.509560  0.516310  1.0  -0.1279
  C  C1084  1  0.692650  0.509540  0.517100  1.0  -0.1333
  C  C1085  1  0.680500  0.507370  0.500590  1.0  0.004
  C  C1086  1  0.689580  0.505220  0.483240  1.0  -0.1366
  C  C1087  1  0.709840  0.505230  0.482450  1.0  -0.1323
  C  C1088  1  0.721990  0.507400  0.498970  1.0  0.1747
  C  C1089  1  0.846080  0.507510  0.494140  1.0  0.0318
  C  C1090  1  0.863970  0.507530  0.493450  1.0  0.0305
  C  C1091  1  0.658930  0.507350  0.501420  1.0  0.0311
  C  C1092  1  0.641040  0.507320  0.502110  1.0  0.0319
  C  C1093  1  0.896240  0.524650  0.492180  1.0  -0.13
  C  C1094  1  0.916510  0.524720  0.491520  1.0  -0.1017
  C  C1095  1  0.927110  0.507680  0.491280  1.0  -0.1088
  C  C1096  1  0.916350  0.490580  0.491710  1.0  -0.0955
  C  C1097  1  0.896080  0.490550  0.492370  1.0  -0.123
  C  C1098  1  0.885540  0.507580  0.492650  1.0  0.0074
  C  C1099  1  0.608760  0.490200  0.503380  1.0  -0.1199
  C  C1100  1  0.588500  0.490130  0.504050  1.0  -0.1007
  C  C1101  1  0.577900  0.507170  0.504310  1.0  -0.1117
  C  C1102  1  0.588660  0.524270  0.503890  1.0  -0.0967
  C  C1103  1  0.608920  0.524300  0.503230  1.0  -0.1235
  C  C1104  1  0.619460  0.507280  0.502930  1.0  0.0077
  C  C1105  1  0.251640  0.998200  0.997760  1.0  -0.091
  C  C1106  1  0.251710  0.016120  0.997950  1.0  -0.0846
  C  C1107  1  0.251550  0.965770  0.014610  1.0  -0.1284
  C  C1108  1  0.251470  0.945470  0.014480  1.0  -0.1263
  C  C1109  1  0.251400  0.935070  0.997330  1.0  0.0052
  C  C1110  1  0.251410  0.945900  0.980330  1.0  -0.1285
  C  C1111  1  0.251490  0.966200  0.980460  1.0  -0.127
  C  C1112  1  0.251560  0.976600  0.997610  1.0  0.0032
  C  C1113  1  0.251680  0.048690  0.981280  1.0  -0.1205
  C  C1114  1  0.251750  0.069030  0.981220  1.0  -0.1373
  C  C1115  1  0.251940  0.079620  0.998240  1.0  -0.0242
  C  C1116  1  0.252050  0.068070  0.016110  1.0  -0.1337
  C  C1117  1  0.251980  0.047820  0.015620  1.0  -0.127
  C  C1118  1  0.251790  0.037720  0.998270  1.0  0.0013
  C  C1119  1  0.251320  0.913460  0.997200  1.0  0.0326
  C  C1120  1  0.251250  0.895550  0.997090  1.0  0.0325
  C  C1121  1  0.251970  0.101230  0.998310  1.0  0.0228
  C  C1122  1  0.251960  0.119140  0.998390  1.0  0.0348
  C  C1123  1  0.268190  0.863380  0.997310  1.0  -0.1257
  C  C1124  1  0.268120  0.843080  0.997220  1.0  -0.0942
  C  C1125  1  0.250980  0.832350  0.996780  1.0  -0.1092
  C  C1126  1  0.233940  0.842970  0.996430  1.0  -0.0895
  C  C1127  1  0.234040  0.863270  0.996520  1.0  -0.1337
  C  C1128  1  0.251160  0.873950  0.996970  1.0  0.0059
  C  C1129  1  0.234620  0.151010  0.998140  1.0  -0.1283
  C  C1130  1  0.234330  0.171260  0.998230  1.0  -0.0894
  C  C1131  1  0.252340  0.182700  0.998720  1.0  -0.1016
  C  C1132  1  0.269260  0.171890  0.999070  1.0  -0.0699
  C  C1133  1  0.268960  0.151560  0.998960  1.0  -0.1194
  C  C1134  1  0.251850  0.140740  0.998500  1.0  0.0029
  C  C1135  1  0.251510  0.516470  0.997770  1.0  -0.0846
  C  C1136  1  0.251640  0.498550  0.997830  1.0  -0.0806
  C  C1137  1  0.251070  0.548740  0.980580  1.0  -0.1054
  C  C1138  1  0.250930  0.569030  0.980520  1.0  -0.1327
  C  C1139  1  0.251080  0.579600  0.997560  1.0  -0.003
  C  C1140  1  0.251370  0.568930  0.014680  1.0  -0.1294
  C  C1141  1  0.251510  0.548640  0.014750  1.0  -0.1234
  C  C1142  1  0.251360  0.538070  0.997700  1.0  0.0075
  C  C1143  1  0.252160  0.466280  0.015020  1.0  -0.1209
  C  C1144  1  0.252300  0.445980  0.015090  1.0  -0.1285
  C  C1145  1  0.252080  0.435410  0.998040  1.0  0.0046
  C  C1146  1  0.251710  0.446080  0.980920  1.0  -0.1208
  C  C1147  1  0.251570  0.466380  0.980850  1.0  -0.1139
  C  C1148  1  0.251790  0.476950  0.997900  1.0  0.005
  C  C1149  1  0.250930  0.601210  0.997490  1.0  -0.0848
  C  C1150  1  0.250810  0.619120  0.997430  1.0  -0.0913
  C  C1151  1  0.252230  0.413810  0.998120  1.0  -0.0914
  C  C1152  1  0.252360  0.395890  0.998180  1.0  -0.0954
  C  C1153  1  0.251040  0.651310  0.014390  1.0  -0.1374
  C  C1154  1  0.250920  0.671600  0.014330  1.0  -0.0909
  C  C1155  1  0.250430  0.682320  0.997190  1.0  -0.1084
  C  C1156  1  0.250050  0.671680  0.980140  1.0  -0.0911
  C  C1157  1  0.250160  0.651380  0.980240  1.0  -0.1371
  C  C1158  1  0.250670  0.640720  0.997350  1.0  -0.002
  C  C1159  1  0.252150  0.363710  0.981220  1.0  -0.1388
  C  C1160  1  0.252270  0.343420  0.981270  1.0  -0.0888
  C  C1161  1  0.252760  0.332690  0.998400  1.0  -0.1095
  C  C1162  1  0.253110  0.343330  0.015460  1.0  -0.0906
  C  C1163  1  0.252990  0.363630  0.015370  1.0  -0.1365
  C  C1164  1  0.252500  0.374290  0.998260  1.0  -0.0027
  C  C1165  1  0.751380  0.007540  0.989870  1.0  -0.0887
  C  C1166  1  0.751690  0.007620  0.007810  1.0  -0.0923
  C  C1167  1  0.751030  0.024460  0.957400  1.0  -0.1314
  C  C1168  1  0.750670  0.024370  0.937080  1.0  -0.1298
  C  C1169  1  0.750270  0.007250  0.926610  1.0  0.0063
  C  C1170  1  0.750240  0.990230  0.937420  1.0  -0.132
  C  C1171  1  0.750600  0.990330  0.957750  1.0  -0.1204
  C  C1172  1  0.751000  0.007440  0.968220  1.0  0.0049
  C  C1173  1  0.751960  0.990690  0.040270  1.0  0.0486
  C  C1174  1  0.752320  0.990780  0.060590  1.0  -0.1271
  C  C1175  1  0.752810  0.007900  0.071070  1.0  0.0046
  C  C1176  1  0.752910  0.024920  0.060260  1.0  -0.1296
  C  C1177  1  0.752550  0.024830  0.039930  1.0  -0.1126
  C  C1178  1  0.752070  0.007710  0.029450  1.0  0.0055
  C  C1179  1  0.749870  0.007160  0.904960  1.0  0.0316
  C  C1180  1  0.749520  0.007080  0.887010  1.0  0.0334
  C  C1181  1  0.753210  0.007990  0.092720  1.0  0.0327
  C  C1182  1  0.753560  0.008070  0.110660  1.0  0.0328
  C  C1183  1  0.765880  0.006960  0.855190  1.0  -0.1284
  C  C1184  1  0.765430  0.006890  0.834860  1.0  -0.0962
  C  C1185  1  0.748090  0.006830  0.823680  1.0  -0.1067
  C  C1186  1  0.731250  0.006850  0.833920  1.0  -0.0931
  C  C1187  1  0.731740  0.006930  0.854240  1.0  -0.128
  C  C1188  1  0.749050  0.006990  0.865370  1.0  0.011
  C  C1189  1  0.771350  0.008270  0.143430  1.0  -0.1295
  C  C1190  1  0.771850  0.008340  0.163750  1.0  -0.0931
  C  C1191  1  0.755010  0.008320  0.174000  1.0  -0.1108
  C  C1192  1  0.737670  0.008230  0.162820  1.0  -0.097
  C  C1193  1  0.737210  0.008150  0.142490  1.0  -0.1313
  C  C1194  1  0.754040  0.008160  0.132310  1.0  0.0115
  C  C1195  1  0.751930  0.007600  0.489900  1.0  -0.088
  C  C1196  1  0.751220  0.007580  0.507790  1.0  -0.0906
  C  C1197  1  0.770270  0.007470  0.459250  1.0  -0.1132
  C  C1198  1  0.771060  0.007500  0.439000  1.0  -0.1313
  C  C1199  1  0.754410  0.007680  0.426850  1.0  0.0072
  C  C1200  1  0.736910  0.007840  0.435920  1.0  -0.1307
  C  C1201  1  0.736120  0.007810  0.456180  1.0  -0.129
  C  C1202  1  0.752770  0.007630  0.468330  1.0  0.0042
  C  C1203  1  0.732880  0.007640  0.538440  1.0  -0.1278
  C  C1204  1  0.732090  0.007610  0.558690  1.0  -0.1322
  C  C1205  1  0.748750  0.007500  0.570850  1.0  0.0058
  C  C1206  1  0.766240  0.007410  0.561770  1.0  -0.1333
  C  C1207  1  0.767030  0.007440  0.541510  1.0  -0.0488
  C  C1208  1  0.750370  0.007550  0.529360  1.0  -0.0078
  C  C1209  1  0.755250  0.007720  0.405270  1.0  0.0321
  C  C1210  1  0.755940  0.007750  0.387390  1.0  0.0327
  C  C1211  1  0.747900  0.007470  0.592420  1.0  0.0323
  C  C1212  1  0.747210  0.007430  0.610310  1.0  0.0321
  C  C1213  1  0.757210  0.024880  0.355130  1.0  -0.1237
  C  C1214  1  0.757880  0.024940  0.334870  1.0  -0.0976
  C  C1215  1  0.758150  0.007900  0.324240  1.0  -0.1136
  C  C1216  1  0.757740  0.990800  0.334980  1.0  -0.0918
  C  C1217  1  0.757070  0.990770  0.355250  1.0  -0.115
  C  C1218  1  0.756760  0.007800  0.365810  1.0  0.0084
  C  C1219  1  0.746120  0.024410  0.642450  1.0  -0.121
  C  C1220  1  0.745450  0.024380  0.662710  1.0  -0.0933
  C  C1221  1  0.745010  0.007280  0.673450  1.0  -0.1119
  C  C1222  1  0.745240  0.990240  0.662820  1.0  -0.102
  C  C1223  1  0.745910  0.990310  0.642550  1.0  -0.1264
  C  C1224  1  0.746390  0.007390  0.631880  1.0  0.0105
  O  O1225  1  0.502800  0.506840  0.503500  1.0  -1.246
  O  O1226  1  0.546330  0.490350  0.504680  1.0  -0.6204
  O  O1227  1  0.514420  0.545870  0.481650  1.0  -0.6062
  O  O1228  1  0.489860  0.484660  0.464320  1.0  -0.6052
  O  O1229  1  0.546420  0.523750  0.504550  1.0  -0.6186
  O  O1230  1  0.514210  0.467980  0.482010  1.0  -0.6041
  O  O1231  1  0.490010  0.528970  0.464100  1.0  -0.6075
  O  O1232  1  0.458880  0.506680  0.485410  1.0  -0.622
  O  O1233  1  0.491410  0.484570  0.542100  1.0  -0.6053
  O  O1234  1  0.459550  0.506640  0.518830  1.0  -0.6188
  O  O1235  1  0.515360  0.468080  0.526330  1.0  -0.6046
  O  O1236  1  0.515560  0.545660  0.525980  1.0  -0.6156
  O  O1237  1  0.491540  0.528870  0.541920  1.0  -0.607
  O  O1238  1  0.745840  0.006970  0.748540  1.0  -1.2449
  O  O1239  1  0.707180  0.984740  0.759900  1.0  -0.6078
  O  O1240  1  0.744610  0.990470  0.704990  1.0  -0.6142
  O  O1241  1  0.723420  0.045800  0.735840  1.0  -0.5991
  O  O1242  1  0.722900  0.968220  0.735920  1.0  -0.6046
  O  O1243  1  0.707470  0.029020  0.759830  1.0  -0.6095
  O  O1244  1  0.744800  0.023860  0.704940  1.0  -0.6153
  O  O1245  1  0.767770  0.046000  0.736960  1.0  -0.604
  O  O1246  1  0.763940  0.006830  0.792460  1.0  -0.6194
  O  O1247  1  0.785300  0.029100  0.761330  1.0  -0.6046
  O  O1248  1  0.730510  0.006790  0.791770  1.0  -0.6133
  O  O1249  1  0.767250  0.968080  0.737070  1.0  -0.6055
  O  O1250  1  0.784980  0.984780  0.761410  1.0  -0.6047
  O  O1251  1  0.002210  0.508010  0.492190  1.0  -1.2446
  O  O1252  1  0.015060  0.530230  0.531370  1.0  -0.6041
  O  O1253  1  0.989660  0.546730  0.469290  1.0  -0.6052
  O  O1254  1  0.045460  0.508190  0.476910  1.0  -0.6196
  O  O1255  1  0.990740  0.546900  0.513630  1.0  -0.6079
  O  O1256  1  0.046100  0.508200  0.510340  1.0  -0.621
  O  O1257  1  0.013650  0.530240  0.453570  1.0  -0.6079
  O  O1258  1  0.013510  0.485960  0.453810  1.0  -0.6097
  O  O1259  1  0.990580  0.468980  0.514040  1.0  -0.6109
  O  O1260  1  0.989480  0.469160  0.469710  1.0  -0.6006
  O  O1261  1  0.014940  0.485920  0.531620  1.0  -0.6012
  O  O1262  1  0.958680  0.524490  0.490910  1.0  -0.6233
  O  O1263  1  0.958590  0.491090  0.491090  1.0  -0.6189
  O  O1264  1  0.252680  0.257680  0.998670  1.0  -1.2449
  O  O1265  1  0.231560  0.269570  0.037000  1.0  -0.6031
  O  O1266  1  0.213140  0.245560  0.975590  1.0  -0.604
  O  O1267  1  0.252420  0.301240  0.981800  1.0  -0.618
  O  O1268  1  0.214300  0.245420  0.019940  1.0  -0.6044
  O  O1269  1  0.253240  0.301160  0.015240  1.0  -0.6155
  O  O1270  1  0.229600  0.269750  0.959130  1.0  -0.6029
  O  O1271  1  0.273940  0.269940  0.960280  1.0  -0.6035
  O  O1272  1  0.292110  0.245670  0.021850  1.0  -0.6029
  O  O1273  1  0.291000  0.245810  0.977490  1.0  -0.6103
  O  O1274  1  0.275910  0.269750  0.038080  1.0  -0.604
  O  O1275  1  0.235780  0.214110  0.998380  1.0  -0.6212
  O  O1276  1  0.269220  0.214220  0.999180  1.0  -0.6123
  O  O1277  1  0.757300  0.008190  0.249150  1.0  -1.2449
  O  O1278  1  0.779820  0.969410  0.261840  1.0  -0.6157
  O  O1279  1  0.772600  0.008400  0.205890  1.0  -0.6142
  O  O1280  1  0.717900  0.985990  0.236380  1.0  -0.6103
  O  O1281  1  0.795720  0.986230  0.237840  1.0  -0.6092
  O  O1282  1  0.735460  0.969120  0.260740  1.0  -0.6062
  O  O1283  1  0.739180  0.008290  0.205230  1.0  -0.6195
  O  O1284  1  0.718110  0.030290  0.236270  1.0  -0.6088
  O  O1285  1  0.758510  0.024710  0.292690  1.0  -0.6187
  O  O1286  1  0.735800  0.047050  0.260600  1.0  -0.6053
  O  O1287  1  0.758390  0.991310  0.292750  1.0  -0.6173
  O  O1288  1  0.795890  0.030510  0.237750  1.0  -0.6079
  O  O1289  1  0.780150  0.047000  0.261730  1.0  -0.6026
  O  O1290  1  0.250590  0.757340  0.996890  1.0  -1.2461
  O  O1291  1  0.250810  0.713800  0.013780  1.0  -0.6204
  O  O1292  1  0.227310  0.745270  0.957500  1.0  -0.603
  O  O1293  1  0.212330  0.769290  0.018060  1.0  -0.6061
  O  O1294  1  0.249950  0.713840  0.980340  1.0  -0.6209
  O  O1295  1  0.229340  0.745150  0.035300  1.0  -0.6036
  O  O1296  1  0.211160  0.769400  0.973710  1.0  -0.6026
  O  O1297  1  0.234110  0.800810  0.996350  1.0  -0.6206
  O  O1298  1  0.290180  0.769420  0.019900  1.0  -0.6071
  O  O1299  1  0.267550  0.800890  0.997120  1.0  -0.6213
  O  O1300  1  0.273690  0.745270  0.036390  1.0  -0.6022
  O  O1301  1  0.271640  0.745400  0.958530  1.0  -0.6074
  O  O1302  1  0.288970  0.769530  0.975540  1.0  -0.6086
