# generated using pymatgen
data_CuH12(C13O2)2
_symmetry_space_group_name_H-M   'P 1'
_cell_length_a   49.61440000
_cell_length_b   49.73810000
_cell_length_c   49.61490000
_cell_angle_alpha   60.22320000
_cell_angle_beta   60.01850000
_cell_angle_gamma   60.12180000
_symmetry_Int_Tables_number   1
_chemical_formula_structural   CuH12(C13O2)2
_chemical_formula_sum   'Cu24 H288 C624 O96'
_cell_volume   86812.41154035
_cell_formula_units_Z   24
loop_
 _symmetry_equiv_pos_site_id
 _symmetry_equiv_pos_as_xyz
  1  'x, y, z'
loop_
 _atom_site_type_symbol
 _atom_site_label
 _atom_site_symmetry_multiplicity
 _atom_site_fract_x
 _atom_site_fract_y
 _atom_site_fract_z
 _atom_site_occupancy
 _atom_site_charge
  Cu  Cu1  1  0.452130  0.750760  0.286810  1.0  0.8349
  Cu  Cu2  1  0.451870  0.696040  0.341990  1.0  0.8582
  Cu  Cu3  1  0.451670  0.752010  0.500500  1.0  0.8477
  Cu  Cu4  1  0.451610  0.696920  0.500610  1.0  0.8559
  Cu  Cu5  1  0.237610  0.752030  0.500270  1.0  0.8484
  Cu  Cu6  1  0.292640  0.697010  0.500370  1.0  0.8448
  Cu  Cu7  1  0.610130  0.379890  0.500700  1.0  0.8566
  Cu  Cu8  1  0.665290  0.325020  0.500640  1.0  0.8622
  Cu  Cu9  1  0.610630  0.538860  0.500030  1.0  0.8596
  Cu  Cu10  1  0.665530  0.538690  0.500750  1.0  0.8844
  Cu  Cu11  1  0.236950  0.539510  0.713680  1.0  0.8643
  Cu  Cu12  1  0.292390  0.539680  0.658780  1.0  0.8592
  Cu  Cu13  1  0.451050  0.380470  0.658420  1.0  0.8615
  Cu  Cu14  1  0.450580  0.325990  0.713810  1.0  0.8466
  Cu  Cu15  1  0.451360  0.379600  0.500370  1.0  0.8564
  Cu  Cu16  1  0.451230  0.324710  0.500200  1.0  0.8825
  Cu  Cu17  1  0.237620  0.538770  0.499180  1.0  0.8945
  Cu  Cu18  1  0.293010  0.538930  0.498600  1.0  0.8531
  Cu  Cu19  1  0.450220  0.539920  0.659120  1.0  0.8498
  Cu  Cu20  1  0.450500  0.539670  0.714280  1.0  0.8464
  Cu  Cu21  1  0.611060  0.538110  0.342330  1.0  0.8586
  Cu  Cu22  1  0.666080  0.537790  0.287010  1.0  0.8541
  Cu  Cu23  1  0.452140  0.537380  0.286350  1.0  0.8647
  Cu  Cu24  1  0.451080  0.537760  0.341870  1.0  0.8579
  H  H25  1  0.478950  0.165390  0.128460  1.0  0.1141
  H  H26  1  0.480820  0.165230  0.214160  1.0  0.1256
  H  H27  1  0.479270  0.253300  0.127460  1.0  0.1295
  H  H28  1  0.514980  0.252570  0.147840  1.0  0.1168
  H  H29  1  0.513950  0.281560  0.176780  1.0  0.1289
  H  H30  1  0.444050  0.239420  0.264900  1.0  0.1267
  H  H31  1  0.444320  0.210830  0.236060  1.0  0.1189
  H  H32  1  0.515600  0.110520  0.149110  1.0  0.1212
  H  H33  1  0.515410  0.053580  0.177900  1.0  0.1268
  H  H34  1  0.443490  0.077830  0.265590  1.0  0.1249
  H  H35  1  0.442990  0.135010  0.236880  1.0  0.1201
  H  H36  1  0.443420  0.210990  0.097170  1.0  0.1177
  H  H37  1  0.443070  0.239360  0.040150  1.0  0.1262
  H  H38  1  0.514470  0.280140  0.015480  1.0  0.1272
  H  H39  1  0.515570  0.251370  0.072230  1.0  0.1136
  H  H40  1  0.481530  0.962950  0.315820  1.0  0.1336
  H  H41  1  0.479910  0.906260  0.345120  1.0  0.1344
  H  H42  1  0.474990  0.907500  0.260230  1.0  0.1368
  H  H43  1  0.476600  0.964200  0.230950  1.0  0.1313
  H  H44  1  0.478600  0.354550  0.926510  1.0  0.1385
  H  H45  1  0.477110  0.384470  0.869650  1.0  0.1368
  H  H46  1  0.473460  0.300120  0.868900  1.0  0.1296
  H  H47  1  0.474960  0.270180  0.925760  1.0  0.1398
  H  H48  1  0.469610  0.271900  0.318130  1.0  0.1336
  H  H49  1  0.468710  0.300650  0.347470  1.0  0.1376
  H  H50  1  0.485070  0.380900  0.256870  1.0  0.1343
  H  H51  1  0.485950  0.352140  0.227520  1.0  0.1347
  H  H52  1  0.167820  0.165070  0.128460  1.0  0.1259
  H  H53  1  0.080600  0.164590  0.214340  1.0  0.1098
  H  H54  1  0.080320  0.252620  0.127630  1.0  0.1239
  H  H55  1  0.049970  0.274410  0.173300  1.0  0.1215
  H  H56  1  0.992810  0.302800  0.202240  1.0  0.1311
  H  H57  1  0.968160  0.215990  0.240720  1.0  0.1297
  H  H58  1  0.025140  0.187510  0.211400  1.0  0.1225
  H  H59  1  0.165560  0.109840  0.148460  1.0  0.1251
  H  H60  1  0.194530  0.053050  0.176910  1.0  0.1284
  H  H61  1  0.154050  0.076890  0.264950  1.0  0.124
  H  H62  1  0.125510  0.133890  0.236590  1.0  0.1191
  H  H63  1  0.165430  0.187460  0.072520  1.0  0.1225
  H  H64  1  0.194550  0.216210  0.015700  1.0  0.1284
  H  H65  1  0.154150  0.303300  0.040710  1.0  0.1304
  H  H66  1  0.125410  0.274670  0.097690  1.0  0.1177
  H  H67  1  0.181270  0.961970  0.314260  1.0  0.135
  H  H68  1  0.210350  0.905460  0.343740  1.0  0.1341
  H  H69  1  0.299650  0.907700  0.259920  1.0  0.1352
  H  H70  1  0.270560  0.964230  0.230430  1.0  0.1319
  H  H71  1  0.187730  0.358230  0.932340  1.0  0.134
  H  H72  1  0.216090  0.388090  0.875400  1.0  0.1369
  H  H73  1  0.290490  0.296380  0.862950  1.0  0.1341
  H  H74  1  0.262140  0.266540  0.919910  1.0  0.1374
  H  H75  1  0.877810  0.267660  0.316550  1.0  0.1401
  H  H76  1  0.821000  0.297090  0.345860  1.0  0.1389
  H  H77  1  0.822270  0.383980  0.259950  1.0  0.1372
  H  H78  1  0.879070  0.354540  0.230640  1.0  0.143
  H  H79  1  0.722330  0.436690  0.313230  1.0  0.1206
  H  H80  1  0.722060  0.350950  0.399200  1.0  0.1243
  H  H81  1  0.639060  0.440280  0.402800  1.0  0.129
  H  H82  1  0.724220  0.554750  0.313260  1.0  0.121
  H  H83  1  0.639860  0.547920  0.402030  1.0  0.1297
  H  H84  1  0.724180  0.555160  0.399390  1.0  0.1241
  H  H85  1  0.639580  0.518140  0.231690  1.0  0.1218
  H  H86  1  0.553660  0.517890  0.231430  1.0  0.119
  H  H87  1  0.549340  0.529520  0.314130  1.0  0.1325
  H  H88  1  0.263960  0.637260  0.598430  1.0  0.13
  H  H89  1  0.180400  0.640570  0.687780  1.0  0.1201
  H  H90  1  0.180270  0.726130  0.601610  1.0  0.1229
  H  H91  1  0.638760  0.268660  0.602140  1.0  0.123
  H  H92  1  0.552060  0.268850  0.687940  1.0  0.121
  H  H93  1  0.549350  0.351530  0.598480  1.0  0.1305
  H  H94  1  0.471090  0.436200  0.312520  1.0  0.1184
  H  H95  1  0.460200  0.439970  0.402440  1.0  0.131
  H  H96  1  0.470680  0.350510  0.398550  1.0  0.1219
  H  H97  1  0.639650  0.638620  0.230110  1.0  0.1207
  H  H98  1  0.550360  0.635660  0.313870  1.0  0.1331
  H  H99  1  0.553180  0.724070  0.229890  1.0  0.1224
  H  H100  1  0.350760  0.554740  0.311800  1.0  0.119
  H  H101  1  0.263910  0.555670  0.397570  1.0  0.1212
  H  H102  1  0.352840  0.547550  0.400910  1.0  0.1299
  H  H103  1  0.433020  0.640770  0.687940  1.0  0.1208
  H  H104  1  0.434040  0.726080  0.601530  1.0  0.1228
  H  H105  1  0.441520  0.637330  0.598870  1.0  0.1301
  H  H106  1  0.430290  0.269820  0.688360  1.0  0.1215
  H  H107  1  0.443020  0.351010  0.598000  1.0  0.1313
  H  H108  1  0.430700  0.269020  0.602260  1.0  0.1185
  H  H109  1  0.639400  0.640200  0.481370  1.0  0.121
  H  H110  1  0.553160  0.725930  0.481450  1.0  0.1197
  H  H111  1  0.549730  0.636350  0.491760  1.0  0.1304
  H  H112  1  0.264150  0.808270  0.518990  1.0  0.1229
  H  H113  1  0.350330  0.808240  0.519120  1.0  0.1205
  H  H114  1  0.353390  0.724990  0.509930  1.0  0.1328
  H  H115  1  0.459460  0.441970  0.686710  1.0  0.1311
  H  H116  1  0.469110  0.438730  0.769990  1.0  0.1216
  H  H117  1  0.469440  0.352790  0.769560  1.0  0.1222
  H  H118  1  0.264430  0.636390  0.490940  1.0  0.1316
  H  H119  1  0.181830  0.725930  0.480270  1.0  0.1231
  H  H120  1  0.182030  0.640290  0.479270  1.0  0.1202
  H  H121  1  0.352970  0.441690  0.686780  1.0  0.1306
  H  H122  1  0.348970  0.352560  0.769660  1.0  0.1218
  H  H123  1  0.263000  0.438530  0.769620  1.0  0.1221
  H  H124  1  0.085830  0.560890  0.209750  1.0  0.1265
  H  H125  1  0.172720  0.558340  0.123490  1.0  0.126
  H  H126  1  0.086230  0.556110  0.125450  1.0  0.1112
  H  H127  1  0.107940  0.589430  0.069310  1.0  0.1183
  H  H128  1  0.136670  0.584630  0.013840  1.0  0.1298
  H  H129  1  0.223730  0.515150  0.039660  1.0  0.1381
  H  H130  1  0.195050  0.519090  0.095480  1.0  0.119
  H  H131  1  0.106940  0.598450  0.205440  1.0  0.1193
  H  H132  1  0.134960  0.599090  0.234260  1.0  0.13
  H  H133  1  0.222320  0.524990  0.197770  1.0  0.1277
  H  H134  1  0.194360  0.523670  0.169320  1.0  0.1193
  H  H135  1  0.030840  0.597850  0.206220  1.0  0.1202
  H  H136  1  0.973490  0.598130  0.235710  1.0  0.1292
  H  H137  1  0.996820  0.522370  0.201320  1.0  0.1295
  H  H138  1  0.054400  0.521420  0.172210  1.0  0.1184
  H  H139  1  0.268440  0.571050  0.224750  1.0  0.1277
  H  H140  1  0.296220  0.569860  0.255270  1.0  0.135
  H  H141  1  0.215570  0.551170  0.345310  1.0  0.1328
  H  H142  1  0.187790  0.552360  0.314800  1.0  0.1328
  H  H143  1  0.880180  0.562280  0.228790  1.0  0.131
  H  H144  1  0.822980  0.561450  0.259080  1.0  0.1316
  H  H145  1  0.826780  0.557920  0.345670  1.0  0.1347
  H  H146  1  0.884010  0.558730  0.315370  1.0  0.1317
  H  H147  1  0.265850  0.580400  0.921070  1.0  0.1348
  H  H148  1  0.294590  0.575300  0.865480  1.0  0.1355
  H  H149  1  0.210820  0.562200  0.874010  1.0  0.1319
  H  H150  1  0.182070  0.567330  0.929630  1.0  0.1278
  H  H151  1  0.442460  0.635380  0.313690  1.0  0.1328
  H  H152  1  0.433240  0.724380  0.230560  1.0  0.1223
  H  H153  1  0.433140  0.638540  0.230280  1.0  0.1206
  H  H154  1  0.823990  0.508350  0.872870  1.0  0.125
  H  H155  1  0.736850  0.509530  0.872770  1.0  0.1247
  H  H156  1  0.823440  0.509080  0.786170  1.0  0.1143
  H  H157  1  0.777570  0.545930  0.764870  1.0  0.1224
  H  H158  1  0.748640  0.546060  0.736430  1.0  0.1241
  H  H159  1  0.710290  0.473030  0.823280  1.0  0.1272
  H  H160  1  0.739580  0.472250  0.851800  1.0  0.1203
  H  H161  1  0.778380  0.545800  0.903160  1.0  0.1239
  H  H162  1  0.750050  0.545720  0.960450  1.0  0.1291
  H  H163  1  0.711070  0.473020  0.985070  1.0  0.13
  H  H164  1  0.739750  0.472440  0.928000  1.0  0.1212
  H  H165  1  0.853750  0.546170  0.827240  1.0  0.1218
  H  H166  1  0.910900  0.546490  0.798500  1.0  0.1264
  H  H167  1  0.935780  0.473820  0.759260  1.0  0.1223
  H  H168  1  0.878840  0.472820  0.788370  1.0  0.122
  H  H169  1  0.637790  0.504850  0.076790  1.0  0.1379
  H  H170  1  0.608580  0.505930  0.133920  1.0  0.139
  H  H171  1  0.691670  0.515880  0.130690  1.0  0.1353
  H  H172  1  0.720890  0.514780  0.073560  1.0  0.1402
  H  H173  1  0.023810  0.515020  0.682380  1.0  0.131
  H  H174  1  0.080850  0.516390  0.652780  1.0  0.1345
  H  H175  1  0.084090  0.509600  0.741190  1.0  0.1346
  H  H176  1  0.027060  0.508220  0.770790  1.0  0.1346
  H  H177  1  0.633740  0.512070  0.771180  1.0  0.1372
  H  H178  1  0.604590  0.513570  0.741820  1.0  0.1357
  H  H179  1  0.692510  0.510280  0.656220  1.0  0.1326
  H  H180  1  0.721660  0.508770  0.685570  1.0  0.1379
  H  H181  1  0.736890  0.911260  0.471130  1.0  0.1249
  H  H182  1  0.823120  0.824840  0.470590  1.0  0.1286
  H  H183  1  0.823740  0.910420  0.471540  1.0  0.1071
  H  H184  1  0.854460  0.863780  0.508160  1.0  0.1217
  H  H185  1  0.911970  0.835120  0.507270  1.0  0.126
  H  H186  1  0.935690  0.799620  0.432010  1.0  0.1286
  H  H187  1  0.878360  0.828560  0.432360  1.0  0.1173
  H  H188  1  0.715080  0.865320  0.508110  1.0  0.1195
  H  H189  1  0.686380  0.837140  0.507570  1.0  0.1283
  H  H190  1  0.773110  0.799950  0.433240  1.0  0.1278
  H  H191  1  0.801910  0.828420  0.433190  1.0  0.1209
  H  H192  1  0.715100  0.940740  0.509100  1.0  0.1205
  H  H193  1  0.686530  0.997520  0.509930  1.0  0.1283
  H  H194  1  0.773740  0.022250  0.437480  1.0  0.1276
  H  H195  1  0.802430  0.965670  0.436050  1.0  0.1191
  H  H196  1  0.724770  0.731550  0.454340  1.0  0.1343
  H  H197  1  0.695700  0.701780  0.456450  1.0  0.1316
  H  H198  1  0.602370  0.772610  0.490590  1.0  0.1375
  H  H199  1  0.631450  0.802390  0.488460  1.0  0.1372
  H  H200  1  0.722220  0.112850  0.472830  1.0  0.1377
  H  H201  1  0.692860  0.169720  0.474100  1.0  0.135
  H  H202  1  0.605080  0.167580  0.478300  1.0  0.1328
  H  H203  1  0.634430  0.110690  0.477070  1.0  0.1393
  H  H204  1  0.028460  0.724870  0.463480  1.0  0.1364
  H  H205  1  0.085310  0.695630  0.465220  1.0  0.137
  H  H206  1  0.081090  0.777630  0.477570  1.0  0.1225
  H  H207  1  0.024270  0.806860  0.475810  1.0  0.14
  H  H208  1  0.080560  0.252570  0.527510  1.0  0.1268
  H  H209  1  0.080470  0.166270  0.527460  1.0  0.1151
  H  H210  1  0.166780  0.166140  0.528190  1.0  0.1249
  H  H211  1  0.188820  0.136460  0.489940  1.0  0.1219
  H  H212  1  0.217590  0.079530  0.489550  1.0  0.1287
  H  H213  1  0.130700  0.054560  0.562820  1.0  0.1276
  H  H214  1  0.101860  0.111290  0.563840  1.0  0.1212
  H  H215  1  0.025370  0.249170  0.565300  1.0  0.1198
  H  H216  1  0.968200  0.278000  0.565210  1.0  0.1269
  H  H217  1  0.992320  0.240620  0.491250  1.0  0.1303
  H  H218  1  0.049710  0.212040  0.490780  1.0  0.1206
  H  H219  1  0.101290  0.249680  0.564860  1.0  0.1198
  H  H220  1  0.129770  0.278470  0.564810  1.0  0.1243
  H  H221  1  0.217280  0.240160  0.491680  1.0  0.1278
  H  H222  1  0.188900  0.211670  0.491130  1.0  0.1179
  H  H223  1  0.879360  0.270640  0.521900  1.0  0.1388
  H  H224  1  0.822370  0.300200  0.520660  1.0  0.1336
  H  H225  1  0.819410  0.381900  0.532450  1.0  0.1355
  H  H226  1  0.876440  0.352320  0.533680  1.0  0.1341
  H  H227  1  0.271490  0.276930  0.508620  1.0  0.1333
  H  H228  1  0.300480  0.306510  0.506910  1.0  0.1314
  H  H229  1  0.207010  0.375320  0.544310  1.0  0.1347
  H  H230  1  0.178010  0.345730  0.545990  1.0  0.1377
  H  H231  1  0.185610  0.967990  0.516380  1.0  0.1347
  H  H232  1  0.214610  0.910960  0.515550  1.0  0.1321
  H  H233  1  0.295040  0.905630  0.531660  1.0  0.136
  H  H234  1  0.266040  0.962660  0.532500  1.0  0.1287
  H  H235  1  0.638590  0.440920  0.509290  1.0  0.1302
  H  H236  1  0.721480  0.437520  0.519730  1.0  0.1214
  H  H237  1  0.721320  0.351480  0.519900  1.0  0.1226
  H  H238  1  0.470750  0.807350  0.313010  1.0  0.1207
  H  H239  1  0.470210  0.808080  0.399160  1.0  0.1229
  H  H240  1  0.460940  0.724750  0.402540  1.0  0.1344
  H  H241  1  0.638840  0.268370  0.482250  1.0  0.1218
  H  H242  1  0.549550  0.351590  0.491090  1.0  0.1301
  H  H243  1  0.552740  0.268080  0.482270  1.0  0.1222
  H  H244  1  0.352330  0.548170  0.688280  1.0  0.1281
  H  H245  1  0.262430  0.558600  0.771150  1.0  0.1215
  H  H246  1  0.348620  0.558910  0.771110  1.0  0.1193
  H  H247  1  0.638650  0.519360  0.602390  1.0  0.1235
  H  H248  1  0.548640  0.531250  0.597980  1.0  0.1329
  H  H249  1  0.552050  0.520100  0.688180  1.0  0.1192
  H  H250  1  0.264460  0.531200  0.596800  1.0  0.1324
  H  H251  1  0.181990  0.519680  0.600580  1.0  0.1219
  H  H252  1  0.181590  0.520380  0.686620  1.0  0.1231
  H  H253  1  0.263820  0.437580  0.518090  1.0  0.1225
  H  H254  1  0.353550  0.440810  0.508310  1.0  0.1327
  H  H255  1  0.349460  0.351260  0.519280  1.0  0.1219
  H  H256  1  0.350920  0.807460  0.312850  1.0  0.1211
  H  H257  1  0.353690  0.725140  0.402570  1.0  0.1296
  H  H258  1  0.264430  0.808250  0.398810  1.0  0.1227
  H  H259  1  0.817100  0.820730  0.868100  1.0  0.1263
  H  H260  1  0.730800  0.907100  0.867700  1.0  0.1266
  H  H261  1  0.818560  0.907280  0.782280  1.0  0.1139
  H  H262  1  0.773830  0.939770  0.759340  1.0  0.1202
  H  H263  1  0.746320  0.997570  0.731600  1.0  0.1258
  H  H264  1  0.706550  0.018910  0.820970  1.0  0.1258
  H  H265  1  0.734320  0.961320  0.848840  1.0  0.1205
  H  H266  1  0.771430  0.798970  0.898420  1.0  0.12
  H  H267  1  0.743690  0.770390  0.955980  1.0  0.1337
  H  H268  1  0.705370  0.857470  0.980280  1.0  0.1248
  H  H269  1  0.733460  0.886130  0.922980  1.0  0.1207
  H  H270  1  0.848820  0.799120  0.821910  1.0  0.119
  H  H271  1  0.906750  0.770590  0.794680  1.0  0.1286
  H  H272  1  0.930660  0.857190  0.759170  1.0  0.1282
  H  H273  1  0.872940  0.885780  0.786750  1.0  0.1231
  H  H274  1  0.640340  0.808900  0.077980  1.0  0.1384
  H  H275  1  0.612650  0.779920  0.135720  1.0  0.1338
  H  H276  1  0.683480  0.687160  0.123010  1.0  0.1328
  H  H277  1  0.711180  0.716120  0.065290  1.0  0.1313
  H  H278  1  0.029750  0.809810  0.696140  1.0  0.1366
  H  H279  1  0.087320  0.781560  0.667060  1.0  0.1343
  H  H280  1  0.072420  0.688120  0.728940  1.0  0.1294
  H  H281  1  0.014880  0.716350  0.758040  1.0  0.134
  H  H282  1  0.631270  0.109820  0.767570  1.0  0.134
  H  H283  1  0.602730  0.167160  0.739100  1.0  0.1376
  H  H284  1  0.692530  0.170280  0.656070  1.0  0.1353
  H  H285  1  0.721080  0.112960  0.684590  1.0  0.1327
  H  H286  1  0.432770  0.822010  0.868220  1.0  0.1257
  H  H287  1  0.430600  0.908080  0.870930  1.0  0.1064
  H  H288  1  0.429250  0.910060  0.784000  1.0  0.1253
  H  H289  1  0.464920  0.941940  0.762050  1.0  0.1179
  H  H290  1  0.461900  0.999860  0.734920  1.0  0.1241
  H  H291  1  0.390580  0.020160  0.824660  1.0  0.1308
  H  H292  1  0.392930  0.962420  0.851920  1.0  0.1179
  H  H293  1  0.395020  0.823790  0.923540  1.0  0.1196
  H  H294  1  0.394500  0.794760  0.980820  1.0  0.1243
  H  H295  1  0.466190  0.833720  0.959050  1.0  0.1272
  H  H296  1  0.467370  0.862460  0.901490  1.0  0.1225
  H  H297  1  0.395210  0.824560  0.848500  1.0  0.1159
  H  H298  1  0.394860  0.796610  0.819470  1.0  0.1224
  H  H299  1  0.464720  0.838470  0.731000  1.0  0.1279
  H  H300  1  0.465850  0.866030  0.759960  1.0  0.1198
  H  H301  1  0.427140  0.806450  0.074030  1.0  0.1402
  H  H302  1  0.426910  0.777520  0.131490  1.0  0.1324
  H  H303  1  0.429190  0.690760  0.129580  1.0  0.1356
  H  H304  1  0.429420  0.719680  0.072120  1.0  0.1369
  H  H305  1  0.472590  0.776890  0.684440  1.0  0.1387
  H  H306  1  0.472920  0.747290  0.656330  1.0  0.1306
  H  H307  1  0.386200  0.726310  0.735600  1.0  0.1315
  H  H308  1  0.385870  0.755910  0.763740  1.0  0.1364
  H  H309  1  0.429580  0.112050  0.769600  1.0  0.1334
  H  H310  1  0.429950  0.169160  0.739970  1.0  0.13
  H  H311  1  0.415870  0.171910  0.659600  1.0  0.1316
  H  H312  1  0.415420  0.114830  0.689270  1.0  0.1326
  C  C313  1  0.392150  0.748340  0.339830  1.0  0.6642
  C  C314  1  0.442100  0.697830  0.289880  1.0  0.6679
  C  C315  1  0.511880  0.697810  0.289710  1.0  0.6703
  C  C316  1  0.461780  0.748140  0.339830  1.0  0.6664
  C  C317  1  0.391730  0.748910  0.510390  1.0  0.6682
  C  C318  1  0.461370  0.748880  0.440720  1.0  0.6682
  C  C319  1  0.511540  0.698990  0.490830  1.0  0.6645
  C  C320  1  0.441920  0.699400  0.560380  1.0  0.6662
  C  C321  1  0.479290  0.161520  0.173520  1.0  0.0111
  C  C322  1  0.479580  0.177980  0.189460  1.0  -0.0904
  C  C323  1  0.479890  0.212190  0.172370  1.0  -0.0221
  C  C324  1  0.480050  0.227970  0.139800  1.0  -0.1311
  C  C325  1  0.479770  0.211950  0.123410  1.0  -0.0231
  C  C326  1  0.479270  0.177810  0.141010  1.0  -0.0541
  C  C327  1  0.499140  0.249760  0.173280  1.0  -0.1391
  C  C328  1  0.498750  0.266120  0.189730  1.0  -0.0803
  C  C329  1  0.478930  0.262440  0.222760  1.0  -0.0116
  C  C330  1  0.459520  0.242310  0.239350  1.0  -0.0853
  C  C331  1  0.459890  0.225910  0.222950  1.0  -0.1237
  C  C332  1  0.479660  0.229500  0.189730  1.0  0.057
  C  C333  1  0.499520  0.103770  0.174420  1.0  -0.1305
  C  C334  1  0.499610  0.071330  0.190790  1.0  -0.1196
  C  C335  1  0.479500  0.061870  0.223680  1.0  -0.0052
  C  C336  1  0.459240  0.084950  0.240170  1.0  -0.1433
  C  C337  1  0.459130  0.117390  0.223860  1.0  -0.1327
  C  C338  1  0.479300  0.127130  0.190800  1.0  0.0599
  C  C339  1  0.459320  0.225690  0.079480  1.0  -0.12
  C  C340  1  0.458920  0.241960  0.047130  1.0  -0.1049
  C  C341  1  0.478720  0.261660  0.024030  1.0  -0.0052
  C  C342  1  0.499000  0.265000  0.033290  1.0  -0.1447
  C  C343  1  0.499420  0.248790  0.065620  1.0  -0.1454
  C  C344  1  0.479530  0.229010  0.089070  1.0  0.0619
  C  C345  1  0.479550  0.028520  0.240490  1.0  0.0251
  C  C346  1  0.479480  0.000610  0.254580  1.0  0.024
  C  C347  1  0.478540  0.279300  0.239660  1.0  -0.0292
  C  C348  1  0.478230  0.293370  0.253840  1.0  -0.0286
  C  C349  1  0.478090  0.278650  0.990860  1.0  -0.0133
  C  C350  1  0.477570  0.293040  0.963060  1.0  -0.0115
  C  C351  1  0.480200  0.950890  0.303590  1.0  -0.1296
  C  C352  1  0.479300  0.918780  0.320180  1.0  -0.1213
  C  C353  1  0.477390  0.903040  0.304640  1.0  -0.0127
  C  C354  1  0.476530  0.919470  0.272400  1.0  -0.1371
  C  C355  1  0.477430  0.951590  0.255820  1.0  -0.1297
  C  C356  1  0.479170  0.967380  0.271420  1.0  0.0266
  C  C357  1  0.477550  0.342580  0.913980  1.0  -0.1267
  C  C358  1  0.476740  0.359510  0.881780  1.0  -0.1194
  C  C359  1  0.475300  0.344260  0.865450  1.0  -0.008
  C  C360  1  0.474680  0.312020  0.881370  1.0  -0.12
  C  C361  1  0.475500  0.295080  0.913560  1.0  -0.1348
  C  C362  1  0.476910  0.310350  0.929920  1.0  0.0407
  C  C363  1  0.473050  0.295650  0.304680  1.0  -0.1378
  C  C364  1  0.472570  0.311920  0.321290  1.0  -0.1063
  C  C365  1  0.476900  0.342680  0.304140  1.0  0.0856
  C  C366  1  0.481770  0.357090  0.270300  1.0  -0.1272
  C  C367  1  0.482250  0.340810  0.253680  1.0  -0.1322
  C  C368  1  0.477860  0.310080  0.270860  1.0  0.038
  C  C369  1  0.475730  0.870280  0.321960  1.0  -0.0328
  C  C370  1  0.473990  0.842980  0.336590  1.0  -0.0058
  C  C371  1  0.473970  0.361790  0.832550  1.0  -0.0832
  C  C372  1  0.472500  0.376460  0.805110  1.0  -0.0895
  C  C373  1  0.475690  0.359680  0.321400  1.0  -0.0811
  C  C374  1  0.474210  0.374070  0.336020  1.0  -0.0764
  C  C375  1  0.290850  0.749120  0.440530  1.0  0.6655
  C  C376  1  0.290730  0.748930  0.510280  1.0  0.6694
  C  C377  1  0.240020  0.699450  0.560150  1.0  0.665
  C  C378  1  0.240690  0.698990  0.490260  1.0  0.669
  C  C379  1  0.126020  0.160610  0.173180  1.0  0.0034
  C  C380  1  0.093460  0.177080  0.189320  1.0  -0.0606
  C  C381  1  0.076310  0.211600  0.172650  1.0  -0.0218
  C  C382  1  0.093040  0.227700  0.140290  1.0  -0.1301
  C  C383  1  0.125550  0.211640  0.123660  1.0  -0.0254
  C  C384  1  0.142280  0.177120  0.140770  1.0  -0.0874
  C  C385  1  0.032270  0.261520  0.187640  1.0  -0.1358
  C  C386  1  0.999830  0.277640  0.204230  1.0  -0.1465
  C  C387  1  0.976650  0.261310  0.223400  1.0  -0.0016
  C  C388  1  0.986000  0.228760  0.225990  1.0  -0.1049
  C  C389  1  0.018450  0.212550  0.209470  1.0  -0.1336
  C  C390  1  0.041900  0.228800  0.190090  1.0  0.0634
  C  C391  1  0.163090  0.103020  0.173780  1.0  -0.1288
  C  C392  1  0.179430  0.070680  0.189960  1.0  -0.1432
  C  C393  1  0.176190  0.061140  0.222840  1.0  0.0059
  C  C394  1  0.156560  0.084050  0.239530  1.0  -0.1126
  C  C395  1  0.140180  0.116400  0.223410  1.0  -0.1245
  C  C396  1  0.143270  0.126230  0.190350  1.0  0.0611
  C  C397  1  0.163040  0.212620  0.065950  1.0  -0.1313
  C  C398  1  0.179470  0.228970  0.033590  1.0  -0.0732
  C  C399  1  0.176250  0.261690  0.024390  1.0  0.0033
  C  C400  1  0.156630  0.278010  0.047630  1.0  -0.0711
  C  C401  1  0.140140  0.261750  0.079950  1.0  -0.1436
  C  C402  1  0.143120  0.228900  0.089420  1.0  0.0638
  C  C403  1  0.193050  0.027880  0.239460  1.0  0.0253
  C  C404  1  0.207150  0.000050  0.253480  1.0  0.0243
  C  C405  1  0.943320  0.277990  0.240440  1.0  -0.0151
  C  C406  1  0.915450  0.292110  0.254670  1.0  0.0024
  C  C407  1  0.192890  0.278640  0.991070  1.0  -0.0382
  C  C408  1  0.206680  0.293050  0.963190  1.0  -0.0629
  C  C409  1  0.207070  0.950170  0.302290  1.0  -0.1296
  C  C410  1  0.223530  0.918160  0.318980  1.0  -0.1201
  C  C411  1  0.256950  0.902760  0.303810  1.0  0.1511
  C  C412  1  0.273800  0.919420  0.271800  1.0  -0.1352
  C  C413  1  0.257320  0.951440  0.255110  1.0  -0.1265
  C  C414  1  0.223950  0.966900  0.270370  1.0  0.0305
  C  C415  1  0.210110  0.344660  0.917240  1.0  -0.124
  C  C416  1  0.226160  0.361570  0.884990  1.0  -0.1239
  C  C417  1  0.255170  0.344240  0.865320  1.0  0.0603
  C  C418  1  0.268040  0.309950  0.877990  1.0  -0.1292
  C  C419  1  0.252000  0.293050  0.910250  1.0  -0.131
  C  C420  1  0.223040  0.310390  0.929940  1.0  0.0429
  C  C421  1  0.865730  0.293010  0.304110  1.0  -0.1288
  C  C422  1  0.833560  0.309670  0.320700  1.0  -0.1241
  C  C423  1  0.817800  0.342500  0.304860  1.0  -0.0146
  C  C424  1  0.834270  0.358580  0.272350  1.0  -0.1229
  C  C425  1  0.866440  0.341910  0.255750  1.0  -0.0977
  C  C426  1  0.882240  0.309120  0.271620  1.0  0.0408
  C  C427  1  0.274050  0.870160  0.321320  1.0  -0.0635
  C  C428  1  0.288440  0.842980  0.336140  1.0  -0.049
  C  C429  1  0.272070  0.361670  0.832400  1.0  -0.0863
  C  C430  1  0.286500  0.376260  0.804980  1.0  -0.0887
  C  C431  1  0.784950  0.359810  0.322130  1.0  -0.0978
  C  C432  1  0.757560  0.374400  0.336730  1.0  -0.0877
  C  C433  1  0.678480  0.442750  0.355970  1.0  -0.0951
  C  C434  1  0.725060  0.391940  0.354320  1.0  0.015
  C  C435  1  0.678270  0.393550  0.405230  1.0  -0.0918
  C  C436  1  0.709660  0.424920  0.338710  1.0  -0.1016
  C  C437  1  0.709490  0.376360  0.387380  1.0  -0.0995
  C  C438  1  0.662880  0.426680  0.389160  1.0  -0.032
  C  C439  1  0.727160  0.555830  0.354400  1.0  0.0195
  C  C440  1  0.679770  0.551430  0.355590  1.0  -0.0929
  C  C441  1  0.679740  0.551640  0.404960  1.0  -0.0937
  C  C442  1  0.711440  0.554270  0.338620  1.0  -0.093
  C  C443  1  0.664070  0.550500  0.388640  1.0  -0.0348
  C  C444  1  0.711420  0.554490  0.387390  1.0  -0.0923
  C  C445  1  0.596530  0.523790  0.275170  1.0  -0.0917
  C  C446  1  0.598480  0.517090  0.228790  1.0  0.0214
  C  C447  1  0.547210  0.523680  0.275000  1.0  -0.0955
  C  C448  1  0.614000  0.519350  0.244210  1.0  -0.1037
  C  C449  1  0.565340  0.519210  0.244050  1.0  -0.0979
  C  C450  1  0.563160  0.525640  0.290500  1.0  -0.0324
  C  C451  1  0.224380  0.683740  0.595770  1.0  -0.0961
  C  C452  1  0.224430  0.634700  0.645160  1.0  -0.0956
  C  C453  1  0.177460  0.685220  0.646580  1.0  -0.0115
  C  C454  1  0.239990  0.650770  0.611980  1.0  -0.0312
  C  C455  1  0.193070  0.652390  0.662320  1.0  -0.1055
  C  C456  1  0.193000  0.700840  0.613520  1.0  -0.103
  C  C457  1  0.596160  0.312370  0.596110  1.0  -0.0954
  C  C458  1  0.597280  0.265850  0.646940  1.0  0.0378
  C  C459  1  0.546470  0.312480  0.645270  1.0  -0.0953
  C  C460  1  0.613220  0.281270  0.613950  1.0  -0.0984
  C  C461  1  0.564120  0.281370  0.662520  1.0  -0.0958
  C  C462  1  0.562860  0.327840  0.612140  1.0  -0.0354
  C  C463  1  0.471760  0.391490  0.353640  1.0  0.0205
  C  C464  1  0.465690  0.442330  0.355420  1.0  -0.0939
  C  C465  1  0.465620  0.393150  0.404720  1.0  -0.0939
  C  C466  1  0.469870  0.424450  0.338050  1.0  -0.1025
  C  C467  1  0.463900  0.426310  0.388690  1.0  -0.0303
  C  C468  1  0.469670  0.375910  0.386760  1.0  -0.0987
  C  C469  1  0.598280  0.683220  0.227150  1.0  0.0033
  C  C470  1  0.597110  0.632940  0.274280  1.0  -0.0936
  C  C471  1  0.547530  0.681940  0.274150  1.0  -0.0911
  C  C472  1  0.614170  0.650480  0.242820  1.0  -0.0979
  C  C473  1  0.563860  0.649050  0.289840  1.0  -0.0348
  C  C474  1  0.565200  0.698870  0.242700  1.0  -0.1065
  C  C475  1  0.356030  0.551190  0.354340  1.0  -0.0954
  C  C476  1  0.305440  0.556070  0.352740  1.0  0.0093
  C  C477  1  0.306300  0.551730  0.403470  1.0  -0.0981
  C  C478  1  0.338570  0.554250  0.337160  1.0  -0.1023
  C  C479  1  0.289390  0.554780  0.385720  1.0  -0.0929
  C  C480  1  0.339500  0.550310  0.387360  1.0  -0.0458
  C  C481  1  0.437130  0.634830  0.645500  1.0  -0.0922
  C  C482  1  0.432610  0.685340  0.646610  1.0  0.0209
  C  C483  1  0.437690  0.683740  0.595980  1.0  -0.0945
  C  C484  1  0.433920  0.652530  0.662510  1.0  -0.1013
  C  C485  1  0.434500  0.700840  0.613570  1.0  -0.109
  C  C486  1  0.438640  0.650830  0.612320  1.0  -0.0353
  C  C487  1  0.429570  0.266550  0.647220  1.0  0.0172
  C  C488  1  0.436610  0.312680  0.645190  1.0  -0.096
  C  C489  1  0.436730  0.312290  0.595890  1.0  -0.1008
  C  C490  1  0.431820  0.282020  0.662730  1.0  -0.0961
  C  C491  1  0.438780  0.327670  0.611850  1.0  -0.043
  C  C492  1  0.432010  0.281580  0.613990  1.0  -0.0969
  C  C493  1  0.596640  0.634010  0.486540  1.0  -0.0956
  C  C494  1  0.598150  0.684960  0.480450  1.0  0.0081
  C  C495  1  0.547180  0.683170  0.486600  1.0  -0.0965
  C  C496  1  0.613870  0.651930  0.482500  1.0  -0.0985
  C  C497  1  0.565030  0.700480  0.482540  1.0  -0.1059
  C  C498  1  0.563360  0.650020  0.488230  1.0  -0.0355
  C  C499  1  0.306680  0.764380  0.514560  1.0  -0.0914
  C  C500  1  0.305370  0.811120  0.519910  1.0  0.0151
  C  C501  1  0.356100  0.764360  0.514620  1.0  -0.0942
  C  C502  1  0.289590  0.795610  0.518150  1.0  -0.1048
  C  C503  1  0.338390  0.795600  0.518220  1.0  -0.0984
  C  C504  1  0.339860  0.748830  0.513170  1.0  -0.0295
  C  C505  1  0.464560  0.395290  0.725870  1.0  -0.094
  C  C506  1  0.464330  0.444620  0.726120  1.0  -0.0961
  C  C507  1  0.470160  0.393910  0.772590  1.0  0.0157
  C  C508  1  0.462870  0.428450  0.710490  1.0  -0.0322
  C  C509  1  0.468190  0.426880  0.757270  1.0  -0.1001
  C  C510  1  0.468380  0.378210  0.757020  1.0  -0.1078
  C  C511  1  0.225440  0.634080  0.485090  1.0  -0.0957
  C  C512  1  0.225340  0.683200  0.485660  1.0  -0.0954
  C  C513  1  0.179150  0.685010  0.478760  1.0  0.0138
  C  C514  1  0.240780  0.650060  0.487180  1.0  -0.0343
  C  C515  1  0.194400  0.700500  0.481280  1.0  -0.1038
  C  C516  1  0.194510  0.652000  0.480720  1.0  -0.1042
  C  C517  1  0.305940  0.444370  0.725970  1.0  -0.0972
  C  C518  1  0.355220  0.395050  0.725960  1.0  -0.0954
  C  C519  1  0.304100  0.393680  0.772490  1.0  0.0191
  C  C520  1  0.339210  0.428180  0.710510  1.0  -0.0324
  C  C521  1  0.337210  0.377970  0.757070  1.0  -0.1055
  C  C522  1  0.288530  0.426650  0.757050  1.0  -0.0994
  C  C523  1  0.662620  0.377710  0.440820  1.0  0.6668
  C  C524  1  0.662230  0.378170  0.510400  1.0  0.6685
  C  C525  1  0.612220  0.327830  0.560530  1.0  0.6677
  C  C526  1  0.612130  0.327760  0.490950  1.0  0.6719
  C  C527  1  0.131250  0.559830  0.168510  1.0  0.0612
  C  C528  1  0.147670  0.557930  0.136480  1.0  -0.107
  C  C529  1  0.131640  0.556630  0.120670  1.0  0.0636
  C  C530  1  0.098740  0.557210  0.137380  1.0  -0.1079
  C  C531  1  0.081850  0.559140  0.169390  1.0  0.0659
  C  C532  1  0.098350  0.560430  0.184720  1.0  -0.1132
  C  C533  1  0.133120  0.572960  0.063250  1.0  -0.1524
  C  C534  1  0.149490  0.570480  0.031580  1.0  -0.1496
  C  C535  1  0.182270  0.549760  0.022860  1.0  0.0084
  C  C536  1  0.198500  0.531480  0.046070  1.0  -0.147
  C  C537  1  0.182180  0.533900  0.077760  1.0  -0.1481
  C  C538  1  0.149240  0.554580  0.086760  1.0  0.0677
  C  C539  1  0.132020  0.582120  0.203770  1.0  -0.1288
  C  C540  1  0.147980  0.582670  0.220020  1.0  -0.1333
  C  C541  1  0.180530  0.562090  0.217980  1.0  0.007
  C  C542  1  0.197160  0.541090  0.199390  1.0  -0.1455
  C  C543  1  0.181260  0.540520  0.183070  1.0  -0.1297
  C  C544  1  0.148440  0.560940  0.185200  1.0  0.0693
  C  C545  1  0.023810  0.581060  0.205190  1.0  -0.1382
  C  C546  1  0.991120  0.581400  0.221820  1.0  -0.1449
  C  C547  1  0.981250  0.560300  0.220490  1.0  0.0027
  C  C548  1  0.004210  0.538880  0.202370  1.0  -0.1474
  C  C549  1  0.036910  0.538530  0.185670  1.0  -0.1366
  C  C550  1  0.047090  0.559600  0.186930  1.0  0.0687
  C  C551  1  0.196700  0.562190  0.235300  1.0  0.0346
  C  C552  1  0.210160  0.562120  0.249990  1.0  0.0344
  C  C553  1  0.199610  0.545960  0.989480  1.0  -0.0774
  C  C554  1  0.204700  0.577840  0.962600  1.0  -0.0626
  C  C555  1  0.947640  0.560510  0.237850  1.0  0.023
  C  C556  1  0.919520  0.560610  0.252480  1.0  0.0237
  C  C557  1  0.256790  0.566790  0.251040  1.0  -0.1304
  C  C558  1  0.272520  0.566130  0.268330  1.0  -0.1293
  C  C559  1  0.257760  0.560500  0.302360  1.0  0.0609
  C  C560  1  0.227140  0.555610  0.319000  1.0  -0.1264
  C  C561  1  0.211400  0.556280  0.301710  1.0  -0.125
  C  C562  1  0.226200  0.561820  0.267700  1.0  0.029
  C  C563  1  0.868600  0.561400  0.254260  1.0  -0.1404
  C  C564  1  0.836170  0.560950  0.271430  1.0  -0.1245
  C  C565  1  0.820970  0.559680  0.304420  1.0  -0.0025
  C  C566  1  0.838310  0.558960  0.320150  1.0  -0.1411
  C  C567  1  0.870750  0.559410  0.302990  1.0  -0.1219
  C  C568  1  0.885990  0.560570  0.270020  1.0  0.0297
  C  C569  1  0.253810  0.576310  0.910940  1.0  -0.0868
  C  C570  1  0.270070  0.573470  0.879420  1.0  -0.1319
  C  C571  1  0.254670  0.568370  0.865980  1.0  0.0022
  C  C572  1  0.222940  0.566090  0.884220  1.0  -0.1356
  C  C573  1  0.206670  0.568930  0.915760  1.0  -0.1453
  C  C574  1  0.222120  0.573930  0.929280  1.0  -0.0036
  C  C575  1  0.274230  0.559300  0.320210  1.0  -0.0891
  C  C576  1  0.288280  0.558020  0.335090  1.0  -0.0831
  C  C577  1  0.787780  0.558690  0.322180  1.0  -0.0049
  C  C578  1  0.760080  0.557570  0.336940  1.0  -0.0046
  C  C579  1  0.271510  0.565460  0.833530  1.0  -0.0876
  C  C580  1  0.285930  0.562920  0.806390  1.0  -0.0733
  C  C581  1  0.437720  0.632720  0.274220  1.0  -0.0958
  C  C582  1  0.437800  0.681940  0.274380  1.0  -0.0964
  C  C583  1  0.432200  0.683350  0.227630  1.0  0.0255
  C  C584  1  0.439200  0.648870  0.289840  1.0  -0.03
  C  C585  1  0.434090  0.699020  0.243170  1.0  -0.1043
  C  C586  1  0.434040  0.650410  0.243000  1.0  -0.1012
  C  C587  1  0.612580  0.598490  0.490690  1.0  0.6697
  C  C588  1  0.611930  0.529390  0.560260  1.0  0.6667
  C  C589  1  0.662410  0.479040  0.510220  1.0  0.6703
  C  C590  1  0.663760  0.547960  0.440530  1.0  0.6711
  C  C591  1  0.778470  0.508920  0.876760  1.0  0.0616
  C  C592  1  0.762310  0.508720  0.860380  1.0  -0.1117
  C  C593  1  0.778330  0.508790  0.827690  1.0  0.0592
  C  C594  1  0.810940  0.508980  0.811400  1.0  -0.1164
  C  C595  1  0.827500  0.509170  0.827390  1.0  0.0658
  C  C596  1  0.811070  0.509100  0.860080  1.0  -0.1146
  C  C597  1  0.763260  0.529660  0.777750  1.0  -0.128
  C  C598  1  0.746670  0.529920  0.761610  1.0  -0.1141
  C  C599  1  0.727560  0.509540  0.777950  1.0  0.0008
  C  C600  1  0.724990  0.488930  0.810510  1.0  -0.1397
  C  C601  1  0.741510  0.488660  0.826730  1.0  -0.1348
  C  C602  1  0.760850  0.509010  0.810490  1.0  0.0665
  C  C603  1  0.764040  0.529570  0.920890  1.0  -0.1287
  C  C604  1  0.747810  0.529700  0.953380  1.0  -0.0861
  C  C605  1  0.728700  0.509350  0.976570  1.0  -0.0147
  C  C606  1  0.725780  0.488890  0.967200  1.0  -0.0872
  C  C607  1  0.741940  0.488750  0.934710  1.0  -0.1356
  C  C608  1  0.761270  0.509070  0.911230  1.0  0.0618
  C  C609  1  0.871500  0.530040  0.812740  1.0  -0.1391
  C  C610  1  0.903920  0.530400  0.796280  1.0  -0.1379
  C  C611  1  0.927130  0.510190  0.776950  1.0  -0.0019
  C  C612  1  0.917870  0.489610  0.774100  1.0  -0.1133
  C  C613  1  0.885450  0.489230  0.790510  1.0  -0.1354
  C  C614  1  0.861930  0.509460  0.810000  1.0  0.065
  C  C615  1  0.712070  0.509460  0.009990  1.0  -0.0213
  C  C616  1  0.698070  0.509550  0.037990  1.0  -0.0173
  C  C617  1  0.710630  0.509740  0.761270  1.0  0.024
  C  C618  1  0.696490  0.509950  0.747220  1.0  0.0252
  C  C619  1  0.960440  0.510630  0.759980  1.0  0.0259
  C  C620  1  0.988350  0.511000  0.745690  1.0  0.0245
  C  C621  1  0.649650  0.507150  0.088520  1.0  -0.1215
  C  C622  1  0.633130  0.507730  0.120870  1.0  -0.1241
  C  C623  1  0.648220  0.510880  0.136140  1.0  -0.0015
  C  C624  1  0.679910  0.513330  0.119050  1.0  -0.1123
  C  C625  1  0.696430  0.512740  0.086700  1.0  -0.1275
  C  C626  1  0.681290  0.509730  0.071370  1.0  0.0363
  C  C627  1  0.036930  0.513740  0.695300  1.0  -0.1295
  C  C628  1  0.069220  0.514490  0.678550  1.0  -0.1365
  C  C629  1  0.086300  0.513000  0.695040  1.0  -0.0003
  C  C630  1  0.071040  0.510670  0.728320  1.0  -0.1284
  C  C631  1  0.038750  0.509920  0.745070  1.0  -0.1362
  C  C632  1  0.021630  0.511500  0.728570  1.0  0.0436
  C  C633  1  0.646670  0.511560  0.746140  1.0  -0.1326
  C  C634  1  0.630170  0.512380  0.729530  1.0  -0.1378
  C  C635  1  0.646620  0.511950  0.697080  1.0  0.0013
  C  C636  1  0.679660  0.510530  0.681340  1.0  -0.1177
  C  C637  1  0.696160  0.509700  0.697950  1.0  -0.1354
  C  C638  1  0.679660  0.510300  0.730340  1.0  0.0442
  C  C639  1  0.630890  0.512410  0.169040  1.0  -0.056
  C  C640  1  0.616210  0.514210  0.196420  1.0  -0.0241
  C  C641  1  0.119180  0.514580  0.677650  1.0  -0.0615
  C  C642  1  0.146570  0.516360  0.663010  1.0  -0.0434
  C  C643  1  0.629380  0.513760  0.679690  1.0  -0.0985
  C  C644  1  0.614790  0.515770  0.664960  1.0  -0.0894
  C  C645  1  0.239990  0.599250  0.661000  1.0  0.6722
  C  C646  1  0.289630  0.549160  0.711700  1.0  0.6667
  C  C647  1  0.290140  0.479910  0.710580  1.0  0.6726
  C  C648  1  0.240540  0.530040  0.659950  1.0  0.669
  C  C649  1  0.390880  0.379010  0.710560  1.0  0.6669
  C  C650  1  0.441020  0.328260  0.660910  1.0  0.6715
  C  C651  1  0.510770  0.328150  0.660990  1.0  0.6648
  C  C652  1  0.460450  0.379220  0.710400  1.0  0.6723
  C  C653  1  0.391410  0.377950  0.509720  1.0  0.6694
  C  C654  1  0.461320  0.377340  0.440360  1.0  0.6694
  C  C655  1  0.511200  0.327500  0.490840  1.0  0.666
  C  C656  1  0.441210  0.327560  0.560210  1.0  0.6659
  C  C657  1  0.240870  0.598570  0.489220  1.0  0.6701
  C  C658  1  0.240910  0.529480  0.558760  1.0  0.6737
  C  C659  1  0.290850  0.479080  0.508750  1.0  0.6718
  C  C660  1  0.290320  0.548070  0.439030  1.0  0.6696
  C  C661  1  0.390400  0.549420  0.711810  1.0  0.6675
  C  C662  1  0.460050  0.480140  0.710830  1.0  0.6742
  C  C663  1  0.510330  0.530050  0.661010  1.0  0.664
  C  C664  1  0.440920  0.599410  0.661430  1.0  0.6738
  C  C665  1  0.778020  0.866120  0.470810  1.0  0.0676
  C  C666  1  0.810830  0.850050  0.470260  1.0  -0.1244
  C  C667  1  0.827500  0.865820  0.470560  1.0  0.0635
  C  C668  1  0.811000  0.898120  0.471320  1.0  -0.1145
  C  C669  1  0.778190  0.914640  0.471830  1.0  0.0667
  C  C670  1  0.761890  0.898410  0.471610  1.0  -0.1139
  C  C671  1  0.872050  0.850160  0.491190  1.0  -0.1309
  C  C672  1  0.904670  0.833730  0.490860  1.0  -0.0958
  C  C673  1  0.927680  0.815490  0.469560  1.0  -0.0112
  C  C674  1  0.917980  0.813630  0.448620  1.0  -0.1261
  C  C675  1  0.885360  0.829970  0.448980  1.0  -0.1377
  C  C676  1  0.862080  0.848450  0.470230  1.0  0.0656
  C  C677  1  0.727860  0.851470  0.491390  1.0  -0.1281
  C  C678  1  0.711560  0.835330  0.491250  1.0  -0.0661
  C  C679  1  0.727790  0.816750  0.470310  1.0  0.0228
  C  C680  1  0.760410  0.814280  0.449530  1.0  -0.0761
  C  C681  1  0.776780  0.830340  0.449670  1.0  -0.1365
  C  C682  1  0.760650  0.849140  0.470590  1.0  0.0656
  C  C683  1  0.728070  0.958360  0.493160  1.0  -0.1349
  C  C684  1  0.711830  0.990580  0.493800  1.0  -0.1384
  C  C685  1  0.728220  0.013670  0.473760  1.0  0.0011
  C  C686  1  0.760950  0.004450  0.453150  1.0  -0.1129
  C  C687  1  0.777260  0.972220  0.452520  1.0  -0.1345
  C  C688  1  0.760970  0.948840  0.472500  1.0  0.0632
  C  C689  1  0.711030  0.800050  0.470340  1.0  -0.0412
  C  C690  1  0.696930  0.785960  0.470580  1.0  -0.036
  C  C691  1  0.961210  0.798670  0.469260  1.0  -0.0212
  C  C692  1  0.989240  0.784610  0.469210  1.0  -0.0235
  C  C693  1  0.711400  0.046880  0.474200  1.0  -0.0106
  C  C694  1  0.697260  0.074730  0.474490  1.0  -0.0107
  C  C695  1  0.698080  0.740650  0.462120  1.0  -0.13
  C  C696  1  0.681620  0.723800  0.463310  1.0  -0.1307
  C  C697  1  0.647100  0.735260  0.473560  1.0  0.0556
  C  C698  1  0.629080  0.763670  0.482520  1.0  -0.1229
  C  C699  1  0.645540  0.780520  0.481330  1.0  -0.133
  C  C700  1  0.680060  0.769000  0.471180  1.0  0.0374
  C  C701  1  0.696690  0.124740  0.473960  1.0  -0.1359
  C  C702  1  0.680070  0.156960  0.474640  1.0  -0.1257
  C  C703  1  0.647020  0.172520  0.476180  1.0  -0.0066
  C  C704  1  0.630650  0.155750  0.477020  1.0  -0.1217
  C  C705  1  0.647270  0.123530  0.476350  1.0  -0.0959
  C  C706  1  0.680300  0.107960  0.474860  1.0  0.0449
  C  C707  1  0.039930  0.736510  0.466390  1.0  -0.1295
  C  C708  1  0.072120  0.719960  0.467360  1.0  -0.1222
  C  C709  1  0.087030  0.734720  0.471400  1.0  0.1532
  C  C710  1  0.069750  0.766120  0.474310  1.0  0.1069
  C  C711  1  0.037570  0.782660  0.473340  1.0  -0.1256
  C  C712  1  0.022580  0.767850  0.469470  1.0  0.0368
  C  C713  1  0.630110  0.717570  0.475500  1.0  -0.0852
  C  C714  1  0.615680  0.702710  0.477520  1.0  -0.0806
  C  C715  1  0.629760  0.205430  0.477490  1.0  -0.0895
  C  C716  1  0.615200  0.232860  0.478970  1.0  -0.0833
  C  C717  1  0.119730  0.717340  0.473410  1.0  -0.0727
  C  C718  1  0.146930  0.702670  0.475570  1.0  -0.0465
  C  C719  1  0.076430  0.211240  0.527920  1.0  0.0633
  C  C720  1  0.093050  0.178820  0.527520  1.0  -0.1107
  C  C721  1  0.125780  0.162480  0.527250  1.0  0.0646
  C  C722  1  0.141880  0.178930  0.527410  1.0  -0.1139
  C  C723  1  0.125670  0.211350  0.527790  1.0  0.0648
  C  C724  1  0.092940  0.227280  0.528080  1.0  -0.1145
  C  C725  1  0.176000  0.118730  0.506180  1.0  -0.1386
  C  C726  1  0.192330  0.086430  0.505780  1.0  -0.1424
  C  C727  1  0.176060  0.063250  0.526120  1.0  -0.0022
  C  C728  1  0.143400  0.072420  0.546910  1.0  -0.1335
  C  C729  1  0.127000  0.104720  0.547310  1.0  -0.1292
  C  C730  1  0.143140  0.128200  0.526920  1.0  0.066
  C  C731  1  0.018520  0.247340  0.548850  1.0  -0.1302
  C  C732  1  0.985970  0.263600  0.548970  1.0  -0.1287
  C  C733  1  0.976440  0.261210  0.528250  1.0  -0.0207
  C  C734  1  0.999520  0.242450  0.507460  1.0  -0.1045
  C  C735  1  0.032070  0.226080  0.507370  1.0  -0.1353
  C  C736  1  0.041900  0.228400  0.528060  1.0  0.0667
  C  C737  1  0.126490  0.247680  0.548560  1.0  -0.133
  C  C738  1  0.142690  0.263910  0.548710  1.0  -0.0724
  C  C739  1  0.175410  0.261260  0.528230  1.0  0.0578
  C  C740  1  0.191960  0.242240  0.507670  1.0  -0.0676
  C  C741  1  0.175840  0.225920  0.507530  1.0  -0.1345
  C  C742  1  0.142890  0.228530  0.527950  1.0  0.0652
  C  C743  1  0.943030  0.278170  0.528230  1.0  -0.0241
  C  C744  1  0.915050  0.292440  0.528140  1.0  -0.016
  C  C745  1  0.192870  0.030070  0.525590  1.0  0.0396
  C  C746  1  0.206980  0.002290  0.525110  1.0  0.0387
  C  C747  1  0.191990  0.278180  0.528170  1.0  -0.0525
  C  C748  1  0.205980  0.292390  0.527930  1.0  -0.0523
  C  C749  1  0.866320  0.294870  0.524300  1.0  -0.1307
  C  C750  1  0.834030  0.311610  0.523610  1.0  -0.0697
  C  C751  1  0.817030  0.343020  0.526530  1.0  0.1221
  C  C752  1  0.832370  0.357590  0.530250  1.0  -0.1182
  C  C753  1  0.864670  0.340850  0.530930  1.0  -0.124
  C  C754  1  0.881710  0.309500  0.527890  1.0  0.034
  C  C755  1  0.257340  0.298350  0.516480  1.0  -0.1399
  C  C756  1  0.273760  0.315090  0.515530  1.0  -0.1264
  C  C757  1  0.255700  0.342890  0.525520  1.0  0.0557
  C  C758  1  0.221150  0.353830  0.536570  1.0  -0.1314
  C  C759  1  0.204730  0.337080  0.537510  1.0  -0.1261
  C  C760  1  0.222810  0.309370  0.527390  1.0  0.0405
  C  C761  1  0.209460  0.954440  0.519770  1.0  -0.1337
  C  C762  1  0.225870  0.922150  0.519310  1.0  -0.1265
  C  C763  1  0.256730  0.904450  0.523630  1.0  0.0734
  C  C764  1  0.271150  0.919150  0.528370  1.0  -0.1395
  C  C765  1  0.254740  0.951440  0.528830  1.0  -0.1316
  C  C766  1  0.223870  0.969120  0.524550  1.0  0.041
  C  C767  1  0.784110  0.360480  0.525050  1.0  -0.0684
  C  C768  1  0.756710  0.375120  0.523370  1.0  -0.0679
  C  C769  1  0.272670  0.360370  0.523970  1.0  -0.0928
  C  C770  1  0.287140  0.375030  0.522260  1.0  -0.0727
  C  C771  1  0.273740  0.871390  0.522800  1.0  -0.0838
  C  C772  1  0.288090  0.843810  0.521770  1.0  -0.0752
  C  C773  1  0.677710  0.394130  0.514640  1.0  -0.0952
  C  C774  1  0.677800  0.443470  0.514550  1.0  -0.0933
  C  C775  1  0.724240  0.392630  0.520720  1.0  0.0253
  C  C776  1  0.662310  0.427330  0.512880  1.0  -0.0302
  C  C777  1  0.708870  0.425670  0.518660  1.0  -0.1031
  C  C778  1  0.708780  0.376950  0.518740  1.0  -0.1035
  C  C779  1  0.465890  0.763800  0.355730  1.0  -0.095
  C  C780  1  0.471420  0.810570  0.354180  1.0  0.0169
  C  C781  1  0.465620  0.764200  0.405100  1.0  -0.0943
  C  C782  1  0.469670  0.794920  0.338500  1.0  -0.0994
  C  C783  1  0.469360  0.795340  0.387290  1.0  -0.0952
  C  C784  1  0.464240  0.748530  0.388940  1.0  -0.0333
  C  C785  1  0.597700  0.265390  0.481280  1.0  0.0178
  C  C786  1  0.596230  0.312180  0.486730  1.0  -0.0938
  C  C787  1  0.546840  0.312030  0.486710  1.0  -0.0934
  C  C788  1  0.613400  0.280950  0.483110  1.0  -0.1006
  C  C789  1  0.563060  0.327660  0.488060  1.0  -0.0333
  C  C790  1  0.564630  0.280790  0.483120  1.0  -0.1012
  C  C791  1  0.354730  0.553530  0.727470  1.0  -0.0944
  C  C792  1  0.305360  0.553360  0.727480  1.0  -0.0951
  C  C793  1  0.303620  0.559620  0.774080  1.0  0.012
  C  C794  1  0.338630  0.551730  0.712050  1.0  -0.0356
  C  C795  1  0.287990  0.557450  0.758630  1.0  -0.1007
  C  C796  1  0.336800  0.557630  0.758600  1.0  -0.0997
  C  C797  1  0.597200  0.518820  0.647160  1.0  0.0161
  C  C798  1  0.595730  0.525260  0.595910  1.0  -0.0954
  C  C799  1  0.546060  0.525640  0.645140  1.0  -0.0945
  C  C800  1  0.613000  0.520810  0.614040  1.0  -0.1017
  C  C801  1  0.562300  0.527370  0.611820  1.0  -0.0344
  C  C802  1  0.563960  0.521220  0.662630  1.0  -0.1029
  C  C803  1  0.225270  0.525730  0.643810  1.0  -0.0966
  C  C804  1  0.225480  0.525380  0.594400  1.0  -0.0945
  C  C805  1  0.178980  0.519150  0.645440  1.0  0.0107
  C  C806  1  0.240800  0.527410  0.610490  1.0  -0.0286
  C  C807  1  0.194470  0.521060  0.612350  1.0  -0.0957
  C  C808  1  0.194250  0.521450  0.661090  1.0  -0.1026
  C  C809  1  0.304750  0.392560  0.519600  1.0  0.0137
  C  C810  1  0.306630  0.443470  0.513210  1.0  -0.0955
  C  C811  1  0.355790  0.393990  0.513770  1.0  -0.0954
  C  C812  1  0.289260  0.425680  0.517250  1.0  -0.1002
  C  C813  1  0.339820  0.427250  0.511830  1.0  -0.0342
  C  C814  1  0.337780  0.376800  0.517880  1.0  -0.1024
  C  C815  1  0.305810  0.810710  0.353920  1.0  0.0175
  C  C816  1  0.356550  0.764040  0.355690  1.0  -0.0989
  C  C817  1  0.306980  0.764480  0.404950  1.0  -0.0964
  C  C818  1  0.338910  0.795090  0.338360  1.0  -0.1043
  C  C819  1  0.340210  0.748850  0.388900  1.0  -0.0293
  C  C820  1  0.289940  0.795540  0.387030  1.0  -0.1027
  C  C821  1  0.613130  0.597560  0.289940  1.0  0.6691
  C  C822  1  0.663890  0.547530  0.339750  1.0  0.6698
  C  C823  1  0.663070  0.478280  0.340130  1.0  0.6704
  C  C824  1  0.612520  0.528190  0.290510  1.0  0.6682
  C  C825  1  0.771900  0.861900  0.871780  1.0  0.0641
  C  C826  1  0.756230  0.894680  0.855450  1.0  -0.1126
  C  C827  1  0.772840  0.911280  0.823130  1.0  0.0618
  C  C828  1  0.805520  0.894630  0.807130  1.0  -0.1088
  C  C829  1  0.821600  0.861840  0.823060  1.0  0.0611
  C  C830  1  0.804530  0.845660  0.855320  1.0  -0.1155
  C  C831  1  0.759480  0.956850  0.772970  1.0  -0.1281
  C  C832  1  0.743730  0.989670  0.757180  1.0  -0.1288
  C  C833  1  0.724610  0.012120  0.774400  1.0  0.0031
  C  C834  1  0.721230  0.001660  0.807490  1.0  -0.1486
  C  C835  1  0.736880  0.968850  0.823350  1.0  -0.1329
  C  C836  1  0.756170  0.946080  0.806260  1.0  0.0625
  C  C837  1  0.757220  0.811950  0.916080  1.0  -0.1277
  C  C838  1  0.741330  0.795700  0.948750  1.0  -0.0656
  C  C839  1  0.722620  0.812050  0.971950  1.0  0.0335
  C  C840  1  0.719670  0.844740  0.962390  1.0  -0.0703
  C  C841  1  0.735480  0.861050  0.929740  1.0  -0.1349
  C  C842  1  0.754490  0.844800  0.906250  1.0  0.0596
  C  C843  1  0.866500  0.811960  0.808510  1.0  -0.1394
  C  C844  1  0.899380  0.795740  0.792930  1.0  -0.1127
  C  C845  1  0.922580  0.811970  0.775100  1.0  0.0659
  C  C846  1  0.912810  0.844500  0.772840  1.0  -0.0799
  C  C847  1  0.879930  0.860780  0.788340  1.0  -0.1383
  C  C848  1  0.856420  0.844680  0.806340  1.0  0.0685
  C  C849  1  0.706690  0.795240  0.005670  1.0  -0.0537
  C  C850  1  0.693400  0.781220  0.033970  1.0  -0.0488
  C  C851  1  0.708320  0.045820  0.758140  1.0  0.0239
  C  C852  1  0.694600  0.074000  0.744450  1.0  0.0236
  C  C853  1  0.956380  0.795330  0.759010  1.0  -0.0734
  C  C854  1  0.984690  0.781470  0.745410  1.0  -0.0707
  C  C855  1  0.649870  0.782340  0.087750  1.0  -0.1192
  C  C856  1  0.634210  0.765950  0.120450  1.0  -0.1264
  C  C857  1  0.646250  0.731610  0.133240  1.0  0.0586
  C  C858  1  0.674080  0.713730  0.113300  1.0  -0.125
  C  C859  1  0.689740  0.730120  0.080610  1.0  -0.1336
  C  C860  1  0.677580  0.764440  0.067740  1.0  0.0381
  C  C861  1  0.039000  0.783250  0.703400  1.0  -0.1193
  C  C862  1  0.071600  0.767260  0.686940  1.0  -0.1352
  C  C863  1  0.083730  0.732950  0.696030  1.0  0.043
  C  C864  1  0.063220  0.714670  0.721770  1.0  -0.1281
  C  C865  1  0.030630  0.730650  0.738240  1.0  -0.126
  C  C866  1  0.018420  0.764980  0.728980  1.0  0.0434
  C  C867  1  0.644750  0.123000  0.743320  1.0  -0.1266
  C  C868  1  0.628590  0.155470  0.727190  1.0  -0.1307
  C  C869  1  0.645720  0.172620  0.695690  1.0  -0.0019
  C  C870  1  0.679130  0.157230  0.680460  1.0  -0.1201
  C  C871  1  0.695300  0.124750  0.696610  1.0  -0.1349
  C  C872  1  0.678120  0.107560  0.728040  1.0  0.0326
  C  C873  1  0.629640  0.714680  0.166560  1.0  -0.0769
  C  C874  1  0.615500  0.700390  0.194300  1.0  -0.0806
  C  C875  1  0.116970  0.716490  0.678640  1.0  -0.0613
  C  C876  1  0.144660  0.702420  0.664030  1.0  -0.0575
  C  C877  1  0.628850  0.205710  0.678730  1.0  -0.0578
  C  C878  1  0.614550  0.233250  0.664360  1.0  -0.0395
  C  C879  1  0.391680  0.547110  0.338750  1.0  0.6646
  C  C880  1  0.461380  0.477870  0.339600  1.0  0.6688
  C  C881  1  0.511520  0.527980  0.290170  1.0  0.6679
  C  C882  1  0.441890  0.597230  0.289630  1.0  0.6688
  C  C883  1  0.431320  0.863140  0.873620  1.0  0.0606
  C  C884  1  0.430840  0.895830  0.857830  1.0  -0.1087
  C  C885  1  0.430420  0.912890  0.825360  1.0  0.064
  C  C886  1  0.430600  0.896780  0.808660  1.0  -0.1118
  C  C887  1  0.431050  0.864100  0.824050  1.0  0.0626
  C  C888  1  0.431520  0.847480  0.856490  1.0  -0.1225
  C  C889  1  0.448400  0.958810  0.775900  1.0  -0.134
  C  C890  1  0.446860  0.991690  0.760470  1.0  -0.1384
  C  C891  1  0.426030  0.013890  0.777960  1.0  -0.0056
  C  C892  1  0.406830  0.003090  0.810990  1.0  -0.1447
  C  C893  1  0.408370  0.970190  0.826500  1.0  -0.1352
  C  C894  1  0.429140  0.947710  0.809080  1.0  0.0599
  C  C895  1  0.410890  0.825920  0.930900  1.0  -0.1258
  C  C896  1  0.410410  0.809530  0.963520  1.0  -0.1308
  C  C897  1  0.430220  0.812380  0.973800  1.0  0.0044
  C  C898  1  0.450640  0.831560  0.951300  1.0  -0.1022
  C  C899  1  0.451130  0.848030  0.918650  1.0  -0.1246
  C  C900  1  0.431180  0.845440  0.908130  1.0  0.0625
  C  C901  1  0.410730  0.827560  0.822960  1.0  -0.1309
  C  C902  1  0.410320  0.811810  0.806450  1.0  -0.0659
  C  C903  1  0.429710  0.815720  0.773290  1.0  0.0796
  C  C904  1  0.449530  0.835460  0.756650  1.0  -0.0658
  C  C905  1  0.449980  0.851250  0.773110  1.0  -0.1233
  C  C906  1  0.430590  0.847440  0.806470  1.0  0.0628
  C  C907  1  0.429500  0.795680  0.007430  1.0  0.0186
  C  C908  1  0.428890  0.781710  0.035620  1.0  0.0179
  C  C909  1  0.424400  0.047730  0.761900  1.0  0.032
  C  C910  1  0.423320  0.076000  0.748170  1.0  0.0286
  C  C911  1  0.429440  0.799250  0.756470  1.0  -0.0731
  C  C912  1  0.429270  0.785280  0.742510  1.0  -0.0717
  C  C913  1  0.427450  0.781260  0.086120  1.0  -0.1362
  C  C914  1  0.427290  0.764890  0.118660  1.0  -0.115
  C  C915  1  0.427910  0.732250  0.134410  1.0  -0.011
  C  C916  1  0.428570  0.716050  0.117590  1.0  -0.1368
  C  C917  1  0.428730  0.732420  0.085040  1.0  -0.1166
  C  C918  1  0.428240  0.765020  0.069240  1.0  0.0427
  C  C919  1  0.453650  0.765960  0.695630  1.0  -0.1318
  C  C920  1  0.453840  0.749200  0.679710  1.0  -0.1259
  C  C921  1  0.429550  0.734860  0.694060  1.0  0.0473
  C  C922  1  0.405030  0.737370  0.724350  1.0  -0.1228
  C  C923  1  0.404850  0.754140  0.740270  1.0  -0.1363
  C  C924  1  0.429190  0.768410  0.725950  1.0  0.0344
  C  C925  1  0.426370  0.125110  0.745700  1.0  -0.1228
  C  C926  1  0.426570  0.157460  0.728930  1.0  -0.1392
  C  C927  1  0.422880  0.174400  0.697820  1.0  0.1501
  C  C928  1  0.418640  0.159010  0.683680  1.0  -0.1236
  C  C929  1  0.418420  0.126670  0.700480  1.0  -0.1364
  C  C930  1  0.422450  0.109610  0.731440  1.0  0.0336
  C  C931  1  0.428750  0.715140  0.167500  1.0  -0.093
  C  C932  1  0.430000  0.700710  0.195040  1.0  -0.0852
  C  C933  1  0.430030  0.717400  0.677730  1.0  0.0174
  C  C934  1  0.430900  0.702770  0.663750  1.0  0.0161
  C  C935  1  0.424460  0.207170  0.680030  1.0  -0.0745
  C  C936  1  0.426410  0.234390  0.665080  1.0  -0.0567
  O  O937  1  0.406930  0.764630  0.310640  1.0  -0.5661
  O  O938  1  0.406840  0.719330  0.356270  1.0  -0.5656
  O  O939  1  0.444290  0.726830  0.273300  1.0  -0.5695
  O  O940  1  0.444190  0.681580  0.318980  1.0  -0.5645
  O  O941  1  0.497290  0.726830  0.273150  1.0  -0.5616
  O  O942  1  0.496960  0.681570  0.318830  1.0  -0.5656
  O  O943  1  0.459850  0.764480  0.310650  1.0  -0.5629
  O  O944  1  0.459560  0.719160  0.356270  1.0  -0.566
  O  O945  1  0.406430  0.765480  0.508280  1.0  -0.5656
  O  O946  1  0.406560  0.719860  0.508260  1.0  -0.5644
  O  O947  1  0.459330  0.765490  0.455340  1.0  -0.5665
  O  O948  1  0.459210  0.719870  0.455590  1.0  -0.5669
  O  O949  1  0.496900  0.728120  0.492820  1.0  -0.5661
  O  O950  1  0.496670  0.682580  0.493020  1.0  -0.5687
  O  O951  1  0.444020  0.728450  0.545670  1.0  -0.5635
  O  O952  1  0.444030  0.682920  0.545610  1.0  -0.5675
  O  O953  1  0.261640  0.765680  0.455120  1.0  -0.5662
  O  O954  1  0.307120  0.720100  0.455390  1.0  -0.5655
  O  O955  1  0.261600  0.765480  0.508140  1.0  -0.5665
  O  O956  1  0.307080  0.719890  0.508140  1.0  -0.5646
  O  O957  1  0.223560  0.728470  0.545460  1.0  -0.5696
  O  O958  1  0.269150  0.683000  0.545350  1.0  -0.5643
  O  O959  1  0.224130  0.728080  0.492370  1.0  -0.5724
  O  O960  1  0.269720  0.682610  0.492580  1.0  -0.5671
  O  O961  1  0.633440  0.394030  0.455670  1.0  -0.5681
  O  O962  1  0.679140  0.348670  0.455440  1.0  -0.5681
  O  O963  1  0.633130  0.394430  0.508280  1.0  -0.5638
  O  O964  1  0.678820  0.349070  0.508330  1.0  -0.5713
  O  O965  1  0.595860  0.356800  0.545720  1.0  -0.5671
  O  O966  1  0.641450  0.311340  0.545860  1.0  -0.5649
  O  O967  1  0.595710  0.356790  0.493120  1.0  -0.569
  O  O968  1  0.641310  0.311340  0.492970  1.0  -0.5713
  O  O969  1  0.596290  0.583720  0.492520  1.0  -0.5674
  O  O970  1  0.641660  0.583840  0.492990  1.0  -0.5653
  O  O971  1  0.595750  0.531540  0.545140  1.0  -0.5652
  O  O972  1  0.641170  0.531300  0.545880  1.0  -0.5671
  O  O973  1  0.633440  0.493920  0.507740  1.0  -0.563
  O  O974  1  0.678930  0.493590  0.508430  1.0  -0.5698
  O  O975  1  0.634510  0.546090  0.455080  1.0  -0.5631
  O  O976  1  0.680020  0.546010  0.455460  1.0  -0.5682
  O  O977  1  0.223310  0.584580  0.690030  1.0  -0.5652
  O  O978  1  0.269240  0.584540  0.644640  1.0  -0.5654
  O  O979  1  0.260440  0.547080  0.728020  1.0  -0.5667
  O  O980  1  0.306240  0.547110  0.682520  1.0  -0.5638
  O  O981  1  0.260870  0.494470  0.727100  1.0  -0.5643
  O  O982  1  0.306710  0.494760  0.681630  1.0  -0.5628
  O  O983  1  0.223770  0.531990  0.689190  1.0  -0.5657
  O  O984  1  0.269660  0.532240  0.643780  1.0  -0.5648
  O  O985  1  0.405920  0.395090  0.681400  1.0  -0.5632
  O  O986  1  0.405380  0.350030  0.727260  1.0  -0.5682
  O  O987  1  0.443420  0.357150  0.644320  1.0  -0.5633
  O  O988  1  0.442910  0.312030  0.690110  1.0  -0.5682
  O  O989  1  0.496110  0.357060  0.644410  1.0  -0.5635
  O  O990  1  0.495890  0.311930  0.690190  1.0  -0.5652
  O  O991  1  0.458550  0.395280  0.681240  1.0  -0.5659
  O  O992  1  0.458260  0.350210  0.727100  1.0  -0.5653
  O  O993  1  0.406340  0.394200  0.507720  1.0  -0.562
  O  O994  1  0.405990  0.348830  0.507680  1.0  -0.5707
  O  O995  1  0.459180  0.393690  0.455280  1.0  -0.5676
  O  O996  1  0.459170  0.348300  0.454950  1.0  -0.5686
  O  O997  1  0.496380  0.356540  0.492990  1.0  -0.5667
  O  O998  1  0.496510  0.311030  0.492770  1.0  -0.5706
  O  O999  1  0.443510  0.356510  0.545400  1.0  -0.5636
  O  O1000  1  0.443270  0.311020  0.545490  1.0  -0.5685
  O  O1001  1  0.224170  0.583920  0.491430  1.0  -0.5688
  O  O1002  1  0.270070  0.583800  0.491100  1.0  -0.5653
  O  O1003  1  0.224200  0.531380  0.544300  1.0  -0.5607
  O  O1004  1  0.270050  0.531610  0.543720  1.0  -0.5657
  O  O1005  1  0.261610  0.493650  0.506870  1.0  -0.5644
  O  O1006  1  0.307400  0.493980  0.506300  1.0  -0.5648
  O  O1007  1  0.261080  0.546120  0.453890  1.0  -0.5689
  O  O1008  1  0.306840  0.546190  0.453640  1.0  -0.5627
  O  O1009  1  0.405150  0.547410  0.682600  1.0  -0.5644
  O  O1010  1  0.405180  0.547340  0.728290  1.0  -0.5735
  O  O1011  1  0.457790  0.495030  0.681810  1.0  -0.5613
  O  O1012  1  0.458090  0.494650  0.727520  1.0  -0.5686
  O  O1013  1  0.495370  0.532330  0.644590  1.0  -0.5643
  O  O1014  1  0.495730  0.532020  0.690240  1.0  -0.5672
  O  O1015  1  0.442800  0.584720  0.645010  1.0  -0.56
  O  O1016  1  0.442970  0.584760  0.690570  1.0  -0.5655
  O  O1017  1  0.596790  0.582930  0.319170  1.0  -0.5666
  O  O1018  1  0.642270  0.582850  0.273340  1.0  -0.5655
  O  O1019  1  0.634660  0.545630  0.356270  1.0  -0.5644
  O  O1020  1  0.680260  0.545420  0.310560  1.0  -0.564
  O  O1021  1  0.634050  0.493200  0.356630  1.0  -0.5631
  O  O1022  1  0.679630  0.492760  0.310890  1.0  -0.5658
  O  O1023  1  0.596220  0.530500  0.319580  1.0  -0.5636
  O  O1024  1  0.641760  0.530120  0.273800  1.0  -0.5707
  O  O1025  1  0.406780  0.544940  0.309590  1.0  -0.5707
  O  O1026  1  0.406120  0.545190  0.355460  1.0  -0.5639
  O  O1027  1  0.459740  0.492330  0.310300  1.0  -0.5724
  O  O1028  1  0.458790  0.492840  0.356180  1.0  -0.563
  O  O1029  1  0.497240  0.529860  0.273310  1.0  -0.5716
  O  O1030  1  0.496260  0.530280  0.319260  1.0  -0.5648
  O  O1031  1  0.444350  0.582490  0.272870  1.0  -0.5668
  O  O1032  1  0.443590  0.582580  0.318870  1.0  -0.5656
