# generated using pymatgen
data_Zn4H68C132O13
_symmetry_space_group_name_H-M   'P 1'
_cell_length_a   103.76800000
_cell_length_b   97.91870000
_cell_length_c   133.96700000
_cell_angle_alpha   108.15500000
_cell_angle_beta   109.25100000
_cell_angle_gamma   62.07400000
_symmetry_Int_Tables_number   1
_chemical_formula_structural   Zn4H68C132O13
_chemical_formula_sum   'Zn72 H1224 C2376 O234'
_cell_volume   1115115.60916961
_cell_formula_units_Z   18
loop_
 _symmetry_equiv_pos_site_id
 _symmetry_equiv_pos_as_xyz
  1  'x, y, z'
loop_
 _atom_site_type_symbol
 _atom_site_label
 _atom_site_symmetry_multiplicity
 _atom_site_fract_x
 _atom_site_fract_y
 _atom_site_fract_z
 _atom_site_occupancy
 _atom_site_charge
  Zn  Zn1  1  0.969530  0.977180  0.496480  1.0  1.1584
  Zn  Zn2  1  0.499670  0.169240  0.973840  1.0  1.125
  Zn  Zn3  1  0.474530  0.190680  0.987060  1.0  1.1389
  Zn  Zn4  1  0.976440  0.941960  0.483390  1.0  1.1434
  Zn  Zn5  1  0.465790  0.181850  0.961750  1.0  1.1448
  Zn  Zn6  1  0.165370  0.172450  0.651250  1.0  1.111
  Zn  Zn7  1  0.199790  0.162710  0.662370  1.0  1.1594
  Zn  Zn8  1  0.189400  0.156250  0.637150  1.0  1.1571
  Zn  Zn9  1  0.182210  0.191520  0.650230  1.0  1.1387
  Zn  Zn10  1  0.676630  0.454840  0.976700  1.0  1.1448
  Zn  Zn11  1  0.710990  0.439120  0.976380  1.0  1.1536
  Zn  Zn12  1  0.176230  0.495480  0.474160  1.0  1.1586
  Zn  Zn13  1  0.688500  0.467550  0.964090  1.0  1.1433
  Zn  Zn14  1  0.696910  0.473450  0.989620  1.0  1.1431
  Zn  Zn15  1  0.491370  0.694140  0.490380  1.0  1.1372
  Zn  Zn16  1  0.959250  0.970700  0.471220  1.0  1.1533
  Zn  Zn17  1  0.485510  0.685720  0.464990  1.0  1.1567
  Zn  Zn18  1  0.473260  0.673060  0.477320  1.0  1.1567
  Zn  Zn19  1  0.458450  0.709060  0.476420  1.0  1.1545
  Zn  Zn20  1  0.164980  0.184910  0.137170  1.0  1.1604
  Zn  Zn21  1  0.182880  0.158680  0.151210  1.0  1.1405
  Zn  Zn22  1  0.198110  0.179830  0.150560  1.0  1.146
  Zn  Zn23  1  0.188120  0.460230  0.462050  1.0  1.1518
  Zn  Zn24  1  0.171650  0.194620  0.162600  1.0  1.1442
  Zn  Zn25  1  0.960900  0.953820  0.982780  1.0  1.1459
  Zn  Zn26  1  0.987620  0.938840  0.971110  1.0  1.1516
  Zn  Zn27  1  0.975900  0.975010  0.982380  1.0  1.1157
  Zn  Zn28  1  0.993720  0.960590  0.482260  1.0  1.1189
  Zn  Zn29  1  0.994400  0.948180  0.996480  1.0  1.1496
  Zn  Zn30  1  0.685650  0.459840  0.656510  1.0  1.1515
  Zn  Zn31  1  0.700500  0.423780  0.657360  1.0  1.1569
  Zn  Zn32  1  0.673400  0.447160  0.668880  1.0  1.1405
  Zn  Zn33  1  0.667670  0.438680  0.643510  1.0  1.1421
  Zn  Zn34  1  0.197470  0.468380  0.487610  1.0  1.1464
  Zn  Zn35  1  0.595970  0.823510  0.825380  1.0  1.1532
  Zn  Zn36  1  0.591580  0.808640  0.800540  1.0  1.154
  Zn  Zn37  1  0.580590  0.799360  0.816010  1.0  1.1567
  Zn  Zn38  1  0.563430  0.833150  0.810460  1.0  1.1439
  Zn  Zn39  1  0.070050  0.079750  0.809630  1.0  1.1486
  Zn  Zn40  1  0.683680  0.944690  0.147080  1.0  1.1408
  Zn  Zn41  1  0.103250  0.071090  0.823820  1.0  1.1252
  Zn  Zn42  1  0.076270  0.084130  0.834860  1.0  1.1589
  Zn  Zn43  1  0.086700  0.049720  0.820390  1.0  1.1558
  Zn  Zn44  1  0.313680  0.594080  0.818150  1.0  1.1336
  Zn  Zn45  1  0.970380  0.672710  0.671560  1.0  1.1368
  Zn  Zn46  1  0.345930  0.575810  0.813040  1.0  1.1573
  Zn  Zn47  1  0.337140  0.564090  0.828370  1.0  1.1547
  Zn  Zn48  1  0.322560  0.560300  0.803340  1.0  1.1511
  Zn  Zn49  1  0.073210  0.086350  0.314560  1.0  1.1469
  Zn  Zn50  1  0.083940  0.051920  0.300100  1.0  1.1705
  Zn  Zn51  1  0.089990  0.056130  0.325230  1.0  1.1564
  Zn  Zn52  1  0.676480  0.929870  0.161400  1.0  1.1465
  Zn  Zn53  1  0.056770  0.064990  0.311110  1.0  1.1242
  Zn  Zn54  1  0.447700  0.694320  0.157110  1.0  1.1436
  Zn  Zn55  1  0.461660  0.660130  0.143840  1.0  1.1478
  Zn  Zn56  1  0.948220  0.655780  0.660320  1.0  1.1533
  Zn  Zn57  1  0.482180  0.678480  0.156820  1.0  1.1478
  Zn  Zn58  1  0.470230  0.665950  0.169400  1.0  1.1493
  Zn  Zn59  1  0.595610  0.299980  0.322990  1.0  1.1503
  Zn  Zn60  1  0.578390  0.333800  0.317390  1.0  1.1462
  Zn  Zn61  1  0.563050  0.309630  0.308060  1.0  1.1572
  Zn  Zn62  1  0.567420  0.324460  0.332860  1.0  1.1549
  Zn  Zn63  1  0.836280  0.573700  0.330410  1.0  1.1455
  Zn  Zn64  1  0.692460  0.953530  0.172400  1.0  1.1416
  Zn  Zn65  1  0.845140  0.539970  0.315590  1.0  1.1664
  Zn  Zn66  1  0.812830  0.558320  0.320730  1.0  1.146
  Zn  Zn67  1  0.961370  0.664180  0.646020  1.0  1.1606
  Zn  Zn68  1  0.821510  0.569970  0.305350  1.0  1.1594
  Zn  Zn69  1  0.658600  0.966050  0.160330  1.0  1.1248
  Zn  Zn70  1  0.210490  0.477000  0.473280  1.0  1.1542
  Zn  Zn71  1  0.982580  0.636950  0.659240  1.0  1.1268
  Zn  Zn72  1  0.481950  0.205340  0.972710  1.0  1.151
  H  H73  1  0.925550  0.979340  0.147950  1.0  0.1289
  H  H74  1  0.087690  0.637930  0.733480  1.0  0.1448
  H  H75  1  0.108170  0.072020  0.066540  1.0  0.1538
  H  H76  1  0.955060  0.189050  0.805620  1.0  0.1483
  H  H77  1  0.962520  0.194490  0.839530  1.0  0.1484
  H  H78  1  0.938410  0.217380  0.839500  1.0  0.1471
  H  H79  1  0.935390  0.960280  0.134290  1.0  0.1253
  H  H80  1  0.221220  0.743730  0.477010  1.0  0.1283
  H  H81  1  0.757810  0.385240  0.875300  1.0  0.1535
  H  H82  1  0.744440  0.399940  0.889980  1.0  0.1486
  H  H83  1  0.782840  0.375430  0.912080  1.0  0.1477
  H  H84  1  0.796210  0.360730  0.897390  1.0  0.1495
  H  H85  1  0.785960  0.347560  0.744120  1.0  0.1509
  H  H86  1  0.036900  0.987520  0.032460  1.0  0.1566
  H  H87  1  0.770820  0.359770  0.728270  1.0  0.1505
  H  H88  1  0.736070  0.390240  0.745120  1.0  0.152
  H  H89  1  0.751210  0.378020  0.760970  1.0  0.1514
  H  H90  1  0.010850  0.150080  0.839660  1.0  0.1525
  H  H91  1  0.034870  0.127200  0.839650  1.0  0.1289
  H  H92  1  0.195370  0.720170  0.477080  1.0  0.1262
  H  H93  1  0.025940  0.120130  0.805470  1.0  0.1272
  H  H94  1  0.001960  0.143000  0.805540  1.0  0.1456
  H  H95  1  0.706950  0.414340  0.714260  1.0  0.1494
  H  H96  1  0.692280  0.426630  0.698430  1.0  0.1351
  H  H97  1  0.406640  0.672850  0.477170  1.0  0.1475
  H  H98  1  0.727090  0.395020  0.681730  1.0  0.1326
  H  H99  1  0.741630  0.382850  0.697550  1.0  0.149
  H  H100  1  0.752870  0.398150  0.938750  1.0  0.1503
  H  H101  1  0.739690  0.412300  0.953460  1.0  0.1312
  H  H102  1  0.709110  0.448410  0.935430  1.0  0.1318
  H  H103  1  0.722410  0.434130  0.920710  1.0  0.1502
  H  H104  1  0.176990  0.738060  0.467170  1.0  0.1262
  H  H105  1  0.937720  0.388870  0.656600  1.0  0.1254
  H  H106  1  0.963470  0.412510  0.656460  1.0  0.1246
  H  H107  1  0.917460  0.438750  0.657450  1.0  0.1178
  H  H108  1  0.022440  0.972210  0.021060  1.0  0.1345
  H  H109  1  0.920170  0.453920  0.648570  1.0  0.1264
  H  H110  1  0.923060  0.477530  0.649150  1.0  0.1417
  H  H111  1  0.967650  0.458880  0.667250  1.0  0.1375
  H  H112  1  0.964880  0.435450  0.667030  1.0  0.1267
  H  H113  1  0.956920  0.367480  0.647110  1.0  0.1287
  H  H114  1  0.980400  0.343930  0.646400  1.0  0.1517
  H  H115  1  0.004990  0.371340  0.665390  1.0  0.1388
  H  H116  1  0.153920  0.761450  0.468200  1.0  0.138
  H  H117  1  0.981880  0.394680  0.666400  1.0  0.1259
  H  H118  1  0.912490  0.392040  0.648330  1.0  0.1217
  H  H119  1  0.996300  0.008880  0.002120  1.0  0.1395
  H  H120  1  0.887810  0.394820  0.648370  1.0  0.1527
  H  H121  1  0.878050  0.441510  0.666140  1.0  0.1397
  H  H122  1  0.902620  0.438830  0.666430  1.0  0.1265
  H  H123  1  0.049350  0.329320  0.658460  1.0  0.1514
  H  H124  1  0.073580  0.306710  0.657880  1.0  0.1435
  H  H125  1  0.052240  0.275520  0.649810  1.0  0.1507
  H  H126  1  0.028010  0.298130  0.650380  1.0  0.1491
  H  H127  1  0.827800  0.449810  0.660540  1.0  0.1554
  H  H128  1  0.178630  0.788740  0.487200  1.0  0.1538
  H  H129  1  0.802690  0.453670  0.660650  1.0  0.147
  H  H130  1  0.010820  0.024090  0.013510  1.0  0.1468
  H  H131  1  0.816330  0.404040  0.653980  1.0  0.1488
  H  H132  1  0.841440  0.400190  0.653870  1.0  0.1452
  H  H133  1  0.974920  0.498880  0.660680  1.0  0.1406
  H  H134  1  0.978340  0.522310  0.661200  1.0  0.1377
  H  H135  1  0.931490  0.549520  0.657880  1.0  0.1397
  H  H136  1  0.928070  0.526100  0.657360  1.0  0.1364
  H  H137  1  0.098990  0.233210  0.653280  1.0  0.1392
  H  H138  1  0.122600  0.210140  0.652700  1.0  0.1323
  H  H139  1  0.143080  0.238510  0.651720  1.0  0.1336
  H  H140  1  0.202060  0.765140  0.486480  1.0  0.1283
  H  H141  1  0.149040  0.110210  0.120040  1.0  0.145
  H  H142  1  0.119250  0.261660  0.652310  1.0  0.1527
  H  H143  1  0.938220  0.594130  0.662030  1.0  0.1398
  H  H144  1  0.940560  0.617930  0.662400  1.0  0.1315
  H  H145  1  0.985870  0.590560  0.659380  1.0  0.1305
  H  H146  1  0.983350  0.566720  0.659020  1.0  0.1477
  H  H147  1  0.770220  0.411590  0.658420  1.0  0.1377
  H  H148  1  0.745580  0.414480  0.658500  1.0  0.1313
  H  H149  1  0.727550  0.462990  0.656770  1.0  0.132
  H  H150  1  0.752380  0.459940  0.656700  1.0  0.1508
  H  H151  1  0.489390  0.405130  0.123060  1.0  0.1236
  H  H152  1  0.163350  0.125580  0.131490  1.0  0.1292
  H  H153  1  0.256330  0.693720  0.467200  1.0  0.1278
  H  H154  1  0.500010  0.369660  0.140420  1.0  0.1223
  H  H155  1  0.499900  0.414440  0.157500  1.0  0.1257
  H  H156  1  0.492190  0.409350  0.169520  1.0  0.1282
  H  H157  1  0.499450  0.401690  0.186840  1.0  0.1386
  H  H158  1  0.524910  0.354560  0.173360  1.0  0.1376
  H  H159  1  0.518090  0.362090  0.155970  1.0  0.1261
  H  H160  1  0.477020  0.390800  0.109750  1.0  0.1249
  H  H161  1  0.474430  0.371850  0.093160  1.0  0.1455
  H  H162  1  0.505970  0.334160  0.109400  1.0  0.1372
  H  H163  1  0.137330  0.161240  0.112450  1.0  0.1335
  H  H164  1  0.509010  0.352830  0.125920  1.0  0.1264
  H  H165  1  0.280900  0.691060  0.467510  1.0  0.1421
  H  H166  1  0.498440  0.424930  0.126480  1.0  0.1239
  H  H167  1  0.494970  0.451970  0.128040  1.0  0.1471
  H  H168  1  0.479780  0.465690  0.156930  1.0  0.1427
  H  H169  1  0.482770  0.439040  0.155370  1.0  0.1272
  H  H170  1  0.491190  0.299030  0.078970  1.0  0.1551
  H  H171  1  0.488610  0.279560  0.062520  1.0  0.1514
  H  H172  1  0.476220  0.313210  0.043510  1.0  0.1472
  H  H173  1  0.478800  0.332690  0.059960  1.0  0.148
  H  H174  1  0.123040  0.145740  0.101010  1.0  0.144
  H  H175  1  0.484920  0.513330  0.163620  1.0  0.1431
  H  H176  1  0.481630  0.540610  0.166040  1.0  0.145
  H  H177  1  0.271100  0.737770  0.485230  1.0  0.1546
  H  H178  1  0.474490  0.535530  0.132170  1.0  0.1534
  H  H179  1  0.477780  0.508250  0.129750  1.0  0.1456
  H  H180  1  0.527610  0.341190  0.205930  1.0  0.1367
  H  H181  1  0.534540  0.334230  0.223650  1.0  0.1376
  H  H182  1  0.530400  0.380840  0.238850  1.0  0.1405
  H  H183  1  0.523460  0.387800  0.221140  1.0  0.1451
  H  H184  1  0.483200  0.268930  0.012840  1.0  0.153
  H  H185  1  0.103810  0.620930  0.704680  1.0  0.1421
  H  H186  1  0.016930  0.023320  0.919280  1.0  0.1453
  H  H187  1  0.481130  0.248690  0.996830  1.0  0.1289
  H  H188  1  0.469680  0.228010  0.014480  1.0  0.1323
  H  H189  1  0.471790  0.248190  0.030350  1.0  0.1415
  H  H190  1  0.246410  0.740550  0.485250  1.0  0.1256
  H  H191  1  0.555910  0.360790  0.271440  1.0  0.1424
  H  H192  1  0.563450  0.353770  0.289100  1.0  0.1313
  H  H193  1  0.543160  0.320970  0.275940  1.0  0.1315
  H  H194  1  0.535680  0.328110  0.258290  1.0  0.1343
  H  H195  1  0.464930  0.587970  0.136300  1.0  0.1403
  H  H196  1  0.461710  0.614840  0.137970  1.0  0.1367
  H  H197  1  0.008450  0.014610  0.930340  1.0  0.1517
  H  H198  1  0.475180  0.619430  0.172150  1.0  0.1327
  H  H199  1  0.478360  0.592380  0.170360  1.0  0.1538
  H  H200  1  0.825940  0.278480  0.317220  1.0  0.1276
  H  H201  1  0.849290  0.304620  0.316840  1.0  0.1255
  H  H202  1  0.942420  0.957060  0.117840  1.0  0.1386
  H  H203  1  0.238600  0.678630  0.484920  1.0  0.1263
  H  H204  1  0.802900  0.328040  0.317130  1.0  0.122
  H  H205  1  0.809810  0.348600  0.326790  1.0  0.126
  H  H206  1  0.810070  0.373360  0.326780  1.0  0.1435
  H  H207  1  0.843230  0.348770  0.308090  1.0  0.1406
  H  H208  1  0.020670  0.968240  0.910220  1.0  0.1358
  H  H209  1  0.842840  0.323950  0.307730  1.0  0.124
  H  H210  1  0.844930  0.257880  0.308130  1.0  0.1207
  H  H211  1  0.868720  0.234820  0.307630  1.0  0.1527
  H  H212  1  0.892330  0.263710  0.325040  1.0  0.139
  H  H213  1  0.868870  0.286650  0.325870  1.0  0.1248
  H  H214  1  0.801270  0.279960  0.309060  1.0  0.1215
  H  H215  1  0.235610  0.655070  0.484310  1.0  0.1378
  H  H216  1  0.777330  0.281070  0.309310  1.0  0.1467
  H  H217  1  0.765270  0.328190  0.326610  1.0  0.1406
  H  H218  1  0.789120  0.327180  0.326700  1.0  0.1265
  H  H219  1  0.889280  0.978680  0.118450  1.0  0.1248
  H  H220  1  0.937270  0.221420  0.318270  1.0  0.1521
  H  H221  1  0.961610  0.198970  0.317800  1.0  0.1452
  H  H222  1  0.941030  0.167560  0.311630  1.0  0.1505
  H  H223  1  0.916690  0.190020  0.312100  1.0  0.1474
  H  H224  1  0.716210  0.333150  0.321260  1.0  0.152
  H  H225  1  0.691770  0.335320  0.321550  1.0  0.1476
  H  H226  1  0.708220  0.285390  0.315560  1.0  0.1463
  H  H227  1  0.191020  0.673890  0.466240  1.0  0.136
  H  H228  1  0.732660  0.283220  0.315270  1.0  0.1455
  H  H229  1  0.849350  0.395870  0.314760  1.0  0.1373
  H  H230  1  0.039920  0.871440  0.481490  1.0  0.1485
  H  H231  1  0.849790  0.420830  0.314940  1.0  0.1417
  H  H232  1  0.805970  0.445710  0.321030  1.0  0.1437
  H  H233  1  0.805530  0.420760  0.320850  1.0  0.1343
  H  H234  1  0.987470  0.124640  0.311880  1.0  0.1502
  H  H235  1  0.012370  0.101300  0.311420  1.0  0.1314
  H  H236  1  0.033310  0.131710  0.315300  1.0  0.1297
  H  H237  1  0.009450  0.154620  0.315780  1.0  0.1611
  H  H238  1  0.806630  0.492840  0.321170  1.0  0.1411
  H  H239  1  0.193890  0.697280  0.466490  1.0  0.1262
  H  H240  1  0.806850  0.517760  0.321310  1.0  0.1291
  H  H241  1  0.029140  0.976960  0.899150  1.0  0.1527
  H  H242  1  0.851020  0.493050  0.315610  1.0  0.1304
  H  H243  1  0.850650  0.468200  0.315490  1.0  0.1404
  H  H244  1  0.663890  0.290990  0.322540  1.0  0.1386
  H  H245  1  0.639910  0.292460  0.322920  1.0  0.1308
  H  H246  1  0.618320  0.338920  0.316230  1.0  0.1323
  H  H247  1  0.642470  0.337320  0.315870  1.0  0.1438
  H  H248  1  0.086340  0.083170  0.591400  1.0  0.1494
  H  H249  1  0.101540  0.097870  0.602640  1.0  0.137
  H  H250  1  0.116400  0.093450  0.575280  1.0  0.1411
  H  H251  1  0.317620  0.732440  0.480150  1.0  0.1445
  H  H252  1  0.043890  0.994230  0.879030  1.0  0.1363
  H  H253  1  0.101190  0.078750  0.564040  1.0  0.1408
  H  H254  1  0.072710  0.050700  0.542890  1.0  0.1432
  H  H255  1  0.057500  0.036000  0.531660  1.0  0.138
  H  H256  1  0.042080  0.041090  0.558920  1.0  0.1387
  H  H257  1  0.057290  0.055790  0.570150  1.0  0.1424
  H  H258  1  0.121360  0.135630  0.620410  1.0  0.1365
  H  H259  1  0.135840  0.150600  0.632120  1.0  0.1381
  H  H260  1  0.167840  0.126830  0.612290  1.0  0.1345
  H  H261  1  0.153160  0.111860  0.600570  1.0  0.1376
  H  H262  1  0.005440  0.022640  0.533620  1.0  0.1468
  H  H263  1  0.052300  0.003250  0.868110  1.0  0.1379
  H  H264  1  0.342730  0.728620  0.480060  1.0  0.1503
  H  H265  1  0.990750  0.007610  0.521980  1.0  0.1361
  H  H266  1  0.023190  0.982670  0.501820  1.0  0.132
  H  H267  1  0.037690  0.997620  0.513460  1.0  0.1551
  H  H268  1  0.988620  0.014870  0.394100  1.0  0.1509
  H  H269  1  0.979550  0.007970  0.405890  1.0  0.1516
  H  H270  1  0.024150  0.990170  0.425740  1.0  0.1309
  H  H271  1  0.033790  0.996790  0.414290  1.0  0.1505
  H  H272  1  0.050690  0.010110  0.393730  1.0  0.1361
  H  H273  1  0.060580  0.016590  0.382290  1.0  0.1438
  H  H274  1  0.041200  0.048120  0.888900  1.0  0.1459
  H  H275  1  0.017520  0.031820  0.361400  1.0  0.1321
  H  H276  1  0.356130  0.679000  0.472660  1.0  0.1429
  H  H277  1  0.007630  0.025350  0.372830  1.0  0.1327
  H  H278  1  0.013010  0.974830  0.445740  1.0  0.1502
  H  H279  1  0.007420  0.967100  0.459510  1.0  0.1318
  H  H280  1  0.960640  0.987240  0.445160  1.0  0.131
  H  H281  1  0.965740  0.995000  0.431710  1.0  0.1367
  H  H282  1  0.033570  0.041870  0.340260  1.0  0.1289
  H  H283  1  0.040880  0.049640  0.328170  1.0  0.1289
  H  H284  1  0.084510  0.039130  0.348790  1.0  0.1321
  H  H285  1  0.032790  0.039100  0.899820  1.0  0.1389
  H  H286  1  0.076850  0.031350  0.360840  1.0  0.1386
  H  H287  1  0.560010  0.103910  0.067900  1.0  0.1337
  H  H288  1  0.331020  0.682820  0.472750  1.0  0.1531
  H  H289  1  0.545730  0.121810  0.054950  1.0  0.1414
  H  H290  1  0.557120  0.082920  0.029140  1.0  0.1368
  H  H291  1  0.571400  0.065020  0.042090  1.0  0.1412
  H  H292  1  0.598620  0.032110  0.065990  1.0  0.1328
  H  H293  1  0.612920  0.014180  0.078920  1.0  0.1354
  H  H294  1  0.599900  0.052740  0.104630  1.0  0.1351
  H  H295  1  0.585600  0.070670  0.091700  1.0  0.1393
  H  H296  1  0.129420  0.615360  0.715380  1.0  0.1518
  H  H297  1  0.009100  0.950920  0.933170  1.0  0.1549
  H  H298  1  0.542370  0.121320  0.008910  1.0  0.1372
  H  H299  1  0.528630  0.138340  0.995590  1.0  0.1388
  H  H300  1  0.494550  0.165970  0.013640  1.0  0.1308
  H  H301  1  0.183510  0.633860  0.472450  1.0  0.1427
  H  H302  1  0.508500  0.148750  0.026920  1.0  0.1343
  H  H303  1  0.649600  0.987070  0.106840  1.0  0.1487
  H  H304  1  0.663890  0.969400  0.120660  1.0  0.1296
  H  H305  1  0.629560  0.996790  0.138560  1.0  0.1311
  H  H306  1  0.615520  0.014010  0.125430  1.0  0.1521
  H  H307  1  0.090480  0.577050  0.552120  1.0  0.1532
  H  H308  1  0.001040  0.943630  0.946010  1.0  0.139
  H  H309  1  0.107140  0.564710  0.539440  1.0  0.1416
  H  H310  1  0.117150  0.519500  0.544210  1.0  0.1426
  H  H311  1  0.100490  0.531840  0.556900  1.0  0.1476
  H  H312  1  0.069710  0.555420  0.581700  1.0  0.1479
  H  H313  1  0.179980  0.610490  0.471890  1.0  0.1382
  H  H314  1  0.053050  0.567760  0.594390  1.0  0.1448
  H  H315  1  0.041160  0.612770  0.588280  1.0  0.1422
  H  H316  1  0.057830  0.600430  0.575600  1.0  0.1476
  H  H317  1  0.157510  0.499930  0.526410  1.0  0.1381
  H  H318  1  0.173940  0.487320  0.513660  1.0  0.1328
  H  H319  1  0.982070  0.992390  0.960430  1.0  0.1298
  H  H320  1  0.146480  0.524630  0.496080  1.0  0.1318
  H  H321  1  0.130130  0.537140  0.508890  1.0  0.1432
  H  H322  1  0.001700  0.632310  0.606600  1.0  0.1549
  H  H323  1  0.984600  0.645530  0.619750  1.0  0.1368
  H  H324  1  0.013120  0.607260  0.637120  1.0  0.1308
  H  H325  1  0.989760  0.999700  0.948410  1.0  0.1335
  H  H326  1  0.068940  0.019070  0.849040  1.0  0.1292
  H  H327  1  0.016100  0.894620  0.482060  1.0  0.1322
  H  H328  1  0.076860  0.027940  0.837880  1.0  0.1364
  H  H329  1  0.062430  0.074190  0.857160  1.0  0.1395
  H  H330  1  0.054600  0.065030  0.868200  1.0  0.1305
  H  H331  1  0.636440  0.593810  0.739320  1.0  0.1449
  H  H332  1  0.239490  0.619010  0.791530  1.0  0.1516
  H  H333  1  0.643640  0.567040  0.728510  1.0  0.1449
  H  H334  1  0.652020  0.582140  0.705640  1.0  0.1432
  H  H335  1  0.644820  0.608900  0.716450  1.0  0.1484
  H  H336  1  0.630700  0.659790  0.736720  1.0  0.1455
  H  H337  1  0.623520  0.686570  0.747500  1.0  0.145
  H  H338  1  0.616120  0.671360  0.770800  1.0  0.1484
  H  H339  1  0.036520  0.922830  0.480730  1.0  0.1329
  H  H340  1  0.623300  0.644570  0.760020  1.0  0.1455
  H  H341  1  0.671400  0.530740  0.687860  1.0  0.141
  H  H342  1  0.678700  0.504650  0.676520  1.0  0.1349
  H  H343  1  0.230420  0.606680  0.476310  1.0  0.1363
  H  H344  1  0.659350  0.490960  0.693260  1.0  0.1317
  H  H345  1  0.652080  0.517290  0.704630  1.0  0.1528
  H  H346  1  0.613620  0.736220  0.769290  1.0  0.1393
  H  H347  1  0.606540  0.762980  0.779830  1.0  0.1339
  H  H348  1  0.591760  0.750240  0.800390  1.0  0.1276
  H  H349  1  0.598900  0.723480  0.789760  1.0  0.1444
  H  H350  1  0.118030  0.157900  0.226750  1.0  0.1382
  H  H351  1  0.060120  0.899720  0.480170  1.0  0.1389
  H  H352  1  0.126420  0.166530  0.215570  1.0  0.1364
  H  H353  1  0.163270  0.121900  0.212730  1.0  0.1306
  H  H354  1  0.265230  0.612840  0.802030  1.0  0.136
  H  H355  1  0.154890  0.113280  0.223910  1.0  0.1318
  H  H356  1  0.138720  0.096750  0.242750  1.0  0.1333
  H  H357  1  0.130400  0.087790  0.253770  1.0  0.1343
  H  H358  1  0.095520  0.133450  0.258960  1.0  0.1366
  H  H359  1  0.103840  0.142410  0.247940  1.0  0.1389
  H  H360  1  0.169630  0.134280  0.185880  1.0  0.1302
  H  H361  1  0.177440  0.141010  0.173500  1.0  0.136
  H  H362  1  0.158020  0.189710  0.187810  1.0  0.1342
  H  H363  1  0.220130  0.538780  0.471470  1.0  0.138
  H  H364  1  0.150280  0.182640  0.200190  1.0  0.1439
  H  H365  1  0.279050  0.567040  0.782460  1.0  0.1329
  H  H366  1  0.090890  0.117250  0.285970  1.0  0.1335
  H  H367  1  0.083080  0.108290  0.297150  1.0  0.1388
  H  H368  1  0.097620  0.062070  0.277870  1.0  0.1384
  H  H369  1  0.105340  0.071300  0.266800  1.0  0.1315
  H  H370  1  0.572820  0.599040  0.082600  1.0  0.1401
  H  H371  1  0.556120  0.615660  0.095120  1.0  0.1391
  H  H372  1  0.537610  0.581860  0.086720  1.0  0.1379
  H  H373  1  0.554310  0.565240  0.074200  1.0  0.1419
  H  H374  1  0.586150  0.533720  0.051130  1.0  0.1416
  H  H375  1  0.217850  0.514950  0.471090  1.0  0.1384
  H  H376  1  0.253390  0.573300  0.772050  1.0  0.1464
  H  H377  1  0.602860  0.517100  0.038610  1.0  0.1374
  H  H378  1  0.620300  0.551640  0.046210  1.0  0.1417
  H  H379  1  0.603590  0.568250  0.058730  1.0  0.1452
  H  H380  1  0.501450  0.617350  0.105920  1.0  0.1418
  H  H381  1  0.484810  0.633090  0.118410  1.0  0.1316
  H  H382  1  0.512830  0.657740  0.135330  1.0  0.1337
  H  H383  1  0.529410  0.641850  0.122740  1.0  0.1385
  H  H384  1  0.656860  0.516080  0.027390  1.0  0.1469
  H  H385  1  0.673560  0.500430  0.014950  1.0  0.1369
  H  H386  1  0.645950  0.475290  0.998120  1.0  0.1332
  H  H387  1  0.053450  0.616140  0.690060  1.0  0.1443
  H  H388  1  0.172360  0.542110  0.473720  1.0  0.1306
  H  H389  1  0.629300  0.491100  0.010680  1.0  0.1421
  H  H390  1  0.663450  0.605290  0.261890  1.0  0.1524
  H  H391  1  0.689090  0.597100  0.272830  1.0  0.1525
  H  H392  1  0.702220  0.609430  0.251140  1.0  0.153
  H  H393  1  0.676580  0.617620  0.240200  1.0  0.1491
  H  H394  1  0.626800  0.633120  0.218730  1.0  0.1551
  H  H395  1  0.601170  0.641330  0.207770  1.0  0.1492
  H  H396  1  0.587790  0.629910  0.229800  1.0  0.145
  H  H397  1  0.613420  0.621700  0.240750  1.0  0.1512
  H  H398  1  0.028120  0.621300  0.679170  1.0  0.1316
  H  H399  1  0.751630  0.595160  0.273040  1.0  0.1525
  H  H400  1  0.174830  0.566000  0.474080  1.0  0.1519
  H  H401  1  0.777230  0.587020  0.283830  1.0  0.1313
  H  H402  1  0.765150  0.571320  0.304310  1.0  0.1297
  H  H403  1  0.739540  0.579510  0.293460  1.0  0.1517
  H  H404  1  0.538470  0.641940  0.205980  1.0  0.1425
  H  H405  1  0.513140  0.650200  0.194580  1.0  0.1315
  H  H406  1  0.525870  0.669870  0.177100  1.0  0.1312
  H  H407  1  0.551010  0.661600  0.188470  1.0  0.1445
  H  H408  1  0.609020  0.150010  0.259790  1.0  0.1412
  H  H409  1  0.896610  0.974950  0.101870  1.0  0.1405
  H  H410  1  0.013460  0.669120  0.695500  1.0  0.1294
  H  H411  1  0.601030  0.176520  0.270930  1.0  0.1322
  H  H412  1  0.628400  0.186970  0.259380  1.0  0.1375
  H  H413  1  0.001670  0.918770  0.655180  1.0  0.1274
  H  H414  1  0.636390  0.160460  0.248240  1.0  0.1441
  H  H415  1  0.647830  0.112120  0.225040  1.0  0.145
  H  H416  1  0.655730  0.085620  0.213870  1.0  0.1359
  H  H417  1  0.635440  0.072300  0.229990  1.0  0.1339
  H  H418  1  0.627550  0.098800  0.241160  1.0  0.1462
  H  H419  1  0.621590  0.225180  0.296200  1.0  0.1376
  H  H420  1  0.613900  0.251580  0.307260  1.0  0.1345
  H  H421  1  0.038890  0.663840  0.706390  1.0  0.1497
  H  H422  1  0.570150  0.264310  0.286960  1.0  0.1318
  H  H423  1  0.578000  0.237840  0.275970  1.0  0.1351
  H  H424  1  0.636620  0.036160  0.192110  1.0  0.1358
  H  H425  1  0.991780  0.877920  0.638790  1.0  0.1231
  H  H426  1  0.642970  0.010430  0.180330  1.0  0.131
  H  H427  1  0.688680  0.996890  0.197080  1.0  0.1362
  H  H428  1  0.682100  0.022890  0.208890  1.0  0.1392
  H  H429  1  0.554630  0.475440  0.393360  1.0  0.1426
  H  H430  1  0.561800  0.448660  0.382570  1.0  0.1374
  H  H431  1  0.516320  0.459530  0.366320  1.0  0.1371
  H  H432  1  0.544520  0.967900  0.893230  1.0  0.1459
  H  H433  1  0.509160  0.486300  0.377110  1.0  0.1444
  H  H434  1  0.495570  0.537210  0.397480  1.0  0.1437
  H  H435  1  0.488370  0.563970  0.408300  1.0  0.1384
  H  H436  1  0.533770  0.552980  0.424820  1.0  0.1418
  H  H437  1  0.944040  0.970140  0.162250  1.0  0.1258
  H  H438  1  0.002650  0.889710  0.673770  1.0  0.1231
  H  H439  1  0.540970  0.526220  0.414000  1.0  0.1503
  H  H440  1  0.545290  0.396760  0.364220  1.0  0.137
  H  H441  1  0.552400  0.370030  0.353630  1.0  0.1337
  H  H442  1  0.567140  0.382930  0.333150  1.0  0.1304
  H  H443  1  0.552540  0.941390  0.882090  1.0  0.1375
  H  H444  1  0.559980  0.409660  0.343810  1.0  0.1376
  H  H445  1  0.506870  0.615800  0.429150  1.0  0.1473
  H  H446  1  0.499580  0.642100  0.440560  1.0  0.1323
  H  H447  1  0.480140  0.628320  0.457160  1.0  0.131
  H  H448  1  0.487450  0.602260  0.445780  1.0  0.136
  H  H449  1  0.991320  0.497170  0.382090  1.0  0.1495
  H  H450  1  0.009730  0.862750  0.672080  1.0  0.13
  H  H451  1  0.965660  0.502880  0.371440  1.0  0.1473
  H  H452  1  0.959130  0.549820  0.373410  1.0  0.1451
  H  H453  1  0.984780  0.544110  0.384060  1.0  0.1561
  H  H454  1  0.535850  0.961410  0.854010  1.0  0.1375
  H  H455  1  0.035170  0.532420  0.403550  1.0  0.1547
  H  H456  1  0.060820  0.526750  0.414200  1.0  0.148
  H  H457  1  0.066130  0.481100  0.414580  1.0  0.144
  H  H458  1  0.040480  0.486770  0.403920  1.0  0.1503
  H  H459  1  0.905640  0.560680  0.361590  1.0  0.1492
  H  H460  1  0.879950  0.567000  0.351220  1.0  0.1321
  H  H461  1  0.893610  0.521100  0.331760  1.0  0.1329
  H  H462  1  0.005220  0.839440  0.672060  1.0  0.1501
  H  H463  1  0.919370  0.514880  0.342230  1.0  0.1457
  H  H464  1  0.120290  0.469240  0.427080  1.0  0.1475
  H  H465  1  0.130970  0.834620  0.482560  1.0  0.1436
  H  H466  1  0.145700  0.463780  0.438020  1.0  0.131
  H  H467  1  0.131340  0.511670  0.454240  1.0  0.1323
  H  H468  1  0.106020  0.517000  0.443290  1.0  0.1459
  H  H469  1  0.974450  0.845300  0.641870  1.0  0.1293
  H  H470  1  0.977750  0.867950  0.641500  1.0  0.1256
  H  H471  1  0.011230  0.912490  0.640140  1.0  0.1249
  H  H472  1  0.007430  0.918850  0.622850  1.0  0.1545
  H  H473  1  0.974510  0.899090  0.608650  1.0  0.1362
  H  H474  1  0.977750  0.893130  0.625820  1.0  0.1248
  H  H475  1  0.020880  0.921120  0.669200  1.0  0.1265
  H  H476  1  0.527830  0.987930  0.865140  1.0  0.1336
  H  H477  1  0.960930  0.977980  0.177930  1.0  0.1391
  H  H478  1  0.027660  0.938780  0.685190  1.0  0.1373
  H  H479  1  0.003870  0.931210  0.701930  1.0  0.1359
  H  H480  1  0.996580  0.913770  0.685870  1.0  0.1247
  H  H481  1  0.975610  0.902940  0.574740  1.0  0.1395
  H  H482  1  0.972050  0.909410  0.557430  1.0  0.1324
  H  H483  1  0.988310  0.944990  0.573940  1.0  0.1401
  H  H484  1  0.991870  0.938520  0.591230  1.0  0.1391
  H  H485  1  0.028150  0.956680  0.733770  1.0  0.1376
  H  H486  1  0.035400  0.974690  0.749610  1.0  0.1418
  H  H487  1  0.509550  0.040020  0.886970  1.0  0.142
  H  H488  1  0.037330  0.999000  0.729130  1.0  0.1493
  H  H489  1  0.924900  0.006730  0.193800  1.0  0.1501
  H  H490  1  0.030080  0.980990  0.713290  1.0  0.1388
  H  H491  1  0.974260  0.796610  0.639470  1.0  0.1435
  H  H492  1  0.970200  0.773730  0.639290  1.0  0.1359
  H  H493  1  0.985980  0.779230  0.673310  1.0  0.1381
  H  H494  1  0.990030  0.802110  0.673490  1.0  0.1403
  H  H495  1  0.968230  0.963820  0.541640  1.0  0.1411
  H  H496  1  0.965480  0.971180  0.525030  1.0  0.145
  H  H497  1  0.976370  0.923330  0.508870  1.0  0.1318
  H  H498  1  0.501640  0.066520  0.898150  1.0  0.1369
  H  H499  1  0.979070  0.916140  0.525640  1.0  0.1368
  H  H500  1  0.976360  0.738420  0.673540  1.0  0.1364
  H  H501  1  0.907630  0.999290  0.177970  1.0  0.1256
  H  H502  1  0.973070  0.715620  0.674120  1.0  0.1355
  H  H503  1  0.961760  0.705420  0.639760  1.0  0.1329
  H  H504  1  0.965100  0.728400  0.639310  1.0  0.1515
  H  H505  1  0.040480  0.040700  0.762590  1.0  0.146
  H  H506  1  0.048800  0.057520  0.778750  1.0  0.1342
  H  H507  1  0.070450  0.019000  0.795380  1.0  0.1323
  H  H508  1  0.062120  0.002460  0.779280  1.0  0.141
  H  H509  1  0.523470  0.046530  0.926420  1.0  0.1362
  H  H510  1  0.766090  0.221230  0.510430  1.0  0.1277
  H  H511  1  0.753500  0.210560  0.475900  1.0  0.1145
  H  H512  1  0.727480  0.254470  0.493220  1.0  0.1304
  H  H513  1  0.914060  0.959410  0.069280  1.0  0.1382
  H  H514  1  0.708360  0.251550  0.479530  1.0  0.1226
  H  H515  1  0.690990  0.259910  0.463060  1.0  0.1377
  H  H516  1  0.726000  0.233670  0.446040  1.0  0.1389
  H  H517  1  0.743710  0.225490  0.462550  1.0  0.1227
  H  H518  1  0.789800  0.203750  0.507460  1.0  0.1219
  H  H519  1  0.811110  0.178240  0.506720  1.0  0.1487
  H  H520  1  0.226890  0.583300  0.475760  1.0  0.1362
  H  H521  1  0.531370  0.020040  0.915250  1.0  0.1435
  H  H522  1  0.787150  0.160250  0.477410  1.0  0.1367
  H  H523  1  0.765680  0.185410  0.478140  1.0  0.1218
  H  H524  1  0.765160  0.245050  0.522990  1.0  0.1239
  H  H525  1  0.758990  0.264490  0.539290  1.0  0.1543
  H  H526  1  0.922590  0.955890  0.053220  1.0  0.1427
  H  H527  1  0.712800  0.280320  0.524220  1.0  0.1358
  H  H528  1  0.718660  0.260850  0.508090  1.0  0.1241
  H  H529  1  0.832240  0.114200  0.473240  1.0  0.1509
  H  H530  1  0.853560  0.088450  0.472110  1.0  0.1496
  H  H531  1  0.870480  0.098910  0.505820  1.0  0.1528
  H  H532  1  0.580920  0.895390  0.857330  1.0  0.14
  H  H533  1  0.849160  0.124660  0.506940  1.0  0.1466
  H  H534  1  0.700970  0.321790  0.553310  1.0  0.1489
  H  H535  1  0.693830  0.341960  0.569210  1.0  0.1506
  H  H536  1  0.737570  0.320490  0.587800  1.0  0.1514
  H  H537  1  0.744720  0.300310  0.571910  1.0  0.1462
  H  H538  1  0.964020  0.956380  0.073020  1.0  0.1404
  H  H539  1  0.688650  0.244190  0.413540  1.0  0.1457
  H  H540  1  0.670590  0.252930  0.397120  1.0  0.1431
  H  H541  1  0.641760  0.291250  0.416190  1.0  0.1469
  H  H542  1  0.659820  0.282510  0.432610  1.0  0.1435
  H  H543  1  0.588810  0.868900  0.846380  1.0  0.1327
  H  H544  1  0.910250  0.047770  0.503890  1.0  0.1521
  H  H545  1  0.931640  0.022210  0.502850  1.0  0.1339
  H  H546  1  0.917900  0.014130  0.468620  1.0  0.1327
  H  H547  1  0.896530  0.039710  0.469740  1.0  0.1549
  H  H548  1  0.605710  0.305350  0.383340  1.0  0.1454
  H  H549  1  0.589030  0.313430  0.366350  1.0  0.1332
  H  H550  1  0.955480  0.959910  0.089080  1.0  0.1427
  H  H551  1  0.622890  0.278710  0.349570  1.0  0.1312
  H  H552  1  0.639270  0.270880  0.366430  1.0  0.1373
  H  H553  1  0.723790  0.359920  0.618340  1.0  0.1507
  H  H554  1  0.545100  0.881580  0.826000  1.0  0.1319
  H  H555  1  0.716730  0.380490  0.634000  1.0  0.1307
  H  H556  1  0.672700  0.401130  0.615330  1.0  0.1276
  H  H557  1  0.679870  0.380530  0.599730  1.0  0.1524
  H  H558  1  0.411370  0.942960  0.156570  1.0  0.1227
  H  H559  1  0.458160  0.923380  0.158040  1.0  0.1255
  H  H560  1  0.432110  0.972180  0.156830  1.0  0.127
  H  H561  1  0.456260  0.972380  0.166610  1.0  0.1242
  H  H562  1  0.887660  0.968310  0.131840  1.0  0.1182
  H  H563  1  0.961720  0.019920  0.225570  1.0  0.1351
  H  H564  1  0.479890  0.972990  0.167320  1.0  0.151
  H  H565  1  0.537380  0.908000  0.837030  1.0  0.1352
  H  H566  1  0.494160  0.926430  0.149080  1.0  0.1379
  H  H567  1  0.470660  0.925750  0.148040  1.0  0.1281
  H  H568  1  0.419700  0.922330  0.165770  1.0  0.1257
  H  H569  1  0.423050  0.895920  0.165830  1.0  0.1373
  H  H570  1  0.457010  0.875890  0.148070  1.0  0.1401
  H  H571  1  0.453580  0.902040  0.147670  1.0  0.1283
  H  H572  1  0.391000  0.960560  0.147480  1.0  0.1233
  H  H573  1  0.366720  0.982490  0.147000  1.0  0.1577
  H  H574  1  0.387630  0.014740  0.164310  1.0  0.1517
  H  H575  1  0.979460  0.027330  0.240910  1.0  0.1394
  H  H576  1  0.521510  0.099140  0.942160  1.0  0.1385
  H  H577  1  0.412720  0.991570  0.164970  1.0  0.1224
  H  H578  1  0.470180  0.827100  0.156020  1.0  0.1387
  H  H579  1  0.474450  0.800230  0.156100  1.0  0.1369
  H  H580  1  0.429540  0.816800  0.158730  1.0  0.1385
  H  H581  1  0.425270  0.843670  0.158650  1.0  0.1373
  H  H582  1  0.339790  0.057820  0.158770  1.0  0.148
  H  H583  1  0.315120  0.079970  0.158180  1.0  0.154
  H  H584  1  0.294680  0.047930  0.150030  1.0  0.1441
  H  H585  1  0.319350  0.025780  0.150630  1.0  0.1452
  H  H586  1  0.541750  0.923930  0.155740  1.0  0.1437
  H  H587  1  0.106780  0.857290  0.483140  1.0  0.1534
  H  H588  1  0.013860  0.001440  0.222530  1.0  0.155
  H  H589  1  0.566050  0.923080  0.156400  1.0  0.138
  H  H590  1  0.548520  0.973080  0.164490  1.0  0.146
  H  H591  1  0.524210  0.973940  0.163830  1.0  0.1445
  H  H592  1  0.436310  0.767280  0.158060  1.0  0.1389
  H  H593  1  0.439130  0.741160  0.158070  1.0  0.1322
  H  H594  1  0.485100  0.722470  0.157020  1.0  0.1314
  H  H595  1  0.482080  0.748880  0.157020  1.0  0.1504
  H  H596  1  0.614170  0.922630  0.162390  1.0  0.1509
  H  H597  1  0.638040  0.922500  0.162790  1.0  0.1323
  H  H598  1  0.515200  0.124850  0.953950  1.0  0.1299
  H  H599  1  0.615910  0.971320  0.161170  1.0  0.1442
  H  H600  1  0.994830  0.994070  0.206780  1.0  0.1538
  H  H601  1  0.592260  0.971290  0.160770  1.0  0.1419
  H  H602  1  0.247940  0.091960  0.153200  1.0  0.1508
  H  H603  1  0.223510  0.114360  0.152560  1.0  0.1318
  H  H604  1  0.243150  0.143790  0.152030  1.0  0.1308
  H  H605  1  0.267440  0.121400  0.152670  1.0  0.1399
  H  H606  1  0.669400  0.729530  0.011340  1.0  0.1126
  H  H607  1  0.658610  0.719950  0.976340  1.0  0.1273
  H  H608  1  0.658990  0.764690  0.993110  1.0  0.1178
  H  H609  1  0.469560  0.138650  0.936980  1.0  0.1351
  H  H610  1  0.640560  0.772060  0.977610  1.0  0.1246
  H  H611  1  0.633780  0.779380  0.960150  1.0  0.1417
  H  H612  1  0.807120  0.956100  0.135870  1.0  0.1461
  H  H613  1  0.659400  0.732170  0.946920  1.0  0.1426
  H  H614  1  0.666667  0.724720  0.964310  1.0  0.1278
  H  H615  1  0.661460  0.708820  0.008370  1.0  0.1255
  H  H616  1  0.664830  0.681730  0.006740  1.0  0.1582
  H  H617  1  0.677550  0.668640  0.976380  1.0  0.1381
  H  H618  1  0.674620  0.695130  0.977960  1.0  0.1256
  H  H619  1  0.680730  0.744090  0.024980  1.0  0.124
  H  H620  1  0.476110  0.112660  0.925160  1.0  0.1406
  H  H621  1  0.683190  0.763210  0.041460  1.0  0.1419
  H  H622  1  0.654090  0.800660  0.024440  1.0  0.1407
  H  H623  1  0.651190  0.781810  0.007980  1.0  0.122
  H  H624  1  0.785480  0.953040  0.136990  1.0  0.1465
  H  H625  1  0.673890  0.620210  0.969930  1.0  0.1445
  H  H626  1  0.677180  0.592920  0.967490  1.0  0.1428
  H  H627  1  0.684230  0.598000  0.001350  1.0  0.1503
  H  H628  1  0.680930  0.625280  0.003790  1.0  0.1473
  H  H629  1  0.666970  0.836230  0.055170  1.0  0.1438
  H  H630  1  0.669520  0.855730  0.071600  1.0  0.155
  H  H631  1  0.029280  0.595210  0.624230  1.0  0.1451
  H  H632  1  0.111730  0.116540  0.737840  1.0  0.1346
  H  H633  1  0.682980  0.821790  0.090660  1.0  0.1414
  H  H634  1  0.680430  0.802280  0.074220  1.0  0.1474
  H  H635  1  0.636450  0.745460  0.912510  1.0  0.141
  H  H636  1  0.629550  0.752270  0.894750  1.0  0.1364
  H  H637  1  0.795790  0.966810  0.171070  1.0  0.1489
  H  H638  1  0.623280  0.799520  0.909730  1.0  0.1438
  H  H639  1  0.630180  0.792700  0.927490  1.0  0.1385
  H  H640  1  0.693870  0.545540  0.997200  1.0  0.1397
  H  H641  1  0.697080  0.518670  0.995530  1.0  0.1354
  H  H642  1  0.683520  0.514130  0.961350  1.0  0.1332
  H  H643  1  0.102130  0.110280  0.749590  1.0  0.1373
  H  H644  1  0.680350  0.541180  0.963150  1.0  0.153
  H  H645  1  0.602980  0.772470  0.862010  1.0  0.1386
  H  H646  1  0.595490  0.779420  0.844330  1.0  0.1298
  H  H647  1  0.615890  0.812130  0.857450  1.0  0.1318
  H  H648  1  0.623320  0.805050  0.875110  1.0  0.1378
  H  H649  1  0.817430  0.969870  0.169950  1.0  0.1462
  H  H650  1  0.686420  0.887280  0.103700  1.0  0.1404
  H  H651  1  0.688470  0.907490  0.119560  1.0  0.132
  H  H652  1  0.677800  0.886310  0.137360  1.0  0.1326
  H  H653  1  0.675790  0.866040  0.121360  1.0  0.1477
  H  H654  1  0.138860  0.112640  0.775350  1.0  0.1295
  H  H655  1  0.927630  0.392060  0.159150  1.0  0.1211
  H  H656  1  0.915830  0.380410  0.124620  1.0  0.1164
  H  H657  1  0.883670  0.417600  0.142180  1.0  0.1249
  H  H658  1  0.866740  0.410940  0.128640  1.0  0.1257
  H  H659  1  0.847320  0.416790  0.112490  1.0  0.1412
  H  H660  1  0.880270  0.399880  0.094300  1.0  0.1476
  H  H661  1  0.980790  0.947460  0.042250  1.0  0.1399
  H  H662  1  0.900000  0.394280  0.110530  1.0  0.1241
  H  H663  1  0.951120  0.382470  0.157050  1.0  0.1241
  H  H664  1  0.976400  0.362330  0.157570  1.0  0.1446
  H  H665  1  0.148450  0.118890  0.763600  1.0  0.134
  H  H666  1  0.961490  0.336740  0.127620  1.0  0.1514
  H  H667  1  0.935940  0.356640  0.127070  1.0  0.1253
  H  H668  1  0.922310  0.415320  0.171690  1.0  0.124
  H  H669  1  0.914920  0.431590  0.188480  1.0  0.1429
  H  H670  1  0.869980  0.437220  0.174330  1.0  0.1374
  H  H671  1  0.877190  0.420700  0.157600  1.0  0.1242
  H  H672  1  0.017170  0.300970  0.127240  1.0  0.1472
  H  H673  1  0.988820  0.944750  0.026210  1.0  0.1327
  H  H674  1  0.042970  0.281020  0.128140  1.0  0.1484
  H  H675  1  0.052710  0.295430  0.162170  1.0  0.1491
  H  H676  1  0.166130  0.129510  0.741990  1.0  0.1359
  H  H677  1  0.026920  0.315380  0.161270  1.0  0.1439
  H  H678  1  0.855910  0.478450  0.204980  1.0  0.145
  H  H679  1  0.848190  0.495090  0.221770  1.0  0.1464
  H  H680  1  0.891820  0.471410  0.239670  1.0  0.1495
  H  H681  1  0.899530  0.454770  0.222890  1.0  0.1454
  H  H682  1  0.839040  0.402930  0.061970  1.0  0.1498
  H  H683  1  0.818690  0.409200  0.046010  1.0  0.1452
  H  H684  1  0.789420  0.444130  0.066100  1.0  0.1461
  H  H685  1  0.898750  0.979790  0.166400  1.0  0.1261
  H  H686  1  0.945500  0.949140  0.007140  1.0  0.1382
  H  H687  1  0.175340  0.135940  0.730070  1.0  0.1359
  H  H688  1  0.809760  0.437860  0.082050  1.0  0.1475
  H  H689  1  0.102950  0.255410  0.164030  1.0  0.1475
  H  H690  1  0.128580  0.235310  0.165020  1.0  0.1298
  H  H691  1  0.119630  0.222480  0.130810  1.0  0.1298
  H  H692  1  0.094000  0.242620  0.129880  1.0  0.1449
  H  H693  1  0.754160  0.462300  0.033640  1.0  0.1514
  H  H694  1  0.733510  0.468810  0.018000  1.0  0.133
  H  H695  1  0.753470  0.422330  0.000650  1.0  0.1325
  H  H696  1  0.774130  0.415910  0.016360  1.0  0.1466
  H  H697  1  0.871260  0.495890  0.271320  1.0  0.1395
  H  H698  1  0.137730  0.134690  0.704880  1.0  0.1333
  H  H699  1  0.937640  0.951830  0.023200  1.0  0.1419
  H  H700  1  0.863970  0.511450  0.288270  1.0  0.1309
  H  H701  1  0.832080  0.549710  0.272470  1.0  0.1343
  H  H702  1  0.839510  0.533940  0.255440  1.0  0.1481
  H  H703  1  0.774100  0.644480  0.496010  1.0  0.1213
  H  H704  1  0.741060  0.657090  0.513730  1.0  0.1201
  H  H705  1  0.730940  0.645690  0.479140  1.0  0.1233
  H  H706  1  0.707520  0.662540  0.480160  1.0  0.1277
  H  H707  1  0.682080  0.666520  0.478460  1.0  0.1404
  H  H708  1  0.694120  0.655110  0.509300  1.0  0.1527
  H  H709  1  0.085570  0.826300  0.476400  1.0  0.139
  H  H710  1  0.720000  0.650640  0.511040  1.0  0.1303
  H  H711  1  0.754800  0.960550  0.173300  1.0  0.1386
  H  H712  1  0.790870  0.634710  0.510240  1.0  0.1249
  H  H713  1  0.810120  0.637190  0.526010  1.0  0.1429
  H  H714  1  0.776880  0.670620  0.543460  1.0  0.1544
  H  H715  1  0.757250  0.668560  0.527500  1.0  0.1278
  H  H716  1  0.781150  0.625790  0.481190  1.0  0.1238
  H  H717  1  0.788510  0.618210  0.464110  1.0  0.1398
  H  H718  1  0.743610  0.643540  0.448950  1.0  0.1378
  H  H719  1  0.736090  0.651610  0.466010  1.0  0.1246
  H  H720  1  0.128530  0.128280  0.716790  1.0  0.1294
  H  H721  1  0.818990  0.664950  0.576240  1.0  0.1471
  H  H722  1  0.839390  0.666570  0.591740  1.0  0.1446
  H  H723  1  0.733180  0.957810  0.174580  1.0  0.1275
  H  H724  1  0.868140  0.651970  0.570530  1.0  0.1468
  H  H725  1  0.847740  0.650340  0.555030  1.0  0.1462
  H  H726  1  0.759210  0.615480  0.414990  1.0  0.1459
  H  H727  1  0.766690  0.607590  0.397760  1.0  0.1476
  H  H728  1  0.809240  0.607990  0.414470  1.0  0.1427
  H  H729  1  0.801760  0.615880  0.431700  1.0  0.1465
  H  H730  1  0.638530  0.675960  0.506170  1.0  0.1462
  H  H731  1  0.126380  0.094040  0.794420  1.0  0.1336
  H  H732  1  0.612440  0.680280  0.503600  1.0  0.1498
  H  H733  1  0.608790  0.666667  0.469730  1.0  0.1434
  H  H734  1  0.634880  0.662290  0.472290  1.0  0.1472
  H  H735  1  0.722020  0.944960  0.140380  1.0  0.1305
  H  H736  1  0.903350  0.667660  0.602090  1.0  0.1474
  H  H737  1  0.923990  0.668870  0.617400  1.0  0.1307
  H  H738  1  0.905670  0.658270  0.636700  1.0  0.1289
  H  H739  1  0.885050  0.657080  0.621350  1.0  0.1481
  H  H740  1  0.556740  0.675250  0.464890  1.0  0.1476
  H  H741  1  0.530810  0.679450  0.462780  1.0  0.1299
  H  H742  1  0.179030  0.604810  0.736120  1.0  0.1506
  H  H743  1  0.119130  0.086400  0.806640  1.0  0.129
  H  H744  1  0.535670  0.693080  0.496820  1.0  0.1276
  H  H745  1  0.561460  0.688870  0.498840  1.0  0.157
  H  H746  1  0.818090  0.602630  0.379830  1.0  0.1451
  H  H747  1  0.825550  0.594320  0.362600  1.0  0.1311
  H  H748  1  0.743690  0.947740  0.139200  1.0  0.1448
  H  H749  1  0.793790  0.573810  0.348700  1.0  0.1322
  H  H750  1  0.786430  0.582160  0.365920  1.0  0.1414
  H  H751  1  0.319240  0.832940  0.329130  1.0  0.1177
  H  H752  1  0.353480  0.796670  0.313210  1.0  0.1289
  H  H753  1  0.316250  0.830800  0.295870  1.0  0.1123
  H  H754  1  0.075460  0.096830  0.786100  1.0  0.1352
  H  H755  1  0.323700  0.810000  0.280970  1.0  0.125
  H  H756  1  0.336070  0.795970  0.265790  1.0  0.1527
  H  H757  1  0.378420  0.782440  0.287520  1.0  0.1394
  H  H758  1  0.366400  0.796610  0.302640  1.0  0.125
  H  H759  1  0.327810  0.813770  0.339680  1.0  0.1218
  H  H760  1  0.045810  0.021390  0.252590  1.0  0.1444
  H  H761  1  0.342230  0.802080  0.355730  1.0  0.1488
  H  H762  1  0.382480  0.786300  0.345610  1.0  0.1411
  H  H763  1  0.368400  0.798180  0.329770  1.0  0.1253
  H  H764  1  0.294200  0.845930  0.325360  1.0  0.1184
  H  H765  1  0.083050  0.104470  0.773930  1.0  0.1345
  H  H766  1  0.270590  0.868910  0.325250  1.0  0.1499
  H  H767  1  0.275890  0.879410  0.298770  1.0  0.151
  H  H768  1  0.299780  0.856630  0.298910  1.0  0.1273
  H  H769  1  0.408650  0.755510  0.373130  1.0  0.1488
  H  H770  1  0.423700  0.743190  0.388950  1.0  0.1494
  H  H771  1  0.388570  0.773080  0.405560  1.0  0.148
  H  H772  1  0.062310  0.030000  0.268580  1.0  0.1332
  H  H773  1  0.373530  0.785400  0.389730  1.0  0.1501
  H  H774  1  0.222140  0.917160  0.295100  1.0  0.1483
  H  H775  1  0.198160  0.940220  0.295170  1.0  0.1456
  H  H776  1  0.193170  0.139630  0.702480  1.0  0.1337
  H  H777  1  0.205700  0.945370  0.329060  1.0  0.1493
  H  H778  1  0.229680  0.922320  0.329000  1.0  0.1491
  H  H779  1  0.401720  0.748280  0.258560  1.0  0.1516
  H  H780  1  0.414960  0.733550  0.243810  1.0  0.1463
  H  H781  1  0.376510  0.758270  0.221830  1.0  0.1433
  H  H782  1  0.363270  0.772990  0.236580  1.0  0.1517
  H  H783  1  0.417820  0.750340  0.436360  1.0  0.1521
  H  H784  1  0.029240  0.045840  0.286710  1.0  0.1281
  H  H785  1  0.432220  0.738110  0.452170  1.0  0.1301
  H  H786  1  0.466880  0.706060  0.435420  1.0  0.1314
  H  H787  1  0.198700  0.147070  0.688970  1.0  0.1295
  H  H788  1  0.452330  0.718420  0.419600  1.0  0.1501
  H  H789  1  0.406340  0.735550  0.195070  1.0  0.1467
  H  H790  1  0.419390  0.721380  0.180290  1.0  0.1314
  H  H791  1  0.449760  0.684980  0.198120  1.0  0.1307
  H  H792  1  0.436600  0.699280  0.212910  1.0  0.1437
  H  H793  1  0.158910  0.991640  0.329320  1.0  0.1521
  H  H794  1  0.134210  0.015450  0.329450  1.0  0.1317
  H  H795  1  0.125480  0.008850  0.295300  1.0  0.1349
  H  H796  1  0.013050  0.037290  0.270820  1.0  0.137
  H  H797  1  0.150200  0.985050  0.295230  1.0  0.1523
  H  H798  1  0.152160  0.164310  0.673740  1.0  0.1346
  H  H799  1  0.273670  0.716490  0.990960  1.0  0.1241
  H  H800  1  0.241770  0.754320  0.009280  1.0  0.1205
  H  H801  1  0.229800  0.742680  0.974150  1.0  0.1198
  H  H802  1  0.206130  0.752970  0.975760  1.0  0.1205
  H  H803  1  0.180860  0.773100  0.975250  1.0  0.1478
  H  H804  1  0.195340  0.797470  0.005960  1.0  0.1505
  H  H805  1  0.220890  0.777560  0.006520  1.0  0.1252
  H  H806  1  0.290920  0.721970  0.004890  1.0  0.1219
  H  H807  1  0.310500  0.716010  0.020950  1.0  0.1388
  H  H808  1  0.873520  0.988900  0.164480  1.0  0.1233
  H  H809  1  0.147030  0.156850  0.687150  1.0  0.128
  H  H810  1  0.830760  0.848380  0.325100  1.0  0.124
  H  H811  1  0.277800  0.736010  0.039780  1.0  0.1444
  H  H812  1  0.257920  0.741770  0.023660  1.0  0.1263
  H  H813  1  0.280120  0.714130  0.975660  1.0  0.1252
  H  H814  1  0.287370  0.697570  0.958960  1.0  0.1417
  H  H815  1  0.242500  0.702960  0.944810  1.0  0.1471
  H  H816  1  0.235060  0.719270  0.961600  1.0  0.1239
  H  H817  1  0.319590  0.732010  0.071690  1.0  0.1468
  H  H818  1  0.340030  0.725620  0.087580  1.0  0.1504
  H  H819  1  0.368410  0.689040  0.067480  1.0  0.1467
  H  H820  1  0.546990  0.500370  0.889930  1.0  0.1549
  H  H821  1  0.347980  0.695430  0.051590  1.0  0.1465
  H  H822  1  0.817040  0.810460  0.310070  1.0  0.1277
  H  H823  1  0.257880  0.678710  0.910470  1.0  0.145
  H  H824  1  0.265780  0.661990  0.893760  1.0  0.1468
  H  H825  1  0.309940  0.640290  0.911710  1.0  0.1468
  H  H826  1  0.302040  0.657010  0.928420  1.0  0.146
  H  H827  1  0.142360  0.831920  0.006080  1.0  0.1473
  H  H828  1  0.116580  0.851880  0.005210  1.0  0.1473
  H  H829  1  0.106780  0.837530  0.971170  1.0  0.1434
  H  H830  1  0.132560  0.817570  0.972040  1.0  0.1469
  H  H831  1  0.109760  0.803630  0.475820  1.0  0.1551
  H  H832  1  0.404230  0.671490  0.099810  1.0  0.1537
  H  H833  1  0.424950  0.664880  0.115400  1.0  0.1302
  H  H834  1  0.845810  0.810320  0.341430  1.0  0.1114
  H  H835  1  0.405130  0.711320  0.132850  1.0  0.1335
  H  H836  1  0.384410  0.717840  0.117190  1.0  0.1478
  H  H837  1  0.056570  0.878010  0.969370  1.0  0.1443
  H  H838  1  0.030940  0.898130  0.968440  1.0  0.1302
  H  H839  1  0.039770  0.910160  0.002690  1.0  0.1301
  H  H840  1  0.065380  0.890010  0.003550  1.0  0.1479
  H  H841  1  0.318620  0.600290  0.878190  1.0  0.1495
  H  H842  1  0.572630  0.492100  0.900860  1.0  0.1467
  H  H843  1  0.326230  0.584450  0.861230  1.0  0.133
  H  H844  1  0.294560  0.622650  0.845300  1.0  0.1297
  H  H845  1  0.287090  0.638280  0.862180  1.0  0.1394
  H  H846  1  0.835130  0.794380  0.342330  1.0  0.125
  H  H847  1  0.332390  0.336760  0.328450  1.0  0.1244
  H  H848  1  0.295650  0.323510  0.312350  1.0  0.1246
  H  H849  1  0.331590  0.308140  0.296760  1.0  0.1104
  H  H850  1  0.322750  0.289550  0.286010  1.0  0.1256
  H  H851  1  0.309440  0.276680  0.270430  1.0  0.1512
  H  H852  1  0.268570  0.307180  0.280320  1.0  0.1507
  H  H853  1  0.204650  0.599200  0.746810  1.0  0.1468
  H  H854  1  0.555910  0.503630  0.928790  1.0  0.1448
  H  H855  1  0.281560  0.320400  0.295750  1.0  0.1237
  H  H856  1  0.325720  0.339450  0.343760  1.0  0.126
  H  H857  1  0.314100  0.354010  0.359120  1.0  0.1483
  H  H858  1  0.271400  0.359470  0.338850  1.0  0.1496
  H  H859  1  0.835010  0.769160  0.341530  1.0  0.1468
  H  H860  1  0.282760  0.345280  0.323330  1.0  0.1221
  H  H861  1  0.357290  0.326390  0.330510  1.0  0.1228
  H  H862  1  0.381160  0.325970  0.331260  1.0  0.1507
  H  H863  1  0.373030  0.315430  0.297110  1.0  0.1489
  H  H864  1  0.348850  0.316170  0.296170  1.0  0.1279
  H  H865  1  0.530270  0.511900  0.917850  1.0  0.153
  H  H866  1  0.250780  0.380390  0.371180  1.0  0.149
  H  H867  1  0.239150  0.394900  0.386740  1.0  0.1469
  H  H868  1  0.277290  0.404830  0.403800  1.0  0.1449
  H  H869  1  0.288920  0.390320  0.388230  1.0  0.1448
  H  H870  1  0.424880  0.307390  0.300090  1.0  0.1454
  H  H871  1  0.829020  0.759220  0.307490  1.0  0.1422
  H  H872  1  0.449170  0.306930  0.301210  1.0  0.146
  H  H873  1  0.450150  0.331700  0.333580  1.0  0.1457
  H  H874  1  0.425860  0.332160  0.332460  1.0  0.1471
  H  H875  1  0.242870  0.278320  0.251140  1.0  0.1451
  H  H876  1  0.480380  0.527720  0.896560  1.0  0.1537
  H  H877  1  0.229250  0.265410  0.235590  1.0  0.1466
  H  H878  1  0.267780  0.240920  0.222110  1.0  0.1477
  H  H879  1  0.281400  0.253830  0.237670  1.0  0.1485
  H  H880  1  0.251010  0.438340  0.433010  1.0  0.1466
  H  H881  1  0.238930  0.452700  0.448360  1.0  0.129
  H  H882  1  0.206940  0.432600  0.433930  1.0  0.1311
  H  H883  1  0.829510  0.784030  0.308140  1.0  0.1245
  H  H884  1  0.219030  0.418350  0.418690  1.0  0.1449
  H  H885  1  0.203420  0.237040  0.205880  1.0  0.1489
  H  H886  1  0.189800  0.224010  0.190540  1.0  0.1276
  H  H887  1  0.454730  0.535970  0.885630  1.0  0.146
  H  H888  1  0.225730  0.204870  0.174670  1.0  0.1317
  H  H889  1  0.239310  0.217960  0.190060  1.0  0.1449
  H  H890  1  0.500210  0.327770  0.336210  1.0  0.1465
  H  H891  1  0.524410  0.327220  0.337040  1.0  0.1312
  H  H892  1  0.519770  0.308320  0.303440  1.0  0.1301
  H  H893  1  0.495660  0.308900  0.302670  1.0  0.1444
  H  H894  1  0.167090  0.255130  0.494900  1.0  0.1249
  H  H895  1  0.808040  0.861930  0.314030  1.0  0.1248
  H  H896  1  0.157000  0.215070  0.478970  1.0  0.1295
  H  H897  1  0.156630  0.243860  0.460460  1.0  0.1244
  H  H898  1  0.471380  0.524960  0.857750  1.0  0.1418
  H  H899  1  0.162760  0.219790  0.448420  1.0  0.1245
  H  H900  1  0.155480  0.202450  0.432290  1.0  0.1356
  H  H901  1  0.131190  0.195150  0.448770  1.0  0.1391
  H  H902  1  0.137970  0.212730  0.464830  1.0  0.1228
  H  H903  1  0.182070  0.238850  0.507420  1.0  0.1259
  H  H904  1  0.185400  0.232900  0.524710  1.0  0.1383
  H  H905  1  0.151200  0.215880  0.511220  1.0  0.1389
  H  H906  1  0.147400  0.222130  0.493960  1.0  0.1253
  H  H907  1  0.793330  0.873340  0.297920  1.0  0.1468
  H  H908  1  0.182270  0.263670  0.491790  1.0  0.1246
  H  H909  1  0.497030  0.516700  0.868680  1.0  0.153
  H  H910  1  0.185790  0.286450  0.491570  1.0  0.1341
  H  H911  1  0.152640  0.293420  0.462520  1.0  0.1372
  H  H912  1  0.148630  0.270880  0.462740  1.0  0.1233
  H  H913  1  0.165880  0.195500  0.542280  1.0  0.1443
  H  H914  1  0.169410  0.189080  0.559590  1.0  0.1352
  H  H915  1  0.187600  0.223160  0.575950  1.0  0.1295
  H  H916  1  0.184070  0.229580  0.558630  1.0  0.1389
  H  H917  1  0.168710  0.330290  0.460080  1.0  0.1346
  H  H918  1  0.172730  0.353160  0.460180  1.0  0.1432
  H  H919  1  0.801640  0.827550  0.278870  1.0  0.1381
  H  H920  1  0.620280  0.491460  0.927570  1.0  0.1458
  H  H921  1  0.188440  0.358890  0.494200  1.0  0.1339
  H  H922  1  0.184430  0.336020  0.494100  1.0  0.1442
  H  H923  1  0.129550  0.152430  0.420490  1.0  0.1347
  H  H924  1  0.122300  0.134550  0.404540  1.0  0.1329
  H  H925  1  0.123120  0.159940  0.384270  1.0  0.138
  H  H926  1  0.130370  0.177820  0.400220  1.0  0.1368
  H  H927  1  0.190510  0.169570  0.591960  1.0  0.1377
  H  H928  1  0.193290  0.162270  0.608600  1.0  0.1426
  H  H929  1  0.182290  0.210170  0.624670  1.0  0.1293
  H  H930  1  0.179560  0.217300  0.607870  1.0  0.1399
  H  H931  1  0.645630  0.483170  0.938950  1.0  0.1334
  H  H932  1  0.852160  0.985610  0.165470  1.0  0.1392
  H  H933  1  0.816630  0.815960  0.294740  1.0  0.126
  H  H934  1  0.097390  0.133590  0.355890  1.0  0.1418
  H  H935  1  0.089100  0.117090  0.339720  1.0  0.1434
  H  H936  1  0.111270  0.078270  0.356100  1.0  0.1317
  H  H937  1  0.119540  0.095040  0.372320  1.0  0.1446
  H  H938  1  0.193900  0.403900  0.494100  1.0  0.15
  H  H939  1  0.197250  0.426880  0.493680  1.0  0.1293
  H  H940  1  0.185230  0.417210  0.459340  1.0  0.1351
  H  H941  1  0.181940  0.394390  0.459880  1.0  0.1346
  H  H942  1  0.632970  0.463440  0.956430  1.0  0.1301
  H  H943  1  0.427990  0.486870  0.654470  1.0  0.1192
  H  H944  1  0.417630  0.476270  0.619860  1.0  0.1241
  H  H945  1  0.834090  0.862660  0.342000  1.0  0.1258
  H  H946  1  0.384610  0.488810  0.637600  1.0  0.1211
  H  H947  1  0.367850  0.498350  0.623310  1.0  0.1255
  H  H948  1  0.348650  0.495810  0.607520  1.0  0.1411
  H  H949  1  0.381970  0.462400  0.590140  1.0  0.1537
  H  H950  1  0.401550  0.464530  0.606120  1.0  0.1293
  H  H951  1  0.444270  0.494320  0.652860  1.0  0.1256
  H  H952  1  0.470040  0.489150  0.654560  1.0  0.1399
  H  H953  1  0.388650  0.721100  0.475140  1.0  0.1383
  H  H954  1  0.470830  0.456920  0.624740  1.0  0.1538
  H  H955  1  0.444860  0.461700  0.623020  1.0  0.1283
  H  H956  1  0.422580  0.481510  0.667580  1.0  0.124
  H  H957  1  0.847750  0.875450  0.357280  1.0  0.1485
  H  H958  1  0.415050  0.489650  0.684640  1.0  0.1353
  H  H959  1  0.370220  0.515290  0.669520  1.0  0.1375
  H  H960  1  0.377600  0.507640  0.652440  1.0  0.1239
  H  H961  1  0.520620  0.455860  0.627440  1.0  0.1473
  H  H962  1  0.546720  0.451490  0.630000  1.0  0.1507
  H  H963  1  0.549660  0.467530  0.663720  1.0  0.1463
  H  H964  1  0.188640  0.615630  0.775610  1.0  0.1443
  H  H965  1  0.607800  0.471740  0.945090  1.0  0.1447
  H  H966  1  0.523560  0.471900  0.661160  1.0  0.1462
  H  H967  1  0.356990  0.517550  0.702000  1.0  0.1435
  H  H968  1  0.349540  0.525530  0.719240  1.0  0.1465
  H  H969  1  0.392040  0.526140  0.735870  1.0  0.1533
  H  H970  1  0.878040  0.831190  0.366130  1.0  0.1493
  H  H971  1  0.399490  0.518160  0.718620  1.0  0.1431
  H  H972  1  0.339930  0.467850  0.557290  1.0  0.1472
  H  H973  1  0.319570  0.466170  0.541770  1.0  0.1465
  H  H974  1  0.290700  0.480960  0.562940  1.0  0.1464
  H  H975  1  0.311060  0.482650  0.578450  1.0  0.1464
  H  H976  1  0.407090  0.538520  0.860580  1.0  0.1473
  H  H977  1  0.602100  0.457420  0.668680  1.0  0.1476
  H  H978  1  0.628050  0.453210  0.670850  1.0  0.1285
  H  H979  1  0.623200  0.440070  0.636810  1.0  0.1299
  H  H980  1  0.597380  0.444290  0.634720  1.0  0.1535
  H  H981  1  0.255670  0.464990  0.531380  1.0  0.1502
  H  H982  1  0.864760  0.818110  0.350720  1.0  0.1271
  H  H983  1  0.235040  0.463720  0.516100  1.0  0.1332
  H  H984  1  0.253190  0.474440  0.496750  1.0  0.1316
  H  H985  1  0.273820  0.475690  0.512090  1.0  0.1486
  H  H986  1  0.372370  0.551640  0.767760  1.0  0.1442
  H  H987  1  0.381470  0.546730  0.849790  1.0  0.1305
  H  H988  1  0.365030  0.560070  0.784990  1.0  0.1309
  H  H989  1  0.333250  0.539580  0.771190  1.0  0.1315
  H  H990  1  0.340700  0.531180  0.753950  1.0  0.1448
  H  H991  1  0.270320  0.166570  0.001610  1.0  0.1194
  H  H992  1  0.232440  0.155540  0.985460  1.0  0.1295
  H  H993  1  0.259210  0.155220  0.967050  1.0  0.1204
  H  H994  1  0.764270  0.851330  0.249890  1.0  0.1541
  H  H995  1  0.250320  0.135820  0.955390  1.0  0.1266
  H  H996  1  0.233070  0.128430  0.939530  1.0  0.1394
  H  H997  1  0.197050  0.156860  0.955450  1.0  0.1378
  H  H998  1  0.393530  0.562780  0.829500  1.0  0.1284
  H  H999  1  0.213920  0.164670  0.971160  1.0  0.1239
  H  H1000  1  0.268750  0.156190  0.014980  1.0  0.1256
  H  H1001  1  0.261490  0.159870  0.031580  1.0  0.1405
  H  H1002  1  0.215650  0.177610  0.015640  1.0  0.1383
  H  H1003  1  0.222610  0.174430  0.999180  1.0  0.125
  H  H1004  1  0.281120  0.179990  0.998330  1.0  0.1241
  H  H1005  1  0.302770  0.182810  0.997390  1.0  0.141
  H  H1006  1  0.749280  0.862270  0.233520  1.0  0.1423
  H  H1007  1  0.305820  0.149510  0.968040  1.0  0.1395
  H  H1008  1  0.284450  0.146180  0.968960  1.0  0.1229
  H  H1009  1  0.419140  0.554520  0.840350  1.0  0.1508
  H  H1010  1  0.202850  0.174520  0.044520  1.0  0.143
  H  H1011  1  0.194430  0.178000  0.060620  1.0  0.1436
  H  H1012  1  0.235720  0.179000  0.080330  1.0  0.1411
  H  H1013  1  0.244140  0.175520  0.064230  1.0  0.1396
  H  H1014  1  0.340760  0.165150  0.963760  1.0  0.1483
  H  H1015  1  0.362420  0.168260  0.962730  1.0  0.1502
  H  H1016  1  0.372450  0.182210  0.996810  1.0  0.1459
  H  H1017  1  0.350790  0.179100  0.997840  1.0  0.1417
  H  H1018  1  0.757790  0.903440  0.247790  1.0  0.1467
  H  H1019  1  0.171550  0.126620  0.928890  1.0  0.1357
  H  H1020  1  0.585590  0.566910  0.591360  1.0  0.1418
  H  H1021  1  0.153580  0.119320  0.913480  1.0  0.1337
  H  H1022  1  0.173850  0.122920  0.892040  1.0  0.1397
  H  H1023  1  0.191820  0.130220  0.907440  1.0  0.1369
  H  H1024  1  0.220910  0.182960  0.110460  1.0  0.1435
  H  H1025  1  0.213280  0.185340  0.126540  1.0  0.1325
  H  H1026  1  0.170080  0.189110  0.107530  1.0  0.1324
  H  H1027  1  0.177900  0.186710  0.091480  1.0  0.1405
  H  H1028  1  0.147120  0.098680  0.864130  1.0  0.136
  H  H1029  1  0.130910  0.090170  0.848240  1.0  0.1334
  H  H1030  1  0.772770  0.892490  0.264160  1.0  0.1474
  H  H1031  1  0.601480  0.548410  0.603790  1.0  0.1316
  H  H1032  1  0.097730  0.106260  0.866310  1.0  0.1329
  H  H1033  1  0.114250  0.114820  0.882310  1.0  0.1473
  H  H1034  1  0.414380  0.187480  0.994770  1.0  0.1507
  H  H1035  1  0.436070  0.190310  0.993670  1.0  0.1309
  H  H1036  1  0.425030  0.177550  0.959460  1.0  0.1292
  H  H1037  1  0.403390  0.174760  0.960650  1.0  0.1404
  H  H1038  1  0.355880  0.806150  0.816810  1.0  0.1273
  H  H1039  1  0.333090  0.855740  0.816860  1.0  0.1284
  H  H1040  1  0.309540  0.829830  0.817280  1.0  0.1256
  H  H1041  1  0.289940  0.848020  0.808440  1.0  0.124
  H  H1042  1  0.618360  0.512770  0.577760  1.0  0.1338
  H  H1043  1  0.898300  0.859370  0.399560  1.0  0.146
  H  H1044  1  0.266620  0.871130  0.809370  1.0  0.141
  H  H1045  1  0.290680  0.899640  0.826590  1.0  0.1476
  H  H1046  1  0.314320  0.876400  0.826000  1.0  0.1211
  H  H1047  1  0.369610  0.806960  0.807170  1.0  0.1255
  H  H1048  1  0.393500  0.805800  0.807180  1.0  0.1365
  H  H1049  1  0.381800  0.852800  0.824650  1.0  0.1487
  H  H1050  1  0.357820  0.854070  0.824980  1.0  0.1258
  H  H1051  1  0.348850  0.785710  0.807130  1.0  0.1254
  H  H1052  1  0.348540  0.760970  0.807110  1.0  0.1388
  H  H1053  1  0.602470  0.531270  0.565330  1.0  0.1362
  H  H1054  1  0.315490  0.785560  0.825890  1.0  0.1378
  H  H1055  1  0.855220  0.952130  0.136200  1.0  0.1391
  H  H1056  1  0.911820  0.872540  0.415020  1.0  0.1453
  H  H1057  1  0.315930  0.810370  0.826270  1.0  0.1265
  H  H1058  1  0.426700  0.850410  0.819090  1.0  0.1456
  H  H1059  1  0.451160  0.848100  0.818720  1.0  0.1519
  H  H1060  1  0.466860  0.798200  0.811490  1.0  0.148
  H  H1061  1  0.442400  0.800510  0.811850  1.0  0.1533
  H  H1062  1  0.309050  0.738310  0.818630  1.0  0.137
  H  H1063  1  0.308630  0.713330  0.818400  1.0  0.1421
  H  H1064  1  0.573590  0.565810  0.542410  1.0  0.1389
  H  H1065  1  0.352970  0.688650  0.813290  1.0  0.1404
  H  H1066  1  0.353390  0.713630  0.813510  1.0  0.1369
  H  H1067  1  0.243030  0.944820  0.822410  1.0  0.1435
  H  H1068  1  0.893820  0.911560  0.399540  1.0  0.157
  H  H1069  1  0.218840  0.967490  0.822980  1.0  0.1492
  H  H1070  1  0.197760  0.936540  0.816800  1.0  0.1473
  H  H1071  1  0.221950  0.913870  0.816230  1.0  0.1483
  H  H1072  1  0.516470  0.795840  0.817460  1.0  0.1432
  H  H1073  1  0.540630  0.794150  0.817030  1.0  0.1336
  H  H1074  1  0.519180  0.840820  0.810720  1.0  0.1342
  H  H1075  1  0.163020  0.621240  0.764920  1.0  0.1544
  H  H1076  1  0.413280  0.718250  0.475080  1.0  0.1336
  H  H1077  1  0.495200  0.842370  0.811170  1.0  0.1474
  H  H1078  1  0.151410  0.980720  0.819230  1.0  0.1501
  H  H1079  1  0.126600  0.004320  0.819780  1.0  0.1354
  H  H1080  1  0.147710  0.034380  0.823280  1.0  0.1337
  H  H1081  1  0.880300  0.898400  0.384090  1.0  0.1452
  H  H1082  1  0.172390  0.010770  0.822720  1.0  0.1493
  H  H1083  1  0.352170  0.641410  0.812740  1.0  0.1412
  H  H1084  1  0.351970  0.616460  0.812560  1.0  0.1307
  H  H1085  1  0.307650  0.641050  0.817970  1.0  0.1318
  H  H1086  1  0.307990  0.665930  0.818120  1.0  0.1428
  H  H1087  1  0.557720  0.584320  0.529990  1.0  0.1311
  H  H1088  1  0.392760  0.912160  0.623150  1.0  0.1276
  H  H1089  1  0.431360  0.878900  0.640340  1.0  0.1299
  H  H1090  1  0.405410  0.922850  0.657680  1.0  0.1136
  H  H1091  1  0.415220  0.907920  0.671030  1.0  0.1215
  H  H1092  1  0.432960  0.899710  0.687540  1.0  0.1382
  H  H1093  1  0.818430  0.716190  0.306160  1.0  0.153
  H  H1094  1  0.467900  0.873410  0.670460  1.0  0.1399
  H  H1095  1  0.450510  0.881800  0.654000  1.0  0.1235
  H  H1096  1  0.393650  0.888330  0.610590  1.0  0.1214
  H  H1097  1  0.399790  0.868850  0.594300  1.0  0.1514
  H  H1098  1  0.539650  0.619430  0.555810  1.0  0.1346
  H  H1099  1  0.445990  0.852990  0.609350  1.0  0.1387
  H  H1100  1  0.440160  0.872490  0.625470  1.0  0.1257
  H  H1101  1  0.369070  0.929700  0.626130  1.0  0.1224
  H  H1102  1  0.347780  0.955230  0.626870  1.0  0.1465
  H  H1103  1  0.371790  0.973180  0.656170  1.0  0.1407
  H  H1104  1  0.393240  0.948000  0.655440  1.0  0.123
  H  H1105  1  0.817820  0.690900  0.304850  1.0  0.1509
  H  H1106  1  0.457900  0.811720  0.580200  1.0  0.1468
  H  H1107  1  0.465020  0.791510  0.564320  1.0  0.1534
  H  H1108  1  0.421030  0.812450  0.545880  1.0  0.1504
  H  H1109  1  0.555530  0.600920  0.568230  1.0  0.1395
  H  H1110  1  0.413900  0.832660  0.561770  1.0  0.1462
  H  H1111  1  0.326940  0.019470  0.660300  1.0  0.1483
  H  H1112  1  0.305650  0.045240  0.661420  1.0  0.1505
  H  H1113  1  0.288310  0.034460  0.627820  1.0  0.1513
  H  H1114  1  0.309600  0.008680  0.626700  1.0  0.1453
  H  H1115  1  0.499040  0.850670  0.700870  1.0  0.1424
  H  H1116  1  0.517140  0.841880  0.717270  1.0  0.1462
  H  H1117  1  0.842730  0.689490  0.337160  1.0  0.147
  H  H1118  1  0.488550  0.880410  0.736400  1.0  0.1426
  H  H1119  1  0.470460  0.889190  0.720000  1.0  0.1423
  H  H1120  1  0.627000  0.481990  0.605240  1.0  0.1336
  H  H1121  1  0.434940  0.773050  0.515290  1.0  0.1545
  H  H1122  1  0.442060  0.752400  0.499670  1.0  0.1288
  H  H1123  1  0.486110  0.732000  0.518400  1.0  0.1283
  H  H1124  1  0.478880  0.752670  0.533950  1.0  0.1525
  H  H1125  1  0.519820  0.862280  0.767050  1.0  0.1393
  H  H1126  1  0.536210  0.854410  0.783890  1.0  0.1309
  H  H1127  1  0.570050  0.819720  0.767080  1.0  0.1293
  H  H1128  1  0.553350  0.827830  0.750100  1.0  0.1422
  H  H1129  1  0.843340  0.714770  0.338470  1.0  0.1425
  H  H1130  1  0.248720  0.085770  0.629710  1.0  0.1576
  H  H1131  1  0.642000  0.463790  0.617780  1.0  0.1358
  H  H1132  1  0.227340  0.111330  0.630750  1.0  0.1366
  H  H1133  1  0.241220  0.119520  0.664960  1.0  0.1343
  H  H1134  1  0.262580  0.093920  0.663840  1.0  0.1537
  H  H1135  1  0.341390  0.323670  0.823510  1.0  0.1266
  H  H1136  1  0.327730  0.285710  0.808530  1.0  0.1203
  H  H1137  1  0.312670  0.323720  0.792140  1.0  0.1113
  H  H1138  1  0.293770  0.315880  0.782800  1.0  0.1244
  H  H1139  1  0.280530  0.302760  0.767400  1.0  0.1483
  H  H1140  1  0.310720  0.258560  0.776370  1.0  0.1468
  H  H1141  1  0.734540  0.921460  0.215460  1.0  0.1376
  H  H1142  1  0.666170  0.492490  0.635020  1.0  0.1339
  H  H1143  1  0.324350  0.271380  0.791650  1.0  0.1202
  H  H1144  1  0.341720  0.318270  0.838850  1.0  0.1263
  H  H1145  1  0.356730  0.306790  0.854760  1.0  0.1369
  H  H1146  1  0.365200  0.260910  0.835810  1.0  0.1452
  H  H1147  1  0.350480  0.272210  0.819660  1.0  0.1266
  H  H1148  1  0.328870  0.350080  0.825430  1.0  0.1262
  H  H1149  1  0.329390  0.374880  0.826100  1.0  0.137
  H  H1150  1  0.323530  0.364910  0.792070  1.0  0.1463
  H  H1151  1  0.323380  0.339700  0.791250  1.0  0.1239
  H  H1152  1  0.385350  0.242260  0.869860  1.0  0.1467
  H  H1153  1  0.651040  0.510590  0.622390  1.0  0.1347
  H  H1154  1  0.720150  0.933540  0.199690  1.0  0.1305
  H  H1155  1  0.400350  0.231460  0.886280  1.0  0.148
  H  H1156  1  0.409600  0.272240  0.900090  1.0  0.1448
  H  H1157  1  0.394590  0.283030  0.883660  1.0  0.1567
  H  H1158  1  0.314720  0.419660  0.795330  1.0  0.1447
  H  H1159  1  0.315370  0.444930  0.796690  1.0  0.154
  H  H1160  1  0.341290  0.442800  0.828700  1.0  0.1459
  H  H1161  1  0.340640  0.417520  0.827350  1.0  0.1544
  H  H1162  1  0.278240  0.235520  0.749510  1.0  0.149
  H  H1163  1  0.264750  0.222310  0.734060  1.0  0.1517
  H  H1164  1  0.507510  0.622120  0.511300  1.0  0.137
  H  H1165  1  0.246750  0.261300  0.718540  1.0  0.1492
  H  H1166  1  0.700870  0.899860  0.187270  1.0  0.1315
  H  H1167  1  0.260240  0.274510  0.733990  1.0  0.1463
  H  H1168  1  0.443240  0.247020  0.930530  1.0  0.1522
  H  H1169  1  0.457840  0.235050  0.946570  1.0  0.131
  H  H1170  1  0.438110  0.201770  0.934490  1.0  0.1298
  H  H1171  1  0.423750  0.213710  0.918670  1.0  0.1394
  H  H1172  1  0.218300  0.235890  0.689060  1.0  0.1506
  H  H1173  1  0.204950  0.222180  0.673940  1.0  0.1319
  H  H1174  1  0.227760  0.181710  0.688610  1.0  0.1318
  H  H1175  1  0.492480  0.640330  0.498720  1.0  0.1319
  H  H1176  1  0.240980  0.195450  0.703610  1.0  0.1516
  H  H1177  1  0.320610  0.490670  0.798080  1.0  0.138
  H  H1178  1  0.876870  0.954910  0.135200  1.0  0.122
  H  H1179  1  0.715490  0.887760  0.203250  1.0  0.1496
  H  H1180  1  0.320950  0.515710  0.798820  1.0  0.1316
  H  H1181  1  0.338640  0.519770  0.832690  1.0  0.1334
  H  H1182  1  0.338240  0.494580  0.831850  1.0  0.147
  H  H1183  1  0.727030  0.161000  0.976920  1.0  0.1254
  H  H1184  1  0.747850  0.190140  0.977120  1.0  0.1204
  H  H1185  1  0.701090  0.209820  0.975730  1.0  0.126
  H  H1186  1  0.113300  0.632360  0.744180  1.0  0.1506
  H  H1187  1  0.516940  0.668720  0.516070  1.0  0.1401
  H  H1188  1  0.705740  0.231100  0.986130  1.0  0.1211
  H  H1189  1  0.702240  0.257260  0.985690  1.0  0.1427
  H  H1190  1  0.736060  0.237260  0.967810  1.0  0.1388
  H  H1191  1  0.739470  0.210830  0.967900  1.0  0.1242
  H  H1192  1  0.838360  0.643240  0.335650  1.0  0.1365
  H  H1193  1  0.746550  0.141380  0.969110  1.0  0.1201
  H  H1194  1  0.770860  0.119090  0.969730  1.0  0.1476
  H  H1195  1  0.792530  0.150060  0.986150  1.0  0.1376
  H  H1196  1  0.768420  0.172380  0.985880  1.0  0.1215
  H  H1197  1  0.702690  0.160980  0.967170  1.0  0.1267
  H  H1198  1  0.431460  0.669850  0.477120  1.0  0.1302
  H  H1199  1  0.678960  0.160610  0.966490  1.0  0.1501
  H  H1200  1  0.665080  0.207110  0.984850  1.0  0.1403
  H  H1201  1  0.688670  0.207550  0.985850  1.0  0.1275
  H  H1202  1  0.839070  0.107590  0.982060  1.0  0.1469
  H  H1203  1  0.863710  0.085400  0.982620  1.0  0.1448
  H  H1204  1  0.838060  0.618180  0.334920  1.0  0.1291
  H  H1205  1  0.843460  0.053660  0.976320  1.0  0.15
  H  H1206  1  0.818820  0.075850  0.975750  1.0  0.1431
  H  H1207  1  0.617130  0.210200  0.977850  1.0  0.1471
  H  H1208  1  0.592720  0.211350  0.977240  1.0  0.1416
  H  H1209  1  0.531820  0.650430  0.528530  1.0  0.137
  H  H1210  1  0.610090  0.161330  0.969850  1.0  0.1439
  H  H1211  1  0.634510  0.160170  0.970460  1.0  0.1448
  H  H1212  1  0.733660  0.289640  0.974900  1.0  0.1358
  H  H1213  1  0.729280  0.316530  0.974790  1.0  0.1398
  H  H1214  1  0.684490  0.332970  0.977620  1.0  0.1387
  H  H1215  1  0.688860  0.306080  0.977720  1.0  0.1413
  H  H1216  1  0.819820  0.614400  0.301120  1.0  0.1345
  H  H1217  1  0.891230  0.011930  0.980870  1.0  0.1397
  H  H1218  1  0.915590  0.989590  0.981480  1.0  0.1282
  H  H1219  1  0.934990  0.019210  0.980910  1.0  0.1299
  H  H1220  1  0.080200  0.042000  0.044780  1.0  0.153
  H  H1221  1  0.910520  0.041530  0.980300  1.0  0.1525
  H  H1222  1  0.676670  0.384470  0.976660  1.0  0.1525
  H  H1223  1  0.673630  0.410880  0.976630  1.0  0.1325
  H  H1224  1  0.719530  0.392140  0.975360  1.0  0.1338
  H  H1225  1  0.722370  0.366040  0.975410  1.0  0.141
  H  H1226  1  0.566090  0.163640  0.973320  1.0  0.1399
  H  H1227  1  0.542380  0.163800  0.972960  1.0  0.1386
  H  H1228  1  0.820180  0.639610  0.301940  1.0  0.152
  H  H1229  1  0.520490  0.212620  0.971320  1.0  0.134
  H  H1230  1  0.544430  0.212290  0.971670  1.0  0.1533
  H  H1231  1  0.065870  0.026370  0.033610  1.0  0.1436
  H  H1232  1  0.863190  0.810010  0.821260  1.0  0.1244
  H  H1233  1  0.826470  0.796720  0.805230  1.0  0.1253
  H  H1234  1  0.827250  0.825470  0.836880  1.0  0.1089
  H  H1235  1  0.809990  0.817380  0.837480  1.0  0.1264
  H  H1236  1  0.785810  0.818080  0.836520  1.0  0.1482
  H  H1237  1  0.777720  0.807560  0.802370  1.0  0.1529
  H  H1238  1  0.801590  0.807180  0.803140  1.0  0.1208
  H  H1239  1  0.876080  0.788120  0.810310  1.0  0.1234
  H  H1240  1  0.917960  0.938190  0.429830  1.0  0.152
  H  H1241  1  0.887410  0.773850  0.794790  1.0  0.1506
  H  H1242  1  0.037680  0.046210  0.055930  1.0  0.1497
  H  H1243  1  0.844680  0.779420  0.774550  1.0  0.1511
  H  H1244  1  0.833080  0.794060  0.789920  1.0  0.1227
  H  H1245  1  0.877290  0.813150  0.837840  1.0  0.1243
  H  H1246  1  0.890300  0.826400  0.853220  1.0  0.1531
  H  H1247  1  0.849460  0.856990  0.863130  1.0  0.1497
  H  H1248  1  0.836130  0.844070  0.847590  1.0  0.1235
  H  H1249  1  0.869730  0.742990  0.745460  1.0  0.1443
  H  H1250  1  0.881320  0.728390  0.729880  1.0  0.145
  H  H1251  1  0.919560  0.738160  0.746870  1.0  0.1486
  H  H1252  1  0.931220  0.951870  0.444850  1.0  0.1334
  H  H1253  1  0.052010  0.061840  0.067100  1.0  0.1533
  H  H1254  1  0.907980  0.752760  0.762450  1.0  0.1471
  H  H1255  1  0.878470  0.877850  0.896640  1.0  0.1444
  H  H1256  1  0.892130  0.890790  0.912150  1.0  0.1472
  H  H1257  1  0.928820  0.870320  0.896940  1.0  0.1449
  H  H1258  1  0.915160  0.857380  0.881440  1.0  0.1473
  H  H1259  1  0.732920  0.801610  0.801010  1.0  0.1459
  H  H1260  1  0.708630  0.802010  0.799830  1.0  0.1455
  H  H1261  1  0.709850  0.826080  0.832370  1.0  0.1478
  H  H1262  1  0.734140  0.825680  0.833540  1.0  0.1444
  H  H1263  1  0.939260  0.715040  0.714740  1.0  0.1448
  H  H1264  1  0.079540  0.092420  0.088600  1.0  0.1568
  H  H1265  1  0.953390  0.911660  0.459750  1.0  0.1313
  H  H1266  1  0.951310  0.700730  0.699480  1.0  0.1303
  H  H1267  1  0.919880  0.679860  0.685480  1.0  0.1287
  H  H1268  1  0.907830  0.694280  0.700840  1.0  0.1463
  H  H1269  1  0.663400  0.824030  0.830780  1.0  0.1512
  H  H1270  1  0.639310  0.824560  0.830000  1.0  0.1298
  H  H1271  1  0.634400  0.806320  0.796310  1.0  0.1332
  H  H1272  1  0.658600  0.805820  0.797160  1.0  0.1448
  H  H1273  1  0.955830  0.896290  0.927570  1.0  0.15
  H  H1274  1  0.969460  0.909340  0.942900  1.0  0.1328
  H  H1275  1  0.093870  0.108050  0.099770  1.0  0.1425
  H  H1276  1  0.933110  0.929370  0.958460  1.0  0.1304
  H  H1277  1  0.939990  0.898000  0.444620  1.0  0.1464
  H  H1278  1  0.919530  0.916270  0.943100  1.0  0.1481
  H  H1279  1  0.843790  0.303060  0.838340  1.0  0.1143
  H  H1280  1  0.840860  0.300800  0.805060  1.0  0.1156
  H  H1281  1  0.806390  0.336880  0.820850  1.0  0.1298
  H  H1282  1  0.791550  0.335160  0.804290  1.0  0.1253
  H  H1283  1  0.777390  0.346940  0.788410  1.0  0.1371
  H  H1284  1  0.817610  0.331540  0.778350  1.0  0.1495
  H  H1285  1  0.832100  0.319960  0.794430  1.0  0.1228
  H  H1286  1  0.122500  0.087660  0.077710  1.0  0.1462
  H  H1287  1  0.860480  0.277330  0.835420  1.0  0.1277
  H  H1288  1  0.884490  0.254710  0.835660  1.0  0.148
  H  H1289  1  0.241380  0.693840  0.476100  1.0  0.1173
  H  H1290  1  0.889650  0.265140  0.809080  1.0  0.1513
  H  H1291  1  0.865910  0.287960  0.808870  1.0  0.1189
  H  H1292  1  0.836130  0.323930  0.853180  1.0  0.1252
  H  H1293  1  0.823650  0.337930  0.868300  1.0  0.152
  H  H1294  1  0.781370  0.350960  0.846460  1.0  0.1423
  H  H1295  1  0.793510  0.336810  0.831390  1.0  0.1244
  H  H1296  1  0.930950  0.211940  0.805580  1.0  0.1492
  C  C1297  1  0.980520  0.972520  0.461770  1.0  0.5834
  C  C1298  1  0.378620  0.470350  0.597390  1.0  -0.074
  C  C1299  1  0.252850  0.163100  0.024480  1.0  -0.0964
  C  C1300  1  0.559430  0.099180  0.059390  1.0  -0.1257
  C  C1301  1  0.926560  0.963860  0.127350  1.0  -0.1161
  C  C1302  1  0.137380  0.803130  0.478760  1.0  -0.0459
  C  C1303  1  0.551330  0.109340  0.052050  1.0  -0.1321
  C  C1304  1  0.550350  0.103710  0.041070  1.0  0.0166
  C  C1305  1  0.557690  0.087640  0.037650  1.0  -0.1274
  C  C1306  1  0.565790  0.077490  0.044990  1.0  -0.1365
  C  C1307  1  0.566770  0.083120  0.055960  1.0  0.0213
  C  C1308  1  0.598840  0.036760  0.074470  1.0  -0.1166
  C  C1309  1  0.606950  0.026590  0.081810  1.0  -0.1359
  C  C1310  1  0.237940  0.168950  0.025000  1.0  0.0142
  C  C1311  1  0.607480  0.032120  0.092740  1.0  0.0164
  C  C1312  1  0.599680  0.048100  0.096150  1.0  -0.1247
  C  C1313  1  0.591570  0.058270  0.088810  1.0  -0.1191
  C  C1314  1  0.211110  0.648230  0.475000  1.0  -0.0511
  C  C1315  1  0.591030  0.052740  0.077880  1.0  0.017
  C  C1316  1  0.541850  0.114400  0.033320  1.0  0.0036
  C  C1317  1  0.534820  0.123250  0.026810  1.0  0.0069
  C  C1318  1  0.616010  0.021400  0.100480  1.0  0.0044
  C  C1319  1  0.623090  0.012510  0.106970  1.0  0.0232
  C  C1320  1  0.531890  0.131140  0.010020  1.0  -0.113
  C  C1321  1  0.786790  0.858500  0.276920  1.0  -0.0399
  C  C1322  1  0.524010  0.140910  0.002430  1.0  -0.0728
  C  C1323  1  0.510440  0.153630  0.003510  1.0  -0.0737
  C  C1324  1  0.505070  0.156260  0.012470  1.0  -0.08
  C  C1325  1  0.512990  0.146440  0.020060  1.0  -0.1107
  C  C1326  1  0.209400  0.636420  0.474750  1.0  -0.0292
  C  C1327  1  0.526490  0.133730  0.018920  1.0  0.0173
  C  C1328  1  0.645030  0.989340  0.113650  1.0  -0.09
  C  C1329  1  0.653300  0.979050  0.121730  1.0  -0.0662
  C  C1330  1  0.647790  0.981710  0.130650  1.0  -0.0994
  C  C1331  1  0.634130  0.994380  0.131720  1.0  -0.0749
  C  C1332  1  0.227370  0.172880  0.015620  1.0  -0.0343
  C  C1333  1  0.626030  0.004310  0.124220  1.0  -0.1408
  C  C1334  1  0.631520  0.001930  0.114800  1.0  0.0163
  C  C1335  1  0.083850  0.563060  0.563370  1.0  -0.0752
  C  C1336  1  0.075410  0.569310  0.569790  1.0  -0.0701
  C  C1337  1  0.096260  0.564380  0.550480  1.0  -0.1251
  C  C1338  1  0.325930  0.720580  0.478490  1.0  -0.1325
  C  C1339  1  0.105810  0.557300  0.543200  1.0  -0.1243
  C  C1340  1  0.113600  0.541030  0.540720  1.0  0.0133
  C  C1341  1  0.111370  0.532180  0.545860  1.0  -0.119
  C  C1342  1  0.101820  0.539250  0.553130  1.0  -0.1293
  C  C1343  1  0.231470  0.170880  0.006110  1.0  -0.1183
  C  C1344  1  0.094030  0.555520  0.555620  1.0  0.0127
  C  C1345  1  0.063520  0.568050  0.583050  1.0  -0.1041
  C  C1346  1  0.053970  0.575120  0.590320  1.0  -0.1224
  C  C1347  1  0.045650  0.591340  0.592440  1.0  0.0134
  C  C1348  1  0.047360  0.600140  0.586930  1.0  -0.1286
  C  C1349  1  0.056910  0.593070  0.579660  1.0  -0.1044
  C  C1350  1  0.340390  0.718380  0.478440  1.0  -0.123
  C  C1351  1  0.065230  0.576850  0.577540  1.0  0.0124
  C  C1352  1  0.123780  0.533480  0.532960  1.0  -0.054
  C  C1353  1  0.132210  0.527220  0.526540  1.0  -0.0574
  C  C1354  1  0.246390  0.164790  0.005440  1.0  -0.0121
  C  C1355  1  0.035470  0.598880  0.600190  1.0  -0.0515
  C  C1356  1  0.027030  0.605150  0.606620  1.0  -0.0819
  C  C1357  1  0.154970  0.505540  0.519810  1.0  -0.117
  C  C1358  1  0.164430  0.498320  0.512470  1.0  -0.0855
  C  C1359  1  0.161800  0.504840  0.503710  1.0  -0.1055
  C  C1360  1  0.149210  0.519010  0.502720  1.0  -0.0867
  C  C1361  1  0.139760  0.526210  0.510070  1.0  -0.1169
  C  C1362  1  0.351760  0.703460  0.476360  1.0  0.0051
  C  C1363  1  0.142380  0.519640  0.518770  1.0  0.0101
  C  C1364  1  0.004210  0.626780  0.613250  1.0  -0.0841
  C  C1365  1  0.286390  0.172930  0.991630  1.0  -0.1166
  C  C1366  1  0.994100  0.634520  0.620950  1.0  -0.0659
  C  C1367  1  0.996800  0.627960  0.629680  1.0  -0.0998
  C  C1368  1  0.010240  0.613050  0.630530  1.0  -0.0813
  C  C1369  1  0.019580  0.606110  0.623100  1.0  -0.1119
  C  C1370  1  0.016850  0.612730  0.614370  1.0  -0.0013
  C  C1371  1  0.152740  0.617020  0.742890  1.0  -0.0777
  C  C1372  1  0.139650  0.619880  0.737420  1.0  -0.0736
  C  C1373  1  0.180890  0.607290  0.744800  1.0  -0.0467
  C  C1374  1  0.347820  0.690860  0.474330  1.0  -0.1255
  C  C1375  1  0.195660  0.604060  0.750960  1.0  -0.1255
  C  C1376  1  0.298860  0.174710  0.991070  1.0  -0.1046
  C  C1377  1  0.199080  0.606890  0.762220  1.0  0.0177
  C  C1378  1  0.186790  0.613160  0.766930  1.0  -0.1261
  C  C1379  1  0.172010  0.616400  0.760770  1.0  -0.129
  C  C1380  1  0.168590  0.613560  0.749500  1.0  0.0158
  C  C1381  1  0.111470  0.629750  0.735500  1.0  -0.106
  C  C1382  1  0.096700  0.632970  0.729330  1.0  -0.1258
  C  C1383  1  0.093320  0.629960  0.718060  1.0  0.0161
  C  C1384  1  0.105640  0.623540  0.713360  1.0  -0.1246
  C  C1385  1  0.120410  0.620330  0.719530  1.0  -0.0992
  C  C1386  1  0.333333  0.693050  0.474380  1.0  -0.1229
  C  C1387  1  0.306240  0.166440  0.982630  1.0  -0.0177
  C  C1388  1  0.123790  0.623330  0.730800  1.0  0.0046
  C  C1389  1  0.214940  0.603390  0.768830  1.0  -0.0069
  C  C1390  1  0.228060  0.600440  0.774270  1.0  -0.0084
  C  C1391  1  0.077470  0.633390  0.711430  1.0  -0.0075
  C  C1392  1  0.064400  0.636190  0.705950  1.0  -0.0069
  C  C1393  1  0.248050  0.607510  0.789410  1.0  -0.1325
  C  C1394  1  0.262940  0.603940  0.795470  1.0  -0.0889
  C  C1395  1  0.274720  0.589330  0.793280  1.0  -0.0963
  C  C1396  1  0.270600  0.578590  0.784640  1.0  -0.0901
  C  C1397  1  0.255740  0.582180  0.778610  1.0  -0.1306
  C  C1398  1  0.300500  0.156290  0.974760  1.0  -0.0564
  C  C1399  1  0.321990  0.707980  0.476460  1.0  0.0118
  C  C1400  1  0.243990  0.596730  0.780790  1.0  0.013
  C  C1401  1  0.044820  0.627870  0.691410  1.0  -0.1263
  C  C1402  1  0.030140  0.630880  0.685120  1.0  -0.0893
  C  C1403  1  0.018250  0.645710  0.686280  1.0  -0.0949
  C  C1404  1  0.022030  0.657350  0.694170  1.0  -0.0888
  C  C1405  1  0.036740  0.654310  0.700460  1.0  -0.1271
  C  C1406  1  0.048590  0.639480  0.699260  1.0  0.0211
  C  C1407  1  0.530680  0.996100  0.886830  1.0  0.0611
  C  C1408  1  0.525920  0.011860  0.893450  1.0  0.0599
  C  C1409  1  0.390040  0.471670  0.606700  1.0  -0.0952
  C  C1410  1  0.288030  0.154510  0.975280  1.0  -0.1216
  C  C1411  1  0.542550  0.966640  0.884610  1.0  -0.123
  C  C1412  1  0.193160  0.622820  0.473190  1.0  -0.1227
  C  C1413  1  0.547120  0.951520  0.878260  1.0  -0.1221
  C  C1414  1  0.544850  0.949250  0.867140  1.0  0.0049
  C  C1415  1  0.537830  0.962670  0.862620  1.0  -0.1162
  C  C1416  1  0.533260  0.977790  0.868970  1.0  -0.1245
  C  C1417  1  0.535530  0.980070  0.880090  1.0  -0.0042
  C  C1418  1  0.512670  0.041290  0.895640  1.0  -0.1174
  C  C1419  1  0.508160  0.056400  0.902010  1.0  -0.124
  C  C1420  1  0.511890  0.058680  0.913200  1.0  0.0085
  C  C1421  1  0.280530  0.162780  0.983740  1.0  -0.0055
  C  C1422  1  0.520310  0.045270  0.917760  1.0  -0.1227
  C  C1423  1  0.524830  0.030160  0.911380  1.0  -0.1049
  C  C1424  1  0.009310  0.925760  0.481850  1.0  0.4017
  C  C1425  1  0.930690  0.961830  0.117850  1.0  -0.0322
  C  C1426  1  0.191140  0.609470  0.472870  1.0  -0.1069
  C  C1427  1  0.521100  0.027880  0.900200  1.0  -0.0092
  C  C1428  1  0.549700  0.933210  0.860410  1.0  0.0256
  C  C1429  1  0.553710  0.919890  0.854810  1.0  0.0284
  C  C1430  1  0.507220  0.074680  0.919980  1.0  0.025
  C  C1431  1  0.503500  0.087940  0.925690  1.0  0.0335
  C  C1432  1  0.233350  0.170930  0.035000  1.0  -0.0542
  C  C1433  1  0.572960  0.892480  0.850440  1.0  -0.1083
  C  C1434  1  0.577460  0.877320  0.844140  1.0  -0.0795
  C  C1435  1  0.567660  0.872900  0.835190  1.0  -0.0966
  C  C1436  1  0.553190  0.884350  0.832830  1.0  -0.0705
  C  C1437  1  0.548730  0.899510  0.839140  1.0  -0.1142
  C  C1438  1  0.203140  0.594940  0.473780  1.0  0.0062
  C  C1439  1  0.558510  0.903860  0.848080  1.0  0.0154
  C  C1440  1  0.510050  0.107730  0.940920  1.0  -0.1034
  C  C1441  1  0.506370  0.122520  0.947660  1.0  -0.0809
  C  C1442  1  0.491800  0.134090  0.946500  1.0  -0.1052
  C  C1443  1  0.913530  0.979840  0.158390  1.0  0.0008
  C  C1444  1  0.481050  0.130160  0.938230  1.0  -0.0737
  C  C1445  1  0.484780  0.115280  0.931460  1.0  -0.1226
  C  C1446  1  0.499360  0.103780  0.932700  1.0  0.0142
  C  C1447  1  0.136430  0.121760  0.743010  1.0  -0.0633
  C  C1448  1  0.141170  0.124810  0.737190  1.0  -0.0799
  C  C1449  1  0.117720  0.115710  0.746090  1.0  -0.1255
  C  C1450  1  0.217240  0.594340  0.475020  1.0  -0.1113
  C  C1451  1  0.112300  0.112190  0.752710  1.0  -0.1197
  C  C1452  1  0.119840  0.111070  0.763260  1.0  0.0595
  C  C1453  1  0.132850  0.113510  0.767110  1.0  -0.1287
  C  C1454  1  0.779140  0.864150  0.268610  1.0  -0.0412
  C  C1455  1  0.138260  0.117030  0.760500  1.0  0.0714
  C  C1456  1  0.130730  0.118130  0.749940  1.0  0.0614
  C  C1457  1  0.159880  0.130610  0.733830  1.0  -0.1292
  C  C1458  1  0.165070  0.134220  0.727110  1.0  -0.1203
  C  C1459  1  0.157160  0.135700  0.716660  1.0  0.0676
  C  C1460  1  0.144030  0.133520  0.713020  1.0  -0.1226
  C  C1461  1  0.138840  0.129920  0.719730  1.0  -0.004
  C  C1462  1  0.219260  0.607700  0.475340  1.0  -0.1142
  C  C1463  1  0.146710  0.128460  0.730180  1.0  0.0871
  C  C1464  1  0.114330  0.107230  0.770200  1.0  -0.0694
  C  C1465  1  0.229280  0.172630  0.043200  1.0  -0.0607
  C  C1466  1  0.109980  0.103910  0.776120  1.0  -0.0743
  C  C1467  1  0.162310  0.139730  0.709600  1.0  -0.0883
  C  C1468  1  0.166080  0.143270  0.703430  1.0  -0.1148
  C  C1469  1  0.115170  0.094720  0.792610  1.0  -0.1082
  C  C1470  1  0.110970  0.090400  0.799530  1.0  -0.0804
  C  C1471  1  0.096690  0.091040  0.797330  1.0  -0.0847
  C  C1472  1  0.086660  0.096240  0.788080  1.0  -0.0837
  C  C1473  1  0.090940  0.100560  0.781160  1.0  -0.128
  C  C1474  1  0.207260  0.622230  0.474430  1.0  0.0145
  C  C1475  1  0.105240  0.099760  0.783370  1.0  0.0664
  C  C1476  1  0.203030  0.137260  0.936650  1.0  -0.0076
  C  C1477  1  0.184190  0.145110  0.696160  1.0  -0.1067
  C  C1478  1  0.187290  0.149350  0.688510  1.0  -0.0787
  C  C1479  1  0.175890  0.156270  0.680290  1.0  -0.0736
  C  C1480  1  0.161410  0.158940  0.679970  1.0  -0.0759
  C  C1481  1  0.158380  0.154730  0.687590  1.0  -0.1149
  C  C1482  1  0.169700  0.147760  0.695700  1.0  0.06
  C  C1483  1  0.520240  0.512060  0.896050  1.0  -0.0807
  C  C1484  1  0.507100  0.516290  0.890450  1.0  -0.0849
  C  C1485  1  0.548680  0.501190  0.898460  1.0  -0.1387
  C  C1486  1  0.121110  0.832550  0.481190  1.0  -0.1263
  C  C1487  1  0.194080  0.133490  0.928830  1.0  0.0014
  C  C1488  1  0.563490  0.496420  0.904780  1.0  -0.1261
  C  C1489  1  0.566750  0.497070  0.915880  1.0  0.0155
  C  C1490  1  0.554220  0.502810  0.920250  1.0  -0.1244
  C  C1491  1  0.539410  0.507590  0.913940  1.0  0.0463
  C  C1492  1  0.536150  0.506930  0.902830  1.0  0.0139
  C  C1493  1  0.478680  0.527010  0.888030  1.0  -0.1105
  C  C1494  1  0.463860  0.531770  0.881720  1.0  -0.1274
  C  C1495  1  0.460580  0.531260  0.870640  1.0  0.0104
  C  C1496  1  0.473090  0.525670  0.866280  1.0  -0.125
  C  C1497  1  0.487900  0.520900  0.872590  1.0  -0.1166
  C  C1498  1  0.319540  0.168360  0.982030  1.0  -0.0429
  C  C1499  1  0.107210  0.845570  0.481520  1.0  -0.1292
  C  C1500  1  0.491190  0.521410  0.883670  1.0  0.0104
  C  C1501  1  0.582660  0.491920  0.922680  1.0  -0.0199
  C  C1502  1  0.595760  0.487650  0.928320  1.0  -0.0226
  C  C1503  1  0.444660  0.536390  0.863860  1.0  -0.0243
  C  C1504  1  0.431520  0.540610  0.858270  1.0  -0.0241
  C  C1505  1  0.622880  0.485250  0.933870  1.0  -0.1179
  C  C1506  1  0.637560  0.480420  0.940430  1.0  -0.0914
  C  C1507  1  0.641900  0.472370  0.948800  1.0  -0.0985
  C  C1508  1  0.630570  0.469510  0.950110  1.0  -0.0921
  C  C1509  1  0.330540  0.169940  0.981520  1.0  -0.0437
  C  C1510  1  0.615950  0.474340  0.943560  1.0  -0.1327
  C  C1511  1  0.093990  0.843840  0.479820  1.0  0.0052
  C  C1512  1  0.611590  0.482400  0.935240  1.0  0.0158
  C  C1513  1  0.404350  0.543830  0.853770  1.0  -0.1237
  C  C1514  1  0.389520  0.548590  0.847510  1.0  -0.0896
  C  C1515  1  0.384910  0.555580  0.838540  1.0  -0.0972
  C  C1516  1  0.396190  0.557470  0.836290  1.0  -0.0833
  C  C1517  1  0.411030  0.552690  0.842560  1.0  -0.128
  C  C1518  1  0.415590  0.545720  0.851510  1.0  0.0121
  C  C1519  1  0.583270  0.561610  0.569940  1.0  -0.0532
  C  C1520  1  0.386970  0.481490  0.616600  1.0  -0.0614
  C  C1521  1  0.210210  0.175480  0.052340  1.0  -0.1279
  C  C1522  1  0.575320  0.570850  0.563730  1.0  -0.0539
  C  C1523  1  0.592760  0.555040  0.588290  1.0  -0.1115
  C  C1524  1  0.095430  0.828370  0.477780  1.0  -0.1211
  C  C1525  1  0.601790  0.544530  0.595350  1.0  -0.1284
  C  C1526  1  0.611140  0.529180  0.591730  1.0  0.0093
  C  C1527  1  0.611200  0.524650  0.580840  1.0  -0.1266
  C  C1528  1  0.602170  0.535160  0.573780  1.0  -0.1123
  C  C1529  1  0.592810  0.550510  0.577400  1.0  0.0135
  C  C1530  1  0.566160  0.577570  0.545440  1.0  -0.1288
  C  C1531  1  0.557140  0.588080  0.538380  1.0  -0.1284
  C  C1532  1  0.205390  0.177480  0.061550  1.0  -0.1209
  C  C1533  1  0.547460  0.603290  0.541950  1.0  0.0104
  C  C1534  1  0.547070  0.607660  0.552780  1.0  -0.134
  C  C1535  1  0.556090  0.597150  0.559840  1.0  -0.0868
  C  C1536  1  0.109330  0.815340  0.477450  1.0  -0.1344
  C  C1537  1  0.565780  0.581940  0.556270  1.0  0.014
  C  C1538  1  0.620630  0.518070  0.599180  1.0  0.0587
  C  C1539  1  0.628500  0.508810  0.605390  1.0  0.0587
  C  C1540  1  0.537980  0.614410  0.534500  1.0  0.0581
  C  C1541  1  0.530140  0.623700  0.528310  1.0  0.0594
  C  C1542  1  0.635660  0.484320  0.611730  1.0  -0.1103
  C  C1543  1  0.214360  0.178800  0.071840  1.0  0.0134
  C  C1544  1  0.644280  0.473930  0.618900  1.0  -0.0801
  C  C1545  1  0.655440  0.476530  0.627440  1.0  -0.0825
  C  C1546  1  0.657710  0.489880  0.628480  1.0  -0.0808
  C  C1547  1  0.649060  0.500260  0.621290  1.0  -0.1244
  C  C1548  1  0.920150  0.965800  0.108470  1.0  0.023
  C  C1549  1  0.122550  0.817080  0.479140  1.0  0.0131
  C  C1550  1  0.637860  0.497680  0.612840  1.0  0.0182
  C  C1551  1  0.509570  0.632400  0.512430  1.0  -0.1118
  C  C1552  1  0.500980  0.642850  0.505270  1.0  -0.0753
  C  C1553  1  0.503360  0.656140  0.506360  1.0  -0.0815
  C  C1554  1  0.228360  0.178030  0.072510  1.0  -0.111
  C  C1555  1  0.514570  0.658630  0.514900  1.0  -0.0801
  C  C1556  1  0.523130  0.648180  0.522040  1.0  -0.1111
  C  C1557  1  0.520830  0.634870  0.520880  1.0  0.0151
  C  C1558  1  0.076320  0.063070  0.063900  1.0  -0.0772
  C  C1559  1  0.083640  0.071060  0.069610  1.0  -0.0802
  C  C1560  1  0.070890  0.043110  0.047390  1.0  -0.1207
  C  C1561  1  0.367220  0.701120  0.476290  1.0  -0.0758
  C  C1562  1  0.062620  0.034090  0.040950  1.0  -0.1243
  C  C1563  1  0.050420  0.034800  0.043710  1.0  0.0134
  C  C1564  1  0.046990  0.045090  0.053320  1.0  -0.1253
  C  C1565  1  0.233180  0.176040  0.063300  1.0  -0.1216
  C  C1566  1  0.055260  0.054110  0.059770  1.0  -0.1243
  C  C1567  1  0.067460  0.053400  0.057000  1.0  0.0167
  C  C1568  1  0.088950  0.091190  0.086050  1.0  -0.1251
  C  C1569  1  0.097210  0.100200  0.092490  1.0  -0.1229
  C  C1570  1  0.109530  0.099340  0.089800  1.0  0.0171
  C  C1571  1  0.113080  0.088900  0.080260  1.0  -0.1237
  C  C1572  1  0.104820  0.079880  0.073820  1.0  -0.1262
  C  C1573  1  0.379980  0.699280  0.476230  1.0  -0.0787
  C  C1574  1  0.092500  0.080740  0.076510  1.0  0.0162
  C  C1575  1  0.041540  0.025160  0.036790  1.0  0.07
  C  C1576  1  0.831610  0.746310  0.323840  1.0  -0.0394
  C  C1577  1  0.034180  0.017220  0.031050  1.0  0.0123
  C  C1578  1  0.118410  0.108990  0.096720  1.0  0.0275
  C  C1579  1  0.125750  0.116950  0.102450  1.0  0.0303
  C  C1580  1  0.028010  0.992260  0.025840  1.0  -0.0665
  C  C1581  1  0.019630  0.983410  0.019250  1.0  -0.0906
  C  C1582  1  0.007950  0.988610  0.010500  1.0  -0.0958
  C  C1583  1  0.005140  0.004090  0.008740  1.0  -0.0692
  C  C1584  1  0.013530  0.012910  0.015320  1.0  -0.1221
  C  C1585  1  0.079140  0.857770  0.480160  1.0  -0.0773
  C  C1586  1  0.025200  0.007710  0.024050  1.0  -0.0205
  C  C1587  1  0.224210  0.174720  0.053010  1.0  0.0167
  C  C1588  1  0.146320  0.121380  0.118210  1.0  -0.1241
  C  C1589  1  0.154600  0.130290  0.124810  1.0  -0.0868
  C  C1590  1  0.151830  0.144900  0.123070  1.0  -0.0986
  C  C1591  1  0.140200  0.150010  0.114270  1.0  -0.0855
  C  C1592  1  0.131910  0.141080  0.107660  1.0  -0.1178
  C  C1593  1  0.134690  0.126500  0.109440  1.0  0.0229
  C  C1594  1  0.028600  0.006350  0.902020  1.0  -0.0237
  C  C1595  1  0.032790  0.010750  0.896610  1.0  -0.0656
  C  C1596  1  0.017760  0.011390  0.917280  1.0  -0.1318
  C  C1597  1  0.066890  0.869350  0.480440  1.0  -0.0786
  C  C1598  1  0.347600  0.168910  0.971110  1.0  -0.128
  C  C1599  1  0.012970  0.006480  0.923520  1.0  -0.1283
  C  C1600  1  0.014000  0.990400  0.920960  1.0  0.0265
  C  C1601  1  0.019830  0.980170  0.912210  1.0  -0.1438
  C  C1602  1  0.024610  0.985090  0.905970  1.0  -0.1196
  C  C1603  1  0.023580  0.001170  0.908530  1.0  0.0272
  C  C1604  1  0.043280  0.006080  0.881230  1.0  -0.131
  C  C1605  1  0.048030  0.011170  0.875080  1.0  -0.113
  C  C1606  1  0.047330  0.026300  0.877770  1.0  0.0583
  C  C1607  1  0.041820  0.036270  0.886700  1.0  -0.1296
  C  C1608  1  0.037070  0.031180  0.892860  1.0  -0.1286
  C  C1609  1  0.360040  0.170700  0.970520  1.0  -0.1022
  C  C1610  1  0.201030  0.580720  0.473430  1.0  -0.0704
  C  C1611  1  0.037770  0.016060  0.890160  1.0  0.0511
  C  C1612  1  0.009040  0.985280  0.927540  1.0  -0.0253
  C  C1613  1  0.004880  0.981120  0.933130  1.0  -0.0374
  C  C1614  1  0.052260  0.031640  0.871310  1.0  -0.0781
  C  C1615  1  0.056370  0.036110  0.865890  1.0  -0.0702
  C  C1616  1  0.003100  0.959970  0.939060  1.0  -0.077
  C  C1617  1  0.998380  0.955850  0.946470  1.0  -0.0537
  C  C1618  1  0.990900  0.967550  0.954110  1.0  -0.0531
  C  C1619  1  0.987850  0.983140  0.954510  1.0  -0.0767
  C  C1620  1  0.369380  0.175520  0.979670  1.0  0.0208
  C  C1621  1  0.992240  0.987440  0.947630  1.0  -0.1312
  C  C1622  1  0.199390  0.568850  0.473150  1.0  -0.0718
  C  C1623  1  0.999910  0.976400  0.939940  1.0  0.0459
  C  C1624  1  0.067550  0.031180  0.850840  1.0  -0.1224
  C  C1625  1  0.072040  0.036270  0.844530  1.0  -0.0834
  C  C1626  1  0.070290  0.051780  0.846640  1.0  -0.0814
  C  C1627  1  0.064010  0.062020  0.855260  1.0  -0.0796
  C  C1628  1  0.059530  0.056870  0.861550  1.0  -0.1279
  C  C1629  1  0.061230  0.041440  0.859370  1.0  0.0616
  C  C1630  1  0.635620  0.619990  0.735410  1.0  -0.0743
  C  C1631  1  0.449720  0.485760  0.646560  1.0  -0.1174
  C  C1632  1  0.365610  0.178440  0.989450  1.0  -0.1146
  C  C1633  1  0.631990  0.633530  0.740860  1.0  -0.077
  C  C1634  1  0.639840  0.591440  0.731930  1.0  -0.1046
  C  C1635  1  0.397920  0.709720  0.475570  1.0  -0.1358
  C  C1636  1  0.643960  0.576110  0.725740  1.0  -0.1314
  C  C1637  1  0.648450  0.572280  0.716140  1.0  0.0147
  C  C1638  1  0.648620  0.584510  0.713030  1.0  -0.1226
  C  C1639  1  0.644500  0.599840  0.719220  1.0  -0.1073
  C  C1640  1  0.640010  0.603670  0.728820  1.0  0.0068
  C  C1641  1  0.627520  0.662130  0.744190  1.0  -0.1281
  C  C1642  1  0.623410  0.677470  0.750370  1.0  -0.1308
  C  C1643  1  0.353170  0.176660  0.990040  1.0  -0.1282
  C  C1644  1  0.619210  0.681280  0.760080  1.0  0.0131
  C  C1645  1  0.619300  0.669010  0.763330  1.0  -0.1279
  C  C1646  1  0.623410  0.653670  0.757150  1.0  -0.1324
  C  C1647  1  0.412180  0.708030  0.475530  1.0  -0.097
  C  C1648  1  0.627620  0.649870  0.747440  1.0  0.0095
  C  C1649  1  0.652870  0.555970  0.709540  1.0  -0.0743
  C  C1650  1  0.656560  0.542480  0.704010  1.0  -0.0756
  C  C1651  1  0.614840  0.697610  0.766650  1.0  -0.0794
  C  C1652  1  0.611220  0.711170  0.772080  1.0  -0.082
  C  C1653  1  0.668710  0.522110  0.689180  1.0  -0.1354
  C  C1654  1  0.343830  0.171850  0.980890  1.0  0.0208
  C  C1655  1  0.672920  0.507050  0.682670  1.0  -0.0821
  C  C1656  1  0.669770  0.495320  0.683860  1.0  -0.0991
  C  C1657  1  0.662200  0.499480  0.691970  1.0  -0.0784
  C  C1658  1  0.657980  0.514620  0.698490  1.0  -0.1188
  C  C1659  1  0.424800  0.693750  0.476070  1.0  -0.1013
  C  C1660  1  0.661110  0.526290  0.697220  1.0  0.0137
  C  C1661  1  0.608830  0.739130  0.776110  1.0  -0.1293
  C  C1662  1  0.604750  0.754520  0.782190  1.0  -0.0842
  C  C1663  1  0.598500  0.759100  0.791100  1.0  -0.0972
  C  C1664  1  0.596560  0.747450  0.793590  1.0  -0.0868
  C  C1665  1  0.172200  0.125850  0.920830  1.0  -0.1202
  C  C1666  1  0.600650  0.732050  0.787490  1.0  -0.1299
  C  C1667  1  0.606880  0.727530  0.778600  1.0  0.0068
  C  C1668  1  0.130910  0.129850  0.232630  1.0  -0.0704
  C  C1669  1  0.126770  0.125470  0.238090  1.0  -0.0645
  C  C1670  1  0.128000  0.149960  0.223710  1.0  -0.1334
  C  C1671  1  0.905220  0.971700  0.108970  1.0  -0.0995
  C  C1672  1  0.422230  0.681240  0.476650  1.0  -0.0877
  C  C1673  1  0.132730  0.154830  0.217410  1.0  -0.1297
  C  C1674  1  0.145440  0.144810  0.213410  1.0  0.068
  C  C1675  1  0.153340  0.129870  0.215820  1.0  -0.1287
  C  C1676  1  0.161920  0.121690  0.912020  1.0  -0.1171
  C  C1677  1  0.148610  0.125010  0.222120  1.0  -0.0741
  C  C1678  1  0.135900  0.135010  0.226100  1.0  0.0632
  C  C1679  1  0.129220  0.104860  0.246300  1.0  -0.1123
  C  C1680  1  0.124530  0.099810  0.252510  1.0  -0.1274
  C  C1681  1  0.112400  0.110010  0.257110  1.0  0.061
  C  C1682  1  0.105020  0.125340  0.255410  1.0  -0.133
  C  C1683  1  0.109710  0.130400  0.249200  1.0  -0.1124
  C  C1684  1  0.407910  0.682960  0.476690  1.0  -0.1243
  C  C1685  1  0.121840  0.120190  0.244600  1.0  0.0654
  C  C1686  1  0.150310  0.149770  0.206680  1.0  -0.0562
  C  C1687  1  0.162190  0.120530  0.901470  1.0  0.0137
  C  C1688  1  0.154440  0.153680  0.200930  1.0  -0.061
  C  C1689  1  0.107500  0.104710  0.263630  1.0  -0.0031
  C  C1690  1  0.103450  0.100260  0.269090  1.0  -0.0043
  C  C1691  1  0.167160  0.146460  0.186370  1.0  -0.1049
  C  C1692  1  0.171590  0.150360  0.179340  1.0  -0.0735
  C  C1693  1  0.168380  0.165920  0.179690  1.0  -0.0854
  C  C1694  1  0.160800  0.177460  0.187340  1.0  -0.0837
  C  C1695  1  0.156360  0.173490  0.194370  1.0  -0.1224
  C  C1696  1  0.395340  0.697270  0.476160  1.0  0.0161
  C  C1697  1  0.159430  0.157970  0.193870  1.0  0.0558
  C  C1698  1  0.831310  0.733430  0.323230  1.0  -0.0406
  C  C1699  1  0.092330  0.105130  0.284170  1.0  -0.1095
  C  C1700  1  0.087900  0.099990  0.290500  1.0  -0.0791
  C  C1701  1  0.089710  0.084460  0.288390  1.0  -0.0769
  C  C1702  1  0.096000  0.074250  0.279770  1.0  -0.0816
  C  C1703  1  0.100410  0.079450  0.273460  1.0  -0.1119
  C  C1704  1  0.098650  0.094900  0.275630  1.0  0.0632
  C  C1705  1  0.575020  0.570740  0.069810  1.0  -0.0608
  C  C1706  1  0.583410  0.562380  0.063520  1.0  -0.0556
  C  C1707  1  0.565130  0.595120  0.083430  1.0  -0.1019
  C  C1708  1  0.039340  0.882670  0.481310  1.0  -0.1281
  C  C1709  1  0.173200  0.123700  0.900100  1.0  -0.1187
  C  C1710  1  0.555600  0.604600  0.090570  1.0  -0.1232
  C  C1711  1  0.545500  0.600110  0.091930  1.0  0.0125
  C  C1712  1  0.545300  0.585780  0.085890  1.0  -0.1245
  C  C1713  1  0.554820  0.576300  0.078750  1.0  -0.1036
  C  C1714  1  0.564920  0.580790  0.077380  1.0  0.0103
  C  C1715  1  0.593600  0.537800  0.050120  1.0  -0.1111
  C  C1716  1  0.603130  0.528320  0.042980  1.0  -0.1281
  C  C1717  1  0.612940  0.533020  0.041390  1.0  0.0105
  C  C1718  1  0.612840  0.547550  0.047220  1.0  -0.1191
  C  C1719  1  0.603320  0.557030  0.054350  1.0  -0.1231
  C  C1720  1  0.183480  0.127860  0.908900  1.0  -0.1224
  C  C1721  1  0.025620  0.896030  0.481640  1.0  -0.0832
  C  C1722  1  0.593510  0.552330  0.055950  1.0  0.0104
  C  C1723  1  0.535400  0.610140  0.099500  1.0  -0.0672
  C  C1724  1  0.526970  0.618430  0.105780  1.0  -0.074
  C  C1725  1  0.623050  0.522990  0.033830  1.0  -0.047
  C  C1726  1  0.631500  0.514720  0.027560  1.0  -0.0655
  C  C1727  1  0.504020  0.626250  0.112330  1.0  -0.116
  C  C1728  1  0.494490  0.635330  0.119490  1.0  -0.0751
  C  C1729  1  0.497290  0.646890  0.127950  1.0  -0.0979
  C  C1730  1  0.510050  0.649010  0.128880  1.0  -0.0763
  C  C1731  1  0.183200  0.129020  0.919460  1.0  0.0134
  C  C1732  1  0.519580  0.639900  0.121690  1.0  -0.1102
  C  C1733  1  0.024020  0.910940  0.481440  1.0  -0.0795
  C  C1734  1  0.516780  0.628300  0.113300  1.0  0.0063
  C  C1735  1  0.654390  0.507090  0.021020  1.0  -0.1159
  C  C1736  1  0.663960  0.498060  0.013880  1.0  -0.0762
  C  C1737  1  0.661290  0.486390  0.005460  1.0  -0.0978
  C  C1738  1  0.648630  0.484110  0.004550  1.0  -0.0746
  C  C1739  1  0.639050  0.493180  0.011710  1.0  -0.1078
  C  C1740  1  0.641720  0.504880  0.020060  1.0  0.0009
  C  C1741  1  0.651630  0.617330  0.243200  1.0  -0.0796
  C  C1742  1  0.811490  0.828640  0.295810  1.0  -0.1214
  C  C1743  1  0.209240  0.180910  0.081630  1.0  -0.0791
  C  C1744  1  0.638500  0.621530  0.237590  1.0  -0.0784
  C  C1745  1  0.671790  0.606310  0.259370  1.0  -0.1214
  C  C1746  1  0.036910  0.911680  0.480900  1.0  -0.0826
  C  C1747  1  0.686600  0.601580  0.265690  1.0  -0.1274
  C  C1748  1  0.698130  0.602470  0.263050  1.0  0.0152
  C  C1749  1  0.693870  0.608410  0.253670  1.0  -0.125
  C  C1750  1  0.679070  0.613140  0.247350  1.0  -0.12
  C  C1751  1  0.667540  0.612250  0.249990  1.0  0.0131
  C  C1752  1  0.618410  0.632310  0.221320  1.0  -0.1408
  C  C1753  1  0.603600  0.637050  0.215000  1.0  -0.127
  C  C1754  1  0.205030  0.182630  0.089770  1.0  -0.0817
  C  C1755  1  0.592000  0.636410  0.217720  1.0  0.0141
  C  C1756  1  0.596190  0.630720  0.227200  1.0  -0.1334
  C  C1757  1  0.610990  0.625980  0.233530  1.0  -0.1311
  C  C1758  1  0.050570  0.898360  0.480580  1.0  -0.1282
  C  C1759  1  0.622590  0.626620  0.230800  1.0  0.0058
  C  C1760  1  0.714040  0.597390  0.269840  1.0  -0.0872
  C  C1761  1  0.727180  0.593190  0.275430  1.0  -0.0906
  C  C1762  1  0.576100  0.641520  0.210920  1.0  -0.0784
  C  C1763  1  0.563000  0.645760  0.205270  1.0  -0.0896
  C  C1764  1  0.754350  0.589950  0.279890  1.0  -0.1295
  C  C1765  1  0.151340  0.116040  0.892080  1.0  -0.0627
  C  C1766  1  0.769180  0.585230  0.286160  1.0  -0.0884
  C  C1767  1  0.773780  0.578360  0.295180  1.0  -0.0965
  C  C1768  1  0.762500  0.576540  0.297490  1.0  -0.0826
  C  C1769  1  0.747660  0.581270  0.291200  1.0  -0.1395
  C  C1770  1  0.052180  0.883490  0.480780  1.0  0.0191
  C  C1771  1  0.743100  0.588130  0.282200  1.0  0.0119
  C  C1772  1  0.535890  0.648120  0.199680  1.0  -0.1149
  C  C1773  1  0.521220  0.652940  0.193100  1.0  -0.0826
  C  C1774  1  0.516900  0.660960  0.184720  1.0  -0.0997
  C  C1775  1  0.528250  0.663810  0.183420  1.0  -0.0824
  C  C1776  1  0.142460  0.112230  0.884210  1.0  -0.0564
  C  C1777  1  0.542850  0.659010  0.189990  1.0  -0.1296
  C  C1778  1  0.547190  0.650980  0.198320  1.0  0.0114
  C  C1779  1  0.628200  0.137010  0.246360  1.0  -0.0717
  C  C1780  1  0.632220  0.123680  0.240760  1.0  -0.0761
  C  C1781  1  0.613370  0.158020  0.259620  1.0  -0.1083
  C  C1782  1  0.209550  0.539680  0.471930  1.0  -0.1217
  C  C1783  1  0.608810  0.173150  0.265980  1.0  -0.1209
  C  C1784  1  0.614060  0.183920  0.266070  1.0  0.0083
  C  C1785  1  0.624050  0.178960  0.259550  1.0  -0.1161
  C  C1786  1  0.628610  0.163840  0.253190  1.0  -0.1091
  C  C1787  1  0.382660  0.177420  0.979040  1.0  -0.0775
  C  C1788  1  0.623360  0.153060  0.253100  1.0  0.0048
  C  C1789  1  0.645040  0.103470  0.226220  1.0  -0.1288
  C  C1790  1  0.649560  0.088350  0.219850  1.0  -0.1211
  C  C1791  1  0.646260  0.076780  0.221030  1.0  0.0059
  C  C1792  1  0.638270  0.080940  0.228820  1.0  -0.1301
  C  C1793  1  0.633750  0.096060  0.235190  1.0  -0.1205
  C  C1794  1  0.901040  0.973720  0.118500  1.0  -0.1017
  C  C1795  1  0.208180  0.526010  0.471710  1.0  -0.0786
  C  C1796  1  0.637050  0.107630  0.234020  1.0  0.005
  C  C1797  1  0.609220  0.199960  0.272820  1.0  0.0447
  C  C1798  1  0.393660  0.178990  0.978500  1.0  -0.0942
  C  C1799  1  0.605220  0.213290  0.278430  1.0  0.0461
  C  C1800  1  0.650920  0.060780  0.214200  1.0  0.0514
  C  C1801  1  0.654640  0.047520  0.208480  1.0  0.0587
  C  C1802  1  0.610230  0.233680  0.294110  1.0  -0.1077
  C  C1803  1  0.605790  0.248830  0.300450  1.0  -0.0662
  C  C1804  1  0.591320  0.260300  0.298120  1.0  -0.1008
  C  C1805  1  0.581500  0.255890  0.289180  1.0  -0.0889
  C  C1806  1  0.585980  0.240730  0.282850  1.0  -0.1194
  C  C1807  1  0.194870  0.526340  0.472330  1.0  -0.102
  C  C1808  1  0.600440  0.229340  0.285180  1.0  0.0092
  C  C1809  1  0.209660  0.184450  0.109720  1.0  0.153
  C  C1810  1  0.648100  0.027630  0.193300  1.0  -0.1115
  C  C1811  1  0.651810  0.012810  0.186560  1.0  -0.0921
  C  C1812  1  0.666410  0.001310  0.187660  1.0  -0.1027
  C  C1813  1  0.677170  0.005330  0.195880  1.0  -0.0785
  C  C1814  1  0.673420  0.020220  0.202630  1.0  -0.1214
  C  C1815  1  0.658800  0.031660  0.201450  1.0  0.0116
  C  C1816  1  0.526900  0.499520  0.392760  1.0  -0.0742
  C  C1817  1  0.523270  0.513060  0.398220  1.0  -0.0754
  C  C1818  1  0.546070  0.472130  0.387450  1.0  -0.1091
  C  C1819  1  0.182940  0.541090  0.473160  1.0  -0.073
  C  C1820  1  0.872650  0.862710  0.372810  1.0  -0.0657
  C  C1821  1  0.550170  0.456800  0.381270  1.0  -0.1246
  C  C1822  1  0.539680  0.451780  0.373510  1.0  0.0139
  C  C1823  1  0.524890  0.462840  0.372230  1.0  -0.1287
  C  C1824  1  0.520780  0.478170  0.378420  1.0  -0.1272
  C  C1825  1  0.531270  0.483190  0.386170  1.0  0.0503
  C  C1826  1  0.504110  0.540490  0.403460  1.0  -0.1179
  C  C1827  1  0.499990  0.555820  0.409650  1.0  -0.134
  C  C1828  1  0.510450  0.560790  0.417480  1.0  0.0124
  C  C1829  1  0.525230  0.549710  0.418830  1.0  -0.1158
  C  C1830  1  0.529350  0.534380  0.412640  1.0  -0.0633
  C  C1831  1  0.205200  0.185890  0.118960  1.0  -0.0857
  C  C1832  1  0.184350  0.554810  0.473390  1.0  -0.102
  C  C1833  1  0.518890  0.529400  0.404800  1.0  0.0178
  C  C1834  1  0.544050  0.435440  0.366930  1.0  0.0387
  C  C1835  1  0.547660  0.421890  0.361490  1.0  0.0381
  C  C1836  1  0.506040  0.577090  0.424120  1.0  0.042
  C  C1837  1  0.502340  0.590570  0.429680  1.0  0.0505
  C  C1838  1  0.550070  0.393890  0.357400  1.0  -0.117
  C  C1839  1  0.554170  0.378520  0.351290  1.0  -0.0876
  C  C1840  1  0.560420  0.373990  0.342390  1.0  -0.0923
  C  C1841  1  0.562340  0.385680  0.339930  1.0  -0.0824
  C  C1842  1  0.190900  0.187640  0.118540  1.0  -0.0934
  C  C1843  1  0.558240  0.401060  0.346060  1.0  -0.1142
  C  C1844  1  0.197700  0.554380  0.472810  1.0  0.0105
  C  C1845  1  0.552010  0.405530  0.354940  1.0  0.015
  C  C1846  1  0.500940  0.618440  0.435260  1.0  -0.1166
  C  C1847  1  0.496720  0.633560  0.441810  1.0  -0.0776
  C  C1848  1  0.489120  0.637690  0.449890  1.0  -0.0987
  C  C1849  1  0.485950  0.625940  0.451030  1.0  -0.0943
  C  C1850  1  0.490160  0.610900  0.444500  1.0  -0.1136
  C  C1851  1  0.497790  0.606750  0.436490  1.0  0.02
  C  C1852  1  0.006380  0.516570  0.390680  1.0  -0.08
  C  C1853  1  0.464790  0.482920  0.647550  1.0  -0.0775
  C  C1854  1  0.181240  0.187990  0.108410  1.0  -0.077
  C  C1855  1  0.019500  0.513660  0.396130  1.0  -0.0841
  C  C1856  1  0.984430  0.508840  0.380270  1.0  -0.1201
  C  C1857  1  0.996490  0.898420  0.645440  1.0  -0.0574
  C  C1858  1  0.969630  0.512130  0.374130  1.0  -0.1264
  C  C1859  1  0.959950  0.526890  0.371410  1.0  0.0095
  C  C1860  1  0.966010  0.538150  0.375220  1.0  -0.1315
  C  C1861  1  0.980810  0.534860  0.381370  1.0  -0.115
  C  C1862  1  0.990500  0.520090  0.384090  1.0  0.0044
  C  C1863  1  0.041780  0.521050  0.405890  1.0  -0.1347
  C  C1864  1  0.056580  0.517770  0.412030  1.0  -0.1236
  C  C1865  1  0.185730  0.186540  0.099170  1.0  -0.0337
  C  C1866  1  0.065920  0.503380  0.415400  1.0  0.0037
  C  C1867  1  0.059520  0.492470  0.412240  1.0  -0.1223
  C  C1868  1  0.044720  0.495740  0.406090  1.0  -0.1306
  C  C1869  1  0.994340  0.885630  0.646130  1.0  -0.0532
  C  C1870  1  0.035380  0.510140  0.402720  1.0  0.006
  C  C1871  1  0.944050  0.530450  0.364830  1.0  -0.0224
  C  C1872  1  0.930910  0.533440  0.359420  1.0  -0.0225
  C  C1873  1  0.081800  0.499880  0.422010  1.0  -0.0222
  C  C1874  1  0.094890  0.497020  0.427480  1.0  -0.0629
  C  C1875  1  0.903240  0.551790  0.355070  1.0  -0.1254
  C  C1876  1  0.200070  0.184620  0.099610  1.0  0.0283
  C  C1877  1  0.888370  0.555410  0.349050  1.0  -0.0915
  C  C1878  1  0.884190  0.544670  0.340450  1.0  -0.0957
  C  C1879  1  0.895940  0.530020  0.338290  1.0  -0.0897
  C  C1880  1  0.910840  0.526410  0.344330  1.0  -0.1266
  C  C1881  1  0.996270  0.882050  0.656050  1.0  -0.081
  C  C1882  1  0.914960  0.537190  0.352910  1.0  0.0067
  C  C1883  1  0.122510  0.478760  0.432980  1.0  -0.1284
  C  C1884  1  0.137220  0.475620  0.439300  1.0  -0.0813
  C  C1885  1  0.141100  0.487210  0.447170  1.0  -0.1012
  C  C1886  1  0.129280  0.502120  0.448280  1.0  -0.0914
  C  C1887  1  0.136260  0.100500  0.864730  1.0  -0.1006
  C  C1888  1  0.114600  0.505220  0.441970  1.0  -0.1268
  C  C1889  1  0.110730  0.493650  0.434140  1.0  0.019
  C  C1890  1  0.000960  0.892330  0.666060  1.0  -0.0423
  C  C1891  1  0.003260  0.905270  0.665770  1.0  -0.0196
  C  C1892  1  0.911620  0.970010  0.128000  1.0  -0.0135
  C  C1893  1  0.000960  0.908340  0.655630  1.0  -0.0811
  C  C1894  1  0.001700  0.859460  0.665510  1.0  -0.037
  C  C1895  1  0.999270  0.845670  0.665410  1.0  -0.0701
  C  C1896  1  0.989520  0.840560  0.656900  1.0  -0.02
  C  C1897  1  0.982170  0.849010  0.648520  1.0  -0.0278
  C  C1898  1  0.126870  0.095650  0.855590  1.0  -0.0842
  C  C1899  1  0.984240  0.862130  0.648280  1.0  -0.1197
  C  C1900  1  0.993920  0.867970  0.656470  1.0  -0.0524
  C  C1901  1  0.002990  0.909790  0.633430  1.0  -0.1249
  C  C1902  1  0.000970  0.913290  0.623550  1.0  0.0097
  C  C1903  1  0.990320  0.909400  0.614070  1.0  -0.0393
  C  C1904  1  0.939410  0.978400  0.168990  1.0  -0.1101
  C  C1905  1  0.982510  0.902070  0.615460  1.0  -0.0377
  C  C1906  1  0.984530  0.898490  0.625400  1.0  -0.1238
  C  C1907  1  0.994520  0.902040  0.634660  1.0  -0.0292
  C  C1908  1  0.016760  0.923270  0.676210  1.0  -0.1183
  C  C1909  1  0.112750  0.097520  0.855790  1.0  -0.0719
  C  C1910  1  0.020820  0.933340  0.685440  1.0  -0.0475
  C  C1911  1  0.016310  0.936510  0.694880  1.0  -0.0248
  C  C1912  1  0.007650  0.929060  0.694760  1.0  -0.0943
  C  C1913  1  0.003590  0.918930  0.685530  1.0  -0.1256
  C  C1914  1  0.007960  0.915850  0.675970  1.0  0.0162
  C  C1915  1  0.988020  0.913150  0.603540  1.0  -0.0165
  C  C1916  1  0.949240  0.982760  0.178040  1.0  -0.0383
  C  C1917  1  0.986180  0.916330  0.594820  1.0  -0.0196
  C  C1918  1  0.987010  0.826690  0.656740  1.0  -0.0517
  C  C1919  1  0.984950  0.815160  0.656620  1.0  -0.0612
  C  C1920  1  0.108480  0.104620  0.865630  1.0  -0.0853
  C  C1921  1  0.020570  0.947360  0.704600  1.0  -0.028
  C  C1922  1  0.024160  0.956420  0.712610  1.0  -0.0275
  C  C1923  1  0.978440  0.912210  0.574670  1.0  -0.1111
  C  C1924  1  0.976420  0.915900  0.564810  1.0  -0.1178
  C  C1925  1  0.979900  0.927720  0.564300  1.0  0.019
  C  C1926  1  0.985480  0.935710  0.574000  1.0  -0.1229
  C  C1927  1  0.987500  0.932030  0.583860  1.0  -0.1114
  C  C1928  1  0.944360  0.993060  0.187160  1.0  0.1214
  C  C1929  1  0.984020  0.920210  0.584370  1.0  0.0102
  C  C1930  1  0.030120  0.965940  0.732630  1.0  -0.1183
  C  C1931  1  0.117970  0.109480  0.874820  1.0  -0.1311
  C  C1932  1  0.034260  0.976230  0.741670  1.0  -0.1257
  C  C1933  1  0.036950  0.988350  0.740680  1.0  -0.0056
  C  C1934  1  0.035340  0.989760  0.730270  1.0  -0.1315
  C  C1935  1  0.031200  0.979470  0.721230  1.0  -0.1187
  C  C1936  1  0.028510  0.967350  0.722220  1.0  0.0066
  C  C1937  1  0.976890  0.792930  0.646980  1.0  -0.118
  C  C1938  1  0.974570  0.779850  0.646870  1.0  -0.1105
  C  C1939  1  0.977750  0.774570  0.656290  1.0  0.0141
  C  C1940  1  0.929210  0.998670  0.186880  1.0  -0.034
  C  C1941  1  0.983350  0.782920  0.665800  1.0  -0.1104
  C  C1942  1  0.879590  0.869440  0.380730  1.0  -0.0475
  C  C1943  1  0.985660  0.795990  0.665910  1.0  -0.1261
  C  C1944  1  0.982480  0.801270  0.656500  1.0  0.0119
  C  C1945  1  0.977740  0.931680  0.553880  1.0  -0.0029
  C  C1946  1  0.975970  0.935080  0.545260  1.0  -0.0374
  C  C1947  1  0.975310  0.760690  0.656200  1.0  -0.066
  C  C1948  1  0.973320  0.749170  0.656210  1.0  -0.0769
  C  C1949  1  0.041400  0.999210  0.750300  1.0  0.0411
  C  C1950  1  0.045870  0.009750  0.759800  1.0  0.051
  C  C1951  1  0.969930  0.954850  0.534460  1.0  -0.1139
  C  C1952  1  0.919320  0.994290  0.177810  1.0  -0.1097
  C  C1953  1  0.132100  0.107450  0.874550  1.0  0.0121
  C  C1954  1  0.968320  0.959020  0.524900  1.0  -0.0637
  C  C1955  1  0.970550  0.947910  0.515440  1.0  -0.0951
  C  C1956  1  0.974340  0.932450  0.515940  1.0  -0.0796
  C  C1957  1  0.975950  0.928300  0.525540  1.0  -0.1014
  C  C1958  1  0.973870  0.939410  0.534990  1.0  0.0103
  C  C1959  1  0.973080  0.731300  0.666060  1.0  -0.1236
  C  C1960  1  0.971160  0.718200  0.666350  1.0  -0.0842
  C  C1961  1  0.967030  0.708480  0.656980  1.0  -0.0995
  C  C1962  1  0.964870  0.712570  0.647290  1.0  -0.077
  C  C1963  1  0.966820  0.725720  0.647020  1.0  -0.0455
  C  C1964  1  0.473170  0.472450  0.639890  1.0  -0.0081
  C  C1965  1  0.416540  0.185290  0.986940  1.0  0.1028
  C  C1966  1  0.996750  0.984110  0.503010  1.0  0.3759
  C  C1967  1  0.924150  0.984140  0.168560  1.0  -0.014
  C  C1968  1  0.971020  0.735330  0.656400  1.0  0.0059
  C  C1969  1  0.047020  0.035850  0.769790  1.0  -0.1086
  C  C1970  1  0.051760  0.045490  0.779060  1.0  -0.0772
  C  C1971  1  0.060310  0.039810  0.788540  1.0  -0.1051
  C  C1972  1  0.063800  0.024130  0.788300  1.0  -0.0748
  C  C1973  1  0.059050  0.014560  0.779060  1.0  -0.1173
  C  C1974  1  0.050620  0.020180  0.769600  1.0  -0.0009
  C  C1975  1  0.987030  0.636050  0.638010  1.0  0.5163
  C  C1976  1  0.429030  0.186940  0.986290  1.0  -0.0753
  C  C1977  1  0.964560  0.621360  0.660890  1.0  0.4896
  C  C1978  1  0.002320  0.648920  0.679150  1.0  0.3065
  C  C1979  1  0.924790  0.963800  0.098490  1.0  -0.0549
  C  C1980  1  0.944960  0.679630  0.681230  1.0  0.4406
  C  C1981  1  0.965720  0.693890  0.657510  1.0  0.4971
  C  C1982  1  0.930630  0.663800  0.638350  1.0  0.4705
  C  C1983  1  0.446410  0.185610  0.975700  1.0  0.4922
  C  C1984  1  0.488160  0.149850  0.954160  1.0  0.5318
  C  C1985  1  0.458510  0.208990  0.951880  1.0  0.4436
  C  C1986  1  0.514520  0.188080  0.972150  1.0  0.5169
  C  C1987  1  0.432590  0.184260  0.976450  1.0  -0.1011
  C  C1988  1  0.474760  0.222890  0.994410  1.0  0.4966
  C  C1989  1  0.501830  0.163790  0.995120  1.0  0.5571
  C  C1990  1  0.761780  0.213680  0.493120  1.0  -0.0528
  C  C1991  1  0.928910  0.962080  0.090310  1.0  -0.0366
  C  C1992  1  0.751570  0.218350  0.483470  1.0  -0.0257
  C  C1993  1  0.738900  0.232890  0.483310  1.0  -0.026
  C  C1994  1  0.736610  0.243010  0.493260  1.0  -0.0522
  C  C1995  1  0.746170  0.239250  0.503210  1.0  -0.0636
  C  C1996  1  0.758790  0.224520  0.502900  1.0  -0.0267
  C  C1997  1  0.712700  0.247580  0.472360  1.0  -0.1165
  C  C1998  1  0.422920  0.179870  0.967330  1.0  -0.0807
  C  C1999  1  0.702560  0.252340  0.462820  1.0  -0.0372
  C  C2000  1  0.706920  0.247580  0.453080  1.0  0.0233
  C  C2001  1  0.721980  0.237710  0.453370  1.0  -0.098
  C  C2002  1  0.732160  0.232900  0.462910  1.0  -0.1108
  C  C2003  1  0.838470  0.966690  0.151580  1.0  -0.0388
  C  C2004  1  0.727860  0.237760  0.472750  1.0  0.0088
  C  C2005  1  0.788750  0.194410  0.500790  1.0  -0.121
  C  C2006  1  0.801200  0.179630  0.500340  1.0  -0.0437
  C  C2007  1  0.801210  0.166810  0.491960  1.0  -0.0036
  C  C2008  1  0.787960  0.169690  0.484080  1.0  -0.0932
  C  C2009  1  0.410450  0.178230  0.967990  1.0  -0.1278
  C  C2010  1  0.775530  0.184420  0.484490  1.0  -0.1216
  C  C2011  1  0.775450  0.197400  0.492840  1.0  -0.0004
  C  C2012  1  0.753540  0.252520  0.523050  1.0  -0.1062
  C  C2013  1  0.750000  0.263840  0.532460  1.0  -0.0315
  C  C2014  1  0.735320  0.274300  0.533230  1.0  0.1403
  C  C2015  1  0.827480  0.965140  0.152130  1.0  -0.0377
  C  C2016  1  0.724390  0.272680  0.524100  1.0  -0.0345
  C  C2017  1  0.727880  0.261450  0.514710  1.0  -0.1224
  C  C2018  1  0.742580  0.251050  0.513790  1.0  -0.0178
  C  C2019  1  0.814520  0.150950  0.491410  1.0  -0.0596
  C  C2020  1  0.406930  0.180860  0.977810  1.0  0.0143
  C  C2021  1  0.825460  0.137820  0.490880  1.0  -0.048
  C  C2022  1  0.696010  0.252810  0.442940  1.0  -0.0582
  C  C2023  1  0.686890  0.257220  0.434590  1.0  -0.0731
  C  C2024  1  0.731360  0.286550  0.543190  1.0  -0.0747
  C  C2025  1  0.727860  0.296770  0.551340  1.0  -0.0769
  C  C2026  1  0.840520  0.111080  0.480510  1.0  -0.1279
  C  C2027  1  0.954960  0.997760  0.196660  1.0  0.0744
  C  C2028  1  0.852820  0.096230  0.479860  1.0  -0.1242
  C  C2029  1  0.864050  0.091230  0.488860  1.0  0.0073
  C  C2030  1  0.862200  0.102030  0.498550  1.0  -0.1227
  C  C2031  1  0.547280  0.816640  0.813560  1.0  0.4876
  C  C2032  1  0.849900  0.116890  0.499190  1.0  -0.1295
  C  C2033  1  0.838670  0.121880  0.490190  1.0  0.0079
  C  C2034  1  0.709190  0.321300  0.560830  1.0  -0.1232
  C  C2035  1  0.705080  0.332900  0.569970  1.0  -0.1325
  C  C2036  1  0.715040  0.333090  0.579970  1.0  0.0098
  C  C2037  1  0.729350  0.320990  0.580290  1.0  -0.1312
  C  C2038  1  0.733470  0.309370  0.571140  1.0  -0.1253
  C  C2039  1  0.965680  0.002160  0.205820  1.0  0.0423
  C  C2040  1  0.723500  0.309190  0.561140  1.0  0.0033
  C  C2041  1  0.678390  0.254570  0.414280  1.0  -0.1284
  C  C2042  1  0.564240  0.831070  0.787870  1.0  0.4682
  C  C2043  1  0.668030  0.259580  0.404860  1.0  -0.1186
  C  C2044  1  0.654570  0.272860  0.405190  1.0  0.0152
  C  C2045  1  0.652010  0.280870  0.415450  1.0  -0.1291
  C  C2046  1  0.662380  0.275850  0.424870  1.0  -0.1076
  C  C2047  1  0.675840  0.262570  0.424530  1.0  0.0159
  C  C2048  1  0.877240  0.075280  0.488170  1.0  -0.082
  C  C2049  1  0.888140  0.062120  0.487600  1.0  -0.0901
  C  C2050  1  0.643550  0.278190  0.395120  1.0  -0.0784
  C  C2051  1  0.925070  0.958770  0.070240  1.0  -0.1147
  C  C2052  1  0.634550  0.282480  0.386700  1.0  -0.0779
  C  C2053  1  0.572350  0.856370  0.828540  1.0  0.5218
  C  C2054  1  0.710620  0.345520  0.589760  1.0  -0.0926
  C  C2055  1  0.706950  0.355820  0.597840  1.0  -0.0874
  C  C2056  1  0.911710  0.040530  0.496050  1.0  -0.1197
  C  C2057  1  0.924070  0.025720  0.495430  1.0  -0.0864
  C  C2058  1  0.926880  0.015580  0.485630  1.0  -0.1037
  C  C2059  1  0.916470  0.021250  0.476490  1.0  -0.0852
  C  C2060  1  0.904110  0.036060  0.477130  1.0  -0.1156
  C  C2061  1  0.901350  0.046180  0.486920  1.0  0.0029
  C  C2062  1  0.609580  0.299330  0.375940  1.0  0.0231
  C  C2063  1  0.929960  0.956750  0.061050  1.0  -0.1186
  C  C2064  1  0.762980  0.862810  0.249590  1.0  -0.1193
  C  C2065  1  0.599950  0.303930  0.366160  1.0  -0.086
  C  C2066  1  0.604300  0.296760  0.356320  1.0  -0.079
  C  C2067  1  0.618700  0.284750  0.356840  1.0  -0.0888
  C  C2068  1  0.628230  0.280190  0.366570  1.0  -0.1283
  C  C2069  1  0.624000  0.287380  0.376380  1.0  0.0233
  C  C2070  1  0.712460  0.368830  0.617550  1.0  -0.1253
  C  C2071  1  0.708350  0.380680  0.626600  1.0  -0.0773
  C  C2072  1  0.693970  0.392720  0.626240  1.0  -0.1001
  C  C2073  1  0.683970  0.392120  0.616260  1.0  -0.083
  C  C2074  1  0.688100  0.380270  0.607230  1.0  -0.1189
  C  C2075  1  0.465180  0.465170  0.631050  1.0  -0.1142
  C  C2076  1  0.618760  0.815850  0.812800  1.0  0.4217
  C  C2077  1  0.944030  0.955830  0.061760  1.0  0.02
  C  C2078  1  0.702480  0.368320  0.607590  1.0  0.0259
  C  C2079  1  0.434840  0.931140  0.156920  1.0  -0.0018
  C  C2080  1  0.447440  0.933260  0.157260  1.0  -0.0736
  C  C2081  1  0.446850  0.947860  0.157240  1.0  -0.0143
  C  C2082  1  0.432830  0.960940  0.157090  1.0  -0.0767
  C  C2083  1  0.419650  0.959570  0.156750  1.0  -0.0322
  C  C2084  1  0.421090  0.944450  0.156720  1.0  -0.054
  C  C2085  1  0.464320  0.962190  0.162580  1.0  -0.1162
  C  C2086  1  0.477970  0.962520  0.163070  1.0  -0.0339
  C  C2087  1  0.599690  0.801290  0.838330  1.0  0.5051
  C  C2088  1  0.489140  0.949690  0.158330  1.0  0.063
  C  C2089  1  0.970090  0.952430  0.505460  1.0  0.5103
  C  C2090  1  0.953000  0.957030  0.072060  1.0  -0.1112
  C  C2091  1  0.485940  0.936630  0.152980  1.0  -0.0382
  C  C2092  1  0.472390  0.936250  0.152500  1.0  -0.1125
  C  C2093  1  0.461210  0.948940  0.157380  1.0  -0.0173
  C  C2094  1  0.427850  0.912340  0.161700  1.0  -0.1149
  C  C2095  1  0.429840  0.897150  0.161820  1.0  -0.1035
  C  C2096  1  0.440390  0.883650  0.157010  1.0  -0.0053
  C  C2097  1  0.448770  0.886000  0.152000  1.0  -0.101
  C  C2098  1  0.593980  0.775880  0.797630  1.0  0.4916
  C  C2099  1  0.446840  0.901120  0.151880  1.0  -0.1206
  C  C2100  1  0.436400  0.914750  0.156790  1.0  -0.0123
  C  C2101  1  0.390760  0.972100  0.151400  1.0  -0.1152
  C  C2102  1  0.948120  0.959050  0.081250  1.0  -0.1229
  C  C2103  1  0.376580  0.984840  0.151000  1.0  -0.0633
  C  C2104  1  0.374650  0.001260  0.155770  1.0  0.0338
  C  C2105  1  0.388000  0.003090  0.160600  1.0  -0.0264
  C  C2106  1  0.402840  0.989330  0.160850  1.0  -0.0738
  C  C2107  1  0.404280  0.973830  0.156320  1.0  -0.0242
  C  C2108  1  0.442700  0.867470  0.157180  1.0  -0.0266
  C  C2109  1  0.074730  0.057340  0.839710  1.0  0.5719
  C  C2110  1  0.444780  0.853970  0.157260  1.0  -0.0297
  C  C2111  1  0.503800  0.949740  0.158910  1.0  -0.0581
  C  C2112  1  0.516040  0.949490  0.159300  1.0  -0.0447
  C  C2113  1  0.359510  0.014900  0.155420  1.0  -0.0637
  C  C2114  1  0.934050  0.959960  0.080540  1.0  0.0126
  C  C2115  1  0.346970  0.026170  0.155120  1.0  -0.0799
  C  C2116  1  0.461130  0.825020  0.156620  1.0  -0.1239
  C  C2117  1  0.463570  0.809660  0.156670  1.0  -0.1133
  C  C2118  1  0.452350  0.806250  0.157420  1.0  0.0126
  C  C2119  1  0.438590  0.818880  0.158130  1.0  -0.1079
  C  C2120  1  0.119810  0.036080  0.821880  1.0  0.5036
  C  C2121  1  0.436150  0.834240  0.158090  1.0  -0.1294
  C  C2122  1  0.447370  0.837650  0.157330  1.0  0.0118
  C  C2123  1  0.330000  0.055400  0.156840  1.0  -0.1225
  C  C2124  1  0.315820  0.068130  0.156490  1.0  -0.1271
  C  C2125  1  0.302660  0.065960  0.154050  1.0  0.013
  C  C2126  1  0.973060  0.015790  0.224780  1.0  -0.1083
  C  C2127  1  0.304470  0.050350  0.151970  1.0  -0.123
  C  C2128  1  0.318650  0.037610  0.152320  1.0  -0.1337
  C  C2129  1  0.331810  0.039780  0.154760  1.0  0.0101
  C  C2130  1  0.543050  0.934850  0.157680  1.0  -0.1196
  C  C2131  1  0.066280  0.049630  0.798540  1.0  0.5224
  C  C2132  1  0.556970  0.934360  0.158060  1.0  -0.1159
  C  C2133  1  0.559400  0.948000  0.160510  1.0  0.0043
  C  C2134  1  0.547230  0.962160  0.162560  1.0  -0.1114
  C  C2135  1  0.533300  0.962650  0.162180  1.0  -0.1225
  C  C2136  1  0.530870  0.949010  0.159730  1.0  0.016
  C  C2137  1  0.454900  0.789940  0.157460  1.0  -0.0693
  C  C2138  1  0.983290  0.020090  0.233640  1.0  -0.137
  C  C2139  1  0.456870  0.776450  0.157490  1.0  -0.0649
  C  C2140  1  0.574220  0.947500  0.160890  1.0  -0.0775
  C  C2141  1  0.586470  0.947170  0.161200  1.0  -0.0741
  C  C2142  1  0.092610  0.085720  0.804610  1.0  0.5726
  C  C2143  1  0.287510  0.079580  0.153680  1.0  -0.0913
  C  C2144  1  0.274990  0.090890  0.153370  1.0  -0.0851
  C  C2145  1  0.447110  0.757550  0.157840  1.0  -0.1231
  C  C2146  1  0.448790  0.742490  0.157850  1.0  -0.0892
  C  C2147  1  0.462400  0.729400  0.157560  1.0  -0.1061
  C  C2148  1  0.474290  0.732160  0.157270  1.0  -0.0666
  C  C2149  1  0.472560  0.747300  0.157260  1.0  -0.0054
  C  C2150  1  0.998140  0.015370  0.233420  1.0  -0.01
  C  C2151  1  0.458920  0.760310  0.157530  1.0  0.016
  C  C2152  1  0.614420  0.933430  0.162150  1.0  -0.1326
  C  C2153  1  0.048300  0.106480  0.822480  1.0  0.4372
  C  C2154  1  0.628130  0.933380  0.162390  1.0  -0.079
  C  C2155  1  0.629210  0.946910  0.162060  1.0  -0.108
  C  C2156  1  0.615880  0.960440  0.161490  1.0  -0.0784
  C  C2157  1  0.602230  0.960470  0.161240  1.0  -0.126
  C  C2158  1  0.601140  0.946990  0.161550  1.0  0.0086
  C  C2159  1  0.247080  0.103290  0.152950  1.0  -0.1381
  C  C2160  1  0.232990  0.116220  0.152580  1.0  -0.0829
  C  C2161  1  0.230970  0.131240  0.152240  1.0  -0.1035
  C  C2162  1  0.002530  0.005570  0.223320  1.0  -0.0171
  C  C2163  1  0.243860  0.132530  0.152290  1.0  -0.0915
  C  C2164  1  0.103380  0.091100  0.845800  1.0  0.5047
  C  C2165  1  0.257900  0.119620  0.152660  1.0  -0.1313
  C  C2166  1  0.259920  0.104640  0.152990  1.0  0.0129
  C  C2167  1  0.188660  0.181070  0.628170  1.0  0.4959
  C  C2168  1  0.206410  0.191630  0.670440  1.0  0.4238
  C  C2169  1  0.149850  0.207280  0.651730  1.0  0.5128
  C  C2170  1  0.178700  0.160560  0.671780  1.0  0.5815
  C  C2171  1  0.162200  0.149360  0.630830  1.0  0.5664
  C  C2172  1  0.218380  0.134010  0.648630  1.0  0.4834
  C  C2173  1  0.664930  0.722010  0.993480  1.0  -0.0768
  C  C2174  1  0.991470  0.001300  0.214190  1.0  -0.0882
  C  C2175  1  0.346410  0.830870  0.816600  1.0  -0.0463
  C  C2176  1  0.660720  0.727560  0.983870  1.0  -0.0678
  C  C2177  1  0.658380  0.742810  0.983530  1.0  -0.0461
  C  C2178  1  0.660030  0.753310  0.993370  1.0  -0.0489
  C  C2179  1  0.664130  0.748970  0.004110  1.0  -0.0879
  C  C2180  1  0.666490  0.733390  0.003870  1.0  -0.0145
  C  C2181  1  0.645030  0.763070  0.971050  1.0  -0.1203
  C  C2182  1  0.641000  0.767300  0.960980  1.0  -0.0502
  C  C2183  1  0.645950  0.756390  0.952020  1.0  -0.0073
  C  C2184  1  0.655180  0.741060  0.953600  1.0  -0.0297
  C  C2185  1  0.659190  0.736790  0.963640  1.0  -0.1166
  C  C2186  1  0.450010  0.468030  0.630020  1.0  -0.1104
  C  C2187  1  0.754350  0.869110  0.240170  1.0  -0.1261
  C  C2188  1  0.976820  0.006460  0.215020  1.0  -0.0222
  C  C2189  1  0.654190  0.747650  0.972660  1.0  -0.0052
  C  C2190  1  0.665070  0.700190  0.001410  1.0  -0.0787
  C  C2191  1  0.666900  0.684690  0.000450  1.0  -0.0678
  C  C2192  1  0.671500  0.672380  0.991060  1.0  -0.0588
  C  C2193  1  0.673990  0.677230  0.983380  1.0  -0.0282
  C  C2194  1  0.672100  0.692790  0.984290  1.0  -0.1294
  C  C2195  1  0.667500  0.704980  0.992980  1.0  -0.0825
  C  C2196  1  0.674560  0.756430  0.024580  1.0  -0.1149
  C  C2197  1  0.676110  0.767480  0.034140  1.0  -0.1014
  C  C2198  1  0.333030  0.844820  0.817030  1.0  -0.0446
  C  C2199  1  0.668910  0.783710  0.034480  1.0  -0.0116
  C  C2200  1  0.804800  0.958510  0.143680  1.0  -0.1259
  C  C2201  1  0.660030  0.788250  0.024700  1.0  -0.0536
  C  C2202  1  0.658490  0.777250  0.015140  1.0  -0.1309
  C  C2203  1  0.665720  0.760930  0.014720  1.0  -0.0085
  C  C2204  1  0.673460  0.655720  0.989750  1.0  -0.0424
  C  C2205  1  0.675110  0.641900  0.988570  1.0  -0.0411
  C  C2206  1  0.641650  0.760790  0.941280  1.0  -0.0339
  C  C2207  1  0.638120  0.764320  0.932330  1.0  -0.0351
  C  C2208  1  0.670570  0.795570  0.044670  1.0  -0.0756
  C  C2209  1  0.319370  0.844790  0.817140  1.0  -0.0475
  C  C2210  1  0.671890  0.805460  0.053060  1.0  -0.0751
  C  C2211  1  0.676150  0.615530  0.976940  1.0  -0.1245
  C  C2212  1  0.940660  0.999580  0.484960  1.0  0.4647
  C  C2213  1  0.792380  0.956750  0.144330  1.0  -0.107
  C  C2214  1  0.678050  0.599860  0.975540  1.0  -0.1205
  C  C2215  1  0.681000  0.593030  0.984200  1.0  0.0151
  C  C2216  1  0.681960  0.602680  0.994340  1.0  -0.1189
  C  C2217  1  0.680060  0.618350  0.995740  1.0  -0.1235
  C  C2218  1  0.677110  0.625180  0.987080  1.0  0.0161
  C  C2219  1  0.670510  0.832810  0.062900  1.0  -0.1292
  C  C2220  1  0.319650  0.830220  0.817070  1.0  -0.0615
  C  C2221  1  0.671970  0.844040  0.072360  1.0  -0.13
  C  C2222  1  0.676480  0.840560  0.082640  1.0  0.0095
  C  C2223  1  0.679440  0.825200  0.082930  1.0  -0.1251
  C  C2224  1  0.677980  0.813970  0.073470  1.0  -0.1219
  C  C2225  1  0.788700  0.959650  0.154130  1.0  0.0169
  C  C2226  1  0.673470  0.817460  0.063190  1.0  0.0117
  C  C2227  1  0.633580  0.757400  0.912040  1.0  -0.1082
  C  C2228  1  0.629630  0.761300  0.901870  1.0  -0.1317
  C  C2229  1  0.625830  0.776480  0.900720  1.0  0.0098
  C  C2230  1  0.626150  0.787570  0.910200  1.0  -0.1163
  C  C2231  1  0.332610  0.816100  0.816780  1.0  0.0176
  C  C2232  1  0.630090  0.783670  0.920370  1.0  -0.1118
  C  C2233  1  0.633900  0.768500  0.921520  1.0  0.0101
  C  C2234  1  0.683030  0.576300  0.982720  1.0  -0.0744
  C  C2235  1  0.684730  0.562460  0.981570  1.0  -0.0866
  C  C2236  1  0.621610  0.780620  0.889900  1.0  -0.0208
  C  C2237  1  0.798110  0.964400  0.163250  1.0  -0.1024
  C  C2238  1  0.618090  0.784040  0.880920  1.0  -0.0202
  C  C2239  1  0.678050  0.852590  0.092750  1.0  -0.0683
  C  C2240  1  0.679350  0.862590  0.101070  1.0  -0.0752
  C  C2241  1  0.691600  0.538790  0.989250  1.0  -0.1378
  C  C2242  1  0.345760  0.816780  0.816550  1.0  -0.0751
  C  C2243  1  0.693460  0.523260  0.988250  1.0  -0.0828
  C  C2244  1  0.690690  0.513780  0.978270  1.0  -0.1051
  C  C2245  1  0.685960  0.520760  0.969320  1.0  -0.0928
  C  C2246  1  0.684100  0.536350  0.970340  1.0  -0.1096
  C  C2247  1  0.686830  0.545780  0.980350  1.0  0.0187
  C  C2248  1  0.605970  0.781150  0.861110  1.0  -0.1157
  C  C2249  1  0.810530  0.966160  0.162610  1.0  -0.121
  C  C2250  1  0.601710  0.785150  0.850950  1.0  -0.0863
  C  C2251  1  0.605100  0.796340  0.849240  1.0  -0.1015
  C  C2252  1  0.613030  0.803280  0.858220  1.0  -0.0804
  C  C2253  1  0.290590  0.859110  0.812670  1.0  -0.124
  C  C2254  1  0.617270  0.799270  0.868390  1.0  -0.1122
  C  C2255  1  0.613790  0.788150  0.870080  1.0  0.003
  C  C2256  1  0.684590  0.886800  0.111050  1.0  -0.1232
  C  C2257  1  0.685810  0.898430  0.120250  1.0  -0.0854
  C  C2258  1  0.683500  0.898780  0.130060  1.0  -0.0978
  C  C2259  1  0.679920  0.886680  0.130100  1.0  -0.1027
  C  C2260  1  0.678690  0.875020  0.120860  1.0  -0.1157
  C  C2261  1  0.814210  0.963260  0.152810  1.0  0.0224
  C  C2262  1  0.680920  0.874800  0.111060  1.0  0.0128
  C  C2263  1  0.692180  0.497130  0.977490  1.0  0.4725
  C  C2264  1  0.277000  0.872520  0.813080  1.0  -0.0675
  C  C2265  1  0.727830  0.450330  0.997960  1.0  0.4472
  C  C2266  1  0.671300  0.477310  0.997440  1.0  0.5501
  C  C2267  1  0.694970  0.420160  0.976060  1.0  0.5118
  C  C2268  1  0.657650  0.467470  0.956440  1.0  0.4341
  C  C2269  1  0.714550  0.440480  0.955280  1.0  0.4489
  C  C2270  1  0.924170  0.384660  0.141890  1.0  -0.1012
  C  C2271  1  0.912910  0.387430  0.132180  1.0  0.008
  C  C2272  1  0.897950  0.399080  0.132000  1.0  -0.0832
  C  C2273  1  0.949220  0.953690  0.052000  1.0  -0.0849
  C  C2274  1  0.894590  0.408150  0.142080  1.0  -0.0243
  C  C2275  1  0.276470  0.887490  0.818100  1.0  0.0277
  C  C2276  1  0.905060  0.406030  0.152020  1.0  -0.0721
  C  C2277  1  0.919700  0.394220  0.151630  1.0  -0.0194
  C  C2278  1  0.870230  0.408570  0.121300  1.0  -0.1282
  C  C2279  1  0.858830  0.411860  0.111870  1.0  -0.0576
  C  C2280  1  0.861830  0.408990  0.101810  1.0  -0.0092
  C  C2281  1  0.877080  0.402430  0.101810  1.0  -0.1166
  C  C2282  1  0.888550  0.399090  0.111250  1.0  -0.1041
  C  C2283  1  0.885560  0.402160  0.121410  1.0  -0.0225
  C  C2284  1  0.952830  0.372490  0.150480  1.0  -0.1272
  C  C2285  1  0.953490  0.951930  0.043890  1.0  -0.0873
  C  C2286  1  0.290360  0.888320  0.822590  1.0  -0.0845
  C  C2287  1  0.967670  0.360820  0.150780  1.0  -0.0363
  C  C2288  1  0.971520  0.347480  0.142680  1.0  0.0029
  C  C2289  1  0.959430  0.346710  0.134190  1.0  -0.098
  C  C2290  1  0.944540  0.358410  0.133860  1.0  -0.111
  C  C2291  1  0.940590  0.371780  0.142030  1.0  -0.02
  C  C2292  1  0.910740  0.419780  0.172010  1.0  -0.1103
  C  C2293  1  0.906470  0.429320  0.181750  1.0  -0.0731
  C  C2294  1  0.891740  0.436000  0.182990  1.0  -0.0146
  C  C2295  1  0.881560  0.432510  0.173900  1.0  -0.0738
  C  C2296  1  0.885780  0.423010  0.164150  1.0  -0.1263
  C  C2297  1  0.441660  0.478350  0.637820  1.0  -0.0552
  C  C2298  1  0.304020  0.874880  0.822170  1.0  -0.1064
  C  C2299  1  0.775430  0.957780  0.154820  1.0  -0.0836
  C  C2300  1  0.900530  0.416310  0.162820  1.0  -0.0127
  C  C2301  1  0.987560  0.334920  0.143100  1.0  0.0506
  C  C2302  1  0.003360  0.322650  0.143610  1.0  0.0388
  C  C2303  1  0.849410  0.412730  0.091740  1.0  -0.042
  C  C2304  1  0.839040  0.415890  0.083510  1.0  -0.0444
  C  C2305  1  0.887110  0.446260  0.193400  1.0  -0.0428
  C  C2306  1  0.883210  0.454760  0.201980  1.0  -0.0447
  C  C2307  1  0.024770  0.299990  0.135020  1.0  -0.1276
  C  C2308  1  0.039720  0.288430  0.135540  1.0  -0.1242
  C  C2309  1  0.752150  0.883870  0.239150  1.0  0.0077
  C  C2310  1  0.050420  0.286230  0.145240  1.0  0.0106
  C  C2311  1  0.764450  0.956230  0.155410  1.0  -0.0888
  C  C2312  1  0.045110  0.296410  0.154380  1.0  -0.1289
  C  C2313  1  0.030170  0.307970  0.153860  1.0  -0.1325
  C  C2314  1  0.019460  0.310180  0.144160  1.0  0.0112
  C  C2315  1  0.863990  0.476710  0.212530  1.0  -0.1237
  C  C2316  1  0.859540  0.486300  0.222200  1.0  -0.1339
  C  C2317  1  0.869280  0.484820  0.232300  1.0  0.0112
  C  C2318  1  0.883740  0.473170  0.232130  1.0  -0.1173
  C  C2319  1  0.888190  0.463580  0.222460  1.0  -0.1183
  C  C2320  1  0.304590  0.859770  0.817280  1.0  -0.0095
  C  C2321  1  0.878450  0.465050  0.212360  1.0  0.0085
  C  C2322  1  0.828220  0.412040  0.063080  1.0  -0.1255
  C  C2323  1  0.008860  0.019960  0.242850  1.0  -0.0716
  C  C2324  1  0.816450  0.415670  0.053860  1.0  -0.1211
  C  C2325  1  0.802060  0.427280  0.054490  1.0  0.0123
  C  C2326  1  0.800240  0.435010  0.064980  1.0  -0.1345
  C  C2327  1  0.812010  0.431390  0.074210  1.0  -0.123
  C  C2328  1  0.826400  0.419780  0.073580  1.0  0.0148
  C  C2329  1  0.066530  0.273770  0.145800  1.0  -0.0864
  C  C2330  1  0.079800  0.263510  0.146270  1.0  -0.0935
  C  C2331  1  0.371970  0.817200  0.811260  1.0  -0.1249
  C  C2332  1  0.789390  0.431190  0.044570  1.0  -0.0771
  C  C2333  1  0.778920  0.434450  0.036400  1.0  -0.0837
  C  C2334  1  0.864520  0.495070  0.242680  1.0  -0.0713
  C  C2335  1  0.952290  0.942010  0.463120  1.0  0.4443
  C  C2336  1  0.017690  0.023820  0.250730  1.0  -0.0692
  C  C2337  1  0.860650  0.503460  0.251290  1.0  -0.0754
  C  C2338  1  0.106370  0.248360  0.156600  1.0  -0.0501
  C  C2339  1  0.121280  0.236700  0.157160  1.0  -0.0774
  C  C2340  1  0.126830  0.226880  0.148010  1.0  -0.1023
  C  C2341  1  0.116330  0.229620  0.138250  1.0  -0.0821
  C  C2342  1  0.385800  0.816510  0.811150  1.0  -0.0394
  C  C2343  1  0.101430  0.241280  0.137710  1.0  0.1464
  C  C2344  1  0.095900  0.251050  0.146860  1.0  0.0073
  C  C2345  1  0.754280  0.453330  0.026450  1.0  -0.1265
  C  C2346  1  0.742330  0.457100  0.017350  1.0  -0.0973
  C  C2347  1  0.741430  0.446280  0.007680  1.0  -0.095
  C  C2348  1  0.972950  0.947740  0.034550  1.0  0.1757
  C  C2349  1  0.753380  0.431400  0.007760  1.0  -0.0848
  C  C2350  1  0.765340  0.427650  0.016880  1.0  -0.1274
  C  C2351  1  0.766170  0.438480  0.026540  1.0  0.0096
  C  C2352  1  0.862660  0.507720  0.271400  1.0  -0.1289
  C  C2353  1  0.389900  0.829130  0.815950  1.0  0.0547
  C  C2354  1  0.858430  0.516780  0.281210  1.0  -0.0872
  C  C2355  1  0.847360  0.532190  0.282080  1.0  -0.0977
  C  C2356  1  0.840800  0.537950  0.272450  1.0  -0.0838
  C  C2357  1  0.845060  0.528830  0.262610  1.0  -0.1226
  C  C2358  1  0.856090  0.513420  0.261790  1.0  0.0154
  C  C2359  1  0.759500  0.650430  0.506400  1.0  -0.1035
  C  C2360  1  0.977560  0.946120  0.025330  1.0  -0.0871
  C  C2361  1  0.744370  0.653620  0.506170  1.0  -0.0113
  C  C2362  1  0.733460  0.652410  0.496340  1.0  -0.1
  C  C2363  1  0.738460  0.647640  0.486650  1.0  -0.0227
  C  C2364  1  0.379270  0.842610  0.820790  1.0  -0.041
  C  C2365  1  0.753080  0.644510  0.486290  1.0  -0.0491
  C  C2366  1  0.763190  0.646100  0.496240  1.0  -0.0173
  C  C2367  1  0.705190  0.660460  0.486700  1.0  -0.1223
  C  C2368  1  0.690200  0.662990  0.485700  1.0  -0.0906
  C  C2369  1  0.685450  0.661140  0.493640  1.0  -0.0128
  C  C2370  1  0.696860  0.656750  0.502760  1.0  -0.1361
  C  C2371  1  0.711940  0.654230  0.503800  1.0  -0.0905
  C  C2372  1  0.967930  0.946540  0.015190  1.0  -0.1042
  C  C2373  1  0.716780  0.655820  0.495730  1.0  -0.0634
  C  C2374  1  0.787220  0.642990  0.517300  1.0  -0.1282
  C  C2375  1  0.365360  0.843350  0.820900  1.0  -0.1086
  C  C2376  1  0.798580  0.644260  0.526560  1.0  -0.067
  C  C2377  1  0.795550  0.654200  0.536350  1.0  -0.0182
  C  C2378  1  0.780190  0.662680  0.536190  1.0  -0.1147
  C  C2379  1  0.768750  0.661400  0.526900  1.0  -0.1017
  C  C2380  1  0.771790  0.651600  0.516990  1.0  -0.0562
  C  C2381  1  0.772620  0.630100  0.474310  1.0  -0.1115
  C  C2382  1  0.776920  0.625560  0.464390  1.0  -0.0883
  C  C2383  1  0.766750  0.630140  0.454940  1.0  -0.0021
  C  C2384  1  0.953530  0.948570  0.014740  1.0  -0.0647
  C  C2385  1  0.752010  0.639540  0.455980  1.0  -0.0841
  C  C2386  1  0.361290  0.830590  0.816220  1.0  -0.0139
  C  C2387  1  0.747680  0.644080  0.465880  1.0  -0.1118
  C  C2388  1  0.757830  0.639530  0.475410  1.0  0.0021
  C  C2389  1  0.808040  0.655510  0.546250  1.0  -0.0506
  C  C2390  1  0.818490  0.656430  0.554310  1.0  -0.0827
  C  C2391  1  0.669180  0.663780  0.492330  1.0  -0.0433
  C  C2392  1  0.655740  0.665980  0.491090  1.0  -0.0511
  C  C2393  1  0.771370  0.625280  0.444330  1.0  -0.0261
  C  C2394  1  0.775190  0.621270  0.435550  1.0  -0.0243
  C  C2395  1  0.829690  0.662030  0.574750  1.0  -0.1197
  C  C2396  1  0.948960  0.950170  0.023960  1.0  -0.0014
  C  C2397  1  0.341550  0.786060  0.811470  1.0  -0.1202
  C  C2398  1  0.841540  0.662970  0.583750  1.0  -0.1209
  C  C2399  1  0.855870  0.659440  0.582730  1.0  0.0002
  C  C2400  1  0.857440  0.654890  0.572020  1.0  -0.1295
  C  C2401  1  0.845590  0.653950  0.563020  1.0  -0.1254
  C  C2402  1  0.831260  0.657480  0.564040  1.0  0.0011
  C  C2403  1  0.770270  0.613900  0.415060  1.0  -0.1236
  C  C2404  1  0.774570  0.609360  0.405140  1.0  -0.1247
  C  C2405  1  0.788650  0.607060  0.404530  1.0  0.0068
  C  C2406  1  0.798180  0.609580  0.414410  1.0  -0.1249
  C  C2407  1  0.793880  0.614120  0.424330  1.0  -0.1254
  C  C2408  1  0.900800  0.978280  0.158660  1.0  -0.0658
  C  C2409  1  0.411000  0.489120  0.667720  1.0  -0.1141
  C  C2410  1  0.341310  0.771770  0.811350  1.0  -0.1001
  C  C2411  1  0.958530  0.949880  0.034080  1.0  0.0194
  C  C2412  1  0.779800  0.616410  0.424940  1.0  0.0193
  C  C2413  1  0.632240  0.673810  0.498060  1.0  -0.1198
  C  C2414  1  0.617090  0.676320  0.496570  1.0  -0.1295
  C  C2415  1  0.607930  0.673900  0.486400  1.0  0.0174
  C  C2416  1  0.615080  0.668760  0.477840  1.0  -0.0609
  C  C2417  1  0.630220  0.666250  0.479330  1.0  -0.1222
  C  C2418  1  0.639390  0.668680  0.489490  1.0  0.0037
  C  C2419  1  0.868680  0.660450  0.592450  1.0  -0.0812
  C  C2420  1  0.879220  0.661270  0.600440  1.0  -0.0899
  C  C2421  1  0.331980  0.771130  0.816480  1.0  -0.0035
  C  C2422  1  0.591570  0.676620  0.484800  1.0  -0.0733
  C  C2423  1  0.747720  0.957070  0.165980  1.0  -0.1264
  C  C2424  1  0.578110  0.678870  0.483520  1.0  -0.0431
  C  C2425  1  0.793260  0.602190  0.393910  1.0  -0.0787
  C  C2426  1  0.797040  0.598130  0.385120  1.0  -0.0769
  C  C2427  1  0.903550  0.665620  0.609630  1.0  -0.1253
  C  C2428  1  0.915540  0.666370  0.618560  1.0  -0.0847
  C  C2429  1  0.916960  0.663850  0.628720  1.0  -0.0937
  C  C2430  1  0.905420  0.660520  0.629220  1.0  -0.0876
  C  C2431  1  0.893440  0.659770  0.620280  1.0  -0.1176
  C  C2432  1  0.759070  0.891960  0.248090  1.0  -0.1328
  C  C2433  1  0.892070  0.662250  0.610140  1.0  -0.0066
  C  C2434  1  0.552330  0.679240  0.472040  1.0  -0.1248
  C  C2435  1  0.735260  0.955460  0.166700  1.0  -0.0766
  C  C2436  1  0.537230  0.681730  0.470810  1.0  -0.0945
  C  C2437  1  0.530420  0.686830  0.479570  1.0  -0.0898
  C  C2438  1  0.539910  0.689240  0.489600  1.0  -0.0832
  C  C2439  1  0.554950  0.686760  0.490810  1.0  -0.0973
  C  C2440  1  0.561770  0.681640  0.482090  1.0  0.0002
  C  C2441  1  0.812590  0.596340  0.373050  1.0  -0.1287
  C  C2442  1  0.816860  0.591560  0.363090  1.0  -0.0817
  C  C2443  1  0.322890  0.785440  0.821740  1.0  -0.0768
  C  C2444  1  0.810340  0.583320  0.353950  1.0  -0.1014
  C  C2445  1  0.799280  0.580200  0.355390  1.0  -0.0861
  C  C2446  1  0.795020  0.584990  0.365340  1.0  -0.1199
  C  C2447  1  0.725560  0.951060  0.157600  1.0  -0.0987
  C  C2448  1  0.801570  0.593160  0.374460  1.0  0.0084
  C  C2449  1  0.440300  0.692360  0.476170  1.0  0.5062
  C  C2450  1  0.459680  0.712750  0.455280  1.0  0.4739
  C  C2451  1  0.469130  0.726550  0.497930  1.0  0.4881
  C  C2452  1  0.514090  0.689020  0.478600  1.0  0.4586
  C  C2453  1  0.494830  0.666930  0.498310  1.0  0.5609
  C  C2454  1  0.323080  0.799750  0.821850  1.0  -0.1232
  C  C2455  1  0.484910  0.653730  0.457450  1.0  0.5092
  C  C2456  1  0.337580  0.814090  0.322520  1.0  -0.0749
  C  C2457  1  0.343330  0.807250  0.313090  1.0  -0.028
  C  C2458  1  0.336110  0.813000  0.303360  1.0  -0.0592
  C  C2459  1  0.907410  0.972910  0.138640  1.0  -0.0037
  C  C2460  1  0.729080  0.948340  0.147750  1.0  -0.0827
  C  C2461  1  0.322040  0.826300  0.303240  1.0  0.007
  C  C2462  1  0.315310  0.833870  0.312400  1.0  -0.1075
  C  C2463  1  0.323540  0.827330  0.321910  1.0  -0.0592
  C  C2464  1  0.335760  0.804190  0.282690  1.0  -0.0929
  C  C2465  1  0.332420  0.800500  0.816710  1.0  0.0127
  C  C2466  1  0.342920  0.795950  0.273870  1.0  -0.1056
  C  C2467  1  0.358460  0.787720  0.275180  1.0  0.0474
  C  C2468  1  0.366360  0.788390  0.285880  1.0  -0.0347
  C  C2469  1  0.359260  0.796550  0.294680  1.0  -0.129
  C  C2470  1  0.343670  0.804660  0.293470  1.0  -0.0392
  C  C2471  1  0.339820  0.807960  0.340790  1.0  -0.1002
  C  C2472  1  0.741550  0.949960  0.147050  1.0  -0.1291
  C  C2473  1  0.348160  0.801090  0.350070  1.0  -0.0532
  C  C2474  1  0.363730  0.792990  0.352160  1.0  0.011
  C  C2475  1  0.370460  0.792280  0.344450  1.0  -0.0278
  C  C2476  1  0.404840  0.828120  0.815850  1.0  -0.0836
  C  C2477  1  0.362180  0.799080  0.335180  1.0  -0.1197
  C  C2478  1  0.346540  0.807100  0.332950  1.0  -0.0255
  C  C2479  1  0.290740  0.853070  0.319460  1.0  -0.1235
  C  C2480  1  0.276820  0.866450  0.319370  1.0  -0.1367
  C  C2481  1  0.270790  0.876560  0.312020  1.0  0.0031
  C  C2482  1  0.279730  0.872210  0.304710  1.0  -0.1329
  C  C2483  1  0.293650  0.858800  0.304770  1.0  -0.1191
  C  C2484  1  0.751190  0.954390  0.156140  1.0  0.0417
  C  C2485  1  0.299820  0.848640  0.312180  1.0  -0.011
  C  C2486  1  0.372770  0.785500  0.362030  1.0  -0.0455
  C  C2487  1  0.417260  0.827070  0.815710  1.0  -0.0739
  C  C2488  1  0.380370  0.779240  0.370140  1.0  -0.047
  C  C2489  1  0.366320  0.778720  0.265810  1.0  -0.0677
  C  C2490  1  0.373000  0.771210  0.258190  1.0  -0.0712
  C  C2491  1  0.255770  0.891030  0.311990  1.0  -0.0496
  C  C2492  1  0.243400  0.902920  0.312000  1.0  -0.0488
  C  C2493  1  0.404010  0.759560  0.380180  1.0  -0.1296
  C  C2494  1  0.412690  0.752460  0.389300  1.0  -0.1211
  C  C2495  1  0.407560  0.756970  0.398750  1.0  0.0088
  C  C2496  1  0.042110  0.026690  0.260090  1.0  -0.1101
  C  C2497  1  0.393210  0.769030  0.398510  1.0  -0.1165
  C  C2498  1  0.261800  0.901700  0.818570  1.0  -0.063
  C  C2499  1  0.384530  0.776130  0.389380  1.0  -0.1296
  C  C2500  1  0.389660  0.771620  0.379930  1.0  0.0161
  C  C2501  1  0.218800  0.923150  0.302690  1.0  -0.1267
  C  C2502  1  0.204880  0.936530  0.302730  1.0  -0.1117
  C  C2503  1  0.199470  0.945160  0.312120  1.0  -0.0017
  C  C2504  1  0.209050  0.939380  0.321480  1.0  -0.105
  C  C2505  1  0.222970  0.926000  0.321440  1.0  -0.1212
  C  C2506  1  0.228370  0.917380  0.312040  1.0  0.0038
  C  C2507  1  0.395930  0.750680  0.250540  1.0  -0.1214
  C  C2508  1  0.051590  0.031580  0.269270  1.0  -0.0808
  C  C2509  1  0.249560  0.913320  0.818910  1.0  -0.0491
  C  C2510  1  0.403590  0.742170  0.242020  1.0  -0.1379
  C  C2511  1  0.397020  0.744470  0.231380  1.0  0.0134
  C  C2512  1  0.382290  0.755860  0.229850  1.0  -0.1356
  C  C2513  1  0.374630  0.764370  0.238370  1.0  -0.1274
  C  C2514  1  0.381200  0.762070  0.249010  1.0  0.0055
  C  C2515  1  0.416870  0.749360  0.408550  1.0  -0.0818
  C  C2516  1  0.424520  0.743090  0.416640  1.0  -0.0827
  C  C2517  1  0.405260  0.735340  0.222220  1.0  -0.0788
  C  C2518  1  0.412030  0.727830  0.214640  1.0  -0.081
  C  C2519  1  0.184440  0.959600  0.312170  1.0  -0.0973
  C  C2520  1  0.406660  0.493700  0.677620  1.0  -0.1174
  C  C2521  1  0.331730  0.755920  0.816340  1.0  -0.0578
  C  C2522  1  0.047330  0.038620  0.279120  1.0  -0.1042
  C  C2523  1  0.172070  0.971500  0.312210  1.0  -0.0975
  C  C2524  1  0.428620  0.740670  0.436000  1.0  -0.0073
  C  C2525  1  0.437010  0.733590  0.445150  1.0  -0.0839
  C  C2526  1  0.451060  0.720940  0.445410  1.0  -0.1041
  C  C2527  1  0.456180  0.715870  0.435880  1.0  -0.0838
  C  C2528  1  0.447750  0.722970  0.426720  1.0  0.0258
  C  C2529  1  0.433690  0.735560  0.426480  1.0  0.0125
  C  C2530  1  0.415840  0.724430  0.195910  1.0  -0.1265
  C  C2531  1  0.423420  0.716170  0.187340  1.0  -0.0875
  C  C2532  1  0.331520  0.743300  0.816230  1.0  -0.038
  C  C2533  1  0.435870  0.701690  0.187670  1.0  -0.1023
  C  C2534  1  0.033260  0.040410  0.279340  1.0  -0.0848
  C  C2535  1  0.440210  0.696050  0.197210  1.0  -0.0872
  C  C2536  1  0.432610  0.704340  0.205780  1.0  -0.1344
  C  C2537  1  0.420180  0.718820  0.205430  1.0  0.0154
  C  C2538  1  0.151950  0.994980  0.321710  1.0  -0.0495
  C  C2539  1  0.137190  0.009200  0.321780  1.0  -0.0639
  C  C2540  1  0.127260  0.014620  0.312390  1.0  -0.0825
  C  C2541  1  0.132370  0.005560  0.302930  1.0  -0.0565
  C  C2542  1  0.147140  0.991340  0.302880  1.0  -0.0381
  C  C2543  1  0.435390  0.838820  0.817400  1.0  -0.1271
  C  C2544  1  0.157050  0.985950  0.312260  1.0  0.0095
  C  C2545  1  0.197670  0.204210  0.171240  1.0  0.4337
  C  C2546  1  0.023880  0.035540  0.270220  1.0  -0.1222
  C  C2547  1  0.172310  0.169980  0.171610  1.0  0.5719
  C  C2548  1  0.142980  0.213560  0.148680  1.0  0.4498
  C  C2549  1  0.160620  0.154770  0.130640  1.0  0.4874
  C  C2550  1  0.186700  0.187580  0.128410  1.0  0.4978
  C  C2551  1  0.215720  0.145460  0.151790  1.0  0.5226
  C  C2552  1  0.259690  0.735620  0.001930  1.0  -0.0808
  C  C2553  1  0.244770  0.747240  0.001750  1.0  0.0276
  C  C2554  1  0.767700  0.885660  0.257510  1.0  -0.1321
  C  C2555  1  0.232940  0.750150  0.991400  1.0  -0.0757
  C  C2556  1  0.237650  0.740530  0.981700  1.0  -0.0278
  C  C2557  1  0.252320  0.728620  0.981280  1.0  -0.0819
  C  C2558  1  0.028020  0.028650  0.260380  1.0  0.0014
  C  C2559  1  0.262910  0.726200  0.991160  1.0  -0.03
  C  C2560  1  0.204340  0.762670  0.982510  1.0  -0.1229
  C  C2561  1  0.189490  0.774350  0.982210  1.0  -0.0657
  C  C2562  1  0.185500  0.787350  0.990520  1.0  -0.0131
  C  C2563  1  0.197490  0.787780  0.999210  1.0  -0.1065
  C  C2564  1  0.212380  0.776080  0.999540  1.0  -0.1168
  C  C2565  1  0.449460  0.837490  0.817190  1.0  -0.1331
  C  C2566  1  0.216480  0.763040  0.991170  1.0  -0.0541
  C  C2567  1  0.287510  0.725040  0.012360  1.0  -0.1359
  C  C2568  1  0.299000  0.721670  0.021740  1.0  -0.0828
  C  C2569  1  0.296130  0.725360  0.031950  1.0  0.0109
  C  C2570  1  0.670070  0.985510  0.180010  1.0  0.5406
  C  C2571  1  0.280900  0.732800  0.032150  1.0  -0.1307
  C  C2572  1  0.269350  0.736230  0.022760  1.0  -0.1155
  C  C2573  1  0.272200  0.732380  0.012460  1.0  -0.0236
  C  C2574  1  0.271550  0.711750  0.969120  1.0  -0.1201
  C  C2575  1  0.275810  0.702230  0.959380  1.0  -0.05
  C  C2576  1  0.461250  0.822940  0.815070  1.0  0.0119
  C  C2577  1  0.265660  0.698650  0.950300  1.0  0.0095
  C  C2578  1  0.250930  0.705290  0.951540  1.0  -0.0582
  C  C2579  1  0.246620  0.714860  0.961270  1.0  -0.1084
  C  C2580  1  0.256810  0.718390  0.970460  1.0  -0.0175
  C  C2581  1  0.308640  0.721540  0.041970  1.0  -0.0524
  C  C2582  1  0.894770  0.971480  0.139240  1.0  -0.0531
  C  C2583  1  0.643840  0.947120  0.162000  1.0  0.509
  C  C2584  1  0.319070  0.718310  0.050170  1.0  -0.0503
  C  C2585  1  0.169440  0.799930  0.990100  1.0  -0.0561
  C  C2586  1  0.156180  0.810230  0.989690  1.0  -0.085
  C  C2587  1  0.458170  0.809790  0.813180  1.0  -0.1076
  C  C2588  1  0.270360  0.688340  0.939910  1.0  -0.0412
  C  C2589  1  0.274340  0.679790  0.931360  1.0  -0.0767
  C  C2590  1  0.330230  0.722500  0.070550  1.0  -0.1248
  C  C2591  1  0.342050  0.718810  0.079750  1.0  -0.1241
  C  C2592  1  0.356230  0.706700  0.079090  1.0  0.0036
  C  C2593  1  0.357770  0.698550  0.068610  1.0  -0.1271
  C  C2594  1  0.345950  0.702240  0.059420  1.0  -0.1286
  C  C2595  1  0.656390  0.971560  0.139050  1.0  0.533
  C  C2596  1  0.331770  0.714350  0.060070  1.0  0.0093
  C  C2597  1  0.269390  0.670330  0.910930  1.0  -0.1246
  C  C2598  1  0.444100  0.811120  0.813390  1.0  -0.1213
  C  C2599  1  0.273940  0.660690  0.901300  1.0  -0.1249
  C  C2600  1  0.288600  0.649550  0.901160  1.0  0.0088
  C  C2601  1  0.298430  0.648650  0.911250  1.0  -0.1295
  C  C2602  1  0.293880  0.658300  0.920880  1.0  -0.1098
  C  C2603  1  0.279210  0.669440  0.921020  1.0  0.0136
  C  C2604  1  0.134760  0.832910  0.998290  1.0  -0.1239
  C  C2605  1  0.119810  0.844480  0.997790  1.0  -0.1219
  C  C2606  1  0.109070  0.846720  0.988100  1.0  0.0104
  C  C2607  1  0.683720  0.912370  0.139720  1.0  0.4928
  C  C2608  1  0.114390  0.836540  0.978960  1.0  -0.1208
  C  C2609  1  0.432310  0.825670  0.815510  1.0  0.0161
  C  C2610  1  0.129330  0.824970  0.979460  1.0  -0.126
  C  C2611  1  0.140070  0.822730  0.989150  1.0  0.0121
  C  C2612  1  0.368960  0.702710  0.088980  1.0  -0.0819
  C  C2613  1  0.379480  0.699400  0.097120  1.0  -0.0848
  C  C2614  1  0.092960  0.859200  0.987560  1.0  -0.0993
  C  C2615  1  0.079680  0.869480  0.987100  1.0  -0.0953
  C  C2616  1  0.293480  0.639250  0.890820  1.0  -0.0252
  C  C2617  1  0.297460  0.630810  0.882240  1.0  -0.0547
  C  C2618  1  0.404150  0.680430  0.107000  1.0  -0.1358
  C  C2619  1  0.711760  0.949750  0.158400  1.0  0.5063
  C  C2620  1  0.318800  0.727490  0.817440  1.0  -0.1298
  C  C2621  1  0.416140  0.676610  0.116070  1.0  -0.0877
  C  C2622  1  0.417110  0.687390  0.125770  1.0  -0.0931
  C  C2623  1  0.405180  0.702280  0.125720  1.0  -0.0899
  C  C2624  1  0.393180  0.706090  0.116630  1.0  -0.1234
  C  C2625  1  0.392280  0.695300  0.106950  1.0  0.0126
  C  C2626  1  0.053120  0.884890  0.976820  1.0  -0.0666
  C  C2627  1  0.038210  0.896560  0.976290  1.0  -0.0827
  C  C2628  1  0.032620  0.906180  0.985470  1.0  -0.097
  C  C2629  1  0.043090  0.903210  0.995210  1.0  -0.0892
  C  C2630  1  0.057990  0.891530  0.995730  1.0  0.0791
  C  C2631  1  0.391940  0.503210  0.678680  1.0  -0.012
  C  C2632  1  0.318560  0.713200  0.817320  1.0  -0.1208
  C  C2633  1  0.699940  0.926200  0.182170  1.0  0.4643
  C  C2634  1  0.063570  0.881970  0.986550  1.0  0.0055
  C  C2635  1  0.313150  0.605380  0.871010  1.0  -0.1222
  C  C2636  1  0.317520  0.596210  0.861200  1.0  -0.0856
  C  C2637  1  0.311080  0.601930  0.851550  1.0  -0.0955
  C  C2638  1  0.300010  0.617340  0.852380  1.0  -0.09
  C  C2639  1  0.295680  0.626450  0.862150  1.0  -0.1273
  C  C2640  1  0.302120  0.620800  0.871780  1.0  0.0113
  C  C2641  1  0.998910  0.978920  0.003100  1.0  0.315
  C  C2642  1  0.016460  0.919520  0.984880  1.0  0.4665
  C  C2643  1  0.330760  0.698860  0.815820  1.0  0.0746
  C  C2644  1  0.972390  0.946030  0.005270  1.0  0.3829
  C  C2645  1  0.822910  0.830260  0.316250  1.0  -0.058
  C  C2646  1  0.961390  0.929560  0.962060  1.0  0.4699
  C  C2647  1  0.942980  0.988080  0.981690  1.0  0.517
  C  C2648  1  0.986850  0.963560  0.962160  1.0  0.5711
  C  C2649  1  0.313040  0.331370  0.321730  1.0  -0.1126
  C  C2650  1  0.306030  0.323460  0.312300  1.0  -0.036
  C  C2651  1  0.312260  0.314930  0.303010  1.0  -0.095
  C  C2652  1  0.326510  0.314500  0.303600  1.0  0.0202
  C  C2653  1  0.334390  0.322060  0.312770  1.0  -0.0955
  C  C2654  1  0.343220  0.699470  0.814470  1.0  0.0442
  C  C2655  1  0.327150  0.330390  0.321610  1.0  -0.0112
  C  C2656  1  0.310820  0.293910  0.285020  1.0  -0.1116
  C  C2657  1  0.823620  0.815700  0.316680  1.0  -0.0417
  C  C2658  1  0.303070  0.286270  0.275910  1.0  -0.1069
  C  C2659  1  0.287600  0.290520  0.273740  1.0  0.1316
  C  C2660  1  0.280510  0.303060  0.281400  1.0  -0.0246
  C  C2661  1  0.288220  0.310690  0.290500  1.0  -0.1298
  C  C2662  1  0.303760  0.306470  0.292780  1.0  -0.0339
  C  C2663  1  0.313720  0.343810  0.342280  1.0  -0.12
  C  C2664  1  0.306980  0.352220  0.351310  1.0  -0.0332
  C  C2665  1  0.343460  0.713760  0.814600  1.0  -0.1121
  C  C2666  1  0.291560  0.358230  0.350580  1.0  -0.0093
  C  C2667  1  0.283390  0.355180  0.340120  1.0  -0.0392
  C  C2668  1  0.290100  0.346750  0.331070  1.0  -0.1147
  C  C2669  1  0.831870  0.808080  0.325570  1.0  -0.0584
  C  C2670  1  0.305580  0.340690  0.331750  1.0  -0.0289
  C  C2671  1  0.360150  0.324160  0.322940  1.0  -0.1274
  C  C2672  1  0.374250  0.323790  0.323430  1.0  -0.0211
  C  C2673  1  0.379650  0.320680  0.314290  1.0  -0.0048
  C  C2674  1  0.369780  0.317910  0.304580  1.0  -0.1057
  C  C2675  1  0.355650  0.318240  0.304060  1.0  -0.1201
  C  C2676  1  0.916390  0.977260  0.148300  1.0  -0.1065
  C  C2677  1  0.350130  0.321450  0.313230  1.0  -0.0361
  C  C2678  1  0.284300  0.367310  0.360340  1.0  -0.0531
  C  C2679  1  0.278310  0.374790  0.368360  1.0  -0.0514
  C  C2680  1  0.279150  0.282290  0.263910  1.0  -0.0941
  C  C2681  1  0.839540  0.815880  0.334520  1.0  -0.029
  C  C2682  1  0.272140  0.275580  0.255840  1.0  -0.0875
  C  C2683  1  0.394930  0.320350  0.314900  1.0  -0.0724
  C  C2684  1  0.407500  0.320110  0.315450  1.0  -0.0572
  C  C2685  1  0.256860  0.385650  0.378250  1.0  -0.1239
  C  C2686  1  0.250110  0.394070  0.387280  1.0  -0.1248
  C  C2687  1  0.769900  0.870900  0.258540  1.0  0.0269
  C  C2688  1  0.257030  0.401350  0.396860  1.0  0.001
  C  C2689  1  0.271210  0.399560  0.396720  1.0  -0.121
  C  C2690  1  0.277960  0.391150  0.387690  1.0  -0.1239
  C  C2691  1  0.271040  0.383870  0.378110  1.0  -0.0036
  C  C2692  1  0.430170  0.312830  0.307570  1.0  -0.1146
  C  C2693  1  0.839280  0.830660  0.334740  1.0  -0.0754
  C  C2694  1  0.444310  0.312570  0.308220  1.0  -0.1262
  C  C2695  1  0.452220  0.319270  0.317510  1.0  0.0042
  C  C2696  1  0.444850  0.326260  0.326100  1.0  -0.1246
  C  C2697  1  0.430720  0.326520  0.325450  1.0  -0.1181
  C  C2698  1  0.331260  0.728100  0.816090  1.0  0.0129
  C  C2699  1  0.422800  0.319820  0.316150  1.0  0.0034
  C  C2700  1  0.248640  0.270140  0.244870  1.0  -0.1243
  C  C2701  1  0.240720  0.262630  0.235820  1.0  -0.1166
  C  C2702  1  0.247080  0.251800  0.227210  1.0  0.0005
  C  C2703  1  0.262010  0.249100  0.228380  1.0  -0.1239
  C  C2704  1  0.269940  0.256610  0.237430  1.0  -0.1224
  C  C2705  1  0.891160  0.974070  0.149190  1.0  -0.0069
  C  C2706  1  0.830810  0.837490  0.325420  1.0  -0.0497
  C  C2707  1  0.263570  0.267440  0.246050  1.0  -0.0041
  C  C2708  1  0.249740  0.410430  0.406600  1.0  -0.076
  C  C2709  1  0.233200  0.942750  0.821160  1.0  -0.1199
  C  C2710  1  0.243700  0.417880  0.414600  1.0  -0.0922
  C  C2711  1  0.238490  0.243680  0.217410  1.0  -0.0918
  C  C2712  1  0.231420  0.237000  0.209370  1.0  -0.0969
  C  C2713  1  0.467520  0.318980  0.318220  1.0  -0.0901
  C  C2714  1  0.480090  0.318730  0.318760  1.0  -0.088
  C  C2715  1  0.241330  0.436880  0.433040  1.0  -0.1215
  C  C2716  1  0.234310  0.445210  0.441970  1.0  -0.0853
  C  C2717  1  0.221670  0.444140  0.442790  1.0  -0.0886
  C  C2718  1  0.833930  0.786850  0.334550  1.0  -0.0995
  C  C2719  1  0.216640  0.434120  0.434000  1.0  -0.0917
  C  C2720  1  0.219290  0.955790  0.821490  1.0  -0.1274
  C  C2721  1  0.223650  0.425810  0.425110  1.0  -0.1319
  C  C2722  1  0.236240  0.426880  0.424280  1.0  -0.0055
  C  C2723  1  0.208580  0.230090  0.199100  1.0  -0.1104
  C  C2724  1  0.200630  0.222510  0.190130  1.0  -0.0873
  C  C2725  1  0.206220  0.213120  0.180890  1.0  -0.0957
  C  C2726  1  0.220460  0.211950  0.181380  1.0  -0.0917
  C  C2727  1  0.228400  0.219540  0.190360  1.0  -0.0918
  C  C2728  1  0.222800  0.228890  0.199600  1.0  0.0034
  C  C2729  1  0.504260  0.323420  0.328880  1.0  -0.1159
  C  C2730  1  0.833750  0.772290  0.334100  1.0  -0.0952
  C  C2731  1  0.206090  0.954090  0.819940  1.0  0.0139
  C  C2732  1  0.518380  0.323090  0.329360  1.0  -0.0872
  C  C2733  1  0.524750  0.317680  0.320330  1.0  -0.0869
  C  C2734  1  0.515820  0.312660  0.310820  1.0  -0.0949
  C  C2735  1  0.501740  0.312990  0.310350  1.0  -0.1415
  C  C2736  1  0.495370  0.318390  0.319350  1.0  0.0038
  C  C2737  1  0.162260  0.234690  0.488220  1.0  0.0253
  C  C2738  1  0.158020  0.225350  0.478580  1.0  -0.0808
  C  C2739  1  0.155820  0.228420  0.468450  1.0  0.0053
  C  C2740  1  0.158190  0.241340  0.468170  1.0  -0.0365
  C  C2741  1  0.162540  0.251050  0.477640  1.0  0.002
  C  C2742  1  0.381800  0.507850  0.669230  1.0  -0.1329
  C  C2743  1  0.207590  0.938610  0.818060  1.0  -0.1209
  C  C2744  1  0.831910  0.761860  0.324420  1.0  0.0061
  C  C2745  1  0.164450  0.247470  0.487550  1.0  -0.071
  C  C2746  1  0.155650  0.214710  0.448690  1.0  -0.1127
  C  C2747  1  0.151580  0.204630  0.439420  1.0  -0.0929
  C  C2748  1  0.142780  0.197290  0.439190  1.0  -0.0237
  C  C2749  1  0.138140  0.200510  0.448590  1.0  -0.0578
  C  C2750  1  0.142200  0.210530  0.457860  1.0  -0.1162
  C  C2751  1  0.151140  0.217860  0.458200  1.0  0.0221
  C  C2752  1  0.174970  0.234020  0.508050  1.0  -0.126
  C  C2753  1  0.177020  0.230490  0.517980  1.0  -0.0439
  C  C2754  1  0.221500  0.925580  0.817730  1.0  -0.1276
  C  C2755  1  0.168600  0.223870  0.519370  1.0  0.0005
  C  C2756  1  0.830360  0.766800  0.315230  1.0  -0.0422
  C  C2757  1  0.158040  0.220940  0.510460  1.0  -0.0444
  C  C2758  1  0.155990  0.224420  0.500520  1.0  -0.1249
  C  C2759  1  0.164420  0.231040  0.499050  1.0  0.0369
  C  C2760  1  0.175410  0.270100  0.485330  1.0  -0.117
  C  C2761  1  0.177580  0.283130  0.485180  1.0  -0.0367
  C  C2762  1  0.169520  0.291880  0.477050  1.0  -0.0025
  C  C2763  1  0.159210  0.286950  0.469010  1.0  -0.0872
  C  C2764  1  0.157030  0.273880  0.469110  1.0  -0.1194
  C  C2765  1  0.234700  0.927280  0.819270  1.0  0.0133
  C  C2766  1  0.165030  0.265110  0.477310  1.0  0.0251
  C  C2767  1  0.170780  0.220090  0.529870  1.0  -0.015
  C  C2768  1  0.830500  0.781320  0.315650  1.0  -0.1215
  C  C2769  1  0.172560  0.216920  0.538590  1.0  -0.0172
  C  C2770  1  0.138520  0.186480  0.429420  1.0  -0.0165
  C  C2771  1  0.134920  0.177480  0.421360  1.0  -0.0144
  C  C2772  1  0.171830  0.305790  0.477000  1.0  -0.056
  C  C2773  1  0.173810  0.317340  0.477020  1.0  -0.0333
  C  C2774  1  0.170660  0.201680  0.549620  1.0  -0.0874
  C  C2775  1  0.172670  0.198020  0.559490  1.0  -0.1257
  C  C2776  1  0.476280  0.821530  0.814830  1.0  -0.0786
  C  C2777  1  0.178780  0.205610  0.569170  1.0  0.0122
  C  C2778  1  0.182800  0.217000  0.568600  1.0  -0.1181
  C  C2779  1  0.180790  0.220660  0.558730  1.0  -0.1135
  C  C2780  1  0.832190  0.791950  0.325310  1.0  -0.0217
  C  C2781  1  0.174690  0.213060  0.549060  1.0  0.0071
  C  C2782  1  0.173060  0.336460  0.467650  1.0  -0.1253
  C  C2783  1  0.175350  0.349530  0.467700  1.0  -0.1128
  C  C2784  1  0.180920  0.357950  0.477200  1.0  0.0136
  C  C2785  1  0.184100  0.352720  0.486630  1.0  -0.114
  C  C2786  1  0.181800  0.339650  0.486580  1.0  -0.1104
  C  C2787  1  0.488690  0.820430  0.814630  1.0  -0.0741
  C  C2788  1  0.176230  0.331240  0.477080  1.0  0.0115
  C  C2789  1  0.128190  0.154220  0.412570  1.0  -0.1111
  C  C2790  1  0.124050  0.144000  0.403460  1.0  -0.119
  C  C2791  1  0.122120  0.145750  0.393080  1.0  0.0091
  C  C2792  1  0.807000  0.854030  0.306410  1.0  -0.108
  C  C2793  1  0.124510  0.158140  0.392190  1.0  -0.1099
  C  C2794  1  0.128640  0.168350  0.401300  1.0  -0.113
  C  C2795  1  0.130570  0.166610  0.411680  1.0  0.0077
  C  C2796  1  0.180930  0.201670  0.579610  1.0  -0.0004
  C  C2797  1  0.182710  0.198290  0.588250  1.0  -0.003
  C  C2798  1  0.191220  0.968030  0.820290  1.0  -0.0851
  C  C2799  1  0.117650  0.134960  0.383390  1.0  -0.014
  C  C2800  1  0.113870  0.126120  0.375300  1.0  -0.0562
  C  C2801  1  0.183350  0.371830  0.477240  1.0  -0.0662
  C  C2802  1  0.185330  0.383350  0.477210  1.0  -0.0768
  C  C2803  1  0.188800  0.178570  0.599120  1.0  -0.1201
  C  C2804  1  0.798380  0.860680  0.297100  1.0  -0.0649
  C  C2805  1  0.190420  0.174430  0.608700  1.0  -0.0666
  C  C2806  1  0.188170  0.185560  0.618160  1.0  -0.0952
  C  C2807  1  0.184340  0.201020  0.617610  1.0  -0.09
  C  C2808  1  0.182710  0.205140  0.607990  1.0  -0.1082
  C  C2809  1  0.897140  0.870850  0.399380  1.0  -0.1266
  C  C2810  1  0.184810  0.194000  0.598550  1.0  0.0092
  C  C2811  1  0.100580  0.121430  0.356040  1.0  -0.1139
  C  C2812  1  0.095860  0.111890  0.346750  1.0  -0.0511
  C  C2813  1  0.099510  0.096130  0.346420  1.0  -0.101
  C  C2814  1  0.108180  0.090360  0.355850  1.0  -0.0742
  C  C2815  1  0.112900  0.099970  0.365170  1.0  -0.1108
  C  C2816  1  0.796060  0.851500  0.286910  1.0  -0.0131
  C  C2817  1  0.109140  0.115720  0.365450  1.0  0.0094
  C  C2818  1  0.192030  0.406690  0.486410  1.0  -0.0366
  C  C2819  1  0.193980  0.419840  0.486150  1.0  -0.0789
  C  C2820  1  0.178930  0.979600  0.820580  1.0  -0.0834
  C  C2821  1  0.191620  0.424090  0.476470  1.0  -0.0999
  C  C2822  1  0.187300  0.414500  0.467100  1.0  -0.0823
  C  C2823  1  0.185370  0.401390  0.467380  1.0  -0.1236
  C  C2824  1  0.187630  0.397210  0.477020  1.0  0.0002
  C  C2825  1  0.425160  0.481190  0.637240  1.0  -0.0894
  C  C2826  1  0.414360  0.479560  0.627420  1.0  -0.0294
  C  C2827  1  0.399250  0.482710  0.627190  1.0  -0.0952
  C  C2828  1  0.330510  0.683660  0.815690  1.0  -0.0845
  C  C2829  1  0.330310  0.671030  0.815580  1.0  -0.0944
  C  C2830  1  0.386100  0.503270  0.659310  1.0  -0.119
  C  C2831  1  0.516880  0.805850  0.815960  1.0  -0.1204
  C  C2832  1  0.530810  0.804880  0.815710  1.0  -0.0905
  C  C2833  1  0.532250  0.817320  0.813820  1.0  -0.0975
  C  C2834  1  0.518940  0.830730  0.812210  1.0  -0.0927
  C  C2835  1  0.505060  0.831670  0.812470  1.0  -0.1239
  C  C2836  1  0.503620  0.819280  0.814350  1.0  0.0089
  C  C2837  1  0.150980  0.992270  0.820130  1.0  -0.0707
  C  C2838  1  0.904950  0.878460  0.408310  1.0  -0.1334
  C  C2839  1  0.136310  0.006250  0.820460  1.0  -0.0751
  C  C2840  1  0.134810  0.021590  0.821600  1.0  -0.1073
  C  C2841  1  0.813780  0.837750  0.306100  1.0  -0.0135
  C  C2842  1  0.147990  0.022890  0.822400  1.0  -0.0734
  C  C2843  1  0.162630  0.008930  0.822070  1.0  -0.1001
  C  C2844  1  0.164120  0.993640  0.820930  1.0  0.0164
  C  C2845  1  0.342300  0.641500  0.813890  1.0  -0.1237
  C  C2846  1  0.342150  0.627170  0.813790  1.0  -0.084
  C  C2847  1  0.329780  0.626460  0.815240  1.0  -0.0977
  C  C2848  1  0.317560  0.640810  0.816780  1.0  -0.0878
  C  C2849  1  0.317730  0.655130  0.816880  1.0  -0.1276
  C  C2850  1  0.904130  0.893330  0.408780  1.0  0.0153
  C  C2851  1  0.330100  0.655800  0.815440  1.0  0.1242
  C  C2852  1  0.400880  0.493740  0.658190  1.0  0.0126
  C  C2853  1  0.329940  0.536070  0.816060  1.0  0.4796
  C  C2854  1  0.343550  0.556450  0.790620  1.0  0.473
  C  C2855  1  0.291060  0.585050  0.799850  1.0  0.4648
  C  C2856  1  0.329710  0.610900  0.815240  1.0  0.5102
  C  C2857  1  0.316030  0.592630  0.840800  1.0  0.4483
  C  C2858  1  0.368610  0.560870  0.831740  1.0  0.4512
  C  C2859  1  0.412670  0.894130  0.630360  1.0  -0.0634
  C  C2860  1  0.422230  0.890360  0.640300  1.0  -0.0503
  C  C2861  1  0.419980  0.900500  0.650260  1.0  -0.0371
  C  C2862  1  0.894980  0.900080  0.399730  1.0  -0.1379
  C  C2863  1  0.489550  0.469430  0.641200  1.0  -0.08
  C  C2864  1  0.407320  0.915050  0.650100  1.0  -0.0251
  C  C2865  1  0.397100  0.919730  0.640460  1.0  -0.0562
  C  C2866  1  0.400070  0.908870  0.630670  1.0  -0.0412
  C  C2867  1  0.426760  0.900490  0.670660  1.0  -0.1129
  C  C2868  1  0.436960  0.895660  0.680200  1.0  -0.0978
  C  C2869  1  0.452010  0.885760  0.680470  1.0  0.0163
  C  C2870  1  0.456340  0.881000  0.670710  1.0  -0.0351
  C  C2871  1  0.446190  0.885770  0.661180  1.0  -0.116
  C  C2872  1  0.431040  0.895620  0.660810  1.0  0.0085
  C  C2873  1  0.405270  0.880840  0.610530  1.0  -0.1041
  C  C2874  1  0.503020  0.467090  0.642440  1.0  -0.0806
  C  C2875  1  0.887170  0.892470  0.390800  1.0  -0.1278
  C  C2876  1  0.408790  0.869500  0.601120  1.0  -0.0332
  C  C2877  1  0.423470  0.859020  0.600350  1.0  0.1385
  C  C2878  1  0.434400  0.860640  0.609470  1.0  -0.0328
  C  C2879  1  0.430930  0.871890  0.618860  1.0  -0.1231
  C  C2880  1  0.416240  0.882320  0.619780  1.0  -0.0173
  C  C2881  1  0.370140  0.939030  0.632800  1.0  -0.1176
  C  C2882  1  0.357710  0.953820  0.633240  1.0  -0.0528
  C  C2883  1  0.357720  0.966640  0.641620  1.0  0.0007
  C  C2884  1  0.370970  0.963750  0.649500  1.0  -0.0851
  C  C2885  1  0.350780  0.477460  0.587290  1.0  -0.0499
  C  C2886  1  0.383380  0.949000  0.649080  1.0  -0.116
  C  C2887  1  0.887990  0.877600  0.390330  1.0  0.0077
  C  C2888  1  0.383450  0.936030  0.640740  1.0  0.0011
  C  C2889  1  0.427410  0.846750  0.590400  1.0  -0.0583
  C  C2890  1  0.430890  0.836500  0.582250  1.0  -0.0781
  C  C2891  1  0.462930  0.880510  0.690590  1.0  -0.0563
  C  C2892  1  0.472070  0.876090  0.698930  1.0  -0.0722
  C  C2893  1  0.344420  0.982520  0.642180  1.0  -0.0592
  C  C2894  1  0.333500  0.995670  0.642710  1.0  -0.0459
  C  C2895  1  0.449620  0.812090  0.572730  1.0  -0.1299
  C  C2896  1  0.802920  0.835300  0.286540  1.0  -0.0391
  C  C2897  1  0.340360  0.476500  0.579230  1.0  -0.0768
  C  C2898  1  0.453720  0.800460  0.563590  1.0  -0.129
  C  C2899  1  0.443680  0.800110  0.553640  1.0  0.0011
  C  C2900  1  0.823840  0.710510  0.313080  1.0  -0.1247
  C  C2901  1  0.429310  0.812080  0.553360  1.0  0.1413
  C  C2902  1  0.425200  0.823710  0.562500  1.0  -0.1297
  C  C2903  1  0.435240  0.824060  0.572450  1.0  0.0126
  C  C2904  1  0.318570  0.022520  0.653050  1.0  -0.1282
  C  C2905  1  0.306290  0.037390  0.653700  1.0  -0.125
  C  C2906  1  0.294950  0.042310  0.644730  1.0  0.0114
  C  C2907  1  0.296670  0.031410  0.635070  1.0  -0.1272
  C  C2908  1  0.387330  0.508130  0.689300  1.0  -0.024
  C  C2909  1  0.308960  0.016540  0.634420  1.0  -0.1304
  C  C2910  1  0.320300  0.011620  0.643390  1.0  0.0083
  C  C2911  1  0.496540  0.857360  0.708620  1.0  -0.123
  C  C2912  1  0.823490  0.695950  0.312320  1.0  -0.1327
  C  C2913  1  0.506930  0.852320  0.718030  1.0  -0.12
  C  C2914  1  0.504450  0.860380  0.728300  1.0  0.0167
  C  C2915  1  0.491050  0.873720  0.728660  1.0  -0.1179
  C  C2916  1  0.480670  0.878760  0.719240  1.0  -0.1303
  C  C2917  1  0.483140  0.870710  0.708980  1.0  0.0215
  C  C2918  1  0.448090  0.787650  0.543860  1.0  -0.0817
  C  C2919  1  0.383520  0.512200  0.698080  1.0  -0.0255
  C  C2920  1  0.451760  0.777320  0.535790  1.0  -0.0316
  C  C2921  1  0.515490  0.855020  0.738360  1.0  -0.0707
  C  C2922  1  0.524510  0.850710  0.746770  1.0  -0.0728
  C  C2923  1  0.281770  0.058270  0.645420  1.0  -0.084
  C  C2924  1  0.830220  0.687840  0.320880  1.0  0.016
  C  C2925  1  0.270880  0.071450  0.645990  1.0  -0.0886
  C  C2926  1  0.446280  0.764180  0.516100  1.0  -0.1291
  C  C2927  1  0.450430  0.752280  0.507080  1.0  -0.0861
  C  C2928  1  0.464840  0.740280  0.507470  1.0  -0.0987
  C  C2929  1  0.474820  0.740980  0.517440  1.0  -0.0823
  C  C2930  1  0.526750  0.458530  0.635510  1.0  -0.1239
  C  C2931  1  0.470650  0.752870  0.526450  1.0  -0.1176
  C  C2932  1  0.456250  0.764780  0.526070  1.0  0.0256
  C  C2933  1  0.530850  0.852970  0.766900  1.0  -0.1269
  C  C2934  1  0.540390  0.848390  0.776620  1.0  -0.0923
  C  C2935  1  0.554790  0.836370  0.777130  1.0  -0.0779
  C  C2936  1  0.869940  0.980550  0.158200  1.0  -0.1211
  C  C2937  1  0.837310  0.695160  0.330240  1.0  -0.13
  C  C2938  1  0.559120  0.829220  0.767290  1.0  -0.0901
  C  C2939  1  0.549490  0.833840  0.757510  1.0  0.0299
  C  C2940  1  0.535070  0.845790  0.757080  1.0  0.0223
  C  C2941  1  0.541910  0.455990  0.637000  1.0  -0.1185
  C  C2942  1  0.247300  0.093030  0.637540  1.0  -0.1102
  C  C2943  1  0.234940  0.107840  0.638160  1.0  -0.0843
  C  C2944  1  0.232180  0.118020  0.647960  1.0  -0.1004
  C  C2945  1  0.242620  0.112380  0.657100  1.0  -0.0883
  C  C2946  1  0.254970  0.097550  0.656460  1.0  -0.1097
  C  C2947  1  0.257690  0.087400  0.646670  1.0  0.0039
  C  C2948  1  0.335540  0.303860  0.817350  1.0  -0.0569
  C  C2949  1  0.837660  0.709730  0.331000  1.0  -0.127
  C  C2950  1  0.327660  0.296600  0.808190  1.0  -0.052
  C  C2951  1  0.319190  0.303400  0.798850  1.0  -0.0759
  C  C2952  1  0.550880  0.459060  0.647130  1.0  -0.0022
  C  C2953  1  0.318930  0.318180  0.799060  1.0  -0.0365
  C  C2954  1  0.326580  0.326010  0.808000  1.0  -0.0609
  C  C2955  1  0.334820  0.318410  0.816910  1.0  -0.0399
  C  C2956  1  0.297980  0.303240  0.781590  1.0  -0.1191
  C  C2957  1  0.290150  0.295650  0.772660  1.0  -0.0984
  C  C2958  1  0.294290  0.279390  0.770380  1.0  -0.0071
  C  C2959  1  0.306810  0.271200  0.777650  1.0  -0.0498
  C  C2960  1  0.314650  0.278750  0.786600  1.0  -0.123
  C  C2961  1  0.830940  0.717840  0.322440  1.0  0.0113
  C  C2962  1  0.310550  0.295090  0.788950  1.0  -0.0035
  C  C2963  1  0.843820  0.855280  0.347020  1.0  -0.1253
  C  C2964  1  0.346900  0.305600  0.837810  1.0  -0.1206
  C  C2965  1  0.355480  0.299000  0.847100  1.0  -0.0464
  C  C2966  1  0.362400  0.282810  0.846780  1.0  -0.0169
  C  C2967  1  0.360120  0.273570  0.836600  1.0  -0.0662
  C  C2968  1  0.351490  0.280160  0.827270  1.0  -0.1119
  C  C2969  1  0.344660  0.296430  0.827540  1.0  -0.014
  C  C2970  1  0.327910  0.352780  0.817930  1.0  -0.1221
  C  C2971  1  0.328070  0.367290  0.818350  1.0  -0.0475
  C  C2972  1  0.326570  0.372220  0.809170  1.0  -0.0088
  C  C2973  1  0.742950  0.890630  0.229070  1.0  -0.0748
  C  C2974  1  0.543530  0.464860  0.655650  1.0  -0.1045
  C  C2975  1  0.324750  0.361780  0.799490  1.0  -0.1009
  C  C2976  1  0.324560  0.347230  0.799030  1.0  -0.1008
  C  C2977  1  0.326250  0.342140  0.808260  1.0  -0.0235
  C  C2978  1  0.371680  0.275880  0.856790  1.0  -0.0398
  C  C2979  1  0.379340  0.270310  0.865130  1.0  -0.0419
  C  C2980  1  0.285880  0.271230  0.760770  1.0  -0.0672
  C  C2981  1  0.278950  0.264490  0.752850  1.0  -0.0485
  C  C2982  1  0.326900  0.387770  0.809780  1.0  -0.0387
  C  C2983  1  0.327220  0.400640  0.810400  1.0  -0.0432
  C  C2984  1  0.390590  0.249040  0.876410  1.0  -0.1314
  C  C2985  1  0.528380  0.467390  0.654160  1.0  -0.1299
  C  C2986  1  0.735380  0.896340  0.220770  1.0  -0.0816
  C  C2987  1  0.399230  0.242820  0.885870  1.0  -0.1245
  C  C2988  1  0.406360  0.250850  0.894700  1.0  0.0058
  C  C2989  1  0.404360  0.265450  0.893530  1.0  -0.1249
  C  C2990  1  0.395730  0.271660  0.884070  1.0  -0.1373
  C  C2991  1  0.388590  0.263640  0.875240  1.0  0.0095
  C  C2992  1  0.320630  0.424540  0.802750  1.0  -0.1319
  C  C2993  1  0.321010  0.439100  0.803530  1.0  -0.1304
  C  C2994  1  0.328390  0.446220  0.812820  1.0  0.0168
  C  C2995  1  0.335390  0.437920  0.821290  1.0  -0.1289
  C  C2996  1  0.519400  0.464330  0.644040  1.0  0.005
  C  C2997  1  0.335010  0.423360  0.820510  1.0  -0.1278
  C  C2998  1  0.829850  0.672240  0.320080  1.0  -0.0904
  C  C2999  1  0.327620  0.416230  0.811220  1.0  0.0098
  C  C3000  1  0.271380  0.241420  0.742790  1.0  -0.126
  C  C3001  1  0.263580  0.233800  0.733860  1.0  -0.1366
  C  C3002  1  0.254440  0.240520  0.724800  1.0  0.016
  C  C3003  1  0.253610  0.255400  0.725260  1.0  -0.1354
  C  C3004  1  0.261410  0.263020  0.734190  1.0  -0.1355
  C  C3005  1  0.270560  0.256290  0.743250  1.0  0.0141
  C  C3006  1  0.415570  0.244180  0.904810  1.0  -0.079
  C  C3007  1  0.395520  0.487190  0.637360  1.0  -0.012
  C  C3008  1  0.364870  0.519380  0.709360  1.0  -0.1261
  C  C3009  1  0.423140  0.238540  0.913140  1.0  -0.0733
  C  C3010  1  0.246070  0.232300  0.715200  1.0  -0.0809
  C  C3011  1  0.829570  0.659360  0.319480  1.0  -0.0847
  C  C3012  1  0.239200  0.225450  0.707310  1.0  -0.0898
  C  C3013  1  0.328790  0.461820  0.813640  1.0  -0.0823
  C  C3014  1  0.329090  0.474700  0.814270  1.0  -0.0804
  C  C3015  1  0.441980  0.237070  0.931310  1.0  -0.1104
  C  C3016  1  0.450380  0.230180  0.940570  1.0  -0.0832
  C  C3017  1  0.449390  0.217250  0.942130  1.0  -0.1063
  C  C3018  1  0.439500  0.211740  0.933900  1.0  -0.0877
  C  C3019  1  0.360580  0.523970  0.719290  1.0  -0.1248
  C  C3020  1  0.431160  0.218610  0.924710  1.0  -0.1323
  C  C3021  1  0.432140  0.231450  0.923110  1.0  0.0101
  C  C3022  1  0.220580  0.223940  0.689090  1.0  -0.1104
  C  C3023  1  0.912510  0.901520  0.418370  1.0  -0.0882
  C  C3024  1  0.212870  0.215980  0.680320  1.0  -0.0869
  C  C3025  1  0.215060  0.200500  0.679690  1.0  -0.1038
  C  C3026  1  0.225470  0.193600  0.688430  1.0  -0.0858
  C  C3027  1  0.233140  0.201550  0.697160  1.0  -0.1327
  C  C3028  1  0.230950  0.216990  0.697810  1.0  0.0116
  C  C3029  1  0.324620  0.496890  0.805770  1.0  -0.1285
  C  C3030  1  0.370100  0.526570  0.729150  1.0  0.0118
  C  C3031  1  0.324830  0.511380  0.806230  1.0  -0.0863
  C  C3032  1  0.329830  0.520240  0.815830  1.0  -0.0995
  C  C3033  1  0.334620  0.513620  0.824980  1.0  -0.0867
  C  C3034  1  0.334390  0.499060  0.824500  1.0  -0.1319
  C  C3035  1  0.919400  0.908350  0.426260  1.0  -0.0913
  C  C3036  1  0.329380  0.490270  0.814880  1.0  0.0032
  C  C3037  1  0.739560  0.173540  0.976970  1.0  -0.0441
  C  C3038  1  0.738130  0.188660  0.976990  1.0  -0.044
  C  C3039  1  0.724400  0.202000  0.976820  1.0  -0.0009
  C  C3040  1  0.711790  0.199920  0.976500  1.0  -0.0706
  C  C3041  1  0.384160  0.524310  0.728510  1.0  -0.1213
  C  C3042  1  0.712340  0.185350  0.976540  1.0  -0.0223
  C  C3043  1  0.726350  0.172230  0.976660  1.0  -0.0769
  C  C3044  1  0.712430  0.232020  0.981880  1.0  -0.1183
  C  C3045  1  0.710470  0.247150  0.981750  1.0  -0.0432
  C  C3046  1  0.718780  0.249520  0.976690  1.0  -0.0041
  C  C3047  1  0.727230  0.916500  0.209350  1.0  -0.1284
  C  C3048  1  0.729320  0.236020  0.971860  1.0  -0.1024
  C  C3049  1  0.731340  0.220820  0.972000  1.0  -0.1119
  C  C3050  1  0.722840  0.218400  0.976940  1.0  -0.0167
  C  C3051  1  0.756420  0.143700  0.973030  1.0  -0.1136
  C  C3052  1  0.388450  0.519710  0.718580  1.0  -0.1285
  C  C3053  1  0.770500  0.130760  0.973300  1.0  -0.0413
  C  C3054  1  0.783940  0.132520  0.977960  1.0  0.048
  C  C3055  1  0.782520  0.147940  0.982360  1.0  -0.0858
  C  C3056  1  0.768490  0.160880  0.982090  1.0  -0.1209
  C  C3057  1  0.754920  0.159240  0.977380  1.0  -0.0072
  C  C3058  1  0.694690  0.171210  0.971230  1.0  -0.1133
  C  C3059  1  0.857480  0.978790  0.158760  1.0  -0.0565
  C  C3060  1  0.718880  0.923450  0.200190  1.0  -0.0819
  C  C3061  1  0.680980  0.171020  0.970760  1.0  -0.0367
  C  C3062  1  0.669890  0.183900  0.975540  1.0  0.0368
  C  C3063  1  0.378930  0.517110  0.708710  1.0  0.0167
  C  C3064  1  0.673230  0.196870  0.980910  1.0  -0.0406
  C  C3065  1  0.686840  0.197110  0.981370  1.0  -0.1118
  C  C3066  1  0.697940  0.184380  0.976450  1.0  -0.0154
  C  C3067  1  0.799020  0.118740  0.978250  1.0  -0.0622
  C  C3068  1  0.811540  0.107410  0.978520  1.0  -0.0769
  C  C3069  1  0.716420  0.265710  0.976500  1.0  -0.0327
  C  C3070  1  0.714290  0.279240  0.976400  1.0  -0.0314
  C  C3071  1  0.655160  0.184020  0.974980  1.0  -0.0487
  C  C3072  1  0.709100  0.917860  0.191890  1.0  -0.1021
  C  C3073  1  0.642850  0.184410  0.974610  1.0  -0.0433
  C  C3074  1  0.329220  0.470800  0.558770  1.0  -0.1181
  C  C3075  1  0.839800  0.095810  0.980780  1.0  -0.1298
  C  C3076  1  0.853970  0.083050  0.981100  1.0  -0.1264
  C  C3077  1  0.855840  0.067500  0.979520  1.0  0.0155
  C  C3078  1  0.842730  0.065440  0.977600  1.0  -0.1302
  C  C3079  1  0.828560  0.078200  0.977280  1.0  -0.134
  C  C3080  1  0.826690  0.093750  0.978850  1.0  0.015
  C  C3081  1  0.615780  0.199330  0.976070  1.0  -0.1255
  C  C3082  1  0.601780  0.200000  0.975720  1.0  -0.119
  C  C3083  1  0.599280  0.186440  0.973480  1.0  0.0052
  C  C3084  1  0.708240  0.904790  0.193340  1.0  -0.0821
  C  C3085  1  0.851670  0.862810  0.355970  1.0  -0.0504
  C  C3086  1  0.611440  0.172190  0.971610  1.0  -0.1185
  C  C3087  1  0.625440  0.171530  0.971970  1.0  -0.1206
  C  C3088  1  0.627940  0.185080  0.974200  1.0  0.014
  C  C3089  1  0.722780  0.299040  0.975500  1.0  -0.1249
  C  C3090  1  0.720280  0.314420  0.975440  1.0  -0.0937
  C  C3091  1  0.706510  0.327020  0.976200  1.0  0.0143
  C  C3092  1  0.695360  0.323570  0.977010  1.0  -0.1074
  C  C3093  1  0.697860  0.308190  0.977070  1.0  -0.1214
  C  C3094  1  0.711630  0.295580  0.976310  1.0  0.0113
  C  C3095  1  0.871000  0.053840  0.979880  1.0  -0.0851
  C  C3096  1  0.317390  0.469830  0.549760  1.0  -0.1212
  C  C3097  1  0.716650  0.897820  0.202560  1.0  -0.1028
  C  C3098  1  0.883520  0.042520  0.980170  1.0  -0.086
  C  C3099  1  0.703900  0.343360  0.976140  1.0  -0.0776
  C  C3100  1  0.701880  0.356870  0.976100  1.0  -0.0717
  C  C3101  1  0.584380  0.187130  0.973130  1.0  -0.076
  C  C3102  1  0.572080  0.187600  0.972850  1.0  -0.0761
  C  C3103  1  0.900730  0.013760  0.980870  1.0  -0.1318
  C  C3104  1  0.914810  0.000880  0.981220  1.0  -0.0885
  C  C3105  1  0.927660  0.002230  0.981250  1.0  -0.1009
  C  C3106  1  0.925540  0.017290  0.980900  1.0  -0.0834
  C  C3107  1  0.303030  0.473390  0.550750  1.0  0.0033
  C  C3108  1  0.911430  0.030180  0.980550  1.0  -0.1336
  C  C3109  1  0.726370  0.903520  0.210830  1.0  0.0127
  C  C3110  1  0.898630  0.028770  0.980530  1.0  0.0145
  C  C3111  1  0.686170  0.386040  0.976370  1.0  -0.1179
  C  C3112  1  0.684430  0.401190  0.976340  1.0  -0.0709
  C  C3113  1  0.696290  0.403940  0.975980  1.0  -0.106
  C  C3114  1  0.709880  0.390830  0.975640  1.0  -0.0808
  C  C3115  1  0.711580  0.375780  0.975670  1.0  -0.1268
  C  C3116  1  0.699800  0.373010  0.976040  1.0  0.0167
  C  C3117  1  0.556160  0.174500  0.972850  1.0  -0.132
  C  C3118  1  0.405630  0.488800  0.647310  1.0  -0.0431
  C  C3119  1  0.301430  0.478010  0.561460  1.0  -0.1262
  C  C3120  1  0.542470  0.174640  0.972630  1.0  -0.0805
  C  C3121  1  0.529180  0.188230  0.972070  1.0  -0.1094
  C  C3122  1  0.834240  0.637090  0.327970  1.0  -0.1303
  C  C3123  1  0.530350  0.201700  0.971710  1.0  -0.0882
  C  C3124  1  0.544110  0.201530  0.971940  1.0  -0.1356
  C  C3125  1  0.557350  0.187920  0.972530  1.0  0.0139
  C  C3126  1  0.067400  0.050330  0.330290  1.0  0.572
  C  C3127  1  0.056710  0.045030  0.289100  1.0  0.5176
  C  C3128  1  0.040110  0.099990  0.313070  1.0  0.5068
  C  C3129  1  0.085320  0.078830  0.295310  1.0  0.5661
  C  C3130  1  0.313250  0.478980  0.570470  1.0  -0.1224
  C  C3131  1  0.093580  0.086320  0.336370  1.0  0.5125
  C  C3132  1  0.111980  0.029420  0.312470  1.0  0.4377
  C  C3133  1  0.845810  0.802130  0.811920  1.0  -0.1117
  C  C3134  1  0.834050  0.622580  0.327520  1.0  -0.0851
  C  C3135  1  0.831700  0.803120  0.812060  1.0  -0.0361
  C  C3136  1  0.824460  0.811500  0.820890  1.0  -0.0958
  C  C3137  1  0.832340  0.819070  0.830040  1.0  0.0118
  C  C3138  1  0.846600  0.818630  0.830620  1.0  -0.0939
  C  C3139  1  0.852820  0.810060  0.821330  1.0  -0.0343
  C  C3140  1  0.803190  0.815300  0.829580  1.0  -0.119
  C  C3141  1  0.327600  0.475420  0.569480  1.0  -0.0028
  C  C3142  1  0.789070  0.815610  0.829050  1.0  -0.1047
  C  C3143  1  0.779220  0.812830  0.819340  1.0  -0.0011
  C  C3144  1  0.784620  0.809740  0.810200  1.0  -0.0181
  C  C3145  1  0.798720  0.809390  0.810710  1.0  -0.1281
  C  C3146  1  0.828910  0.613800  0.317940  1.0  -0.1
  C  C3147  1  0.808720  0.812100  0.820420  1.0  -0.0319
  C  C3148  1  0.868730  0.786660  0.802570  1.0  -0.1155
  C  C3149  1  0.875420  0.778190  0.793530  1.0  -0.0377
  C  C3150  1  0.867230  0.775140  0.783080  1.0  -0.0127
  C  C3151  1  0.851810  0.781210  0.782350  1.0  -0.0371
  C  C3152  1  0.567250  0.456320  0.648730  1.0  -0.0856
  C  C3153  1  0.845090  0.789660  0.791380  1.0  -0.1108
  C  C3154  1  0.853250  0.792770  0.801910  1.0  -0.0299
  C  C3155  1  0.870640  0.822880  0.843080  1.0  -0.1291
  C  C3156  1  0.878370  0.830540  0.852160  1.0  -0.0197
  C  C3157  1  0.871290  0.843110  0.859810  1.0  -0.0046
  C  C3158  1  0.823960  0.620500  0.308810  1.0  -0.086
  C  C3159  1  0.855830  0.847370  0.857650  1.0  -0.1112
  C  C3160  1  0.848060  0.839710  0.848570  1.0  -0.1132
  C  C3161  1  0.855100  0.827120  0.840820  1.0  -0.0363
  C  C3162  1  0.874470  0.766010  0.773320  1.0  -0.053
  C  C3163  1  0.580720  0.454060  0.650010  1.0  -0.091
  C  C3164  1  0.880430  0.758490  0.765290  1.0  -0.0514
  C  C3165  1  0.763950  0.813130  0.818710  1.0  -0.0721
  C  C3166  1  0.751380  0.813350  0.818130  1.0  -0.0571
  C  C3167  1  0.879760  0.851360  0.869610  1.0  -0.0729
  C  C3168  1  0.886790  0.858090  0.877640  1.0  -0.0534
  C  C3169  1  0.880710  0.742110  0.745980  1.0  -0.1285
  C  C3170  1  0.824160  0.635060  0.309280  1.0  -0.1269
  C  C3171  1  0.887430  0.733640  0.736940  1.0  -0.1208
  C  C3172  1  0.901620  0.731790  0.736790  1.0  0.0033
  C  C3173  1  0.908580  0.739050  0.746340  1.0  -0.1295
  C  C3174  1  0.290250  0.472350  0.541020  1.0  -0.0804
  C  C3175  1  0.901870  0.747510  0.755380  1.0  -0.1231
  C  C3176  1  0.887680  0.749360  0.755540  1.0  0.0052
  C  C3177  1  0.889540  0.875980  0.896480  1.0  -0.1201
  C  C3178  1  0.897480  0.883510  0.905500  1.0  -0.1255
  C  C3179  1  0.911920  0.881920  0.906180  1.0  0.0051
  C  C3180  1  0.917750  0.872200  0.897100  1.0  -0.1122
  C  C3181  1  0.909810  0.864670  0.888080  1.0  -0.121
  C  C3182  1  0.851750  0.968590  0.150930  1.0  -0.0189
  C  C3183  1  0.829310  0.643780  0.318880  1.0  0.0187
  C  C3184  1  0.895380  0.866250  0.887410  1.0  0.0033
  C  C3185  1  0.279710  0.471490  0.533020  1.0  -0.0894
  C  C3186  1  0.728110  0.807080  0.808040  1.0  -0.1178
  C  C3187  1  0.713980  0.807310  0.807360  1.0  -0.131
  C  C3188  1  0.706680  0.814090  0.815980  1.0  0.0033
  C  C3189  1  0.714660  0.820610  0.825330  1.0  -0.1321
  C  C3190  1  0.728790  0.820380  0.826020  1.0  -0.115
  C  C3191  1  0.736090  0.813600  0.817400  1.0  -0.0031
  C  C3192  1  0.908880  0.722660  0.727040  1.0  -0.0858
  C  C3193  1  0.914900  0.715170  0.719030  1.0  -0.0896
  C  C3194  1  0.691390  0.814340  0.815240  1.0  -0.0935
  C  C3195  1  0.925660  0.932130  0.436340  1.0  -0.1375
  C  C3196  1  0.365510  0.531510  0.739790  1.0  -0.079
  C  C3197  1  0.678830  0.814560  0.814670  1.0  -0.0927
  C  C3198  1  0.920530  0.890060  0.915940  1.0  -0.0924
  C  C3199  1  0.927610  0.896750  0.923960  1.0  -0.0998
  C  C3200  1  0.934760  0.707390  0.708400  1.0  -0.1328
  C  C3201  1  0.941740  0.699060  0.699510  1.0  -0.0869
  C  C3202  1  0.936860  0.688800  0.690840  1.0  -0.0949
  C  C3203  1  0.924380  0.687540  0.691780  1.0  -0.0881
  C  C3204  1  0.917380  0.695910  0.700710  1.0  -0.1228
  C  C3205  1  0.922330  0.706140  0.709360  1.0  0.0019
  C  C3206  1  0.657270  0.820080  0.823090  1.0  -0.1363
  C  C3207  1  0.864220  0.854590  0.363200  1.0  -0.0071
  C  C3208  1  0.933350  0.940050  0.445070  1.0  -0.0901
  C  C3209  1  0.643200  0.820380  0.822610  1.0  -0.0909
  C  C3210  1  0.634200  0.815520  0.813070  1.0  -0.0888
  C  C3211  1  0.640490  0.810320  0.804020  1.0  -0.091
  C  C3212  1  0.654600  0.810020  0.804510  1.0  -0.1186
  C  C3213  1  0.663550  0.814880  0.814070  1.0  0.0027
  C  C3214  1  0.950580  0.903450  0.934270  1.0  -0.1207
  C  C3215  1  0.958530  0.911050  0.943230  1.0  -0.088
  C  C3216  1  0.952820  0.920690  0.952390  1.0  -0.0866
  C  C3217  1  0.938470  0.922100  0.951820  1.0  -0.0851
  C  C3218  1  0.361740  0.535610  0.748590  1.0  -0.0778
  C  C3219  1  0.930530  0.914500  0.942860  1.0  -0.1247
  C  C3220  1  0.943600  0.933200  0.453870  1.0  -0.1011
  C  C3221  1  0.936240  0.904890  0.933710  1.0  0.0817
  C  C3222  1  0.844770  0.299940  0.821800  1.0  -0.1052
  C  C3223  1  0.836510  0.306400  0.812270  1.0  -0.0593
  C  C3224  1  0.822400  0.319540  0.811600  1.0  -0.0774
  C  C3225  1  0.816600  0.326370  0.821010  1.0  -0.0322
  C  C3226  1  0.823830  0.320700  0.830770  1.0  -0.0562
  C  C3227  1  0.837990  0.307490  0.830940  1.0  0.0038
  C  C3228  1  0.797740  0.334330  0.798880  1.0  -0.12
  C  C3229  1  0.420230  0.485730  0.646940  1.0  -0.0071
  C  C3230  1  0.606510  0.453540  0.661540  1.0  0.0819
  C  C3231  1  0.789420  0.341070  0.789600  1.0  -0.0389
  C  C3232  1  0.796110  0.340440  0.781880  1.0  0.0066
  C  C3233  1  0.945600  0.917810  0.453310  1.0  -0.0799
  C  C3234  1  0.811700  0.332470  0.784000  1.0  -0.063
  C  C3235  1  0.820080  0.325660  0.793300  1.0  -0.1043
  C  C3236  1  0.813400  0.326460  0.801150  1.0  -0.0268
  C  C3237  1  0.866600  0.275180  0.829550  1.0  -0.1194
  C  C3238  1  0.880600  0.261860  0.829670  1.0  -0.1292
  C  C3239  1  0.889540  0.257550  0.822370  1.0  0.0022
  C  C3240  1  0.883420  0.267580  0.814960  1.0  -0.1323
  C  C3241  1  0.621620  0.451060  0.662800  1.0  -0.0919
  C  C3242  1  0.869430  0.280870  0.814810  1.0  -0.1229
  C  C3243  1  0.860350  0.285270  0.822090  1.0  -0.0132
  C  C3244  1  0.824070  0.329620  0.851420  1.0  -0.0914
  C  C3245  1  0.937870  0.909880  0.444540  1.0  -0.1057
  C  C3246  1  0.816840  0.337840  0.860210  1.0  -0.1032
  C  C3247  1  0.801270  0.345930  0.858850  1.0  0.0359
  C  C3248  1  0.793430  0.345130  0.848130  1.0  -0.0274
  C  C3249  1  0.800600  0.336990  0.839370  1.0  -0.1291
  C  C3250  1  0.816210  0.329020  0.840630  1.0  -0.0406
  C  C3251  1  0.904650  0.243180  0.822470  1.0  -0.0499
  C  C3252  1  0.628440  0.446080  0.654060  1.0  -0.0899
  C  C3253  1  0.917090  0.231360  0.822510  1.0  -0.0488
  C  C3254  1  0.787020  0.347870  0.771990  1.0  -0.0421
  C  C3255  1  0.779370  0.354070  0.763860  1.0  -0.0418
  C  C3256  1  0.793340  0.354920  0.868180  1.0  -0.0671
  C  C3257  1  0.927660  0.916780  0.435750  1.0  0.0101
  C  C3258  1  0.786600  0.362420  0.875770  1.0  -0.0724
  C  C3259  1  0.937670  0.208350  0.813170  1.0  -0.1278
  C  C3260  1  0.951670  0.195060  0.813190  1.0  -0.1089
  C  C3261  1  0.961270  0.189420  0.822580  1.0  -0.0
  C  C3262  1  0.955800  0.198080  0.831950  1.0  -0.105
  C  C3263  1  0.618950  0.443810  0.644010  1.0  -0.0832
  C  C3264  1  0.941800  0.211360  0.831920  1.0  -0.1236
  C  C3265  1  0.932200  0.217010  0.822530  1.0  0.0042
  C  C3266  1  0.763550  0.382880  0.883320  1.0  -0.1209
  C  C3267  1  0.755820  0.391370  0.891810  1.0  -0.1407
  C  C3268  1  0.762330  0.389120  0.902460  1.0  0.0117
  C  C3269  1  0.192940  0.438720  0.475990  1.0  0.488
  C  C3270  1  0.777090  0.377790  0.904050  1.0  -0.1319
  C  C3271  1  0.784830  0.369300  0.895560  1.0  -0.1268
  C  C3272  1  0.778310  0.371550  0.884910  1.0  0.01
  C  C3273  1  0.775020  0.356930  0.744520  1.0  -0.1326
  C  C3274  1  0.603890  0.446290  0.642760  1.0  -0.0684
  C  C3275  1  0.766280  0.363980  0.735380  1.0  -0.107
  C  C3276  1  0.752000  0.376170  0.735190  1.0  0.012
  C  C3277  1  0.747010  0.380870  0.744720  1.0  -0.1117
  C  C3278  1  0.755750  0.373820  0.753860  1.0  -0.127
  C  C3279  1  0.770020  0.361630  0.754050  1.0  0.0127
  C  C3280  1  0.976380  0.175070  0.822600  1.0  -0.0904
  C  C3281  1  0.171720  0.496630  0.495470  1.0  0.5117
  C  C3282  1  0.988820  0.163260  0.822610  1.0  -0.0969
  C  C3283  1  0.742640  0.383720  0.725380  1.0  -0.0872
  C  C3284  1  0.734930  0.389940  0.717260  1.0  -0.0897
  C  C3285  1  0.597060  0.451280  0.651470  1.0  0.0056
  C  C3286  1  0.754020  0.398240  0.911590  1.0  -0.0791
  C  C3287  1  0.747180  0.405740  0.919120  1.0  -0.083
  C  C3288  1  0.013910  0.143690  0.832030  1.0  -0.1264
  C  C3289  1  0.027890  0.130380  0.832010  1.0  -0.0828
  C  C3290  1  0.032980  0.121240  0.822560  1.0  -0.0918
  C  C3291  1  0.022970  0.126470  0.813130  1.0  -0.078
  C  C3292  1  0.009000  0.139780  0.813160  1.0  -0.129
  C  C3293  1  0.228270  0.468820  0.495160  1.0  0.4481
  C  C3294  1  0.003930  0.148900  0.822600  1.0  0.0054
  C  C3295  1  0.711540  0.409870  0.707150  1.0  -0.1298
  C  C3296  1  0.255430  0.467040  0.523840  1.0  -0.1268
  C  C3297  1  0.703040  0.416940  0.697980  1.0  -0.0864
  C  C3298  1  0.708160  0.411960  0.688460  1.0  -0.1039
  C  C3299  1  0.722300  0.399460  0.688740  1.0  -0.0899
  C  C3300  1  0.730770  0.392420  0.697900  1.0  -0.1275
  C  C3301  1  0.725690  0.397420  0.707410  1.0  0.1484
  C  C3302  1  0.743300  0.409210  0.937850  1.0  -0.1287
  C  C3303  1  0.735640  0.417450  0.946380  1.0  -0.0856
  C  C3304  1  0.723090  0.431850  0.945970  1.0  -0.0967
  C  C3305  1  0.859140  0.960260  0.142490  1.0  -0.1005
  C  C3306  1  0.193880  0.511350  0.472440  1.0  0.5064
  C  C3307  1  0.243450  0.466260  0.514920  1.0  -0.0849
  C  C3308  1  0.718740  0.437420  0.936410  1.0  -0.085
  C  C3309  1  0.726420  0.429140  0.927870  1.0  -0.1081
  C  C3310  1  0.738940  0.414740  0.928300  1.0  0.0078
  C  C3311  1  0.952550  0.398770  0.656770  1.0  -0.0506
  C  C3312  1  0.953170  0.412900  0.657020  1.0  -0.0684
  C  C3313  1  0.940750  0.427410  0.657330  1.0  0.0207
  C  C3314  1  0.927070  0.427630  0.657300  1.0  -0.0556
  C  C3315  1  0.925460  0.413960  0.657030  1.0  -0.0592
  C  C3316  1  0.938450  0.399530  0.656630  1.0  -0.0415
  C  C3317  1  0.930670  0.454770  0.652860  1.0  -0.1193
  C  C3318  1  0.241980  0.468790  0.504750  1.0  -0.1
  C  C3319  1  0.213550  0.453300  0.452400  1.0  0.4351
  C  C3320  1  0.932330  0.468320  0.653100  1.0  -0.0864
  C  C3321  1  0.945620  0.470170  0.658210  1.0  -0.0008
  C  C3322  1  0.957150  0.457930  0.663120  1.0  -0.0971
  C  C3323  1  0.955540  0.444380  0.662870  1.0  -0.1217
  C  C3324  1  0.942270  0.442370  0.657710  1.0  0.0364
  C  C3325  1  0.967320  0.368640  0.651300  1.0  -0.1047
  C  C3326  1  0.980860  0.355060  0.650820  1.0  -0.0511
  C  C3327  1  0.994840  0.355540  0.655750  1.0  0.0289
  C  C3328  1  0.994530  0.370250  0.661310  1.0  -0.0236
  C  C3329  1  0.868390  0.838320  0.360900  1.0  -0.0902
  C  C3330  1  0.981090  0.383780  0.661770  1.0  -0.1064
  C  C3331  1  0.156950  0.483800  0.454510  1.0  0.4498
  C  C3332  1  0.967020  0.383500  0.656690  1.0  -0.0204
  C  C3333  1  0.905240  0.403010  0.652410  1.0  -0.1062
  C  C3334  1  0.890910  0.404630  0.652360  1.0  -0.0368
  C  C3335  1  0.880590  0.418480  0.657190  1.0  0.0175
  C  C3336  1  0.885460  0.430540  0.662160  1.0  -0.0748
  C  C3337  1  0.899700  0.428970  0.662200  1.0  -0.1235
  C  C3338  1  0.910080  0.415210  0.657250  1.0  -0.0221
  C  C3339  1  0.009420  0.341280  0.655200  1.0  -0.0543
  C  C3340  1  0.371530  0.490060  0.616270  1.0  -0.1194
  C  C3341  1  0.253480  0.472170  0.504230  1.0  -0.0874
  C  C3342  1  0.021640  0.329670  0.654840  1.0  -0.0747
  C  C3343  1  0.947480  0.484480  0.658450  1.0  -0.0509
  C  C3344  1  0.233440  0.718630  0.476550  1.0  -0.0606
  C  C3345  1  0.949140  0.496310  0.658680  1.0  -0.0281
  C  C3346  1  0.865200  0.420450  0.657130  1.0  -0.0779
  C  C3347  1  0.852420  0.422290  0.657140  1.0  -0.077
  C  C3348  1  0.049760  0.317570  0.656530  1.0  -0.1327
  C  C3349  1  0.063680  0.304580  0.656210  1.0  -0.1267
  C  C3350  1  0.065100  0.289080  0.653790  1.0  0.0148
  C  C3351  1  0.051830  0.287270  0.651720  1.0  -0.1297
  C  C3352  1  0.265470  0.472950  0.513170  1.0  -0.1237
  C  C3353  1  0.037900  0.300260  0.652050  1.0  -0.1291
  C  C3354  1  0.036490  0.315770  0.654460  1.0  0.0175
  C  C3355  1  0.825510  0.439590  0.659070  1.0  -0.1305
  C  C3356  1  0.220470  0.733080  0.476960  1.0  -0.0449
  C  C3357  1  0.811050  0.441810  0.659140  1.0  -0.1341
  C  C3358  1  0.807190  0.429210  0.657320  1.0  0.0143
  C  C3359  1  0.818620  0.414270  0.655440  1.0  -0.125
  C  C3360  1  0.833080  0.412050  0.655370  1.0  -0.126
  C  C3361  1  0.836950  0.424640  0.657190  1.0  0.0139
  C  C3362  1  0.965260  0.509940  0.660050  1.0  -0.1188
  C  C3363  1  0.266880  0.470470  0.523320  1.0  -0.0021
  C  C3364  1  0.967220  0.523320  0.660350  1.0  -0.1079
  C  C3365  1  0.955200  0.537870  0.659580  1.0  0.0042
  C  C3366  1  0.941150  0.538460  0.658510  1.0  -0.115
  C  C3367  1  0.939190  0.525080  0.658210  1.0  -0.1204
  C  C3368  1  0.206340  0.733880  0.476800  1.0  -0.0487
  C  C3369  1  0.951210  0.510530  0.658970  1.0  0.0129
  C  C3370  1  0.079970  0.275190  0.653460  1.0  -0.075
  C  C3371  1  0.092240  0.263630  0.653180  1.0  -0.0895
  C  C3372  1  0.957250  0.552110  0.659910  1.0  -0.0704
  C  C3373  1  0.958860  0.563990  0.660180  1.0  -0.0708
  C  C3374  1  0.363780  0.548830  0.768370  1.0  -0.124
  C  C3375  1  0.791720  0.431570  0.657400  1.0  -0.0785
  C  C3376  1  0.778960  0.433430  0.657470  1.0  -0.0863
  C  C3377  1  0.108570  0.234610  0.652950  1.0  -0.134
  C  C3378  1  0.122230  0.221310  0.652620  1.0  -0.086
  C  C3379  1  0.135140  0.222100  0.652170  1.0  -0.0966
  C  C3380  1  0.205690  0.719750  0.476530  1.0  -0.0675
  C  C3381  1  0.133560  0.237050  0.652080  1.0  -0.0881
  C  C3382  1  0.119820  0.250390  0.652410  1.0  -0.1264
  C  C3383  1  0.106960  0.249520  0.652850  1.0  0.0177
  C  C3384  1  0.948770  0.593180  0.661470  1.0  -0.1306
  C  C3385  1  0.359530  0.553660  0.778320  1.0  -0.0849
  C  C3386  1  0.950180  0.606830  0.661690  1.0  -0.0839
  C  C3387  1  0.963470  0.606420  0.660960  1.0  -0.1007
  C  C3388  1  0.975320  0.591630  0.660020  1.0  -0.0758
  C  C3389  1  0.973880  0.577940  0.659800  1.0  -0.0949
  C  C3390  1  0.960560  0.578440  0.660500  1.0  0.0125
  C  C3391  1  0.760990  0.423000  0.658070  1.0  -0.1306
  C  C3392  1  0.218090  0.705220  0.476200  1.0  0.0222
  C  C3393  1  0.746720  0.424720  0.658120  1.0  -0.0909
  C  C3394  1  0.734140  0.439040  0.657660  1.0  -0.1054
  C  C3395  1  0.736750  0.451570  0.657160  1.0  -0.0871
  C  C3396  1  0.348470  0.550580  0.779800  1.0  -0.1025
  C  C3397  1  0.751080  0.449820  0.657110  1.0  -0.1226
  C  C3398  1  0.763600  0.435470  0.657550  1.0  0.0148
  C  C3399  1  0.501170  0.665870  0.177050  1.0  0.4356
  C  C3400  1  0.466540  0.636420  0.156010  1.0  0.4972
  C  C3401  1  0.444320  0.693040  0.178320  1.0  0.4424
  C  C3402  1  0.430730  0.683280  0.135470  1.0  0.44
  C  C3403  1  0.463740  0.713170  0.157460  1.0  0.5081
  C  C3404  1  0.231790  0.704970  0.476260  1.0  -0.0332
  C  C3405  1  0.487340  0.656040  0.136010  1.0  0.5217
  C  C3406  1  0.494840  0.385650  0.130280  1.0  -0.0463
  C  C3407  1  0.341940  0.542310  0.770680  1.0  -0.0878
  C  C3408  1  0.498740  0.381190  0.140310  1.0  -0.0496
  C  C3409  1  0.500330  0.391500  0.150240  1.0  0.006
  C  C3410  1  0.497910  0.406760  0.149970  1.0  -0.0581
  C  C3411  1  0.493790  0.412140  0.140340  1.0  -0.041
  C  C3412  1  0.492400  0.401300  0.130550  1.0  -0.0251
  C  C3413  1  0.499590  0.397250  0.170120  1.0  -0.1126
  C  C3414  1  0.503630  0.392860  0.180110  1.0  -0.0467
  C  C3415  1  0.512830  0.377490  0.181610  1.0  -0.0253
  C  C3416  1  0.177810  0.748940  0.471810  1.0  -0.1073
  C  C3417  1  0.517720  0.366660  0.172600  1.0  -0.0596
  C  C3418  1  0.346210  0.537480  0.760710  1.0  -0.1301
  C  C3419  1  0.513660  0.371020  0.162570  1.0  -0.1189
  C  C3420  1  0.504530  0.386490  0.161050  1.0  -0.0068
  C  C3421  1  0.483690  0.378450  0.109930  1.0  -0.1082
  C  C3422  1  0.482070  0.367490  0.100320  1.0  -0.1051
  C  C3423  1  0.489910  0.351250  0.099750  1.0  -0.0142
  C  C3424  1  0.499500  0.346580  0.109330  1.0  -0.0642
  C  C3425  1  0.501120  0.357480  0.118940  1.0  -0.1371
  C  C3426  1  0.493220  0.373810  0.119610  1.0  -0.0105
  C  C3427  1  0.494160  0.433680  0.133190  1.0  -0.1
  C  C3428  1  0.871590  0.962020  0.141890  1.0  -0.1177
  C  C3429  1  0.357230  0.540630  0.759260  1.0  0.0095
  C  C3430  1  0.164390  0.762500  0.472280  1.0  -0.0382
  C  C3431  1  0.492270  0.449250  0.134120  1.0  -0.0967
  C  C3432  1  0.487170  0.461230  0.142680  1.0  -0.0139
  C  C3433  1  0.483910  0.456870  0.150190  1.0  -0.0497
  C  C3434  1  0.485810  0.441370  0.149300  1.0  -0.1198
  C  C3435  1  0.491130  0.429200  0.140830  1.0  -0.0008
  C  C3436  1  0.488180  0.339460  0.089530  1.0  -0.0404
  C  C3437  1  0.486830  0.329610  0.081120  1.0  -0.0425
  C  C3438  1  0.517160  0.372970  0.192320  1.0  -0.0327
  C  C3439  1  0.520710  0.369350  0.201240  1.0  -0.031
  C  C3440  1  0.644800  0.443890  0.655130  1.0  0.4298
  C  C3441  1  0.485260  0.477840  0.143860  1.0  -0.0369
  C  C3442  1  0.164130  0.777190  0.477840  1.0  0.0078
  C  C3443  1  0.483640  0.491650  0.145000  1.0  -0.0334
  C  C3444  1  0.487880  0.302380  0.071250  1.0  -0.1206
  C  C3445  1  0.486400  0.291180  0.061780  1.0  -0.1294
  C  C3446  1  0.482180  0.294590  0.051500  1.0  0.011
  C  C3447  1  0.479530  0.309860  0.051230  1.0  -0.1301
  C  C3448  1  0.481010  0.321060  0.060700  1.0  -0.1259
  C  C3449  1  0.485230  0.317650  0.070980  1.0  0.0059
  C  C3450  1  0.482640  0.518010  0.156600  1.0  -0.1238
  C  C3451  1  0.360200  0.488750  0.606990  1.0  -0.0705
  C  C3452  1  0.860540  0.830760  0.351960  1.0  -0.1136
  C  C3453  1  0.480750  0.533670  0.158000  1.0  -0.1213
  C  C3454  1  0.477770  0.540510  0.149320  1.0  0.0151
  C  C3455  1  0.178120  0.777630  0.482780  1.0  -0.0514
  C  C3456  1  0.476780  0.530850  0.139190  1.0  -0.1205
  C  C3457  1  0.478670  0.515180  0.137790  1.0  -0.1286
  C  C3458  1  0.481650  0.508350  0.146470  1.0  0.0174
  C  C3459  1  0.528170  0.350050  0.213100  1.0  -0.124
  C  C3460  1  0.532140  0.346070  0.223240  1.0  -0.1204
  C  C3461  1  0.533050  0.356950  0.232770  1.0  0.0086
  C  C3462  1  0.529830  0.371990  0.231690  1.0  -0.1273
  C  C3463  1  0.689750  0.406390  0.635820  1.0  0.4885
  C  C3464  1  0.525870  0.375970  0.221550  1.0  -0.1118
  C  C3465  1  0.524950  0.365090  0.212020  1.0  0.0102
  C  C3466  1  0.480590  0.282590  0.041390  1.0  -0.0677
  C  C3467  1  0.191650  0.764020  0.482290  1.0  -0.1092
  C  C3468  1  0.479270  0.272610  0.033060  1.0  -0.0768
  C  C3469  1  0.537290  0.352720  0.243560  1.0  -0.0209
  C  C3470  1  0.540830  0.349230  0.252530  1.0  -0.0546
  C  C3471  1  0.475730  0.557230  0.150790  1.0  -0.0826
  C  C3472  1  0.474030  0.571070  0.151940  1.0  -0.0883
  C  C3473  1  0.480110  0.260070  0.013310  1.0  -0.1197
  C  C3474  1  0.664070  0.465820  0.635540  1.0  0.5676
  C  C3475  1  0.478850  0.248420  0.004060  1.0  -0.1036
  C  C3476  1  0.475040  0.236470  0.004050  1.0  -0.103
  C  C3477  1  0.472530  0.236950  0.013830  1.0  -0.0863
  C  C3478  1  0.473780  0.248570  0.023030  1.0  -0.1266
  C  C3479  1  0.191900  0.749170  0.476900  1.0  -0.0247
  C  C3480  1  0.477680  0.260420  0.023070  1.0  0.0139
  C  C3481  1  0.552970  0.352070  0.272330  1.0  -0.1195
  C  C3482  1  0.557250  0.348030  0.282480  1.0  -0.0842
  C  C3483  1  0.553900  0.336790  0.284170  1.0  -0.1043
  C  C3484  1  0.545990  0.329850  0.275180  1.0  -0.0802
  C  C3485  1  0.718630  0.440460  0.657580  1.0  0.4929
  C  C3486  1  0.541720  0.333900  0.265020  1.0  -0.1184
  C  C3487  1  0.545160  0.345060  0.263350  1.0  0.0073
  C  C3488  1  0.467180  0.594730  0.144250  1.0  -0.1337
  C  C3489  1  0.465310  0.610260  0.145250  1.0  -0.0844
  C  C3490  1  0.468060  0.619750  0.155230  1.0  -0.1055
  C  C3491  1  0.259230  0.703600  0.471420  1.0  -0.1241
  C  C3492  1  0.472760  0.612790  0.164190  1.0  -0.0873
  C  C3493  1  0.474630  0.597190  0.163160  1.0  -0.11
  C  C3494  1  0.471930  0.587750  0.153160  1.0  0.016
  C  C3495  1  0.540210  0.317320  0.320600  1.0  0.4156
  C  C3496  1  0.673970  0.479260  0.676340  1.0  0.5064
  C  C3497  1  0.564970  0.357220  0.335820  1.0  0.4847
  C  C3498  1  0.594840  0.302040  0.345580  1.0  0.4787
  C  C3499  1  0.611730  0.316510  0.319850  1.0  0.4978
  C  C3500  1  0.586640  0.276820  0.304810  1.0  0.5214
  C  C3501  1  0.559330  0.331840  0.295080  1.0  0.5043
  C  C3502  1  0.839560  0.289570  0.316980  1.0  -0.0474
  C  C3503  1  0.273480  0.702030  0.471470  1.0  -0.0729
  C  C3504  1  0.839200  0.304160  0.317020  1.0  -0.0661
  C  C3505  1  0.826180  0.318210  0.317240  1.0  0.0149
  C  C3506  1  0.813060  0.317450  0.317430  1.0  -0.0745
  C  C3507  1  0.699430  0.420140  0.678580  1.0  0.4749
  C  C3508  1  0.812480  0.303330  0.317400  1.0  -0.0449
  C  C3509  1  0.825940  0.289430  0.317040  1.0  -0.0433
  C  C3510  1  0.817130  0.348260  0.322470  1.0  -0.1244
  C  C3511  1  0.817340  0.362560  0.322570  1.0  -0.1019
  C  C3512  1  0.826690  0.363200  0.317460  1.0  0.0146
  C  C3513  1  0.835820  0.348880  0.312230  1.0  -0.0834
  C  C3514  1  0.835660  0.334570  0.312130  1.0  -0.1227
  C  C3515  1  0.278340  0.714100  0.476430  1.0  0.0408
  C  C3516  1  0.826310  0.333830  0.317260  1.0  0.0063
  C  C3517  1  0.855160  0.259520  0.312020  1.0  -0.108
  C  C3518  1  0.250570  0.161950  0.994800  1.0  -0.0042
  C  C3519  1  0.868900  0.246180  0.311650  1.0  -0.0944
  C  C3520  1  0.882720  0.247180  0.316220  1.0  0.0157
  C  C3521  1  0.882020  0.262200  0.321260  1.0  -0.0646
  C  C3522  1  0.868350  0.275510  0.321610  1.0  -0.1114
  C  C3523  1  0.854430  0.274680  0.316920  1.0  -0.0123
  C  C3524  1  0.793660  0.290680  0.313090  1.0  -0.1092
  C  C3525  1  0.779770  0.291330  0.313150  1.0  -0.0478
  C  C3526  1  0.769040  0.304790  0.317920  1.0  0.0263
  C  C3527  1  0.268000  0.727960  0.481250  1.0  -0.0373
  C  C3528  1  0.773040  0.317480  0.322700  1.0  -0.0422
  C  C3529  1  0.241580  0.157640  0.985110  1.0  -0.0956
  C  C3530  1  0.786850  0.316880  0.322630  1.0  -0.1263
  C  C3531  1  0.797620  0.303510  0.317750  1.0  -0.0134
  C  C3532  1  0.897480  0.233100  0.315800  1.0  -0.0595
  C  C3533  1  0.909800  0.221590  0.315520  1.0  -0.0526
  C  C3534  1  0.826920  0.378400  0.317580  1.0  -0.0546
  C  C3535  1  0.827140  0.391010  0.317670  1.0  -0.0351
  C  C3536  1  0.754120  0.305710  0.317970  1.0  -0.0821
  C  C3537  1  0.741710  0.306680  0.318080  1.0  -0.0793
  C  C3538  1  0.937860  0.209660  0.316790  1.0  -0.137
  C  C3539  1  0.253670  0.729580  0.481190  1.0  -0.1069
  C  C3540  1  0.244440  0.155110  0.975030  1.0  0.0019
  C  C3541  1  0.951860  0.196750  0.316530  1.0  -0.1152
  C  C3542  1  0.953540  0.181220  0.314670  1.0  0.0154
  C  C3543  1  0.940430  0.179320  0.313100  1.0  -0.1218
  C  C3544  1  0.926430  0.192230  0.313370  1.0  -0.1203
  C  C3545  1  0.924760  0.207770  0.315220  1.0  0.0088
  C  C3546  1  0.714670  0.322500  0.319990  1.0  -0.1253
  C  C3547  1  0.700620  0.323750  0.320150  1.0  -0.1292
  C  C3548  1  0.697750  0.310550  0.318580  1.0  0.0091
  C  C3549  1  0.709750  0.296040  0.316830  1.0  -0.1261
  C  C3550  1  0.723810  0.294790  0.316660  1.0  -0.1255
  C  C3551  1  0.257160  0.156690  0.974780  1.0  -0.0676
  C  C3552  1  0.877440  0.972210  0.149740  1.0  0.0003
  C  C3553  1  0.248840  0.717370  0.476350  1.0  -0.0238
  C  C3554  1  0.726670  0.307990  0.318240  1.0  0.0182
  C  C3555  1  0.839720  0.406740  0.316150  1.0  -0.1227
  C  C3556  1  0.839970  0.421010  0.316260  1.0  -0.1072
  C  C3557  1  0.827920  0.435390  0.318000  1.0  0.0148
  C  C3558  1  0.815600  0.434850  0.319640  1.0  -0.1113
  C  C3559  1  0.815350  0.420570  0.319540  1.0  -0.1191
  C  C3560  1  0.827400  0.406190  0.317790  1.0  0.01
  C  C3561  1  0.968500  0.167400  0.314390  1.0  -0.0035
  C  C3562  1  0.363260  0.478800  0.597210  1.0  -0.0166
  C  C3563  1  0.266810  0.160880  0.984270  1.0  -0.0019
  C  C3564  1  0.980850  0.155910  0.314160  1.0  -0.0602
  C  C3565  1  0.828180  0.450580  0.318120  1.0  -0.0855
  C  C3566  1  0.228080  0.677840  0.480630  1.0  -0.1167
  C  C3567  1  0.828390  0.463180  0.318210  1.0  -0.0874
  C  C3568  1  0.682730  0.311870  0.318770  1.0  -0.0802
  C  C3569  1  0.670320  0.312910  0.318940  1.0  -0.0779
  C  C3570  1  0.997200  0.126620  0.312640  1.0  -0.087
  C  C3571  1  0.011940  0.112860  0.312370  1.0  -0.0721
  C  C3572  1  0.025060  0.114420  0.313310  1.0  -0.1063
  C  C3573  1  0.023540  0.129820  0.314530  1.0  -0.0735
  C  C3574  1  0.847940  0.838940  0.344640  1.0  -0.0012
  C  C3575  1  0.009740  0.143110  0.314820  1.0  -0.0812
  C  C3576  1  0.995680  0.141900  0.313850  1.0  -0.0176
  C  C3577  1  0.816470  0.492720  0.319950  1.0  -0.1256
  C  C3578  1  0.226360  0.664310  0.480370  1.0  -0.0962
  C  C3579  1  0.816630  0.507020  0.320030  1.0  -0.0856
  C  C3580  1  0.828970  0.507690  0.318480  1.0  -0.0993
  C  C3581  1  0.841130  0.493320  0.316860  1.0  -0.0876
  C  C3582  1  0.840940  0.479020  0.316780  1.0  -0.1271
  C  C3583  1  0.828610  0.478390  0.318320  1.0  0.0248
  C  C3584  1  0.653990  0.301640  0.321130  1.0  -0.1248
  C  C3585  1  0.263210  0.163420  0.994210  1.0  -0.0443
  C  C3586  1  0.640120  0.302530  0.321350  1.0  -0.0866
  C  C3587  1  0.626770  0.315850  0.319620  1.0  -0.0975
  C  C3588  1  0.628170  0.328260  0.317650  1.0  -0.0885
  C  C3589  1  0.642100  0.327340  0.317430  1.0  -0.1209
  C  C3590  1  0.213040  0.662520  0.475260  1.0  0.0096
  C  C3591  1  0.655400  0.314000  0.319170  1.0  0.0094
  C  C3592  1  0.790080  0.573130  0.301990  1.0  0.4473
  C  C3593  1  0.842520  0.541450  0.292870  1.0  0.4591
  C  C3594  1  0.828810  0.597960  0.317710  1.0  0.4824
  C  C3595  1  0.867840  0.548970  0.333890  1.0  0.468
  C  C3596  1  0.238640  0.140770  0.955570  1.0  -0.1111
  C  C3597  1  0.815260  0.577510  0.343140  1.0  0.4764
  C  C3598  1  0.829070  0.523230  0.318480  1.0  0.5122
  C  C3599  1  0.083230  0.070800  0.569950  1.0  -0.0782
  C  C3600  1  0.075540  0.063400  0.564290  1.0  -0.0701
  C  C3601  1  0.092890  0.085330  0.587740  1.0  -0.0992
  C  C3602  1  0.201540  0.674800  0.470370  1.0  -0.0943
  C  C3603  1  0.101590  0.093730  0.594160  1.0  -0.1224
  C  C3604  1  0.110260  0.096890  0.589910  1.0  0.0149
  C  C3605  1  0.109860  0.091280  0.578940  1.0  -0.1206
  C  C3606  1  0.101160  0.082880  0.572520  1.0  -0.1167
  C  C3607  1  0.228760  0.136400  0.946470  1.0  -0.1152
  C  C3608  1  0.092480  0.079720  0.576780  1.0  0.0097
  C  C3609  1  0.066030  0.048680  0.546530  1.0  -0.0924
  C  C3610  1  0.057330  0.040290  0.540110  1.0  -0.1165
  C  C3611  1  0.048500  0.037320  0.544340  1.0  0.0065
  C  C3612  1  0.048750  0.043110  0.555270  1.0  -0.1142
  C  C3613  1  0.057450  0.051510  0.561690  1.0  -0.0897
  C  C3614  1  0.203210  0.688330  0.470630  1.0  -0.1236
  C  C3615  1  0.066280  0.054480  0.557470  1.0  0.0119
  C  C3616  1  0.119470  0.105860  0.596750  1.0  -0.0661
  C  C3617  1  0.127040  0.113350  0.602480  1.0  -0.0726
  C  C3618  1  0.213610  0.141940  0.946180  1.0  -0.01
  C  C3619  1  0.039290  0.028350  0.537500  1.0  -0.02
  C  C3620  1  0.031710  0.020860  0.531780  1.0  -0.0492
  C  C3621  1  0.131540  0.133590  0.618510  1.0  -0.1143
  C  C3622  1  0.139900  0.142190  0.625220  1.0  -0.0884
  C  C3623  1  0.153160  0.140110  0.623250  1.0  -0.1008
  C  C3624  1  0.157640  0.128990  0.614200  1.0  -0.0722
  C  C3625  1  0.149230  0.120380  0.607480  1.0  -0.1157
  C  C3626  1  0.216510  0.690280  0.475800  1.0  0.0358
  C  C3627  1  0.136010  0.122490  0.609510  1.0  0.0119
  C  C3628  1  0.009410  0.013990  0.526770  1.0  -0.1124
  C  C3629  1  0.208740  0.152150  0.955330  1.0  -0.097
  C  C3630  1  0.001000  0.005360  0.520090  1.0  -0.081
  C  C3631  1  0.005740  0.993410  0.510580  1.0  -0.0972
  C  C3632  1  0.019070  0.991200  0.508660  1.0  -0.0792
  C  C3633  1  0.027450  0.999790  0.515330  1.0  -0.1205
  C  C3634  1  0.022710  0.011740  0.524790  1.0  -0.0068
  C  C3635  1  0.017790  0.010300  0.396390  1.0  -0.0566
  C  C3636  1  0.022660  0.013500  0.390750  1.0  -0.0703
  C  C3637  1  0.996310  0.009550  0.400910  1.0  -0.136
  C  C3638  1  0.293740  0.712140  0.476500  1.0  -0.0742
  C  C3639  1  0.991230  0.005670  0.407540  1.0  -0.1451
  C  C3640  1  0.218560  0.156480  0.964410  1.0  -0.1147
  C  C3641  1  0.001600  0.998460  0.416780  1.0  0.0333
  C  C3642  1  0.016570  0.995500  0.418900  1.0  -0.1244
  C  C3643  1  0.022050  0.999230  0.412450  1.0  -0.1087
  C  C3644  1  0.012090  0.006420  0.403170  1.0  0.0159
  C  C3645  1  0.043370  0.014880  0.386630  1.0  -0.1156
  C  C3646  1  0.048940  0.018530  0.380180  1.0  -0.1221
  C  C3647  1  0.039700  0.024630  0.371080  1.0  0.0784
  C  C3648  1  0.024840  0.027050  0.368500  1.0  -0.1249
  C  C3649  1  0.019270  0.023400  0.374930  1.0  -0.1089
  C  C3650  1  0.306510  0.710310  0.476500  1.0  -0.0742
  C  C3651  1  0.233810  0.150820  0.964840  1.0  -0.0099
  C  C3652  1  0.028510  0.017300  0.384030  1.0  0.0707
  C  C3653  1  0.996410  0.994320  0.423750  1.0  -0.082
  C  C3654  1  0.992720  0.990590  0.429850  1.0  -0.1346
  C  C3655  1  0.045420  0.028500  0.364310  1.0  -0.0761
  C  C3656  1  0.049880  0.031870  0.358500  1.0  -0.0668
  C  C3657  1  0.001590  0.977490  0.445570  1.0  -0.0678
  C  C3658  1  0.998210  0.973120  0.453510  1.0  -0.0736
  C  C3659  1  0.983530  0.976680  0.453300  1.0  -0.0326
  C  C3660  1  0.972110  0.984390  0.445350  1.0  -0.0845
  C  C3661  1  0.974970  0.988860  0.437650  1.0  -0.1439
  C  C3662  1  0.257000  0.161110  0.014940  1.0  -0.0999
  C  C3663  1  0.149580  0.791490  0.478400  1.0  -0.0563
  C  C3664  1  0.989400  0.985730  0.437540  1.0  0.0656
  C  C3665  1  0.044790  0.041210  0.342120  1.0  -0.118
  C  C3666  1  0.049020  0.045610  0.335270  1.0  -0.0705
  C  C3667  1  0.063310  0.044980  0.337530  1.0  -0.0857
  C  C3668  1  0.073300  0.039710  0.346770  1.0  -0.0808
  C  C3669  1  0.069000  0.035320  0.353630  1.0  -0.1229
  C  C3670  1  0.054690  0.036110  0.351340  1.0  0.0816
  C  C3671  1  0.575330  0.072400  0.063700  1.0  -0.0572
  C  C3672  1  0.582470  0.063460  0.070140  1.0  -0.0585
  O  O3673  1  0.974770  0.962550  0.483380  1.0  -1.2447
  O  O3674  1  0.203550  0.143920  0.151740  1.0  -0.6019
  O  O3675  1  0.107870  0.037610  0.321850  1.0  -0.6017
  O  O3676  1  0.702620  0.945900  0.149410  1.0  -0.6063
  O  O3677  1  0.081190  0.049600  0.332550  1.0  -0.5681
  O  O3678  1  0.040570  0.085820  0.311980  1.0  -0.6043
  O  O3679  1  0.056730  0.056090  0.322050  1.0  -0.6019
  O  O3680  1  0.052550  0.101650  0.314010  1.0  -0.5858
  O  O3681  1  0.070310  0.043410  0.289180  1.0  -0.5881
  O  O3682  1  0.050420  0.052980  0.297500  1.0  -0.6099
  O  O3683  1  0.465420  0.674740  0.156850  1.0  -1.2348
  O  O3684  1  0.431540  0.694170  0.144440  1.0  -0.5948
  O  O3685  1  0.197340  0.185420  0.137500  1.0  -0.5734
  O  O3686  1  0.475930  0.652580  0.134930  1.0  -0.6142
  O  O3687  1  0.476780  0.700530  0.157150  1.0  -0.5971
  O  O3688  1  0.968120  0.967180  0.506260  1.0  -0.5937
  O  O3689  1  0.701640  0.938960  0.182290  1.0  -0.5987
  O  O3690  1  0.442060  0.669040  0.134530  1.0  -0.6061
  O  O3691  1  0.451460  0.712110  0.157570  1.0  -0.6117
  O  O3692  1  0.490690  0.666667  0.144230  1.0  -0.595
  O  O3693  1  0.498840  0.672600  0.168990  1.0  -0.6043
  O  O3694  1  0.456510  0.679320  0.179060  1.0  -0.6049
  O  O3695  1  0.490350  0.662830  0.178130  1.0  -0.592
  O  O3696  1  0.171070  0.149250  0.139120  1.0  -0.6095
  O  O3697  1  0.439560  0.699830  0.169720  1.0  -0.6041
  O  O3698  1  0.462990  0.641270  0.146800  1.0  -0.6084
  O  O3699  1  0.469590  0.645320  0.165630  1.0  -0.5912
  O  O3700  1  0.576040  0.317010  0.320340  1.0  -1.2326
  O  O3701  1  0.684070  0.974460  0.180970  1.0  -0.5859
  O  O3702  1  0.611600  0.304000  0.321750  1.0  -0.6017
  O  O3703  1  0.567640  0.338380  0.303110  1.0  -0.603
  O  O3704  1  0.572750  0.287470  0.302020  1.0  -0.6025
  O  O3705  1  0.599050  0.329330  0.318160  1.0  -0.5926
  O  O3706  1  0.596740  0.280390  0.313070  1.0  -0.6075
  O  O3707  1  0.983960  0.986200  0.504750  1.0  -0.5961
  O  O3708  1  0.556380  0.320520  0.296190  1.0  -0.6032
  O  O3709  1  0.545040  0.312100  0.311390  1.0  -0.6134
  O  O3710  1  0.580890  0.313520  0.344730  1.0  -0.5922
  O  O3711  1  0.548540  0.322330  0.329830  1.0  -0.5884
  O  O3712  1  0.601530  0.295450  0.337290  1.0  -0.6074
  O  O3713  1  0.650660  0.975050  0.147490  1.0  -0.5994
  O  O3714  1  0.571060  0.353500  0.327420  1.0  -0.6037
  O  O3715  1  0.562920  0.346620  0.338770  1.0  -0.6031
  O  O3716  1  0.828920  0.560520  0.318010  1.0  -1.2486
  O  O3717  1  0.857510  0.563370  0.336580  1.0  -0.6129
  O  O3718  1  0.173090  0.188230  0.127410  1.0  -0.5994
  O  O3719  1  0.841170  0.523130  0.316870  1.0  -0.6043
  O  O3720  1  0.808820  0.569140  0.334960  1.0  -0.5992
  O  O3721  1  0.864100  0.538500  0.325640  1.0  -0.605
  O  O3722  1  0.826200  0.580380  0.342160  1.0  -0.6038
  O  O3723  1  0.816960  0.536540  0.319950  1.0  -0.5997
  O  O3724  1  0.793920  0.566450  0.310490  1.0  -0.6082
  O  O3725  1  0.658940  0.983370  0.172230  1.0  -0.6006
  O  O3726  1  0.823840  0.589650  0.308410  1.0  -0.6016
  O  O3727  1  0.800280  0.575110  0.299180  1.0  -0.6154
  O  O3728  1  0.833810  0.592810  0.327010  1.0  -0.598
  O  O3729  1  0.214890  0.159320  0.151450  1.0  -0.6045
  O  O3730  1  0.848970  0.534080  0.301250  1.0  -0.5984
  O  O3731  1  0.831650  0.556150  0.293660  1.0  -0.5957
  O  O3732  1  0.669490  0.959690  0.137900  1.0  -0.5991
  O  O3733  1  0.656520  0.934030  0.162400  1.0  -0.5868
  O  O3734  1  0.643420  0.960550  0.161200  1.0  -0.6044
  O  O3735  1  0.193130  0.475210  0.474280  1.0  -1.2203
  O  O3736  1  0.206280  0.498070  0.472150  1.0  -0.5966
  O  O3737  1  0.159370  0.495380  0.462260  1.0  -0.6043
  O  O3738  1  0.962390  0.935240  0.471420  1.0  -0.5869
  O  O3739  1  0.201390  0.451450  0.452110  1.0  -0.6073
  O  O3740  1  0.203850  0.194790  0.162790  1.0  -0.6003
  O  O3741  1  0.181070  0.511860  0.473200  1.0  -0.5955
  O  O3742  1  0.218450  0.463000  0.460770  1.0  -0.5972
  O  O3743  1  0.167810  0.469220  0.453510  1.0  -0.6104
  O  O3744  1  0.189430  0.442280  0.466320  1.0  -0.6025
  O  O3745  1  0.217280  0.466480  0.496610  1.0  -0.603
  O  O3746  1  0.196710  0.447990  0.485140  1.0  -0.5893
  O  O3747  1  0.227020  0.472140  0.485760  1.0  -0.6021
  O  O3748  1  0.168320  0.503110  0.487020  1.0  -0.6112
  O  O3749  1  0.183220  0.482780  0.496630  1.0  -0.5992
  O  O3750  1  0.943040  0.990600  0.475360  1.0  -0.6111
  O  O3751  1  0.152090  0.211060  0.158350  1.0  -0.6025
  O  O3752  1  0.965740  0.657390  0.659390  1.0  -1.1996
  O  O3753  1  0.956950  0.681640  0.681410  1.0  -0.6069
  O  O3754  1  0.931820  0.660410  0.647680  1.0  -0.5937
  O  O3755  1  0.962160  0.684450  0.648420  1.0  -0.5945
  O  O3756  1  0.940270  0.669690  0.672980  1.0  -0.5901
  O  O3757  1  0.969110  0.690450  0.667180  1.0  -0.6117
  O  O3758  1  0.941700  0.666080  0.637010  1.0  -0.5988
  O  O3759  1  0.975480  0.649870  0.636960  1.0  -0.6058
  O  O3760  1  0.999640  0.636630  0.671100  1.0  -0.6142
  O  O3761  1  0.990540  0.629410  0.646390  1.0  -0.61
  O  O3762  1  0.184460  0.205320  0.171720  1.0  -0.5953
  O  O3763  1  0.972840  0.941380  0.496580  1.0  -0.594
  O  O3764  1  0.990580  0.664150  0.680250  1.0  -0.6084
  O  O3765  1  0.952340  0.634750  0.661360  1.0  -0.6057
  O  O3766  1  0.977330  0.620700  0.659990  1.0  -0.5951
  O  O3767  1  0.480430  0.186870  0.973820  1.0  -1.2351
  O  O3768  1  0.501830  0.201180  0.971730  1.0  -0.5915
  O  O3769  1  0.507520  0.160230  0.986640  1.0  -0.6106
  O  O3770  1  0.472650  0.211220  0.995840  1.0  -0.5974
  O  O3771  1  0.514940  0.174670  0.972970  1.0  -0.6046
  O  O3772  1  0.477820  0.222230  0.985200  1.0  -0.604
  O  O3773  1  0.147340  0.203990  0.139620  1.0  -0.6053
  O  O3774  1  0.488780  0.175730  0.996300  1.0  -0.599
  O  O3775  1  0.950430  0.995130  0.494000  1.0  -0.6067
  O  O3776  1  0.455540  0.189430  0.984730  1.0  -0.6075
  O  O3777  1  0.456670  0.196340  0.951830  1.0  -0.6014
  O  O3778  1  0.449380  0.182340  0.966030  1.0  -0.6143
  O  O3779  1  0.468180  0.213990  0.959960  1.0  -0.5904
  O  O3780  1  0.499280  0.151920  0.961990  1.0  -0.6031
  O  O3781  1  0.474190  0.160970  0.953150  1.0  -0.6007
  O  O3782  1  0.184230  0.170790  0.650250  1.0  -1.2296
  O  O3783  1  0.166990  0.166170  0.664060  1.0  -0.5985
  O  O3784  1  0.992140  0.966850  0.469500  1.0  -0.6013
  O  O3785  1  0.178270  0.158270  0.163990  1.0  -0.5896
  O  O3786  1  0.216050  0.143010  0.658270  1.0  -0.6079
  O  O3787  1  0.174960  0.147220  0.628980  1.0  -0.5983
  O  O3788  1  0.949990  0.956320  0.462390  1.0  -0.5903
  O  O3789  1  0.192480  0.158440  0.672090  1.0  -0.5868
  O  O3790  1  0.157140  0.159300  0.639390  1.0  -0.605
  O  O3791  1  0.208550  0.138390  0.639570  1.0  -0.6097
  O  O3792  1  0.190700  0.166260  0.627380  1.0  -0.5939
  O  O3793  1  0.162250  0.207960  0.651290  1.0  -0.5965
  O  O3794  1  0.185910  0.192170  0.637050  1.0  -0.5886
  O  O3795  1  0.149890  0.193700  0.651770  1.0  -0.5977
  O  O3796  1  0.169060  0.185010  0.172070  1.0  -0.58
  O  O3797  1  0.208960  0.177180  0.671140  1.0  -0.5975
  O  O3798  1  0.196150  0.198480  0.662180  1.0  -0.5924
  O  O3799  1  0.693280  0.458720  0.976650  1.0  -1.231
  O  O3800  1  0.966710  0.974790  0.461460  1.0  -0.5963
  O  O3801  1  0.681960  0.432860  0.976420  1.0  -0.5989
  O  O3802  1  0.719350  0.433780  0.963930  1.0  -0.6016
  O  O3803  1  0.668420  0.470570  0.955350  1.0  -0.5875
  O  O3804  1  0.707270  0.421150  0.975910  1.0  -0.6058
  O  O3805  1  0.660050  0.460720  0.964520  1.0  -0.6179
  O  O3806  1  0.702290  0.454130  0.954470  1.0  -0.6036
  O  O3807  1  0.979760  0.953970  0.983330  1.0  -1.2225
  O  O3808  1  0.689130  0.488230  0.967860  1.0  -0.5925
  O  O3809  1  0.682570  0.481000  0.998520  1.0  -0.6065
  O  O3810  1  0.695780  0.492240  0.986690  1.0  -0.6055
  O  O3811  1  0.668170  0.466550  0.989260  1.0  -0.5961
  O  O3812  1  0.002200  0.973500  0.494050  1.0  -0.616
  O  O3813  1  0.727080  0.439430  0.988990  1.0  -0.5927
  O  O3814  1  0.716510  0.464560  0.998880  1.0  -0.6024
  O  O3815  1  0.477160  0.690560  0.477290  1.0  -1.2322
  O  O3816  1  0.509390  0.692860  0.487680  1.0  -0.5958
  O  O3817  1  0.488160  0.664950  0.456470  1.0  -0.6006
  O  O3818  1  0.955120  0.939190  0.970380  1.0  -0.5932
  O  O3819  1  0.484570  0.663790  0.490020  1.0  -0.601
  O  O3820  1  0.505180  0.686160  0.468960  1.0  -0.5849
  O  O3821  1  0.498430  0.678790  0.499490  1.0  -0.5955
  O  O3822  1  0.478540  0.655830  0.465280  1.0  -0.5981
  O  O3823  1  0.452410  0.678710  0.476800  1.0  -0.5986
  O  O3824  1  0.996190  0.925180  0.482400  1.0  -0.6081
  O  O3825  1  0.990230  0.948570  0.961800  1.0  -0.59
  O  O3826  1  0.955040  0.989760  0.981700  1.0  -0.6002
  O  O3827  1  0.974730  0.928250  0.961760  1.0  -0.591
  O  O3828  1  0.944040  0.974130  0.982010  1.0  -0.6017
  O  O3829  1  0.980720  0.975230  0.969700  1.0  -0.5992
  O  O3830  1  0.458800  0.725890  0.488790  1.0  -0.5966
  O  O3831  1  0.987520  0.984780  0.994300  1.0  -0.6323
  O  O3832  1  0.986060  0.945030  0.006200  1.0  -0.5902
  O  O3833  1  0.002110  0.964050  0.004870  1.0  -0.6091
  O  O3834  1  0.961350  0.948100  0.995570  1.0  -0.5981
  O  O3835  1  0.007350  0.922350  0.975280  1.0  -0.5956
  O  O3836  1  0.009150  0.939320  0.481690  1.0  -0.599
  O  O3837  1  0.012120  0.928930  0.993950  1.0  -0.5942
  O  O3838  1  0.681800  0.442320  0.656600  1.0  -1.2339
  O  O3839  1  0.706570  0.454170  0.657060  1.0  -0.5982
  O  O3840  1  0.705880  0.415180  0.670160  1.0  -0.6008
  O  O3841  1  0.441420  0.705200  0.475810  1.0  -0.6046
  O  O3842  1  0.670680  0.468110  0.677390  1.0  -0.5951
  O  O3843  1  0.717480  0.427620  0.657880  1.0  -0.6017
  O  O3844  1  0.680350  0.477080  0.668500  1.0  -0.6056
  O  O3845  1  0.686170  0.432650  0.678860  1.0  -0.6009
  O  O3846  1  0.653610  0.446710  0.664820  1.0  -0.589
  O  O3847  1  0.660650  0.453850  0.634420  1.0  -0.6012
  O  O3848  1  0.677840  0.948440  0.160340  1.0  -1.2307
  O  O3849  1  0.649610  0.440160  0.646100  1.0  -0.6093
  O  O3850  1  0.674200  0.469180  0.643830  1.0  -0.6046
  O  O3851  1  0.700180  0.406930  0.644920  1.0  -0.592
  O  O3852  1  0.482750  0.714790  0.499320  1.0  -0.6019
  O  O3853  1  0.676150  0.418210  0.634520  1.0  -0.6002
  O  O3854  1  0.582970  0.816130  0.813080  1.0  -1.2299
  O  O3855  1  0.614040  0.820900  0.822040  1.0  -0.6057
  O  O3856  1  0.596060  0.786400  0.794620  1.0  -0.6037
  O  O3857  1  0.591390  0.794760  0.830280  1.0  -0.6019
  O  O3858  1  0.610320  0.811040  0.803550  1.0  -0.5879
  O  O3859  1  0.602690  0.812580  0.837240  1.0  -0.6008
  O  O3860  1  0.685650  0.924160  0.138280  1.0  -0.6004
  O  O3861  1  0.587870  0.779710  0.806050  1.0  -0.6044
  O  O3862  1  0.559950  0.803760  0.815120  1.0  -0.5933
  O  O3863  1  0.472890  0.700130  0.455020  1.0  -0.6024
  O  O3864  1  0.562280  0.852780  0.820280  1.0  -0.6094
  O  O3865  1  0.547410  0.829200  0.811760  1.0  -0.6036
  O  O3866  1  0.586240  0.845770  0.831360  1.0  -0.603
  O  O3867  1  0.578220  0.819630  0.788730  1.0  -0.5924
  O  O3868  1  0.557560  0.837660  0.796150  1.0  -0.6046
  O  O3869  1  0.084010  0.071200  0.822170  1.0  -1.225
  O  O3870  1  0.078830  0.086440  0.802360  1.0  -0.5748
  O  O3871  1  0.109740  0.083070  0.837430  1.0  -0.5995
  O  O3872  1  0.690400  0.921080  0.174040  1.0  -0.5889
  O  O3873  1  0.057370  0.101980  0.831780  1.0  -0.5902
  O  O3874  1  0.453210  0.717850  0.463700  1.0  -0.5997
  O  O3875  1  0.103290  0.079990  0.812870  1.0  -0.6057
  O  O3876  1  0.052290  0.098260  0.813080  1.0  -0.6032
  O  O3877  1  0.089690  0.092880  0.845700  1.0  -0.5788
  O  O3878  1  0.072540  0.072420  0.842020  1.0  -0.5858
  O  O3879  1  0.075230  0.042520  0.806800  1.0  -0.5979
  O  O3880  1  0.080430  0.046990  0.831450  1.0  -0.594
  O  O3881  1  0.063050  0.064640  0.798730  1.0  -0.6026
  O  O3882  1  0.119350  0.050230  0.822880  1.0  -0.6062
  O  O3883  1  0.107390  0.034480  0.821060  1.0  -0.5978
  O  O3884  1  0.708840  0.953040  0.168100  1.0  -0.603
  O  O3885  1  0.179450  0.179560  0.150380  1.0  -1.2306
  O  O3886  1  0.329850  0.573550  0.815750  1.0  -1.2467
  O  O3887  1  0.317570  0.610950  0.816760  1.0  -0.6023
  O  O3888  1  0.364790  0.567640  0.823290  1.0  -0.6057
  O  O3889  1  0.326870  0.577900  0.840020  1.0  -0.5954
  O  O3890  1  0.341880  0.597620  0.813840  1.0  -0.5955
  O  O3891  1  0.309670  0.599970  0.832410  1.0  -0.6035
  O  O3892  1  0.358400  0.558780  0.834470  1.0  -0.6078
  O  O3893  1  0.334770  0.544490  0.825380  1.0  -0.5892
  O  O3894  1  0.301380  0.570680  0.797140  1.0  -0.6081
  O  O3895  1  0.325090  0.541110  0.806730  1.0  -0.5981
  O  O3896  1  0.157430  0.168920  0.128960  1.0  -0.5952
  O  O3897  1  0.680870  0.912880  0.148960  1.0  -0.5927
  O  O3898  1  0.294770  0.595490  0.808140  1.0  -0.6044
  O  O3899  1  0.350010  0.564830  0.798780  1.0  -0.6006
  O  O3900  1  0.332630  0.553590  0.791630  1.0  -0.6011
  O  O3901  1  0.076060  0.064790  0.312760  1.0  -1.2247
  O  O3902  1  0.079580  0.089140  0.303580  1.0  -0.5965
  O  O3903  1  0.103030  0.034050  0.303190  1.0  -0.5946
  O  O3904  1  0.096950  0.071240  0.336100  1.0  -0.6045
  O  O3905  1  0.087570  0.063740  0.292960  1.0  -0.5896
  O  O3906  1  0.084510  0.093490  0.328160  1.0  -0.6075
