# generated using pymatgen
data_Zr3H42(C6O)16
_symmetry_space_group_name_H-M   'P 1'
_cell_length_a   28.13330000
_cell_length_b   28.13330000
_cell_length_c   69.41100000
_cell_angle_alpha   90.00000000
_cell_angle_beta   90.00000000
_cell_angle_gamma   120.00000000
_symmetry_Int_Tables_number   1
_chemical_formula_structural   Zr3H42(C6O)16
_chemical_formula_sum   'Zr36 H504 C1152 O192'
_cell_volume   47577.35426913
_cell_formula_units_Z   12
loop_
 _symmetry_equiv_pos_site_id
 _symmetry_equiv_pos_as_xyz
  1  'x, y, z'
loop_
 _atom_site_type_symbol
 _atom_site_label
 _atom_site_symmetry_multiplicity
 _atom_site_fract_x
 _atom_site_fract_y
 _atom_site_fract_z
 _atom_site_occupancy
 _atom_site_charge
  Zr  Zr1  1  0.708160  0.291840  0.136150  1.0  2.0026
  Zr  Zr2  1  0.374830  0.625170  0.469490  1.0  2.002
  Zr  Zr3  1  0.041490  0.958510  0.802820  1.0  2.0026
  Zr  Zr4  1  0.708160  0.416320  0.136150  1.0  2.0011
  Zr  Zr5  1  0.374830  0.749650  0.469490  1.0  2.0005
  Zr  Zr6  1  0.041490  0.082990  0.802820  1.0  2.0009
  Zr  Zr7  1  0.583680  0.291840  0.136150  1.0  2.0029
  Zr  Zr8  1  0.250350  0.625170  0.469490  1.0  2.0023
  Zr  Zr9  1  0.917010  0.958510  0.802820  1.0  2.003
  Zr  Zr10  1  0.625140  0.250280  0.095050  1.0  2.0299
  Zr  Zr11  1  0.291810  0.583610  0.428380  1.0  2.0303
  Zr  Zr12  1  0.958470  0.916950  0.761720  1.0  2.0298
  Zr  Zr13  1  0.749720  0.374860  0.095050  1.0  2.0255
  Zr  Zr14  1  0.416390  0.708190  0.428380  1.0  2.0259
  Zr  Zr15  1  0.083050  0.041530  0.761720  1.0  2.0255
  Zr  Zr16  1  0.625140  0.374860  0.095050  1.0  2.0262
  Zr  Zr17  1  0.291810  0.708190  0.428380  1.0  2.0263
  Zr  Zr18  1  0.958470  0.041530  0.761720  1.0  2.0262
  Zr  Zr19  1  0.291840  0.708160  0.863850  1.0  1.9994
  Zr  Zr20  1  0.958510  0.041490  0.197180  1.0  1.9994
  Zr  Zr21  1  0.625170  0.374830  0.530510  1.0  1.9989
  Zr  Zr22  1  0.416320  0.708160  0.863850  1.0  1.999
  Zr  Zr23  1  0.082990  0.041490  0.197180  1.0  1.999
  Zr  Zr24  1  0.749650  0.374830  0.530510  1.0  1.9987
  Zr  Zr25  1  0.291840  0.583680  0.863850  1.0  2.0044
  Zr  Zr26  1  0.958510  0.917010  0.197180  1.0  2.0044
  Zr  Zr27  1  0.625170  0.250350  0.530510  1.0  2.004
  Zr  Zr28  1  0.250280  0.625140  0.904950  1.0  2.0283
  Zr  Zr29  1  0.916950  0.958470  0.238280  1.0  2.0283
  Zr  Zr30  1  0.583610  0.291810  0.571620  1.0  2.0286
  Zr  Zr31  1  0.374860  0.749720  0.904950  1.0  2.0271
  Zr  Zr32  1  0.041530  0.083050  0.238280  1.0  2.0271
  Zr  Zr33  1  0.708190  0.416390  0.571620  1.0  2.0271
  Zr  Zr34  1  0.374860  0.625140  0.904950  1.0  2.0278
  Zr  Zr35  1  0.041530  0.958470  0.238280  1.0  2.0278
  Zr  Zr36  1  0.708190  0.291810  0.571620  1.0  2.0279
  H  H37  1  0.430300  0.131900  0.141800  1.0  0.0824
  H  H38  1  0.356400  0.043800  0.146400  1.0  0.0961
  H  H39  1  0.415800  0.990200  0.104800  1.0  0.0868
  H  H40  1  0.486000  0.079300  0.099100  1.0  0.0853
  H  H41  1  0.244100  0.919900  0.157800  1.0  0.0577
  H  H42  1  0.310100  0.855200  0.101600  1.0  0.0676
  H  H43  1  0.659400  0.196300  0.039500  1.0  0.1033
  H  H44  1  0.685900  0.174900  0.009900  1.0  0.0794
  H  H45  1  0.875400  0.301600  0.967700  1.0  0.0825
  H  H46  1  0.953400  0.358300  0.953600  1.0  0.099
  H  H47  1  0.986200  0.329100  0.928100  1.0  0.0802
  H  H48  1  0.935100  0.248500  0.913600  1.0  0.0841
  H  H49  1  0.961100  0.181700  0.877400  1.0  0.0979
  H  H50  1  0.993000  0.148800  0.852000  1.0  0.0844
  H  H51  1  0.096970  0.465230  0.475130  1.0  0.0818
  H  H52  1  0.023070  0.377130  0.479730  1.0  0.0937
  H  H53  1  0.082470  0.323530  0.438130  1.0  0.0889
  H  H54  1  0.152670  0.412630  0.432430  1.0  0.0853
  H  H55  1  0.910770  0.253230  0.491130  1.0  0.0577
  H  H56  1  0.976770  0.188530  0.434930  1.0  0.0672
  H  H57  1  0.326070  0.529630  0.372830  1.0  0.1033
  H  H58  1  0.352570  0.508230  0.343230  1.0  0.0794
  H  H59  1  0.542070  0.634930  0.301030  1.0  0.0825
  H  H60  1  0.620070  0.691630  0.286930  1.0  0.099
  H  H61  1  0.652870  0.662430  0.261430  1.0  0.0796
  H  H62  1  0.601770  0.581830  0.246930  1.0  0.0841
  H  H63  1  0.627770  0.515030  0.210730  1.0  0.0979
  H  H64  1  0.659670  0.482130  0.185330  1.0  0.0844
  H  H65  1  0.763630  0.798570  0.808470  1.0  0.0824
  H  H66  1  0.689730  0.710470  0.813070  1.0  0.0961
  H  H67  1  0.749130  0.656870  0.771470  1.0  0.0868
  H  H68  1  0.819330  0.745970  0.765770  1.0  0.0853
  H  H69  1  0.577430  0.586570  0.824470  1.0  0.0577
  H  H70  1  0.643430  0.521870  0.768270  1.0  0.0676
  H  H71  1  0.992730  0.862970  0.706170  1.0  0.1033
  H  H72  1  0.019230  0.841570  0.676570  1.0  0.0794
  H  H73  1  0.208730  0.968270  0.634370  1.0  0.0825
  H  H74  1  0.286730  0.024970  0.620270  1.0  0.099
  H  H75  1  0.319530  0.995770  0.594770  1.0  0.0796
  H  H76  1  0.268430  0.915170  0.580270  1.0  0.0841
  H  H77  1  0.294430  0.848370  0.544070  1.0  0.0979
  H  H78  1  0.326330  0.815470  0.518670  1.0  0.0842
  H  H79  1  0.868100  0.298400  0.141800  1.0  0.0823
  H  H80  1  0.956200  0.312600  0.146400  1.0  0.0931
  H  H81  1  0.009800  0.425600  0.104800  1.0  0.0893
  H  H82  1  0.920700  0.406700  0.099100  1.0  0.0857
  H  H83  1  0.080100  0.324200  0.157800  1.0  0.0572
  H  H84  1  0.144800  0.454900  0.101600  1.0  0.0704
  H  H85  1  0.803700  0.463100  0.039500  1.0  0.1029
  H  H86  1  0.825100  0.511000  0.009900  1.0  0.0801
  H  H87  1  0.698400  0.573800  0.967700  1.0  0.0819
  H  H88  1  0.641700  0.595100  0.953600  1.0  0.0984
  H  H89  1  0.670900  0.657100  0.928100  1.0  0.0791
  H  H90  1  0.751500  0.686600  0.913600  1.0  0.0829
  H  H91  1  0.818300  0.779400  0.877400  1.0  0.0968
  H  H92  1  0.851200  0.844200  0.852000  1.0  0.0824
  H  H93  1  0.534770  0.631730  0.475130  1.0  0.0823
  H  H94  1  0.622870  0.645930  0.479730  1.0  0.0931
  H  H95  1  0.676470  0.758930  0.438130  1.0  0.0875
  H  H96  1  0.587370  0.740030  0.432430  1.0  0.0857
  H  H97  1  0.746770  0.657530  0.491130  1.0  0.0572
  H  H98  1  0.811470  0.788230  0.434930  1.0  0.0697
  H  H99  1  0.470370  0.796430  0.372830  1.0  0.1029
  H  H100  1  0.491770  0.844330  0.343230  1.0  0.0801
  H  H101  1  0.365070  0.907130  0.301030  1.0  0.0819
  H  H102  1  0.308370  0.928430  0.286930  1.0  0.0984
  H  H103  1  0.337570  0.990430  0.261430  1.0  0.0791
  H  H104  1  0.418170  0.019930  0.246930  1.0  0.0829
  H  H105  1  0.484970  0.112730  0.210730  1.0  0.0968
  H  H106  1  0.517870  0.177530  0.185330  1.0  0.0824
  H  H107  1  0.201430  0.965070  0.808470  1.0  0.0823
  H  H108  1  0.289530  0.979270  0.813070  1.0  0.0931
  H  H109  1  0.343130  0.092270  0.771470  1.0  0.0893
  H  H110  1  0.254030  0.073370  0.765770  1.0  0.0857
  H  H111  1  0.413430  0.990870  0.824470  1.0  0.0572
  H  H112  1  0.478130  0.121570  0.768270  1.0  0.0704
  H  H113  1  0.137030  0.129770  0.706170  1.0  0.1029
  H  H114  1  0.158430  0.177670  0.676570  1.0  0.0801
  H  H115  1  0.031730  0.240470  0.634370  1.0  0.0819
  H  H116  1  0.975030  0.261770  0.620270  1.0  0.0984
  H  H117  1  0.004230  0.323770  0.594770  1.0  0.0791
  H  H118  1  0.084830  0.353270  0.580270  1.0  0.0829
  H  H119  1  0.151630  0.446070  0.544070  1.0  0.0968
  H  H120  1  0.184530  0.510870  0.518670  1.0  0.0835
  H  H121  1  0.701600  0.569700  0.141800  1.0  0.0816
  H  H122  1  0.687400  0.643600  0.146400  1.0  0.0936
  H  H123  1  0.574400  0.584200  0.104800  1.0  0.0871
  H  H124  1  0.593300  0.514000  0.099100  1.0  0.0852
  H  H125  1  0.675800  0.755900  0.157800  1.0  0.0577
  H  H126  1  0.545100  0.689900  0.101600  1.0  0.0673
  H  H127  1  0.536900  0.340600  0.039500  1.0  0.103
  H  H128  1  0.489000  0.314100  0.009900  1.0  0.0787
  H  H129  1  0.426200  0.124600  0.967700  1.0  0.0818
  H  H130  1  0.404900  0.046600  0.953600  1.0  0.099
  H  H131  1  0.342900  0.013800  0.928100  1.0  0.0801
  H  H132  1  0.313400  0.064900  0.913600  1.0  0.0839
  H  H133  1  0.220600  0.038900  0.877400  1.0  0.0979
  H  H134  1  0.155800  0.007000  0.852000  1.0  0.0834
  H  H135  1  0.368270  0.903030  0.475130  1.0  0.0829
  H  H136  1  0.354070  0.976930  0.479730  1.0  0.0958
  H  H137  1  0.241070  0.917530  0.438130  1.0  0.0871
  H  H138  1  0.259970  0.847330  0.432430  1.0  0.0852
  H  H139  1  0.342470  0.089230  0.491130  1.0  0.0578
  H  H140  1  0.211770  0.023230  0.434930  1.0  0.0672
  H  H141  1  0.203570  0.673930  0.372830  1.0  0.103
  H  H142  1  0.155670  0.647430  0.343230  1.0  0.0787
  H  H143  1  0.092870  0.457930  0.301030  1.0  0.0818
  H  H144  1  0.071570  0.379930  0.286930  1.0  0.099
  H  H145  1  0.009570  0.347130  0.261430  1.0  0.0797
  H  H146  1  0.980070  0.398230  0.246930  1.0  0.0839
  H  H147  1  0.887270  0.372230  0.210730  1.0  0.0979
  H  H148  1  0.822470  0.340330  0.185330  1.0  0.0834
  H  H149  1  0.034930  0.236370  0.808470  1.0  0.0816
  H  H150  1  0.020730  0.310270  0.813070  1.0  0.0936
  H  H151  1  0.907730  0.250870  0.771470  1.0  0.0871
  H  H152  1  0.926630  0.180670  0.765770  1.0  0.0852
  H  H153  1  0.009130  0.422570  0.824470  1.0  0.0577
  H  H154  1  0.878430  0.356570  0.768270  1.0  0.0673
  H  H155  1  0.870230  0.007270  0.706170  1.0  0.103
  H  H156  1  0.822330  0.980770  0.676570  1.0  0.0787
  H  H157  1  0.759530  0.791270  0.634370  1.0  0.0818
  H  H158  1  0.738230  0.713270  0.620270  1.0  0.099
  H  H159  1  0.676230  0.680470  0.594770  1.0  0.0797
  H  H160  1  0.646730  0.731570  0.580270  1.0  0.0839
  H  H161  1  0.553930  0.705570  0.544070  1.0  0.0979
  H  H162  1  0.489130  0.673670  0.518670  1.0  0.0837
  H  H163  1  0.868100  0.569700  0.141800  1.0  0.0827
  H  H164  1  0.956200  0.643600  0.146400  1.0  0.0959
  H  H165  1  0.009800  0.584200  0.104800  1.0  0.0869
  H  H166  1  0.920700  0.514000  0.099100  1.0  0.0853
  H  H167  1  0.080100  0.755900  0.157800  1.0  0.058
  H  H168  1  0.144800  0.689900  0.101600  1.0  0.0677
  H  H169  1  0.803700  0.340600  0.039500  1.0  0.1026
  H  H170  1  0.825100  0.314100  0.009900  1.0  0.0779
  H  H171  1  0.698400  0.124600  0.967700  1.0  0.0818
  H  H172  1  0.641700  0.046600  0.953600  1.0  0.0992
  H  H173  1  0.670900  0.013800  0.928100  1.0  0.08
  H  H174  1  0.751500  0.064900  0.913600  1.0  0.0839
  H  H175  1  0.818300  0.038900  0.877400  1.0  0.0975
  H  H176  1  0.851200  0.007000  0.852000  1.0  0.0834
  H  H177  1  0.534770  0.903030  0.475130  1.0  0.0817
  H  H178  1  0.622870  0.976930  0.479730  1.0  0.0935
  H  H179  1  0.676470  0.917530  0.438130  1.0  0.089
  H  H180  1  0.587370  0.847330  0.432430  1.0  0.0853
  H  H181  1  0.746770  0.089230  0.491130  1.0  0.058
  H  H182  1  0.811470  0.023230  0.434930  1.0  0.0682
  H  H183  1  0.470370  0.673930  0.372830  1.0  0.1026
  H  H184  1  0.491770  0.647430  0.343230  1.0  0.0779
  H  H185  1  0.365070  0.457930  0.301030  1.0  0.0818
  H  H186  1  0.308370  0.379930  0.286930  1.0  0.0992
  H  H187  1  0.337570  0.347130  0.261430  1.0  0.0795
  H  H188  1  0.418170  0.398230  0.246930  1.0  0.0839
  H  H189  1  0.484970  0.372230  0.210730  1.0  0.0975
  H  H190  1  0.517870  0.340330  0.185330  1.0  0.0834
  H  H191  1  0.201430  0.236370  0.808470  1.0  0.0827
  H  H192  1  0.289530  0.310270  0.813070  1.0  0.0959
  H  H193  1  0.343130  0.250870  0.771470  1.0  0.0869
  H  H194  1  0.254030  0.180670  0.765770  1.0  0.0853
  H  H195  1  0.413430  0.422570  0.824470  1.0  0.058
  H  H196  1  0.478130  0.356570  0.768270  1.0  0.0677
  H  H197  1  0.137030  0.007270  0.706170  1.0  0.1026
  H  H198  1  0.158430  0.980770  0.676570  1.0  0.0779
  H  H199  1  0.031730  0.791270  0.634370  1.0  0.0818
  H  H200  1  0.975030  0.713270  0.620270  1.0  0.0992
  H  H201  1  0.004230  0.680470  0.594770  1.0  0.0795
  H  H202  1  0.084830  0.731570  0.580270  1.0  0.0839
  H  H203  1  0.151630  0.705570  0.544070  1.0  0.0975
  H  H204  1  0.184530  0.673670  0.518670  1.0  0.0835
  H  H205  1  0.701600  0.131900  0.141800  1.0  0.0818
  H  H206  1  0.687400  0.043800  0.146400  1.0  0.0936
  H  H207  1  0.574400  0.990200  0.104800  1.0  0.0881
  H  H208  1  0.593300  0.079300  0.099100  1.0  0.0853
  H  H209  1  0.675800  0.919900  0.157800  1.0  0.0578
  H  H210  1  0.545100  0.855200  0.101600  1.0  0.0681
  H  H211  1  0.536900  0.196300  0.039500  1.0  0.1035
  H  H212  1  0.489000  0.174900  0.009900  1.0  0.0785
  H  H213  1  0.426200  0.301600  0.967700  1.0  0.0826
  H  H214  1  0.404900  0.358300  0.953600  1.0  0.099
  H  H215  1  0.342900  0.329100  0.928100  1.0  0.0794
  H  H216  1  0.313400  0.248500  0.913600  1.0  0.0834
  H  H217  1  0.220600  0.181700  0.877400  1.0  0.0992
  H  H218  1  0.155800  0.148800  0.852000  1.0  0.0833
  H  H219  1  0.368270  0.465230  0.475130  1.0  0.0818
  H  H220  1  0.354070  0.377130  0.479730  1.0  0.0936
  H  H221  1  0.241070  0.323530  0.438130  1.0  0.0865
  H  H222  1  0.259970  0.412630  0.432430  1.0  0.0853
  H  H223  1  0.342470  0.253230  0.491130  1.0  0.0578
  H  H224  1  0.211770  0.188530  0.434930  1.0  0.0685
  H  H225  1  0.203570  0.529630  0.372830  1.0  0.1035
  H  H226  1  0.155670  0.508230  0.343230  1.0  0.0785
  H  H227  1  0.092870  0.634930  0.301030  1.0  0.0826
  H  H228  1  0.071570  0.691630  0.286930  1.0  0.099
  H  H229  1  0.009570  0.662430  0.261430  1.0  0.0794
  H  H230  1  0.980070  0.581830  0.246930  1.0  0.0834
  H  H231  1  0.887270  0.515030  0.210730  1.0  0.0992
  H  H232  1  0.822470  0.482130  0.185330  1.0  0.0833
  H  H233  1  0.034930  0.798570  0.808470  1.0  0.0818
  H  H234  1  0.020730  0.710470  0.813070  1.0  0.0936
  H  H235  1  0.907730  0.656870  0.771470  1.0  0.0881
  H  H236  1  0.926630  0.745970  0.765770  1.0  0.0853
  H  H237  1  0.009130  0.586570  0.824470  1.0  0.0578
  H  H238  1  0.878430  0.521870  0.768270  1.0  0.0681
  H  H239  1  0.870230  0.862970  0.706170  1.0  0.1035
  H  H240  1  0.822330  0.841570  0.676570  1.0  0.0785
  H  H241  1  0.759530  0.968270  0.634370  1.0  0.0826
  H  H242  1  0.738230  0.024970  0.620270  1.0  0.099
  H  H243  1  0.676230  0.995770  0.594770  1.0  0.0794
  H  H244  1  0.646730  0.915170  0.580270  1.0  0.0834
  H  H245  1  0.553930  0.848370  0.544070  1.0  0.0992
  H  H246  1  0.489130  0.815470  0.518670  1.0  0.0842
  H  H247  1  0.430300  0.298400  0.141800  1.0  0.0824
  H  H248  1  0.356400  0.312600  0.146400  1.0  0.093
  H  H249  1  0.415800  0.425600  0.104800  1.0  0.0876
  H  H250  1  0.486000  0.406700  0.099100  1.0  0.0853
  H  H251  1  0.244100  0.324200  0.157800  1.0  0.0571
  H  H252  1  0.310100  0.454900  0.101600  1.0  0.0685
  H  H253  1  0.659400  0.463100  0.039500  1.0  0.1028
  H  H254  1  0.685900  0.511000  0.009900  1.0  0.0787
  H  H255  1  0.875400  0.573800  0.967700  1.0  0.0812
  H  H256  1  0.953400  0.595100  0.953600  1.0  0.0982
  H  H257  1  0.986200  0.657100  0.928100  1.0  0.0799
  H  H258  1  0.935100  0.686600  0.913600  1.0  0.0832
  H  H259  1  0.961100  0.779400  0.877400  1.0  0.0964
  H  H260  1  0.993000  0.844200  0.852000  1.0  0.0837
  H  H261  1  0.096970  0.631730  0.475130  1.0  0.0837
  H  H262  1  0.023070  0.645930  0.479730  1.0  0.0954
  H  H263  1  0.082470  0.758930  0.438130  1.0  0.0876
  H  H264  1  0.152670  0.740030  0.432430  1.0  0.0853
  H  H265  1  0.910770  0.657530  0.491130  1.0  0.0571
  H  H266  1  0.976770  0.788230  0.434930  1.0  0.0684
  H  H267  1  0.326070  0.796430  0.372830  1.0  0.1028
  H  H268  1  0.352570  0.844330  0.343230  1.0  0.0787
  H  H269  1  0.542070  0.907130  0.301030  1.0  0.0812
  H  H270  1  0.620070  0.928430  0.286930  1.0  0.0982
  H  H271  1  0.652870  0.990430  0.261430  1.0  0.0794
  H  H272  1  0.601770  0.019930  0.246930  1.0  0.0832
  H  H273  1  0.627770  0.112730  0.210730  1.0  0.0964
  H  H274  1  0.659670  0.177530  0.185330  1.0  0.0837
  H  H275  1  0.763630  0.965070  0.808470  1.0  0.0824
  H  H276  1  0.689730  0.979270  0.813070  1.0  0.093
  H  H277  1  0.749130  0.092270  0.771470  1.0  0.0876
  H  H278  1  0.819330  0.073370  0.765770  1.0  0.0853
  H  H279  1  0.577430  0.990870  0.824470  1.0  0.0571
  H  H280  1  0.643430  0.121570  0.768270  1.0  0.0685
  H  H281  1  0.992730  0.129770  0.706170  1.0  0.1028
  H  H282  1  0.019230  0.177670  0.676570  1.0  0.0787
  H  H283  1  0.208730  0.240470  0.634370  1.0  0.0812
  H  H284  1  0.286730  0.261770  0.620270  1.0  0.0982
  H  H285  1  0.319530  0.323770  0.594770  1.0  0.0794
  H  H286  1  0.268430  0.353270  0.580270  1.0  0.0832
  H  H287  1  0.294430  0.446070  0.544070  1.0  0.0964
  H  H288  1  0.326330  0.510870  0.518670  1.0  0.0839
  H  H289  1  0.131900  0.430300  0.858200  1.0  0.0828
  H  H290  1  0.043800  0.356400  0.853600  1.0  0.0967
  H  H291  1  0.990200  0.415800  0.895200  1.0  0.0869
  H  H292  1  0.079300  0.486000  0.900900  1.0  0.0856
  H  H293  1  0.919900  0.244100  0.842200  1.0  0.0577
  H  H294  1  0.855200  0.310100  0.898400  1.0  0.0679
  H  H295  1  0.196300  0.659400  0.960500  1.0  0.1021
  H  H296  1  0.174900  0.685900  0.990100  1.0  0.0789
  H  H297  1  0.301600  0.875400  0.032300  1.0  0.0824
  H  H298  1  0.358300  0.953400  0.046400  1.0  0.0989
  H  H299  1  0.329100  0.986200  0.071900  1.0  0.0803
  H  H300  1  0.248500  0.935100  0.086400  1.0  0.0834
  H  H301  1  0.181700  0.961100  0.122600  1.0  0.0978
  H  H302  1  0.148800  0.993000  0.148000  1.0  0.0833
  H  H303  1  0.798570  0.763630  0.191530  1.0  0.0828
  H  H304  1  0.710470  0.689730  0.186930  1.0  0.0967
  H  H305  1  0.656870  0.749130  0.228530  1.0  0.0869
  H  H306  1  0.745970  0.819330  0.234230  1.0  0.0856
  H  H307  1  0.586570  0.577430  0.175530  1.0  0.0577
  H  H308  1  0.521870  0.643430  0.231730  1.0  0.0679
  H  H309  1  0.862970  0.992730  0.293830  1.0  0.1021
  H  H310  1  0.841570  0.019230  0.323430  1.0  0.0789
  H  H311  1  0.968270  0.208730  0.365630  1.0  0.0824
  H  H312  1  0.024970  0.286730  0.379730  1.0  0.0989
  H  H313  1  0.995770  0.319530  0.405230  1.0  0.0798
  H  H314  1  0.915170  0.268430  0.419730  1.0  0.0834
  H  H315  1  0.848370  0.294430  0.455930  1.0  0.0978
  H  H316  1  0.815470  0.326330  0.481330  1.0  0.0837
  H  H317  1  0.465230  0.096970  0.524870  1.0  0.0818
  H  H318  1  0.377130  0.023070  0.520270  1.0  0.0945
  H  H319  1  0.323530  0.082470  0.561870  1.0  0.089
  H  H320  1  0.412630  0.152670  0.567570  1.0  0.0856
  H  H321  1  0.253230  0.910770  0.508870  1.0  0.0578
  H  H322  1  0.188530  0.976770  0.565070  1.0  0.0679
  H  H323  1  0.529630  0.326070  0.627170  1.0  0.1021
  H  H324  1  0.508230  0.352570  0.656770  1.0  0.0789
  H  H325  1  0.634930  0.542070  0.698970  1.0  0.0824
  H  H326  1  0.691630  0.620070  0.713070  1.0  0.0989
  H  H327  1  0.662430  0.652870  0.738570  1.0  0.0798
  H  H328  1  0.581830  0.601770  0.753070  1.0  0.0834
  H  H329  1  0.515030  0.627770  0.789270  1.0  0.0978
  H  H330  1  0.482130  0.659670  0.814670  1.0  0.0833
  H  H331  1  0.298400  0.868100  0.858200  1.0  0.0816
  H  H332  1  0.312600  0.956200  0.853600  1.0  0.0948
  H  H333  1  0.425600  0.009800  0.895200  1.0  0.0882
  H  H334  1  0.406700  0.920700  0.900900  1.0  0.0854
  H  H335  1  0.324200  0.080100  0.842200  1.0  0.058
  H  H336  1  0.454900  0.144800  0.898400  1.0  0.0672
  H  H337  1  0.463100  0.803700  0.960500  1.0  0.1041
  H  H338  1  0.511000  0.825100  0.990100  1.0  0.0794
  H  H339  1  0.573800  0.698400  0.032300  1.0  0.0829
  H  H340  1  0.595100  0.641700  0.046400  1.0  0.0997
  H  H341  1  0.657100  0.670900  0.071900  1.0  0.0794
  H  H342  1  0.686600  0.751500  0.086400  1.0  0.0836
  H  H343  1  0.779400  0.818300  0.122600  1.0  0.0977
  H  H344  1  0.844200  0.851200  0.148000  1.0  0.083
  H  H345  1  0.965070  0.201430  0.191530  1.0  0.0816
  H  H346  1  0.979270  0.289530  0.186930  1.0  0.0948
  H  H347  1  0.092270  0.343130  0.228530  1.0  0.0882
  H  H348  1  0.073370  0.254030  0.234230  1.0  0.0854
  H  H349  1  0.990870  0.413430  0.175530  1.0  0.058
  H  H350  1  0.121570  0.478130  0.231730  1.0  0.0672
  H  H351  1  0.129770  0.137030  0.293830  1.0  0.1041
  H  H352  1  0.177670  0.158430  0.323430  1.0  0.0794
  H  H353  1  0.240470  0.031730  0.365630  1.0  0.0829
  H  H354  1  0.261770  0.975030  0.379730  1.0  0.0997
  H  H355  1  0.323770  0.004230  0.405230  1.0  0.0794
  H  H356  1  0.353270  0.084830  0.419730  1.0  0.0836
  H  H357  1  0.446070  0.151630  0.455930  1.0  0.0977
  H  H358  1  0.510870  0.184530  0.481330  1.0  0.0833
  H  H359  1  0.631730  0.534770  0.524870  1.0  0.0816
  H  H360  1  0.645930  0.622870  0.520270  1.0  0.0948
  H  H361  1  0.758930  0.676470  0.561870  1.0  0.0863
  H  H362  1  0.740030  0.587370  0.567570  1.0  0.0854
  H  H363  1  0.657530  0.746770  0.508870  1.0  0.058
  H  H364  1  0.788230  0.811470  0.565070  1.0  0.067
  H  H365  1  0.796430  0.470370  0.627170  1.0  0.1041
  H  H366  1  0.844330  0.491770  0.656770  1.0  0.0794
  H  H367  1  0.907130  0.365070  0.698970  1.0  0.0829
  H  H368  1  0.928430  0.308370  0.713070  1.0  0.0997
  H  H369  1  0.990430  0.337570  0.738570  1.0  0.0794
  H  H370  1  0.019930  0.418170  0.753070  1.0  0.0836
  H  H371  1  0.112730  0.484970  0.789270  1.0  0.0977
  H  H372  1  0.177530  0.517870  0.814670  1.0  0.083
  H  H373  1  0.569700  0.701600  0.858200  1.0  0.0832
  H  H374  1  0.643600  0.687400  0.853600  1.0  0.0951
  H  H375  1  0.584200  0.574400  0.895200  1.0  0.0869
  H  H376  1  0.514000  0.593300  0.900900  1.0  0.0856
  H  H377  1  0.755900  0.675800  0.842200  1.0  0.0571
  H  H378  1  0.689900  0.545100  0.898400  1.0  0.0687
  H  H379  1  0.340600  0.536900  0.960500  1.0  0.1028
  H  H380  1  0.314100  0.489000  0.990100  1.0  0.0793
  H  H381  1  0.124600  0.426200  0.032300  1.0  0.0823
  H  H382  1  0.046600  0.404900  0.046400  1.0  0.0977
  H  H383  1  0.013800  0.342900  0.071900  1.0  0.0802
  H  H384  1  0.064900  0.313400  0.086400  1.0  0.0824
  H  H385  1  0.038900  0.220600  0.122600  1.0  0.0973
  H  H386  1  0.007000  0.155800  0.148000  1.0  0.0825
  H  H387  1  0.236370  0.034930  0.191530  1.0  0.0832
  H  H388  1  0.310270  0.020730  0.186930  1.0  0.0951
  H  H389  1  0.250870  0.907730  0.228530  1.0  0.0869
  H  H390  1  0.180670  0.926630  0.234230  1.0  0.0856
  H  H391  1  0.422570  0.009130  0.175530  1.0  0.0571
  H  H392  1  0.356570  0.878430  0.231730  1.0  0.0687
  H  H393  1  0.007270  0.870230  0.293830  1.0  0.1028
  H  H394  1  0.980770  0.822330  0.323430  1.0  0.0793
  H  H395  1  0.791270  0.759530  0.365630  1.0  0.0823
  H  H396  1  0.713270  0.738230  0.379730  1.0  0.0977
  H  H397  1  0.680470  0.676230  0.405230  1.0  0.0796
  H  H398  1  0.731570  0.646730  0.419730  1.0  0.0824
  H  H399  1  0.705570  0.553930  0.455930  1.0  0.0973
  H  H400  1  0.673670  0.489130  0.481330  1.0  0.0827
  H  H401  1  0.903030  0.368270  0.524870  1.0  0.0839
  H  H402  1  0.976930  0.354070  0.520270  1.0  0.0976
  H  H403  1  0.917530  0.241070  0.561870  1.0  0.0869
  H  H404  1  0.847330  0.259970  0.567570  1.0  0.0856
  H  H405  1  0.089230  0.342470  0.508870  1.0  0.0571
  H  H406  1  0.023230  0.211770  0.565070  1.0  0.0686
  H  H407  1  0.673930  0.203570  0.627170  1.0  0.1028
  H  H408  1  0.647430  0.155670  0.656770  1.0  0.0793
  H  H409  1  0.457930  0.092870  0.698970  1.0  0.0823
  H  H410  1  0.379930  0.071570  0.713070  1.0  0.0977
  H  H411  1  0.347130  0.009570  0.738570  1.0  0.0796
  H  H412  1  0.398230  0.980070  0.753070  1.0  0.0824
  H  H413  1  0.372230  0.887270  0.789270  1.0  0.0973
  H  H414  1  0.340330  0.822470  0.814670  1.0  0.0825
  H  H415  1  0.569700  0.868100  0.858200  1.0  0.0827
  H  H416  1  0.643600  0.956200  0.853600  1.0  0.0975
  H  H417  1  0.584200  0.009800  0.895200  1.0  0.0866
  H  H418  1  0.514000  0.920700  0.900900  1.0  0.0857
  H  H419  1  0.755900  0.080100  0.842200  1.0  0.0578
  H  H420  1  0.689900  0.144800  0.898400  1.0  0.0677
  H  H421  1  0.340600  0.803700  0.960500  1.0  0.1036
  H  H422  1  0.314100  0.825100  0.990100  1.0  0.0786
  H  H423  1  0.124600  0.698400  0.032300  1.0  0.0829
  H  H424  1  0.046600  0.641700  0.046400  1.0  0.0996
  H  H425  1  0.013800  0.670900  0.071900  1.0  0.0802
  H  H426  1  0.064900  0.751500  0.086400  1.0  0.0831
  H  H427  1  0.038900  0.818300  0.122600  1.0  0.0978
  H  H428  1  0.007000  0.851200  0.148000  1.0  0.0831
  H  H429  1  0.236370  0.201430  0.191530  1.0  0.0827
  H  H430  1  0.310270  0.289530  0.186930  1.0  0.0975
  H  H431  1  0.250870  0.343130  0.228530  1.0  0.0866
  H  H432  1  0.180670  0.254030  0.234230  1.0  0.0857
  H  H433  1  0.422570  0.413430  0.175530  1.0  0.0578
  H  H434  1  0.356570  0.478130  0.231730  1.0  0.0677
  H  H435  1  0.007270  0.137030  0.293830  1.0  0.1036
  H  H436  1  0.980770  0.158430  0.323430  1.0  0.0786
  H  H437  1  0.791270  0.031730  0.365630  1.0  0.0829
  H  H438  1  0.713270  0.975030  0.379730  1.0  0.0996
  H  H439  1  0.680470  0.004230  0.405230  1.0  0.0795
  H  H440  1  0.731570  0.084830  0.419730  1.0  0.0831
  H  H441  1  0.705570  0.151630  0.455930  1.0  0.0978
  H  H442  1  0.673670  0.184530  0.481330  1.0  0.083
  H  H443  1  0.903030  0.534770  0.524870  1.0  0.0821
  H  H444  1  0.976930  0.622870  0.520270  1.0  0.0949
  H  H445  1  0.917530  0.676470  0.561870  1.0  0.0886
  H  H446  1  0.847330  0.587370  0.567570  1.0  0.0857
  H  H447  1  0.089230  0.746770  0.508870  1.0  0.0579
  H  H448  1  0.023230  0.811470  0.565070  1.0  0.0675
  H  H449  1  0.673930  0.470370  0.627170  1.0  0.1036
  H  H450  1  0.647430  0.491770  0.656770  1.0  0.0786
  H  H451  1  0.457930  0.365070  0.698970  1.0  0.0829
  H  H452  1  0.379930  0.308370  0.713070  1.0  0.0996
  H  H453  1  0.347130  0.337570  0.738570  1.0  0.0795
  H  H454  1  0.398230  0.418170  0.753070  1.0  0.0831
  H  H455  1  0.372230  0.484970  0.789270  1.0  0.0978
  H  H456  1  0.340330  0.517870  0.814670  1.0  0.0831
  H  H457  1  0.131900  0.701600  0.858200  1.0  0.0829
  H  H458  1  0.043800  0.687400  0.853600  1.0  0.0951
  H  H459  1  0.990200  0.574400  0.895200  1.0  0.089
  H  H460  1  0.079300  0.593300  0.900900  1.0  0.0857
  H  H461  1  0.919900  0.675800  0.842200  1.0  0.0572
  H  H462  1  0.855200  0.545100  0.898400  1.0  0.069
  H  H463  1  0.196300  0.536900  0.960500  1.0  0.1028
  H  H464  1  0.174900  0.489000  0.990100  1.0  0.0788
  H  H465  1  0.301600  0.426200  0.032300  1.0  0.0822
  H  H466  1  0.358300  0.404900  0.046400  1.0  0.0983
  H  H467  1  0.329100  0.342900  0.071900  1.0  0.0788
  H  H468  1  0.248500  0.313400  0.086400  1.0  0.0826
  H  H469  1  0.181700  0.220600  0.122600  1.0  0.0969
  H  H470  1  0.148800  0.155800  0.148000  1.0  0.0829
  H  H471  1  0.798570  0.034930  0.191530  1.0  0.0829
  H  H472  1  0.710470  0.020730  0.186930  1.0  0.0951
  H  H473  1  0.656870  0.907730  0.228530  1.0  0.089
  H  H474  1  0.745970  0.926630  0.234230  1.0  0.0857
  H  H475  1  0.586570  0.009130  0.175530  1.0  0.0572
  H  H476  1  0.521870  0.878430  0.231730  1.0  0.069
  H  H477  1  0.862970  0.870230  0.293830  1.0  0.1028
  H  H478  1  0.841570  0.822330  0.323430  1.0  0.0788
  H  H479  1  0.968270  0.759530  0.365630  1.0  0.0822
  H  H480  1  0.024970  0.738230  0.379730  1.0  0.0983
  H  H481  1  0.995770  0.676230  0.405230  1.0  0.0788
  H  H482  1  0.915170  0.646730  0.419730  1.0  0.0826
  H  H483  1  0.848370  0.553930  0.455930  1.0  0.0969
  H  H484  1  0.815470  0.489130  0.481330  1.0  0.0832
  H  H485  1  0.465230  0.368270  0.524870  1.0  0.0829
  H  H486  1  0.377130  0.354070  0.520270  1.0  0.0951
  H  H487  1  0.323530  0.241070  0.561870  1.0  0.0869
  H  H488  1  0.412630  0.259970  0.567570  1.0  0.0857
  H  H489  1  0.253230  0.342470  0.508870  1.0  0.0572
  H  H490  1  0.188530  0.211770  0.565070  1.0  0.0679
  H  H491  1  0.529630  0.203570  0.627170  1.0  0.1028
  H  H492  1  0.508230  0.155670  0.656770  1.0  0.0788
  H  H493  1  0.634930  0.092870  0.698970  1.0  0.0822
  H  H494  1  0.691630  0.071570  0.713070  1.0  0.0983
  H  H495  1  0.662430  0.009570  0.738570  1.0  0.0788
  H  H496  1  0.581830  0.980070  0.753070  1.0  0.0826
  H  H497  1  0.515030  0.887270  0.789270  1.0  0.0969
  H  H498  1  0.482130  0.822470  0.814670  1.0  0.0829
  H  H499  1  0.298400  0.430300  0.858200  1.0  0.0817
  H  H500  1  0.312600  0.356400  0.853600  1.0  0.0946
  H  H501  1  0.425600  0.415800  0.895200  1.0  0.0866
  H  H502  1  0.406700  0.486000  0.900900  1.0  0.0855
  H  H503  1  0.324200  0.244100  0.842200  1.0  0.0581
  H  H504  1  0.454900  0.310100  0.898400  1.0  0.0687
  H  H505  1  0.463100  0.659400  0.960500  1.0  0.102
  H  H506  1  0.511000  0.685900  0.990100  1.0  0.0781
  H  H507  1  0.573800  0.875400  0.032300  1.0  0.0821
  H  H508  1  0.595100  0.953400  0.046400  1.0  0.0991
  H  H509  1  0.657100  0.986200  0.071900  1.0  0.0802
  H  H510  1  0.686600  0.935100  0.086400  1.0  0.0831
  H  H511  1  0.779400  0.961100  0.122600  1.0  0.0981
  H  H512  1  0.844200  0.993000  0.148000  1.0  0.0834
  H  H513  1  0.965070  0.763630  0.191530  1.0  0.0817
  H  H514  1  0.979270  0.689730  0.186930  1.0  0.0946
  H  H515  1  0.092270  0.749130  0.228530  1.0  0.0866
  H  H516  1  0.073370  0.819330  0.234230  1.0  0.0855
  H  H517  1  0.990870  0.577430  0.175530  1.0  0.0581
  H  H518  1  0.121570  0.643430  0.231730  1.0  0.0687
  H  H519  1  0.129770  0.992730  0.293830  1.0  0.102
  H  H520  1  0.177670  0.019230  0.323430  1.0  0.0781
  H  H521  1  0.240470  0.208730  0.365630  1.0  0.0821
  H  H522  1  0.261770  0.286730  0.379730  1.0  0.0991
  H  H523  1  0.323770  0.319530  0.405230  1.0  0.0795
  H  H524  1  0.353270  0.268430  0.419730  1.0  0.0831
  H  H525  1  0.446070  0.294430  0.455930  1.0  0.0981
  H  H526  1  0.510870  0.326330  0.481330  1.0  0.0836
  H  H527  1  0.631730  0.096970  0.524870  1.0  0.0831
  H  H528  1  0.645930  0.023070  0.520270  1.0  0.0967
  H  H529  1  0.758930  0.082470  0.561870  1.0  0.0866
  H  H530  1  0.740030  0.152670  0.567570  1.0  0.0855
  H  H531  1  0.657530  0.910770  0.508870  1.0  0.0581
  H  H532  1  0.788230  0.976770  0.565070  1.0  0.0686
  H  H533  1  0.796430  0.326070  0.627170  1.0  0.102
  H  H534  1  0.844330  0.352570  0.656770  1.0  0.0781
  H  H535  1  0.907130  0.542070  0.698970  1.0  0.0821
  H  H536  1  0.928430  0.620070  0.713070  1.0  0.0991
  H  H537  1  0.990430  0.652870  0.738570  1.0  0.0795
  H  H538  1  0.019930  0.601770  0.753070  1.0  0.0831
  H  H539  1  0.112730  0.627770  0.789270  1.0  0.0981
  H  H540  1  0.177530  0.659670  0.814670  1.0  0.0834
  C  C541  1  0.512040  0.171670  0.117280  1.0  0.6926
  C  C542  1  0.464340  0.114510  0.119850  1.0  -0.1424
  C  C543  1  0.426530  0.103500  0.133850  1.0  -0.0428
  C  C544  1  0.381800  0.050500  0.136720  1.0  -0.1875
  C  C545  1  0.376200  0.008700  0.125100  1.0  -0.0116
  C  C546  1  0.417200  0.019100  0.111720  1.0  -0.1628
  C  C547  1  0.460200  0.072400  0.108640  1.0  -0.0707
  C  C548  1  0.332000  0.953400  0.126840  1.0  -0.0144
  C  C549  1  0.292400  0.908900  0.128830  1.0  0.0126
  C  C550  1  0.243400  0.856300  0.130090  1.0  -0.0327
  C  C551  1  0.204700  0.847200  0.143730  1.0  -0.1035
  C  C552  1  0.211800  0.886100  0.158050  1.0  -0.0485
  C  C553  1  0.175400  0.877300  0.171720  1.0  0.0205
  C  C554  1  0.236200  0.815400  0.116440  1.0  -0.0161
  C  C555  1  0.276900  0.822300  0.101860  1.0  -0.0427
  C  C556  1  0.268700  0.783700  0.088840  1.0  -0.0146
  C  C557  1  0.693600  0.219500  0.034070  1.0  -0.099
  C  C558  1  0.709900  0.207400  0.016220  1.0  -0.129
  C  C559  1  0.851800  0.235500  0.949830  1.0  0.2407
  C  C560  1  0.886500  0.289900  0.956900  1.0  -0.119
  C  C561  1  0.932400  0.322800  0.948900  1.0  -0.1112
  C  C562  1  0.951400  0.305400  0.933000  1.0  -0.1012
  C  C563  1  0.921500  0.256700  0.924600  1.0  -0.1251
  C  C564  1  0.869500  0.216800  0.931900  1.0  0.1205
  C  C565  1  0.938700  0.146800  0.872340  1.0  -0.1194
  C  C566  1  0.957900  0.126700  0.856910  1.0  -0.0653
  C  C567  1  0.178710  0.505000  0.450610  1.0  0.6955
  C  C568  1  0.131010  0.447840  0.453180  1.0  -0.1389
  C  C569  1  0.093200  0.436830  0.467180  1.0  -0.043
  C  C570  1  0.048470  0.383830  0.470050  1.0  -0.1875
  C  C571  1  0.042870  0.342030  0.458430  1.0  -0.0116
  C  C572  1  0.083870  0.352430  0.445050  1.0  -0.1628
  C  C573  1  0.126870  0.405730  0.441970  1.0  -0.0679
  C  C574  1  0.998670  0.286730  0.460170  1.0  -0.0143
  C  C575  1  0.959070  0.242230  0.462160  1.0  0.0126
  C  C576  1  0.910070  0.189630  0.463420  1.0  -0.0328
  C  C577  1  0.871370  0.180530  0.477060  1.0  -0.1035
  C  C578  1  0.878470  0.219430  0.491380  1.0  -0.0475
  C  C579  1  0.842070  0.210630  0.505050  1.0  0.0207
  C  C580  1  0.902870  0.148730  0.449770  1.0  -0.007
  C  C581  1  0.943570  0.155630  0.435190  1.0  -0.0366
  C  C582  1  0.935370  0.117030  0.422170  1.0  -0.0146
  C  C583  1  0.360270  0.552830  0.367400  1.0  -0.099
  C  C584  1  0.376570  0.540730  0.349550  1.0  -0.129
  C  C585  1  0.518470  0.568830  0.283160  1.0  0.2407
  C  C586  1  0.553170  0.623230  0.290230  1.0  -0.119
  C  C587  1  0.599070  0.656130  0.282230  1.0  -0.1112
  C  C588  1  0.618070  0.638730  0.266330  1.0  -0.1012
  C  C589  1  0.588170  0.590030  0.257930  1.0  -0.1251
  C  C590  1  0.536170  0.550130  0.265230  1.0  0.1285
  C  C591  1  0.605370  0.480130  0.205670  1.0  -0.1194
  C  C592  1  0.624570  0.460030  0.190240  1.0  -0.0653
  C  C593  1  0.845370  0.838340  0.783950  1.0  0.6926
  C  C594  1  0.797670  0.781180  0.786520  1.0  -0.1424
  C  C595  1  0.759860  0.770170  0.800520  1.0  -0.0428
  C  C596  1  0.715130  0.717170  0.803390  1.0  -0.1875
  C  C597  1  0.709530  0.675370  0.791770  1.0  -0.0116
  C  C598  1  0.750530  0.685770  0.778390  1.0  -0.1628
  C  C599  1  0.793530  0.739070  0.775310  1.0  -0.0707
  C  C600  1  0.665330  0.620070  0.793510  1.0  -0.0144
  C  C601  1  0.625730  0.575570  0.795500  1.0  0.0126
  C  C602  1  0.576730  0.522970  0.796760  1.0  -0.0327
  C  C603  1  0.538030  0.513870  0.810400  1.0  -0.1035
  C  C604  1  0.545130  0.552770  0.824720  1.0  -0.0485
  C  C605  1  0.508730  0.543970  0.838390  1.0  0.0205
  C  C606  1  0.569530  0.482070  0.783110  1.0  -0.0161
  C  C607  1  0.610230  0.488970  0.768530  1.0  -0.0427
  C  C608  1  0.602030  0.450370  0.755510  1.0  -0.0146
  C  C609  1  0.026930  0.886170  0.700740  1.0  -0.099
  C  C610  1  0.043230  0.874070  0.682890  1.0  -0.129
  C  C611  1  0.185130  0.902170  0.616500  1.0  0.2407
  C  C612  1  0.219830  0.956570  0.623570  1.0  -0.119
  C  C613  1  0.265730  0.989470  0.615570  1.0  -0.1112
  C  C614  1  0.284730  0.972070  0.599670  1.0  -0.1012
  C  C615  1  0.254830  0.923370  0.591270  1.0  -0.1251
  C  C616  1  0.202830  0.883470  0.598570  1.0  0.1285
  C  C617  1  0.272030  0.813470  0.539010  1.0  -0.1194
  C  C618  1  0.291230  0.793370  0.523580  1.0  -0.065
  C  C619  1  0.828330  0.340370  0.117280  1.0  0.6926
  C  C620  1  0.885490  0.349830  0.119850  1.0  -0.14
  C  C621  1  0.896500  0.323030  0.133850  1.0  -0.0488
  C  C622  1  0.949500  0.331300  0.136720  1.0  -0.1849
  C  C623  1  0.991300  0.367500  0.125100  1.0  -0.0119
  C  C624  1  0.980900  0.398100  0.111720  1.0  -0.1637
  C  C625  1  0.927600  0.387800  0.108640  1.0  -0.0695
  C  C626  1  0.046600  0.378600  0.126840  1.0  -0.0147
  C  C627  1  0.091100  0.383500  0.128830  1.0  0.0115
  C  C628  1  0.143700  0.387100  0.130090  1.0  -0.0332
  C  C629  1  0.152800  0.357500  0.143730  1.0  -0.1043
  C  C630  1  0.113900  0.325700  0.158050  1.0  -0.0475
  C  C631  1  0.122700  0.298100  0.171720  1.0  0.0219
  C  C632  1  0.184600  0.420800  0.116440  1.0  -0.0063
  C  C633  1  0.177700  0.454600  0.101860  1.0  -0.0327
  C  C634  1  0.216300  0.485000  0.088840  1.0  -0.0156
  C  C635  1  0.780500  0.474100  0.034070  1.0  -0.1
  C  C636  1  0.792600  0.502500  0.016220  1.0  -0.1261
  C  C637  1  0.764500  0.616300  0.949830  1.0  0.239
  C  C638  1  0.710100  0.596600  0.956900  1.0  -0.1171
  C  C639  1  0.677200  0.609600  0.948900  1.0  -0.1134
  C  C640  1  0.694600  0.646000  0.933000  1.0  -0.1004
  C  C641  1  0.743300  0.664800  0.924600  1.0  -0.1274
  C  C642  1  0.783200  0.652700  0.931900  1.0  0.1279
  C  C643  1  0.853200  0.791900  0.872340  1.0  -0.1242
  C  C644  1  0.873300  0.831200  0.856910  1.0  -0.0657
  C  C645  1  0.495000  0.673700  0.450610  1.0  0.6907
  C  C646  1  0.552160  0.683160  0.453180  1.0  -0.1427
  C  C647  1  0.563170  0.656360  0.467180  1.0  -0.0491
  C  C648  1  0.616170  0.664630  0.470050  1.0  -0.1849
  C  C649  1  0.657970  0.700830  0.458430  1.0  -0.0119
  C  C650  1  0.647570  0.731430  0.445050  1.0  -0.1637
  C  C651  1  0.594270  0.721130  0.441970  1.0  -0.0713
  C  C652  1  0.713270  0.711930  0.460170  1.0  -0.0146
  C  C653  1  0.757770  0.716830  0.462160  1.0  0.0115
  C  C654  1  0.810370  0.720430  0.463420  1.0  -0.0333
  C  C655  1  0.819470  0.690830  0.477060  1.0  -0.1032
  C  C656  1  0.780570  0.659030  0.491380  1.0  -0.0467
  C  C657  1  0.789370  0.631430  0.505050  1.0  0.022
  C  C658  1  0.851270  0.754130  0.449770  1.0  -0.0091
  C  C659  1  0.844370  0.787930  0.435190  1.0  -0.0404
  C  C660  1  0.882970  0.818330  0.422170  1.0  -0.0156
  C  C661  1  0.447170  0.807430  0.367400  1.0  -0.1
  C  C662  1  0.459270  0.835830  0.349550  1.0  -0.1261
  C  C663  1  0.431170  0.949630  0.283160  1.0  0.239
  C  C664  1  0.376770  0.929930  0.290230  1.0  -0.1171
  C  C665  1  0.343870  0.942930  0.282230  1.0  -0.1134
  C  C666  1  0.361270  0.979330  0.266330  1.0  -0.1004
  C  C667  1  0.409970  0.998130  0.257930  1.0  -0.1288
  C  C668  1  0.449870  0.986030  0.265230  1.0  0.1231
  C  C669  1  0.519870  0.125230  0.205670  1.0  -0.1242
  C  C670  1  0.539970  0.164530  0.190240  1.0  -0.0657
  C  C671  1  0.161660  0.007040  0.783950  1.0  0.6926
  C  C672  1  0.218820  0.016500  0.786520  1.0  -0.14
  C  C673  1  0.229830  0.989700  0.800520  1.0  -0.0488
  C  C674  1  0.282830  0.997970  0.803390  1.0  -0.1849
  C  C675  1  0.324630  0.034170  0.791770  1.0  -0.0119
  C  C676  1  0.314230  0.064770  0.778390  1.0  -0.1637
  C  C677  1  0.260930  0.054470  0.775310  1.0  -0.0695
  C  C678  1  0.379930  0.045270  0.793510  1.0  -0.0147
  C  C679  1  0.424430  0.050170  0.795500  1.0  0.0115
  C  C680  1  0.477030  0.053770  0.796760  1.0  -0.0332
  C  C681  1  0.486130  0.024170  0.810400  1.0  -0.1043
  C  C682  1  0.447230  0.992370  0.824720  1.0  -0.0475
  C  C683  1  0.456030  0.964770  0.838390  1.0  0.0219
  C  C684  1  0.517930  0.087470  0.783110  1.0  -0.0063
  C  C685  1  0.511030  0.121270  0.768530  1.0  -0.0327
  C  C686  1  0.549630  0.151670  0.755510  1.0  -0.0156
  C  C687  1  0.113830  0.140770  0.700740  1.0  -0.1
  C  C688  1  0.125930  0.169170  0.682890  1.0  -0.1261
  C  C689  1  0.097830  0.282970  0.616500  1.0  0.239
  C  C690  1  0.043430  0.263270  0.623570  1.0  -0.1171
  C  C691  1  0.010530  0.276270  0.615570  1.0  -0.1134
  C  C692  1  0.027930  0.312670  0.599670  1.0  -0.1004
  C  C693  1  0.076630  0.331470  0.591270  1.0  -0.1274
  C  C694  1  0.116530  0.319370  0.598570  1.0  0.1279
  C  C695  1  0.186530  0.458570  0.539010  1.0  -0.1242
  C  C696  1  0.206630  0.497870  0.523580  1.0  -0.0686
  C  C697  1  0.659630  0.487960  0.117280  1.0  0.6889
  C  C698  1  0.650170  0.535660  0.119850  1.0  -0.142
  C  C699  1  0.676970  0.573470  0.133850  1.0  -0.0452
  C  C700  1  0.668700  0.618200  0.136720  1.0  -0.1856
  C  C701  1  0.632500  0.623800  0.125100  1.0  -0.0087
  C  C702  1  0.601900  0.582800  0.111720  1.0  -0.164
  C  C703  1  0.612200  0.539800  0.108640  1.0  -0.0701
  C  C704  1  0.621400  0.668000  0.126840  1.0  -0.0151
  C  C705  1  0.616500  0.707600  0.128830  1.0  0.011
  C  C706  1  0.612900  0.756600  0.130090  1.0  -0.0338
  C  C707  1  0.642500  0.795300  0.143730  1.0  -0.1024
  C  C708  1  0.674300  0.788200  0.158050  1.0  -0.0471
  C  C709  1  0.701900  0.824600  0.171720  1.0  0.0216
  C  C710  1  0.579200  0.763800  0.116440  1.0  -0.0104
  C  C711  1  0.545400  0.723100  0.101860  1.0  -0.0371
  C  C712  1  0.515000  0.731300  0.088840  1.0  -0.0149
  C  C713  1  0.525900  0.306400  0.034070  1.0  -0.101
  C  C714  1  0.497500  0.290100  0.016220  1.0  -0.1262
  C  C715  1  0.383700  0.148200  0.949830  1.0  0.24
  C  C716  1  0.403400  0.113500  0.956900  1.0  -0.116
  C  C717  1  0.390400  0.067600  0.948900  1.0  -0.1114
  C  C718  1  0.354000  0.048600  0.933000  1.0  -0.1032
  C  C719  1  0.335200  0.078500  0.924600  1.0  -0.1287
  C  C720  1  0.347300  0.130500  0.931900  1.0  0.1206
  C  C721  1  0.208100  0.061300  0.872340  1.0  -0.123
  C  C722  1  0.168800  0.042100  0.856910  1.0  -0.0655
  C  C723  1  0.326300  0.821290  0.450610  1.0  0.6889
  C  C724  1  0.316840  0.868990  0.453180  1.0  -0.1422
  C  C725  1  0.343640  0.906800  0.467180  1.0  -0.0456
  C  C726  1  0.335370  0.951530  0.470050  1.0  -0.1856
  C  C727  1  0.299170  0.957130  0.458430  1.0  -0.0087
  C  C728  1  0.268570  0.916130  0.445050  1.0  -0.164
  C  C729  1  0.278870  0.873130  0.441970  1.0  -0.0701
  C  C730  1  0.288070  0.001330  0.460170  1.0  -0.015
  C  C731  1  0.283170  0.040930  0.462160  1.0  0.011
  C  C732  1  0.279570  0.089930  0.463420  1.0  -0.0338
  C  C733  1  0.309170  0.128630  0.477060  1.0  -0.1043
  C  C734  1  0.340970  0.121530  0.491380  1.0  -0.0467
  C  C735  1  0.368570  0.157930  0.505050  1.0  0.0214
  C  C736  1  0.245870  0.097130  0.449770  1.0  -0.0145
  C  C737  1  0.212070  0.056430  0.435190  1.0  -0.0371
  C  C738  1  0.181670  0.064630  0.422170  1.0  -0.0149
  C  C739  1  0.192570  0.639730  0.367400  1.0  -0.101
  C  C740  1  0.164170  0.623430  0.349550  1.0  -0.1262
  C  C741  1  0.050370  0.481530  0.283160  1.0  0.24
  C  C742  1  0.070070  0.446830  0.290230  1.0  -0.116
  C  C743  1  0.057070  0.400930  0.282230  1.0  -0.1114
  C  C744  1  0.020670  0.381930  0.266330  1.0  -0.1032
  C  C745  1  0.001870  0.411830  0.257930  1.0  -0.1304
  C  C746  1  0.013970  0.463830  0.265230  1.0  0.1237
  C  C747  1  0.874770  0.394630  0.205670  1.0  -0.123
  C  C748  1  0.835470  0.375430  0.190240  1.0  -0.0655
  C  C749  1  0.992960  0.154630  0.783950  1.0  0.6889
  C  C750  1  0.983500  0.202330  0.786520  1.0  -0.142
  C  C751  1  0.010300  0.240140  0.800520  1.0  -0.0452
  C  C752  1  0.002030  0.284870  0.803390  1.0  -0.1856
  C  C753  1  0.965830  0.290470  0.791770  1.0  -0.0087
  C  C754  1  0.935230  0.249470  0.778390  1.0  -0.164
  C  C755  1  0.945530  0.206470  0.775310  1.0  -0.0701
  C  C756  1  0.954730  0.334670  0.793510  1.0  -0.0151
  C  C757  1  0.949830  0.374270  0.795500  1.0  0.011
  C  C758  1  0.946230  0.423270  0.796760  1.0  -0.0338
  C  C759  1  0.975830  0.461970  0.810400  1.0  -0.1024
  C  C760  1  0.007630  0.454870  0.824720  1.0  -0.0471
  C  C761  1  0.035230  0.491270  0.838390  1.0  0.0216
  C  C762  1  0.912530  0.430470  0.783110  1.0  -0.0104
  C  C763  1  0.878730  0.389770  0.768530  1.0  -0.0371
  C  C764  1  0.848330  0.397970  0.755510  1.0  -0.0149
  C  C765  1  0.859230  0.973070  0.700740  1.0  -0.101
  C  C766  1  0.830830  0.956770  0.682890  1.0  -0.1262
  C  C767  1  0.717030  0.814870  0.616500  1.0  0.24
  C  C768  1  0.736730  0.780170  0.623570  1.0  -0.116
  C  C769  1  0.723730  0.734270  0.615570  1.0  -0.1114
  C  C770  1  0.687330  0.715270  0.599670  1.0  -0.1032
  C  C771  1  0.668530  0.745170  0.591270  1.0  -0.1287
  C  C772  1  0.680630  0.797170  0.598570  1.0  0.1283
  C  C773  1  0.541430  0.727970  0.539010  1.0  -0.123
  C  C774  1  0.502130  0.708770  0.523580  1.0  -0.0648
  C  C775  1  0.828330  0.487960  0.117280  1.0  0.6884
  C  C776  1  0.885490  0.535660  0.119850  1.0  -0.1428
  C  C777  1  0.896500  0.573470  0.133850  1.0  -0.0467
  C  C778  1  0.949500  0.618200  0.136720  1.0  -0.1855
  C  C779  1  0.991300  0.623800  0.125100  1.0  -0.0099
  C  C780  1  0.980900  0.582800  0.111720  1.0  -0.1634
  C  C781  1  0.927600  0.539800  0.108640  1.0  -0.0707
  C  C782  1  0.046600  0.668000  0.126840  1.0  -0.0148
  C  C783  1  0.091100  0.707600  0.128830  1.0  0.0095
  C  C784  1  0.143700  0.756600  0.130090  1.0  -0.0329
  C  C785  1  0.152800  0.795300  0.143730  1.0  -0.1032
  C  C786  1  0.113900  0.788200  0.158050  1.0  -0.0485
  C  C787  1  0.122700  0.824600  0.171720  1.0  0.0214
  C  C788  1  0.184600  0.763800  0.116440  1.0  -0.017
  C  C789  1  0.177700  0.723100  0.101860  1.0  -0.038
  C  C790  1  0.216300  0.731300  0.088840  1.0  -0.0152
  C  C791  1  0.780500  0.306400  0.034070  1.0  -0.1003
  C  C792  1  0.792600  0.290100  0.016220  1.0  -0.1274
  C  C793  1  0.764500  0.148200  0.949830  1.0  0.2403
  C  C794  1  0.710100  0.113500  0.956900  1.0  -0.1172
  C  C795  1  0.677200  0.067600  0.948900  1.0  -0.1129
  C  C796  1  0.694600  0.048600  0.933000  1.0  -0.1027
  C  C797  1  0.743300  0.078500  0.924600  1.0  -0.1296
  C  C798  1  0.783200  0.130500  0.931900  1.0  0.1218
  C  C799  1  0.853200  0.061300  0.872340  1.0  -0.1221
  C  C800  1  0.873300  0.042100  0.856910  1.0  -0.0667
  C  C801  1  0.495000  0.821290  0.450610  1.0  0.6915
  C  C802  1  0.552160  0.868990  0.453180  1.0  -0.1392
  C  C803  1  0.563170  0.906800  0.467180  1.0  -0.0468
  C  C804  1  0.616170  0.951530  0.470050  1.0  -0.1856
  C  C805  1  0.657970  0.957130  0.458430  1.0  -0.0098
  C  C806  1  0.647570  0.916130  0.445050  1.0  -0.1634
  C  C807  1  0.594270  0.873130  0.441970  1.0  -0.0688
  C  C808  1  0.713270  0.001330  0.460170  1.0  -0.0147
  C  C809  1  0.757770  0.040930  0.462160  1.0  0.0095
  C  C810  1  0.810370  0.089930  0.463420  1.0  -0.033
  C  C811  1  0.819470  0.128630  0.477060  1.0  -0.1032
  C  C812  1  0.780570  0.121530  0.491380  1.0  -0.0475
  C  C813  1  0.789370  0.157930  0.505050  1.0  0.0216
  C  C814  1  0.851270  0.097130  0.449770  1.0  -0.0088
  C  C815  1  0.844370  0.056430  0.435190  1.0  -0.033
  C  C816  1  0.882970  0.064630  0.422170  1.0  -0.0152
  C  C817  1  0.447170  0.639730  0.367400  1.0  -0.1003
  C  C818  1  0.459270  0.623430  0.349550  1.0  -0.1274
  C  C819  1  0.431170  0.481530  0.283160  1.0  0.2403
  C  C820  1  0.376770  0.446830  0.290230  1.0  -0.1172
  C  C821  1  0.343870  0.400930  0.282230  1.0  -0.1129
  C  C822  1  0.361270  0.381930  0.266330  1.0  -0.1027
  C  C823  1  0.409970  0.411830  0.257930  1.0  -0.1296
  C  C824  1  0.449870  0.463830  0.265230  1.0  0.1296
  C  C825  1  0.519870  0.394630  0.205670  1.0  -0.1221
  C  C826  1  0.539970  0.375430  0.190240  1.0  -0.0667
  C  C827  1  0.161660  0.154630  0.783950  1.0  0.6884
  C  C828  1  0.218820  0.202330  0.786520  1.0  -0.1428
  C  C829  1  0.229830  0.240140  0.800520  1.0  -0.0467
  C  C830  1  0.282830  0.284870  0.803390  1.0  -0.1855
  C  C831  1  0.324630  0.290470  0.791770  1.0  -0.0099
  C  C832  1  0.314230  0.249470  0.778390  1.0  -0.1634
  C  C833  1  0.260930  0.206470  0.775310  1.0  -0.0707
  C  C834  1  0.379930  0.334670  0.793510  1.0  -0.0148
  C  C835  1  0.424430  0.374270  0.795500  1.0  0.0095
  C  C836  1  0.477030  0.423270  0.796760  1.0  -0.0329
  C  C837  1  0.486130  0.461970  0.810400  1.0  -0.1032
  C  C838  1  0.447230  0.454870  0.824720  1.0  -0.0485
  C  C839  1  0.456030  0.491270  0.838390  1.0  0.0214
  C  C840  1  0.517930  0.430470  0.783110  1.0  -0.017
  C  C841  1  0.511030  0.389770  0.768530  1.0  -0.038
  C  C842  1  0.549630  0.397970  0.755510  1.0  -0.0152
  C  C843  1  0.113830  0.973070  0.700740  1.0  -0.1003
  C  C844  1  0.125930  0.956770  0.682890  1.0  -0.1274
  C  C845  1  0.097830  0.814870  0.616500  1.0  0.2403
  C  C846  1  0.043430  0.780170  0.623570  1.0  -0.1172
  C  C847  1  0.010530  0.734270  0.615570  1.0  -0.1129
  C  C848  1  0.027930  0.715270  0.599670  1.0  -0.1027
  C  C849  1  0.076630  0.745170  0.591270  1.0  -0.1296
  C  C850  1  0.116530  0.797170  0.598570  1.0  0.1296
  C  C851  1  0.186530  0.727970  0.539010  1.0  -0.1221
  C  C852  1  0.206630  0.708770  0.523580  1.0  -0.0654
  C  C853  1  0.659630  0.171670  0.117280  1.0  0.6947
  C  C854  1  0.650170  0.114510  0.119850  1.0  -0.1397
  C  C855  1  0.676970  0.103500  0.133850  1.0  -0.0435
  C  C856  1  0.668700  0.050500  0.136720  1.0  -0.1856
  C  C857  1  0.632500  0.008700  0.125100  1.0  -0.0127
  C  C858  1  0.601900  0.019100  0.111720  1.0  -0.1635
  C  C859  1  0.612200  0.072400  0.108640  1.0  -0.0687
  C  C860  1  0.621400  0.953400  0.126840  1.0  -0.0151
  C  C861  1  0.616500  0.908900  0.128830  1.0  0.0113
  C  C862  1  0.612900  0.856300  0.130090  1.0  -0.0321
  C  C863  1  0.642500  0.847200  0.143730  1.0  -0.1026
  C  C864  1  0.674300  0.886100  0.158050  1.0  -0.0503
  C  C865  1  0.701900  0.877300  0.171720  1.0  0.0208
  C  C866  1  0.579200  0.815400  0.116440  1.0  -0.0069
  C  C867  1  0.545400  0.822300  0.101860  1.0  -0.0332
  C  C868  1  0.515000  0.783700  0.088840  1.0  -0.0135
  C  C869  1  0.525900  0.219500  0.034070  1.0  -0.0992
  C  C870  1  0.497500  0.207400  0.016220  1.0  -0.1302
  C  C871  1  0.383700  0.235500  0.949830  1.0  0.2397
  C  C872  1  0.403400  0.289900  0.956900  1.0  -0.1183
  C  C873  1  0.390400  0.322800  0.948900  1.0  -0.1137
  C  C874  1  0.354000  0.305400  0.933000  1.0  -0.1024
  C  C875  1  0.335200  0.256700  0.924600  1.0  -0.1258
  C  C876  1  0.347300  0.216800  0.931900  1.0  0.1282
  C  C877  1  0.208100  0.146800  0.872340  1.0  -0.12
  C  C878  1  0.168800  0.126700  0.856910  1.0  -0.0648
  C  C879  1  0.326300  0.505000  0.450610  1.0  0.692
  C  C880  1  0.316840  0.447840  0.453180  1.0  -0.1425
  C  C881  1  0.343640  0.436830  0.467180  1.0  -0.0439
  C  C882  1  0.335370  0.383830  0.470050  1.0  -0.1857
  C  C883  1  0.299170  0.342030  0.458430  1.0  -0.0127
  C  C884  1  0.268570  0.352430  0.445050  1.0  -0.1635
  C  C885  1  0.278870  0.405730  0.441970  1.0  -0.0703
  C  C886  1  0.288070  0.286730  0.460170  1.0  -0.015
  C  C887  1  0.283170  0.242230  0.462160  1.0  0.0113
  C  C888  1  0.279570  0.189630  0.463420  1.0  -0.0322
  C  C889  1  0.309170  0.180530  0.477060  1.0  -0.101
  C  C890  1  0.340970  0.219430  0.491380  1.0  -0.0495
  C  C891  1  0.368570  0.210630  0.505050  1.0  0.0217
  C  C892  1  0.245870  0.148730  0.449770  1.0  -0.0091
  C  C893  1  0.212070  0.155630  0.435190  1.0  -0.0389
  C  C894  1  0.181670  0.117030  0.422170  1.0  -0.0135
  C  C895  1  0.192570  0.552830  0.367400  1.0  -0.0992
  C  C896  1  0.164170  0.540730  0.349550  1.0  -0.1302
  C  C897  1  0.050370  0.568830  0.283160  1.0  0.2397
  C  C898  1  0.070070  0.623230  0.290230  1.0  -0.1183
  C  C899  1  0.057070  0.656130  0.282230  1.0  -0.1137
  C  C900  1  0.020670  0.638730  0.266330  1.0  -0.1024
  C  C901  1  0.001870  0.590030  0.257930  1.0  -0.128
  C  C902  1  0.013970  0.550130  0.265230  1.0  0.1236
  C  C903  1  0.874770  0.480130  0.205670  1.0  -0.12
  C  C904  1  0.835470  0.460030  0.190240  1.0  -0.0648
  C  C905  1  0.992960  0.838340  0.783950  1.0  0.6947
  C  C906  1  0.983500  0.781180  0.786520  1.0  -0.1397
  C  C907  1  0.010300  0.770170  0.800520  1.0  -0.0435
  C  C908  1  0.002030  0.717170  0.803390  1.0  -0.1856
  C  C909  1  0.965830  0.675370  0.791770  1.0  -0.0127
  C  C910  1  0.935230  0.685770  0.778390  1.0  -0.1635
  C  C911  1  0.945530  0.739070  0.775310  1.0  -0.0687
  C  C912  1  0.954730  0.620070  0.793510  1.0  -0.0151
  C  C913  1  0.949830  0.575570  0.795500  1.0  0.0113
  C  C914  1  0.946230  0.522970  0.796760  1.0  -0.0321
  C  C915  1  0.975830  0.513870  0.810400  1.0  -0.1026
  C  C916  1  0.007630  0.552770  0.824720  1.0  -0.0503
  C  C917  1  0.035230  0.543970  0.838390  1.0  0.0208
  C  C918  1  0.912530  0.482070  0.783110  1.0  -0.0069
  C  C919  1  0.878730  0.488970  0.768530  1.0  -0.0332
  C  C920  1  0.848330  0.450370  0.755510  1.0  -0.0135
  C  C921  1  0.859230  0.886170  0.700740  1.0  -0.0992
  C  C922  1  0.830830  0.874070  0.682890  1.0  -0.1302
  C  C923  1  0.717030  0.902170  0.616500  1.0  0.2397
  C  C924  1  0.736730  0.956570  0.623570  1.0  -0.1183
  C  C925  1  0.723730  0.989470  0.615570  1.0  -0.1137
  C  C926  1  0.687330  0.972070  0.599670  1.0  -0.1024
  C  C927  1  0.668530  0.923370  0.591270  1.0  -0.1258
  C  C928  1  0.680630  0.883470  0.598570  1.0  0.1282
  C  C929  1  0.541430  0.813470  0.539010  1.0  -0.12
  C  C930  1  0.502130  0.793370  0.523580  1.0  -0.0673
  C  C931  1  0.512040  0.340370  0.117280  1.0  0.6905
  C  C932  1  0.464340  0.349830  0.119850  1.0  -0.1407
  C  C933  1  0.426530  0.323030  0.133850  1.0  -0.0487
  C  C934  1  0.381800  0.331300  0.136720  1.0  -0.1855
  C  C935  1  0.376200  0.367500  0.125100  1.0  -0.0134
  C  C936  1  0.417200  0.398100  0.111720  1.0  -0.164
  C  C937  1  0.460200  0.387800  0.108640  1.0  -0.0719
  C  C938  1  0.332000  0.378600  0.126840  1.0  -0.0148
  C  C939  1  0.292400  0.383500  0.128830  1.0  0.0112
  C  C940  1  0.243400  0.387100  0.130090  1.0  -0.0324
  C  C941  1  0.204700  0.357500  0.143730  1.0  -0.1022
  C  C942  1  0.211800  0.325700  0.158050  1.0  -0.0462
  C  C943  1  0.175400  0.298100  0.171720  1.0  0.021
  C  C944  1  0.236200  0.420800  0.116440  1.0  -0.0101
  C  C945  1  0.276900  0.454600  0.101860  1.0  -0.0393
  C  C946  1  0.268700  0.485000  0.088840  1.0  -0.0161
  C  C947  1  0.693600  0.474100  0.034070  1.0  -0.1008
  C  C948  1  0.709900  0.502500  0.016220  1.0  -0.1263
  C  C949  1  0.851800  0.616300  0.949830  1.0  0.2404
  C  C950  1  0.886500  0.596600  0.956900  1.0  -0.1167
  C  C951  1  0.932400  0.609600  0.948900  1.0  -0.1114
  C  C952  1  0.951400  0.646000  0.933000  1.0  -0.0997
  C  C953  1  0.921500  0.664800  0.924600  1.0  -0.1273
  C  C954  1  0.869500  0.652700  0.931900  1.0  0.1211
  C  C955  1  0.938700  0.791900  0.872340  1.0  -0.1234
  C  C956  1  0.957900  0.831200  0.856910  1.0  -0.0654
  C  C957  1  0.178710  0.673700  0.450610  1.0  0.6905
  C  C958  1  0.131010  0.683160  0.453180  1.0  -0.1409
  C  C959  1  0.093200  0.656360  0.467180  1.0  -0.049
  C  C960  1  0.048470  0.664630  0.470050  1.0  -0.1855
  C  C961  1  0.042870  0.700830  0.458430  1.0  -0.0134
  C  C962  1  0.083870  0.731430  0.445050  1.0  -0.164
  C  C963  1  0.126870  0.721130  0.441970  1.0  -0.0719
  C  C964  1  0.998670  0.711930  0.460170  1.0  -0.0146
  C  C965  1  0.959070  0.716830  0.462160  1.0  0.0112
  C  C966  1  0.910070  0.720430  0.463420  1.0  -0.0324
  C  C967  1  0.871370  0.690830  0.477060  1.0  -0.1034
  C  C968  1  0.878470  0.659030  0.491380  1.0  -0.0458
  C  C969  1  0.842070  0.631430  0.505050  1.0  0.0218
  C  C970  1  0.902870  0.754130  0.449770  1.0  -0.0137
  C  C971  1  0.943570  0.787930  0.435190  1.0  -0.0393
  C  C972  1  0.935370  0.818330  0.422170  1.0  -0.0161
  C  C973  1  0.360270  0.807430  0.367400  1.0  -0.1008
  C  C974  1  0.376570  0.835830  0.349550  1.0  -0.1263
  C  C975  1  0.518470  0.949630  0.283160  1.0  0.2404
  C  C976  1  0.553170  0.929930  0.290230  1.0  -0.1167
  C  C977  1  0.599070  0.942930  0.282230  1.0  -0.1114
  C  C978  1  0.618070  0.979330  0.266330  1.0  -0.0997
  C  C979  1  0.588170  0.998130  0.257930  1.0  -0.1285
  C  C980  1  0.536170  0.986030  0.265230  1.0  0.125
  C  C981  1  0.605370  0.125230  0.205670  1.0  -0.1234
  C  C982  1  0.624570  0.164530  0.190240  1.0  -0.0654
  C  C983  1  0.845370  0.007040  0.783950  1.0  0.6905
  C  C984  1  0.797670  0.016500  0.786520  1.0  -0.1407
  C  C985  1  0.759860  0.989700  0.800520  1.0  -0.0487
  C  C986  1  0.715130  0.997970  0.803390  1.0  -0.1855
  C  C987  1  0.709530  0.034170  0.791770  1.0  -0.0134
  C  C988  1  0.750530  0.064770  0.778390  1.0  -0.164
  C  C989  1  0.793530  0.054470  0.775310  1.0  -0.0719
  C  C990  1  0.665330  0.045270  0.793510  1.0  -0.0148
  C  C991  1  0.625730  0.050170  0.795500  1.0  0.0112
  C  C992  1  0.576730  0.053770  0.796760  1.0  -0.0324
  C  C993  1  0.538030  0.024170  0.810400  1.0  -0.1022
  C  C994  1  0.545130  0.992370  0.824720  1.0  -0.0462
  C  C995  1  0.508730  0.964770  0.838390  1.0  0.021
  C  C996  1  0.569530  0.087470  0.783110  1.0  -0.0101
  C  C997  1  0.610230  0.121270  0.768530  1.0  -0.0393
  C  C998  1  0.602030  0.151670  0.755510  1.0  -0.0161
  C  C999  1  0.026930  0.140770  0.700740  1.0  -0.1008
  C  C1000  1  0.043230  0.169170  0.682890  1.0  -0.1263
  C  C1001  1  0.185130  0.282970  0.616500  1.0  0.2404
  C  C1002  1  0.219830  0.263270  0.623570  1.0  -0.1167
  C  C1003  1  0.265730  0.276270  0.615570  1.0  -0.1114
  C  C1004  1  0.284730  0.312670  0.599670  1.0  -0.0997
  C  C1005  1  0.254830  0.331470  0.591270  1.0  -0.1273
  C  C1006  1  0.202830  0.319370  0.598570  1.0  0.1297
  C  C1007  1  0.272030  0.458570  0.539010  1.0  -0.1234
  C  C1008  1  0.291230  0.497870  0.523580  1.0  -0.0643
  C  C1009  1  0.717420  0.282580  0.061900  1.0  0.6122
  C  C1010  1  0.731750  0.268250  0.042960  1.0  -0.1607
  C  C1011  1  0.758800  0.241200  0.008200  1.0  0.3793
  C  C1012  1  0.773200  0.226800  0.989100  1.0  0.0715
  C  C1013  1  0.785000  0.215000  0.975200  1.0  0.2474
  C  C1014  1  0.801200  0.198800  0.957160  1.0  0.1556
  C  C1015  1  0.833800  0.166200  0.924860  1.0  0.0958
  C  C1016  1  0.852500  0.147500  0.907710  1.0  0.1928
  C  C1017  1  0.866400  0.133600  0.895200  1.0  0.2706
  C  C1018  1  0.886400  0.113600  0.879650  1.0  0.0197
  C  C1019  1  0.384090  0.615910  0.395230  1.0  0.6122
  C  C1020  1  0.398420  0.601580  0.376290  1.0  -0.1607
  C  C1021  1  0.425470  0.574530  0.341530  1.0  0.3793
  C  C1022  1  0.439870  0.560130  0.322430  1.0  0.0715
  C  C1023  1  0.451670  0.548330  0.308530  1.0  0.2474
  C  C1024  1  0.467870  0.532130  0.290490  1.0  0.1556
  C  C1025  1  0.500470  0.499530  0.258190  1.0  0.1
  C  C1026  1  0.519170  0.480830  0.241040  1.0  0.2
  C  C1027  1  0.533070  0.466930  0.228530  1.0  0.2706
  C  C1028  1  0.553070  0.446930  0.212980  1.0  0.0197
  C  C1029  1  0.050750  0.949250  0.728570  1.0  0.6122
  C  C1030  1  0.065080  0.934920  0.709630  1.0  -0.1607
  C  C1031  1  0.092130  0.907870  0.674870  1.0  0.3793
  C  C1032  1  0.106530  0.893470  0.655770  1.0  0.0715
  C  C1033  1  0.118330  0.881670  0.641870  1.0  0.2474
  C  C1034  1  0.134530  0.865470  0.623830  1.0  0.1556
  C  C1035  1  0.167130  0.832870  0.591530  1.0  0.1
  C  C1036  1  0.185830  0.814170  0.574380  1.0  0.2
  C  C1037  1  0.199730  0.800270  0.561870  1.0  0.2706
  C  C1038  1  0.219730  0.780270  0.546320  1.0  0.0198
  C  C1039  1  0.717420  0.434840  0.061900  1.0  0.6098
  C  C1040  1  0.731750  0.463500  0.042960  1.0  -0.1596
  C  C1041  1  0.758800  0.517600  0.008200  1.0  0.3782
  C  C1042  1  0.773200  0.546400  0.989100  1.0  0.0724
  C  C1043  1  0.785000  0.570000  0.975200  1.0  0.2483
  C  C1044  1  0.801200  0.602400  0.957160  1.0  0.1561
  C  C1045  1  0.833800  0.667600  0.924860  1.0  0.0967
  C  C1046  1  0.852500  0.705000  0.907710  1.0  0.192
  C  C1047  1  0.866400  0.732800  0.895200  1.0  0.2691
  C  C1048  1  0.886400  0.772800  0.879650  1.0  0.024
  C  C1049  1  0.384090  0.768170  0.395230  1.0  0.6098
  C  C1050  1  0.398420  0.796830  0.376290  1.0  -0.1596
  C  C1051  1  0.425470  0.850930  0.341530  1.0  0.3782
  C  C1052  1  0.439870  0.879730  0.322430  1.0  0.0724
  C  C1053  1  0.451670  0.903330  0.308530  1.0  0.2483
  C  C1054  1  0.467870  0.935730  0.290490  1.0  0.1561
  C  C1055  1  0.500470  0.000930  0.258190  1.0  0.1034
  C  C1056  1  0.519170  0.038330  0.241040  1.0  0.1989
  C  C1057  1  0.533070  0.066130  0.228530  1.0  0.2691
  C  C1058  1  0.553070  0.106130  0.212980  1.0  0.024
  C  C1059  1  0.050750  0.101510  0.728570  1.0  0.6099
  C  C1060  1  0.065080  0.130170  0.709630  1.0  -0.1595
  C  C1061  1  0.092130  0.184270  0.674870  1.0  0.3782
  C  C1062  1  0.106530  0.213070  0.655770  1.0  0.0724
  C  C1063  1  0.118330  0.236670  0.641870  1.0  0.2483
  C  C1064  1  0.134530  0.269070  0.623830  1.0  0.1561
  C  C1065  1  0.167130  0.334270  0.591530  1.0  0.1034
  C  C1066  1  0.185830  0.371670  0.574380  1.0  0.1989
  C  C1067  1  0.199730  0.399470  0.561870  1.0  0.2691
  C  C1068  1  0.219730  0.439470  0.546320  1.0  0.024
  C  C1069  1  0.565160  0.282580  0.061900  1.0  0.6117
  C  C1070  1  0.536500  0.268250  0.042960  1.0  -0.1604
  C  C1071  1  0.482400  0.241200  0.008200  1.0  0.3772
  C  C1072  1  0.453600  0.226800  0.989100  1.0  0.0712
  C  C1073  1  0.430000  0.215000  0.975200  1.0  0.248
  C  C1074  1  0.397600  0.198800  0.957160  1.0  0.1553
  C  C1075  1  0.332400  0.166200  0.924860  1.0  0.0922
  C  C1076  1  0.295000  0.147500  0.907710  1.0  0.1911
  C  C1077  1  0.267200  0.133600  0.895200  1.0  0.272
  C  C1078  1  0.227200  0.113600  0.879650  1.0  0.0197
  C  C1079  1  0.231830  0.615910  0.395230  1.0  0.6117
  C  C1080  1  0.203170  0.601580  0.376290  1.0  -0.1604
  C  C1081  1  0.149070  0.574530  0.341530  1.0  0.3772
  C  C1082  1  0.120270  0.560130  0.322430  1.0  0.0712
  C  C1083  1  0.096670  0.548330  0.308530  1.0  0.248
  C  C1084  1  0.064270  0.532130  0.290490  1.0  0.1553
  C  C1085  1  0.999070  0.499530  0.258190  1.0  0.0995
  C  C1086  1  0.961670  0.480830  0.241040  1.0  0.1999
  C  C1087  1  0.933870  0.466930  0.228530  1.0  0.272
  C  C1088  1  0.893870  0.446930  0.212980  1.0  0.0197
  C  C1089  1  0.898490  0.949250  0.728570  1.0  0.6117
  C  C1090  1  0.869830  0.934920  0.709630  1.0  -0.1604
  C  C1091  1  0.815730  0.907870  0.674870  1.0  0.3772
  C  C1092  1  0.786930  0.893470  0.655770  1.0  0.0712
  C  C1093  1  0.763330  0.881670  0.641870  1.0  0.248
  C  C1094  1  0.730930  0.865470  0.623830  1.0  0.1553
  C  C1095  1  0.665730  0.832870  0.591530  1.0  0.0995
  C  C1096  1  0.628330  0.814170  0.574380  1.0  0.1999
  C  C1097  1  0.600530  0.800270  0.561870  1.0  0.272
  C  C1098  1  0.560530  0.780270  0.546320  1.0  0.0197
  C  C1099  1  0.611350  0.222700  0.166610  1.0  0.6839
  C  C1100  1  0.591650  0.183300  0.182740  1.0  -0.0961
  C  C1101  1  0.278020  0.556030  0.499940  1.0  0.6839
  C  C1102  1  0.258320  0.516630  0.516070  1.0  -0.0989
  C  C1103  1  0.944680  0.889370  0.833280  1.0  0.6839
  C  C1104  1  0.924980  0.849970  0.849410  1.0  -0.0961
  C  C1105  1  0.777300  0.388650  0.166610  1.0  0.6836
  C  C1106  1  0.816700  0.408350  0.182740  1.0  -0.0997
  C  C1107  1  0.443970  0.721980  0.499940  1.0  0.6836
  C  C1108  1  0.483370  0.741680  0.516070  1.0  -0.1026
  C  C1109  1  0.110630  0.055320  0.833280  1.0  0.6836
  C  C1110  1  0.150030  0.075020  0.849410  1.0  -0.0997
  C  C1111  1  0.611350  0.388650  0.166610  1.0  0.6829
  C  C1112  1  0.591650  0.408350  0.182740  1.0  -0.0977
  C  C1113  1  0.278020  0.721980  0.499940  1.0  0.683
  C  C1114  1  0.258320  0.741680  0.516070  1.0  -0.1009
  C  C1115  1  0.944680  0.055320  0.833280  1.0  0.6829
  C  C1116  1  0.924980  0.075020  0.849410  1.0  -0.0977
  C  C1117  1  0.171670  0.512040  0.882720  1.0  0.6897
  C  C1118  1  0.114510  0.464340  0.880150  1.0  -0.1431
  C  C1119  1  0.103500  0.426530  0.866150  1.0  -0.0458
  C  C1120  1  0.050500  0.381800  0.863280  1.0  -0.1839
  C  C1121  1  0.008700  0.376200  0.874900  1.0  -0.0107
  C  C1122  1  0.019100  0.417200  0.888280  1.0  -0.1637
  C  C1123  1  0.072400  0.460200  0.891360  1.0  -0.0729
  C  C1124  1  0.953400  0.332000  0.873160  1.0  -0.0156
  C  C1125  1  0.908900  0.292400  0.871170  1.0  0.0113
  C  C1126  1  0.856300  0.243400  0.869910  1.0  -0.0336
  C  C1127  1  0.847200  0.204700  0.856270  1.0  -0.1036
  C  C1128  1  0.886100  0.211800  0.841950  1.0  -0.046
  C  C1129  1  0.877300  0.175400  0.828280  1.0  0.0238
  C  C1130  1  0.815400  0.236200  0.883560  1.0  -0.0155
  C  C1131  1  0.822300  0.276900  0.898140  1.0  -0.0381
  C  C1132  1  0.783700  0.268700  0.911160  1.0  -0.0215
  C  C1133  1  0.219500  0.693600  0.965930  1.0  -0.0998
  C  C1134  1  0.207400  0.709900  0.983780  1.0  -0.1252
  C  C1135  1  0.235500  0.851800  0.050170  1.0  0.2401
  C  C1136  1  0.289900  0.886500  0.043100  1.0  -0.116
  C  C1137  1  0.322800  0.932400  0.051100  1.0  -0.1112
  C  C1138  1  0.305400  0.951400  0.067000  1.0  -0.1022
  C  C1139  1  0.256700  0.921500  0.075400  1.0  -0.1285
  C  C1140  1  0.216800  0.869500  0.068100  1.0  0.1206
  C  C1141  1  0.146800  0.938700  0.127660  1.0  -0.122
  C  C1142  1  0.126700  0.957900  0.143090  1.0  -0.0658
  C  C1143  1  0.838340  0.845370  0.216050  1.0  0.6897
  C  C1144  1  0.781180  0.797670  0.213480  1.0  -0.1431
  C  C1145  1  0.770170  0.759860  0.199480  1.0  -0.0458
  C  C1146  1  0.717170  0.715130  0.196610  1.0  -0.1839
  C  C1147  1  0.675370  0.709530  0.208230  1.0  -0.0107
  C  C1148  1  0.685770  0.750530  0.221610  1.0  -0.1637
  C  C1149  1  0.739070  0.793530  0.224690  1.0  -0.0729
  C  C1150  1  0.620070  0.665330  0.206490  1.0  -0.0156
  C  C1151  1  0.575570  0.625730  0.204500  1.0  0.0113
  C  C1152  1  0.522970  0.576730  0.203240  1.0  -0.0336
  C  C1153  1  0.513870  0.538030  0.189600  1.0  -0.1036
  C  C1154  1  0.552770  0.545130  0.175280  1.0  -0.046
  C  C1155  1  0.543970  0.508730  0.161610  1.0  0.0238
  C  C1156  1  0.482070  0.569530  0.216890  1.0  -0.0155
  C  C1157  1  0.488970  0.610230  0.231470  1.0  -0.0381
  C  C1158  1  0.450370  0.602030  0.244490  1.0  -0.0215
  C  C1159  1  0.886170  0.026930  0.299260  1.0  -0.0998
  C  C1160  1  0.874070  0.043230  0.317110  1.0  -0.1252
  C  C1161  1  0.902170  0.185130  0.383500  1.0  0.2401
  C  C1162  1  0.956570  0.219830  0.376430  1.0  -0.116
  C  C1163  1  0.989470  0.265730  0.384430  1.0  -0.1112
  C  C1164  1  0.972070  0.284730  0.400330  1.0  -0.1022
  C  C1165  1  0.923370  0.254830  0.408730  1.0  -0.1285
  C  C1166  1  0.883470  0.202830  0.401430  1.0  0.1281
  C  C1167  1  0.813470  0.272030  0.460990  1.0  -0.122
  C  C1168  1  0.793370  0.291230  0.476420  1.0  -0.0651
  C  C1169  1  0.505000  0.178710  0.549390  1.0  0.6926
  C  C1170  1  0.447840  0.131010  0.546820  1.0  -0.1405
  C  C1171  1  0.436830  0.093200  0.532820  1.0  -0.046
  C  C1172  1  0.383830  0.048470  0.529950  1.0  -0.1839
  C  C1173  1  0.342030  0.042870  0.541570  1.0  -0.0107
  C  C1174  1  0.352430  0.083870  0.554950  1.0  -0.1637
  C  C1175  1  0.405730  0.126870  0.558030  1.0  -0.0691
  C  C1176  1  0.286730  0.998670  0.539830  1.0  -0.0154
  C  C1177  1  0.242230  0.959070  0.537840  1.0  0.0113
  C  C1178  1  0.189630  0.910070  0.536580  1.0  -0.0337
  C  C1179  1  0.180530  0.871370  0.522940  1.0  -0.1035
  C  C1180  1  0.219430  0.878470  0.508620  1.0  -0.0451
  C  C1181  1  0.210630  0.842070  0.494950  1.0  0.024
  C  C1182  1  0.148730  0.902870  0.550230  1.0  -0.0075
  C  C1183  1  0.155630  0.943570  0.564810  1.0  -0.0319
  C  C1184  1  0.117030  0.935370  0.577830  1.0  -0.0215
  C  C1185  1  0.552830  0.360270  0.632600  1.0  -0.0998
  C  C1186  1  0.540730  0.376570  0.650450  1.0  -0.1252
  C  C1187  1  0.568830  0.518470  0.716840  1.0  0.2401
  C  C1188  1  0.623230  0.553170  0.709770  1.0  -0.116
  C  C1189  1  0.656130  0.599070  0.717770  1.0  -0.1112
  C  C1190  1  0.638730  0.618070  0.733670  1.0  -0.1022
  C  C1191  1  0.590030  0.588170  0.742070  1.0  -0.1285
  C  C1192  1  0.550130  0.536170  0.734770  1.0  0.1281
  C  C1193  1  0.480130  0.605370  0.794330  1.0  -0.122
  C  C1194  1  0.460030  0.624570  0.809760  1.0  -0.0658
  C  C1195  1  0.340370  0.828330  0.882720  1.0  0.6944
  C  C1196  1  0.349830  0.885490  0.880150  1.0  -0.1388
  C  C1197  1  0.323030  0.896500  0.866150  1.0  -0.0417
  C  C1198  1  0.331300  0.949500  0.863280  1.0  -0.1868
  C  C1199  1  0.367500  0.991300  0.874900  1.0  -0.009
  C  C1200  1  0.398100  0.980900  0.888280  1.0  -0.163
  C  C1201  1  0.387800  0.927600  0.891360  1.0  -0.0683
  C  C1202  1  0.378600  0.046600  0.873160  1.0  -0.0141
  C  C1203  1  0.383500  0.091100  0.871170  1.0  0.0141
  C  C1204  1  0.387100  0.143700  0.869910  1.0  -0.0331
  C  C1205  1  0.357500  0.152800  0.856270  1.0  -0.1049
  C  C1206  1  0.325700  0.113900  0.841950  1.0  -0.0489
  C  C1207  1  0.298100  0.122700  0.828280  1.0  0.0233
  C  C1208  1  0.420800  0.184600  0.883560  1.0  -0.0072
  C  C1209  1  0.454600  0.177700  0.898140  1.0  -0.0351
  C  C1210  1  0.485000  0.216300  0.911160  1.0  -0.02
  C  C1211  1  0.474100  0.780500  0.965930  1.0  -0.1007
  C  C1212  1  0.502500  0.792600  0.983780  1.0  -0.1261
  C  C1213  1  0.616300  0.764500  0.050170  1.0  0.2402
  C  C1214  1  0.596600  0.710100  0.043100  1.0  -0.1195
  C  C1215  1  0.609600  0.677200  0.051100  1.0  -0.1132
  C  C1216  1  0.646000  0.694600  0.067000  1.0  -0.0999
  C  C1217  1  0.664800  0.743300  0.075400  1.0  -0.1241
  C  C1218  1  0.652700  0.783200  0.068100  1.0  0.1292
  C  C1219  1  0.791900  0.853200  0.127660  1.0  -0.1203
  C  C1220  1  0.831200  0.873300  0.143090  1.0  -0.0649
  C  C1221  1  0.007040  0.161660  0.216050  1.0  0.6944
  C  C1222  1  0.016500  0.218820  0.213480  1.0  -0.1388
  C  C1223  1  0.989700  0.229830  0.199480  1.0  -0.0417
  C  C1224  1  0.997970  0.282830  0.196610  1.0  -0.1868
  C  C1225  1  0.034170  0.324630  0.208230  1.0  -0.009
  C  C1226  1  0.064770  0.314230  0.221610  1.0  -0.163
  C  C1227  1  0.054470  0.260930  0.224690  1.0  -0.0683
  C  C1228  1  0.045270  0.379930  0.206490  1.0  -0.0141
  C  C1229  1  0.050170  0.424430  0.204500  1.0  0.0141
  C  C1230  1  0.053770  0.477030  0.203240  1.0  -0.0331
  C  C1231  1  0.024170  0.486130  0.189600  1.0  -0.1049
  C  C1232  1  0.992370  0.447230  0.175280  1.0  -0.0489
  C  C1233  1  0.964770  0.456030  0.161610  1.0  0.0233
  C  C1234  1  0.087470  0.517930  0.216890  1.0  -0.0072
  C  C1235  1  0.121270  0.511030  0.231470  1.0  -0.0351
  C  C1236  1  0.151670  0.549630  0.244490  1.0  -0.02
  C  C1237  1  0.140770  0.113830  0.299260  1.0  -0.1007
  C  C1238  1  0.169170  0.125930  0.317110  1.0  -0.1261
  C  C1239  1  0.282970  0.097830  0.383500  1.0  0.2402
  C  C1240  1  0.263270  0.043430  0.376430  1.0  -0.1195
  C  C1241  1  0.276270  0.010530  0.384430  1.0  -0.1132
  C  C1242  1  0.312670  0.027930  0.400330  1.0  -0.0999
  C  C1243  1  0.331470  0.076630  0.408730  1.0  -0.1241
  C  C1244  1  0.319370  0.116530  0.401430  1.0  0.1292
  C  C1245  1  0.458570  0.186530  0.460990  1.0  -0.1203
  C  C1246  1  0.497870  0.206630  0.476420  1.0  -0.0677
  C  C1247  1  0.673700  0.495000  0.549390  1.0  0.6924
  C  C1248  1  0.683160  0.552160  0.546820  1.0  -0.142
  C  C1249  1  0.656360  0.563170  0.532820  1.0  -0.042
  C  C1250  1  0.664630  0.616170  0.529950  1.0  -0.1868
  C  C1251  1  0.700830  0.657970  0.541570  1.0  -0.0091
  C  C1252  1  0.731430  0.647570  0.554950  1.0  -0.163
  C  C1253  1  0.721130  0.594270  0.558030  1.0  -0.0721
  C  C1254  1  0.711930  0.713270  0.539830  1.0  -0.014
  C  C1255  1  0.716830  0.757770  0.537840  1.0  0.0141
  C  C1256  1  0.720430  0.810370  0.536580  1.0  -0.0332
  C  C1257  1  0.690830  0.819470  0.522940  1.0  -0.102
  C  C1258  1  0.659030  0.780570  0.508620  1.0  -0.0481
  C  C1259  1  0.631430  0.789370  0.494950  1.0  0.0228
  C  C1260  1  0.754130  0.851270  0.550230  1.0  -0.0103
  C  C1261  1  0.787930  0.844370  0.564810  1.0  -0.0415
  C  C1262  1  0.818330  0.882970  0.577830  1.0  -0.02
  C  C1263  1  0.807430  0.447170  0.632600  1.0  -0.1007
  C  C1264  1  0.835830  0.459270  0.650450  1.0  -0.1261
  C  C1265  1  0.949630  0.431170  0.716840  1.0  0.2402
  C  C1266  1  0.929930  0.376770  0.709770  1.0  -0.1195
  C  C1267  1  0.942930  0.343870  0.717770  1.0  -0.1132
  C  C1268  1  0.979330  0.361270  0.733670  1.0  -0.0999
  C  C1269  1  0.998130  0.409970  0.742070  1.0  -0.1269
  C  C1270  1  0.986030  0.449870  0.734770  1.0  0.1252
  C  C1271  1  0.125230  0.519870  0.794330  1.0  -0.1203
  C  C1272  1  0.164530  0.539970  0.809760  1.0  -0.0649
  C  C1273  1  0.487960  0.659630  0.882720  1.0  0.6908
  C  C1274  1  0.535660  0.650170  0.880150  1.0  -0.1415
  C  C1275  1  0.573470  0.676970  0.866150  1.0  -0.0495
  C  C1276  1  0.618200  0.668700  0.863280  1.0  -0.1829
  C  C1277  1  0.623800  0.632500  0.874900  1.0  -0.0118
  C  C1278  1  0.582800  0.601900  0.888280  1.0  -0.1629
  C  C1279  1  0.539800  0.612200  0.891360  1.0  -0.0732
  C  C1280  1  0.668000  0.621400  0.873160  1.0  -0.0152
  C  C1281  1  0.707600  0.616500  0.871170  1.0  0.0135
  C  C1282  1  0.756600  0.612900  0.869910  1.0  -0.0345
  C  C1283  1  0.795300  0.642500  0.856270  1.0  -0.1034
  C  C1284  1  0.788200  0.674300  0.841950  1.0  -0.0472
  C  C1285  1  0.824600  0.701900  0.828280  1.0  0.0233
  C  C1286  1  0.763800  0.579200  0.883560  1.0  -0.0141
  C  C1287  1  0.723100  0.545400  0.898140  1.0  -0.0399
  C  C1288  1  0.731300  0.515000  0.911160  1.0  -0.0191
  C  C1289  1  0.306400  0.525900  0.965930  1.0  -0.1012
  C  C1290  1  0.290100  0.497500  0.983780  1.0  -0.1246
  C  C1291  1  0.148200  0.383700  0.050170  1.0  0.2399
  C  C1292  1  0.113500  0.403400  0.043100  1.0  -0.1159
  C  C1293  1  0.067600  0.390400  0.051100  1.0  -0.113
  C  C1294  1  0.048600  0.354000  0.067000  1.0  -0.1012
  C  C1295  1  0.078500  0.335200  0.075400  1.0  -0.128
  C  C1296  1  0.130500  0.347300  0.068100  1.0  0.1204
  C  C1297  1  0.061300  0.208100  0.127660  1.0  -0.1228
  C  C1298  1  0.042100  0.168800  0.143090  1.0  -0.0663
  C  C1299  1  0.154630  0.992960  0.216050  1.0  0.6908
  C  C1300  1  0.202330  0.983500  0.213480  1.0  -0.1415
  C  C1301  1  0.240140  0.010300  0.199480  1.0  -0.0495
  C  C1302  1  0.284870  0.002030  0.196610  1.0  -0.1829
  C  C1303  1  0.290470  0.965830  0.208230  1.0  -0.0118
  C  C1304  1  0.249470  0.935230  0.221610  1.0  -0.1629
  C  C1305  1  0.206470  0.945530  0.224690  1.0  -0.0732
  C  C1306  1  0.334670  0.954730  0.206490  1.0  -0.0152
  C  C1307  1  0.374270  0.949830  0.204500  1.0  0.0135
  C  C1308  1  0.423270  0.946230  0.203240  1.0  -0.0345
  C  C1309  1  0.461970  0.975830  0.189600  1.0  -0.1034
  C  C1310  1  0.454870  0.007630  0.175280  1.0  -0.0472
  C  C1311  1  0.491270  0.035230  0.161610  1.0  0.0233
  C  C1312  1  0.430470  0.912530  0.216890  1.0  -0.0141
  C  C1313  1  0.389770  0.878730  0.231470  1.0  -0.0399
  C  C1314  1  0.397970  0.848330  0.244490  1.0  -0.0191
  C  C1315  1  0.973070  0.859230  0.299260  1.0  -0.1012
  C  C1316  1  0.956770  0.830830  0.317110  1.0  -0.1246
  C  C1317  1  0.814870  0.717030  0.383500  1.0  0.2399
  C  C1318  1  0.780170  0.736730  0.376430  1.0  -0.1159
  C  C1319  1  0.734270  0.723730  0.384430  1.0  -0.113
  C  C1320  1  0.715270  0.687330  0.400330  1.0  -0.1012
  C  C1321  1  0.745170  0.668530  0.408730  1.0  -0.128
  C  C1322  1  0.797170  0.680630  0.401430  1.0  0.1276
  C  C1323  1  0.727970  0.541430  0.460990  1.0  -0.1228
  C  C1324  1  0.708770  0.502130  0.476420  1.0  -0.0655
  C  C1325  1  0.821290  0.326300  0.549390  1.0  0.6908
  C  C1326  1  0.868990  0.316840  0.546820  1.0  -0.1417
  C  C1327  1  0.906800  0.343640  0.532820  1.0  -0.0499
  C  C1328  1  0.951530  0.335370  0.529950  1.0  -0.1829
  C  C1329  1  0.957130  0.299170  0.541570  1.0  -0.0118
  C  C1330  1  0.916130  0.268570  0.554950  1.0  -0.1629
  C  C1331  1  0.873130  0.278870  0.558030  1.0  -0.0731
  C  C1332  1  0.001330  0.288070  0.539830  1.0  -0.0151
  C  C1333  1  0.040930  0.283170  0.537840  1.0  0.0135
  C  C1334  1  0.089930  0.279570  0.536580  1.0  -0.0345
  C  C1335  1  0.128630  0.309170  0.522940  1.0  -0.1053
  C  C1336  1  0.121530  0.340970  0.508620  1.0  -0.0468
  C  C1337  1  0.157930  0.368570  0.494950  1.0  0.0238
  C  C1338  1  0.097130  0.245870  0.550230  1.0  -0.0185
  C  C1339  1  0.056430  0.212070  0.564810  1.0  -0.0399
  C  C1340  1  0.064630  0.181670  0.577830  1.0  -0.0191
  C  C1341  1  0.639730  0.192570  0.632600  1.0  -0.1012
  C  C1342  1  0.623430  0.164170  0.650450  1.0  -0.1246
  C  C1343  1  0.481530  0.050370  0.716840  1.0  0.2399
  C  C1344  1  0.446830  0.070070  0.709770  1.0  -0.1159
  C  C1345  1  0.400930  0.057070  0.717770  1.0  -0.113
  C  C1346  1  0.381930  0.020670  0.733670  1.0  -0.1012
  C  C1347  1  0.411830  0.001870  0.742070  1.0  -0.1301
  C  C1348  1  0.463830  0.013970  0.734770  1.0  0.1228
  C  C1349  1  0.394630  0.874770  0.794330  1.0  -0.1228
  C  C1350  1  0.375430  0.835470  0.809760  1.0  -0.0663
  C  C1351  1  0.487960  0.828330  0.882720  1.0  0.6932
  C  C1352  1  0.535660  0.885490  0.880150  1.0  -0.1411
  C  C1353  1  0.573470  0.896500  0.866150  1.0  -0.0435
  C  C1354  1  0.618200  0.949500  0.863280  1.0  -0.1853
  C  C1355  1  0.623800  0.991300  0.874900  1.0  -0.0102
  C  C1356  1  0.582800  0.980900  0.888280  1.0  -0.1644
  C  C1357  1  0.539800  0.927600  0.891360  1.0  -0.0722
  C  C1358  1  0.668000  0.046600  0.873160  1.0  -0.0145
  C  C1359  1  0.707600  0.091100  0.871170  1.0  0.0121
  C  C1360  1  0.756600  0.143700  0.869910  1.0  -0.0332
  C  C1361  1  0.795300  0.152800  0.856270  1.0  -0.103
  C  C1362  1  0.788200  0.113900  0.841950  1.0  -0.0497
  C  C1363  1  0.824600  0.122700  0.828280  1.0  0.0235
  C  C1364  1  0.763800  0.184600  0.883560  1.0  -0.0166
  C  C1365  1  0.723100  0.177700  0.898140  1.0  -0.0382
  C  C1366  1  0.731300  0.216300  0.911160  1.0  -0.018
  C  C1367  1  0.306400  0.780500  0.965930  1.0  -0.1003
  C  C1368  1  0.290100  0.792600  0.983780  1.0  -0.1267
  C  C1369  1  0.148200  0.764500  0.050170  1.0  0.2407
  C  C1370  1  0.113500  0.710100  0.043100  1.0  -0.119
  C  C1371  1  0.067600  0.677200  0.051100  1.0  -0.1135
  C  C1372  1  0.048600  0.694600  0.067000  1.0  -0.1012
  C  C1373  1  0.078500  0.743300  0.075400  1.0  -0.1251
  C  C1374  1  0.130500  0.783200  0.068100  1.0  0.1206
  C  C1375  1  0.061300  0.853200  0.127660  1.0  -0.1197
  C  C1376  1  0.042100  0.873300  0.143090  1.0  -0.0662
  C  C1377  1  0.154630  0.161660  0.216050  1.0  0.6932
  C  C1378  1  0.202330  0.218820  0.213480  1.0  -0.1411
  C  C1379  1  0.240140  0.229830  0.199480  1.0  -0.0435
  C  C1380  1  0.284870  0.282830  0.196610  1.0  -0.1853
  C  C1381  1  0.290470  0.324630  0.208230  1.0  -0.0102
  C  C1382  1  0.249470  0.314230  0.221610  1.0  -0.1644
  C  C1383  1  0.206470  0.260930  0.224690  1.0  -0.0722
  C  C1384  1  0.334670  0.379930  0.206490  1.0  -0.0145
  C  C1385  1  0.374270  0.424430  0.204500  1.0  0.0121
  C  C1386  1  0.423270  0.477030  0.203240  1.0  -0.0332
  C  C1387  1  0.461970  0.486130  0.189600  1.0  -0.103
  C  C1388  1  0.454870  0.447230  0.175280  1.0  -0.0497
  C  C1389  1  0.491270  0.456030  0.161610  1.0  0.0235
  C  C1390  1  0.430470  0.517930  0.216890  1.0  -0.0166
  C  C1391  1  0.389770  0.511030  0.231470  1.0  -0.0382
  C  C1392  1  0.397970  0.549630  0.244490  1.0  -0.018
  C  C1393  1  0.973070  0.113830  0.299260  1.0  -0.1003
  C  C1394  1  0.956770  0.125930  0.317110  1.0  -0.1267
  C  C1395  1  0.814870  0.097830  0.383500  1.0  0.2407
  C  C1396  1  0.780170  0.043430  0.376430  1.0  -0.119
  C  C1397  1  0.734270  0.010530  0.384430  1.0  -0.1135
  C  C1398  1  0.715270  0.027930  0.400330  1.0  -0.1012
  C  C1399  1  0.745170  0.076630  0.408730  1.0  -0.1251
  C  C1400  1  0.797170  0.116530  0.401430  1.0  0.1286
  C  C1401  1  0.727970  0.186530  0.460990  1.0  -0.1197
  C  C1402  1  0.708770  0.206630  0.476420  1.0  -0.0652
  C  C1403  1  0.821290  0.495000  0.549390  1.0  0.6967
  C  C1404  1  0.868990  0.552160  0.546820  1.0  -0.1386
  C  C1405  1  0.906800  0.563170  0.532820  1.0  -0.0436
  C  C1406  1  0.951530  0.616170  0.529950  1.0  -0.1853
  C  C1407  1  0.957130  0.657970  0.541570  1.0  -0.0102
  C  C1408  1  0.916130  0.647570  0.554950  1.0  -0.1644
  C  C1409  1  0.873130  0.594270  0.558030  1.0  -0.0688
  C  C1410  1  0.001330  0.713270  0.539830  1.0  -0.0144
  C  C1411  1  0.040930  0.757770  0.537840  1.0  0.0121
  C  C1412  1  0.089930  0.810370  0.536580  1.0  -0.0333
  C  C1413  1  0.128630  0.819470  0.522940  1.0  -0.1029
  C  C1414  1  0.121530  0.780570  0.508620  1.0  -0.0488
  C  C1415  1  0.157930  0.789370  0.494950  1.0  0.0236
  C  C1416  1  0.097130  0.851270  0.550230  1.0  -0.0075
  C  C1417  1  0.056430  0.844370  0.564810  1.0  -0.0328
  C  C1418  1  0.064630  0.882970  0.577830  1.0  -0.018
  C  C1419  1  0.639730  0.447170  0.632600  1.0  -0.1003
  C  C1420  1  0.623430  0.459270  0.650450  1.0  -0.1267
  C  C1421  1  0.481530  0.431170  0.716840  1.0  0.2407
  C  C1422  1  0.446830  0.376770  0.709770  1.0  -0.119
  C  C1423  1  0.400930  0.343870  0.717770  1.0  -0.1135
  C  C1424  1  0.381930  0.361270  0.733670  1.0  -0.1012
  C  C1425  1  0.411830  0.409970  0.742070  1.0  -0.1251
  C  C1426  1  0.463830  0.449870  0.734770  1.0  0.1286
  C  C1427  1  0.394630  0.519870  0.794330  1.0  -0.1197
  C  C1428  1  0.375430  0.539970  0.809760  1.0  -0.0662
  C  C1429  1  0.171670  0.659630  0.882720  1.0  0.6929
  C  C1430  1  0.114510  0.650170  0.880150  1.0  -0.1386
  C  C1431  1  0.103500  0.676970  0.866150  1.0  -0.0492
  C  C1432  1  0.050500  0.668700  0.863280  1.0  -0.184
  C  C1433  1  0.008700  0.632500  0.874900  1.0  -0.0133
  C  C1434  1  0.019100  0.601900  0.888280  1.0  -0.1631
  C  C1435  1  0.072400  0.612200  0.891360  1.0  -0.0694
  C  C1436  1  0.953400  0.621400  0.873160  1.0  -0.0154
  C  C1437  1  0.908900  0.616500  0.871170  1.0  0.0135
  C  C1438  1  0.856300  0.612900  0.869910  1.0  -0.0331
  C  C1439  1  0.847200  0.642500  0.856270  1.0  -0.1063
  C  C1440  1  0.886100  0.674300  0.841950  1.0  -0.0473
  C  C1441  1  0.877300  0.701900  0.828280  1.0  0.0233
  C  C1442  1  0.815400  0.579200  0.883560  1.0  -0.0107
  C  C1443  1  0.822300  0.545400  0.898140  1.0  -0.032
  C  C1444  1  0.783700  0.515000  0.911160  1.0  -0.0203
  C  C1445  1  0.219500  0.525900  0.965930  1.0  -0.1016
  C  C1446  1  0.207400  0.497500  0.983780  1.0  -0.1262
  C  C1447  1  0.235500  0.383700  0.050170  1.0  0.2397
  C  C1448  1  0.289900  0.403400  0.043100  1.0  -0.1158
  C  C1449  1  0.322800  0.390400  0.051100  1.0  -0.1118
  C  C1450  1  0.305400  0.354000  0.067000  1.0  -0.0988
  C  C1451  1  0.256700  0.335200  0.075400  1.0  -0.1281
  C  C1452  1  0.216800  0.347300  0.068100  1.0  0.1281
  C  C1453  1  0.146800  0.208100  0.127660  1.0  -0.1238
  C  C1454  1  0.126700  0.168800  0.143090  1.0  -0.0651
  C  C1455  1  0.838340  0.992960  0.216050  1.0  0.6929
  C  C1456  1  0.781180  0.983500  0.213480  1.0  -0.1386
  C  C1457  1  0.770170  0.010300  0.199480  1.0  -0.0492
  C  C1458  1  0.717170  0.002030  0.196610  1.0  -0.184
  C  C1459  1  0.675370  0.965830  0.208230  1.0  -0.0133
  C  C1460  1  0.685770  0.935230  0.221610  1.0  -0.1631
  C  C1461  1  0.739070  0.945530  0.224690  1.0  -0.0694
  C  C1462  1  0.620070  0.954730  0.206490  1.0  -0.0154
  C  C1463  1  0.575570  0.949830  0.204500  1.0  0.0135
  C  C1464  1  0.522970  0.946230  0.203240  1.0  -0.0331
  C  C1465  1  0.513870  0.975830  0.189600  1.0  -0.1063
  C  C1466  1  0.552770  0.007630  0.175280  1.0  -0.0473
  C  C1467  1  0.543970  0.035230  0.161610  1.0  0.0233
  C  C1468  1  0.482070  0.912530  0.216890  1.0  -0.0107
  C  C1469  1  0.488970  0.878730  0.231470  1.0  -0.032
  C  C1470  1  0.450370  0.848330  0.244490  1.0  -0.0203
  C  C1471  1  0.886170  0.859230  0.299260  1.0  -0.1016
  C  C1472  1  0.874070  0.830830  0.317110  1.0  -0.1262
  C  C1473  1  0.902170  0.717030  0.383500  1.0  0.2397
  C  C1474  1  0.956570  0.736730  0.376430  1.0  -0.1158
  C  C1475  1  0.989470  0.723730  0.384430  1.0  -0.1118
  C  C1476  1  0.972070  0.687330  0.400330  1.0  -0.0988
  C  C1477  1  0.923370  0.668530  0.408730  1.0  -0.1281
  C  C1478  1  0.883470  0.680630  0.401430  1.0  0.1281
  C  C1479  1  0.813470  0.541430  0.460990  1.0  -0.1238
  C  C1480  1  0.793370  0.502130  0.476420  1.0  -0.0672
  C  C1481  1  0.505000  0.326300  0.549390  1.0  0.691
  C  C1482  1  0.447840  0.316840  0.546820  1.0  -0.1413
  C  C1483  1  0.436830  0.343640  0.532820  1.0  -0.0495
  C  C1484  1  0.383830  0.335370  0.529950  1.0  -0.184
  C  C1485  1  0.342030  0.299170  0.541570  1.0  -0.0133
  C  C1486  1  0.352430  0.268570  0.554950  1.0  -0.1631
  C  C1487  1  0.405730  0.278870  0.558030  1.0  -0.0729
  C  C1488  1  0.286730  0.288070  0.539830  1.0  -0.0152
  C  C1489  1  0.242230  0.283170  0.537840  1.0  0.0135
  C  C1490  1  0.189630  0.279570  0.536580  1.0  -0.0332
  C  C1491  1  0.180530  0.309170  0.522940  1.0  -0.1038
  C  C1492  1  0.219430  0.340970  0.508620  1.0  -0.0465
  C  C1493  1  0.210630  0.368570  0.494950  1.0  0.0237
  C  C1494  1  0.148730  0.245870  0.550230  1.0  -0.0139
  C  C1495  1  0.155630  0.212070  0.564810  1.0  -0.0386
  C  C1496  1  0.117030  0.181670  0.577830  1.0  -0.0203
  C  C1497  1  0.552830  0.192570  0.632600  1.0  -0.1016
  C  C1498  1  0.540730  0.164170  0.650450  1.0  -0.1262
  C  C1499  1  0.568830  0.050370  0.716840  1.0  0.2397
  C  C1500  1  0.623230  0.070070  0.709770  1.0  -0.1158
  C  C1501  1  0.656130  0.057070  0.717770  1.0  -0.1118
  C  C1502  1  0.638730  0.020670  0.733670  1.0  -0.0988
  C  C1503  1  0.590030  0.001870  0.742070  1.0  -0.1299
  C  C1504  1  0.550130  0.013970  0.734770  1.0  0.1233
  C  C1505  1  0.480130  0.874770  0.794330  1.0  -0.1238
  C  C1506  1  0.460030  0.835470  0.809760  1.0  -0.0651
  C  C1507  1  0.340370  0.512040  0.882720  1.0  0.6891
  C  C1508  1  0.349830  0.464340  0.880150  1.0  -0.1438
  C  C1509  1  0.323030  0.426530  0.866150  1.0  -0.0457
  C  C1510  1  0.331300  0.381800  0.863280  1.0  -0.1839
  C  C1511  1  0.367500  0.376200  0.874900  1.0  -0.0119
  C  C1512  1  0.398100  0.417200  0.888280  1.0  -0.1628
  C  C1513  1  0.387800  0.460200  0.891360  1.0  -0.0721
  C  C1514  1  0.378600  0.332000  0.873160  1.0  -0.0153
  C  C1515  1  0.383500  0.292400  0.871170  1.0  0.0096
  C  C1516  1  0.387100  0.243400  0.869910  1.0  -0.0329
  C  C1517  1  0.357500  0.204700  0.856270  1.0  -0.1017
  C  C1518  1  0.325700  0.211800  0.841950  1.0  -0.047
  C  C1519  1  0.298100  0.175400  0.828280  1.0  0.0233
  C  C1520  1  0.420800  0.236200  0.883560  1.0  -0.0097
  C  C1521  1  0.454600  0.276900  0.898140  1.0  -0.0412
  C  C1522  1  0.485000  0.268700  0.911160  1.0  -0.0231
  C  C1523  1  0.474100  0.693600  0.965930  1.0  -0.0972
  C  C1524  1  0.502500  0.709900  0.983780  1.0  -0.1263
  C  C1525  1  0.616300  0.851800  0.050170  1.0  0.2401
  C  C1526  1  0.596600  0.886500  0.043100  1.0  -0.1166
  C  C1527  1  0.609600  0.932400  0.051100  1.0  -0.1123
  C  C1528  1  0.646000  0.951400  0.067000  1.0  -0.1016
  C  C1529  1  0.664800  0.921500  0.075400  1.0  -0.1293
  C  C1530  1  0.652700  0.869500  0.068100  1.0  0.1221
  C  C1531  1  0.791900  0.938700  0.127660  1.0  -0.1228
  C  C1532  1  0.831200  0.957900  0.143090  1.0  -0.064
  C  C1533  1  0.007040  0.845370  0.216050  1.0  0.6891
  C  C1534  1  0.016500  0.797670  0.213480  1.0  -0.1438
  C  C1535  1  0.989700  0.759860  0.199480  1.0  -0.0457
  C  C1536  1  0.997970  0.715130  0.196610  1.0  -0.1839
  C  C1537  1  0.034170  0.709530  0.208230  1.0  -0.0119
  C  C1538  1  0.064770  0.750530  0.221610  1.0  -0.1628
  C  C1539  1  0.054470  0.793530  0.224690  1.0  -0.0721
  C  C1540  1  0.045270  0.665330  0.206490  1.0  -0.0153
  C  C1541  1  0.050170  0.625730  0.204500  1.0  0.0096
  C  C1542  1  0.053770  0.576730  0.203240  1.0  -0.0329
  C  C1543  1  0.024170  0.538030  0.189600  1.0  -0.1017
  C  C1544  1  0.992370  0.545130  0.175280  1.0  -0.047
  C  C1545  1  0.964770  0.508730  0.161610  1.0  0.0233
  C  C1546  1  0.087470  0.569530  0.216890  1.0  -0.0097
  C  C1547  1  0.121270  0.610230  0.231470  1.0  -0.0412
  C  C1548  1  0.151670  0.602030  0.244490  1.0  -0.0231
  C  C1549  1  0.140770  0.026930  0.299260  1.0  -0.0972
  C  C1550  1  0.169170  0.043230  0.317110  1.0  -0.1263
  C  C1551  1  0.282970  0.185130  0.383500  1.0  0.2401
  C  C1552  1  0.263270  0.219830  0.376430  1.0  -0.1166
  C  C1553  1  0.276270  0.265730  0.384430  1.0  -0.1123
  C  C1554  1  0.312670  0.284730  0.400330  1.0  -0.1016
  C  C1555  1  0.331470  0.254830  0.408730  1.0  -0.1293
  C  C1556  1  0.319370  0.202830  0.401430  1.0  0.1296
  C  C1557  1  0.458570  0.272030  0.460990  1.0  -0.1228
  C  C1558  1  0.497870  0.291230  0.476420  1.0  -0.0635
  C  C1559  1  0.673700  0.178710  0.549390  1.0  0.6891
  C  C1560  1  0.683160  0.131010  0.546820  1.0  -0.144
  C  C1561  1  0.656360  0.093200  0.532820  1.0  -0.0461
  C  C1562  1  0.664630  0.048470  0.529950  1.0  -0.1839
  C  C1563  1  0.700830  0.042870  0.541570  1.0  -0.0118
  C  C1564  1  0.731430  0.083870  0.554950  1.0  -0.1628
  C  C1565  1  0.721130  0.126870  0.558030  1.0  -0.072
  C  C1566  1  0.711930  0.998670  0.539830  1.0  -0.0151
  C  C1567  1  0.716830  0.959070  0.537840  1.0  0.0096
  C  C1568  1  0.720430  0.910070  0.536580  1.0  -0.0329
  C  C1569  1  0.690830  0.871370  0.522940  1.0  -0.1038
  C  C1570  1  0.659030  0.878470  0.508620  1.0  -0.0466
  C  C1571  1  0.631430  0.842070  0.494950  1.0  0.0243
  C  C1572  1  0.754130  0.902870  0.550230  1.0  -0.0158
  C  C1573  1  0.787930  0.943570  0.564810  1.0  -0.0412
  C  C1574  1  0.818330  0.935370  0.577830  1.0  -0.0231
  C  C1575  1  0.807430  0.360270  0.632600  1.0  -0.0972
  C  C1576  1  0.835830  0.376570  0.650450  1.0  -0.1263
  C  C1577  1  0.949630  0.518470  0.716840  1.0  0.2401
  C  C1578  1  0.929930  0.553170  0.709770  1.0  -0.1166
  C  C1579  1  0.942930  0.599070  0.717770  1.0  -0.1123
  C  C1580  1  0.979330  0.618070  0.733670  1.0  -0.1016
  C  C1581  1  0.998130  0.588170  0.742070  1.0  -0.1322
  C  C1582  1  0.986030  0.536170  0.734770  1.0  0.1255
  C  C1583  1  0.125230  0.605370  0.794330  1.0  -0.1228
  C  C1584  1  0.164530  0.624570  0.809760  1.0  -0.064
  C  C1585  1  0.282580  0.717420  0.938100  1.0  0.6106
  C  C1586  1  0.268250  0.731750  0.957040  1.0  -0.1607
  C  C1587  1  0.241200  0.758800  0.991800  1.0  0.377
  C  C1588  1  0.226800  0.773200  0.010900  1.0  0.0696
  C  C1589  1  0.215000  0.785000  0.024800  1.0  0.2481
  C  C1590  1  0.198800  0.801200  0.042840  1.0  0.1561
  C  C1591  1  0.166200  0.833800  0.075140  1.0  0.0944
  C  C1592  1  0.147500  0.852500  0.092290  1.0  0.1905
  C  C1593  1  0.133600  0.866400  0.104800  1.0  0.2712
  C  C1594  1  0.113600  0.886400  0.120350  1.0  0.0199
  C  C1595  1  0.949250  0.050750  0.271430  1.0  0.6106
  C  C1596  1  0.934920  0.065080  0.290370  1.0  -0.1607
  C  C1597  1  0.907870  0.092130  0.325130  1.0  0.377
  C  C1598  1  0.893470  0.106530  0.344230  1.0  0.0696
  C  C1599  1  0.881670  0.118330  0.358130  1.0  0.2481
  C  C1600  1  0.865470  0.134530  0.376170  1.0  0.1561
  C  C1601  1  0.832870  0.167130  0.408470  1.0  0.0988
  C  C1602  1  0.814170  0.185830  0.425620  1.0  0.1987
  C  C1603  1  0.800270  0.199730  0.438130  1.0  0.2712
  C  C1604  1  0.780270  0.219730  0.453680  1.0  0.0199
  C  C1605  1  0.615910  0.384090  0.604770  1.0  0.6106
  C  C1606  1  0.601580  0.398420  0.623710  1.0  -0.1606
  C  C1607  1  0.574530  0.425470  0.658470  1.0  0.377
  C  C1608  1  0.560130  0.439870  0.677570  1.0  0.0696
  C  C1609  1  0.548330  0.451670  0.691470  1.0  0.2481
  C  C1610  1  0.532130  0.467870  0.709510  1.0  0.1561
  C  C1611  1  0.499530  0.500470  0.741810  1.0  0.0988
  C  C1612  1  0.480830  0.519170  0.758960  1.0  0.1987
  C  C1613  1  0.466930  0.533070  0.771470  1.0  0.2712
  C  C1614  1  0.446930  0.553070  0.787020  1.0  0.0199
  C  C1615  1  0.434840  0.717420  0.938100  1.0  0.6104
  C  C1616  1  0.463500  0.731750  0.957040  1.0  -0.1599
  C  C1617  1  0.517600  0.758800  0.991800  1.0  0.3786
  C  C1618  1  0.546400  0.773200  0.010900  1.0  0.0698
  C  C1619  1  0.570000  0.785000  0.024800  1.0  0.247
  C  C1620  1  0.602400  0.801200  0.042840  1.0  0.1566
  C  C1621  1  0.667600  0.833800  0.075140  1.0  0.0918
  C  C1622  1  0.705000  0.852500  0.092290  1.0  0.1931
  C  C1623  1  0.732800  0.866400  0.104800  1.0  0.2691
  C  C1624  1  0.772800  0.886400  0.120350  1.0  0.0209
  C  C1625  1  0.101510  0.050750  0.271430  1.0  0.6104
  C  C1626  1  0.130170  0.065080  0.290370  1.0  -0.1599
  C  C1627  1  0.184270  0.092130  0.325130  1.0  0.3786
  C  C1628  1  0.213070  0.106530  0.344230  1.0  0.0698
  C  C1629  1  0.236670  0.118330  0.358130  1.0  0.247
  C  C1630  1  0.269070  0.134530  0.376170  1.0  0.1566
  C  C1631  1  0.334270  0.167130  0.408470  1.0  0.0987
  C  C1632  1  0.371670  0.185830  0.425620  1.0  0.2004
  C  C1633  1  0.399470  0.199730  0.438130  1.0  0.2691
  C  C1634  1  0.439470  0.219730  0.453680  1.0  0.0209
  C  C1635  1  0.768170  0.384090  0.604770  1.0  0.6104
  C  C1636  1  0.796830  0.398420  0.623710  1.0  -0.1599
  C  C1637  1  0.850930  0.425470  0.658470  1.0  0.3786
  C  C1638  1  0.879730  0.439870  0.677570  1.0  0.0698
  C  C1639  1  0.903330  0.451670  0.691470  1.0  0.247
  C  C1640  1  0.935730  0.467870  0.709510  1.0  0.1566
  C  C1641  1  0.000930  0.500470  0.741810  1.0  0.0987
  C  C1642  1  0.038330  0.519170  0.758960  1.0  0.2004
  C  C1643  1  0.066130  0.533070  0.771470  1.0  0.2691
  C  C1644  1  0.106130  0.553070  0.787020  1.0  0.0209
  C  C1645  1  0.282580  0.565160  0.938100  1.0  0.6081
  C  C1646  1  0.268250  0.536500  0.957040  1.0  -0.1599
  C  C1647  1  0.241200  0.482400  0.991800  1.0  0.3782
  C  C1648  1  0.226800  0.453600  0.010900  1.0  0.071
  C  C1649  1  0.215000  0.430000  0.024800  1.0  0.2489
  C  C1650  1  0.198800  0.397600  0.042840  1.0  0.1567
  C  C1651  1  0.166200  0.332400  0.075140  1.0  0.0933
  C  C1652  1  0.147500  0.295000  0.092290  1.0  0.1902
  C  C1653  1  0.133600  0.267200  0.104800  1.0  0.2667
  C  C1654  1  0.113600  0.227200  0.120350  1.0  0.0224
  C  C1655  1  0.949250  0.898490  0.271430  1.0  0.6081
  C  C1656  1  0.934920  0.869830  0.290370  1.0  -0.1599
  C  C1657  1  0.907870  0.815730  0.325130  1.0  0.3782
  C  C1658  1  0.893470  0.786930  0.344230  1.0  0.071
  C  C1659  1  0.881670  0.763330  0.358130  1.0  0.2489
  C  C1660  1  0.865470  0.730930  0.376170  1.0  0.1567
  C  C1661  1  0.832870  0.665730  0.408470  1.0  0.1004
  C  C1662  1  0.814170  0.628330  0.425620  1.0  0.1983
  C  C1663  1  0.800270  0.600530  0.438130  1.0  0.2667
  C  C1664  1  0.780270  0.560530  0.453680  1.0  0.0224
  C  C1665  1  0.615910  0.231830  0.604770  1.0  0.6081
  C  C1666  1  0.601580  0.203170  0.623710  1.0  -0.1599
  C  C1667  1  0.574530  0.149070  0.658470  1.0  0.3782
  C  C1668  1  0.560130  0.120270  0.677570  1.0  0.071
  C  C1669  1  0.548330  0.096670  0.691470  1.0  0.2489
  C  C1670  1  0.532130  0.064270  0.709510  1.0  0.1567
  C  C1671  1  0.499530  0.999070  0.741810  1.0  0.1003
  C  C1672  1  0.480830  0.961670  0.758960  1.0  0.1983
  C  C1673  1  0.466930  0.933870  0.771470  1.0  0.2667
  C  C1674  1  0.446930  0.893870  0.787020  1.0  0.0224
  C  C1675  1  0.222700  0.611350  0.833390  1.0  0.6833
  C  C1676  1  0.183300  0.591650  0.817260  1.0  -0.0997
  C  C1677  1  0.889370  0.944680  0.166720  1.0  0.6833
  C  C1678  1  0.849970  0.924980  0.150590  1.0  -0.0997
  C  C1679  1  0.556030  0.278020  0.500060  1.0  0.6833
  C  C1680  1  0.516630  0.258320  0.483930  1.0  -0.1018
  C  C1681  1  0.388650  0.777300  0.833390  1.0  0.6846
  C  C1682  1  0.408350  0.816700  0.817260  1.0  -0.0975
  C  C1683  1  0.055320  0.110630  0.166720  1.0  0.6846
  C  C1684  1  0.075020  0.150030  0.150590  1.0  -0.0975
  C  C1685  1  0.721980  0.443970  0.500060  1.0  0.6846
  C  C1686  1  0.741680  0.483370  0.483930  1.0  -0.1003
  C  C1687  1  0.388650  0.611350  0.833390  1.0  0.6835
  C  C1688  1  0.408350  0.591650  0.817260  1.0  -0.0984
  C  C1689  1  0.055320  0.944680  0.166720  1.0  0.6835
  C  C1690  1  0.075020  0.924980  0.150590  1.0  -0.0984
  C  C1691  1  0.721980  0.278020  0.500060  1.0  0.6837
  C  C1692  1  0.741680  0.258320  0.483930  1.0  -0.102
  O  O1693  1  0.543390  0.179560  0.103130  1.0  -0.6634
  O  O1694  1  0.516330  0.207400  0.129650  1.0  -0.6351
  O  O1695  1  0.660210  0.238550  0.160710  1.0  -0.6527
  O  O1696  1  0.669660  0.245880  0.069340  1.0  -0.6389
  O  O1697  1  0.210060  0.512890  0.436460  1.0  -0.6634
  O  O1698  1  0.183000  0.540730  0.462980  1.0  -0.6386
  O  O1699  1  0.326880  0.571880  0.494040  1.0  -0.6527
  O  O1700  1  0.336330  0.579210  0.402670  1.0  -0.6389
  O  O1701  1  0.876720  0.846230  0.769800  1.0  -0.6634
  O  O1702  1  0.849660  0.874070  0.796320  1.0  -0.6351
  O  O1703  1  0.993540  0.905220  0.827380  1.0  -0.6527
  O  O1704  1  0.002990  0.912550  0.736010  1.0  -0.6389
  O  O1705  1  0.820440  0.363830  0.103130  1.0  -0.664
  O  O1706  1  0.792600  0.308930  0.129650  1.0  -0.641
  O  O1707  1  0.761450  0.421660  0.160710  1.0  -0.6555
  O  O1708  1  0.754120  0.423780  0.069340  1.0  -0.6355
  O  O1709  1  0.487110  0.697160  0.436460  1.0  -0.664
  O  O1710  1  0.459270  0.642260  0.462980  1.0  -0.641
  O  O1711  1  0.428120  0.754990  0.494040  1.0  -0.6529
  O  O1712  1  0.420790  0.757110  0.402670  1.0  -0.6355
  O  O1713  1  0.153770  0.030500  0.769800  1.0  -0.664
  O  O1714  1  0.125930  0.975600  0.796320  1.0  -0.641
  O  O1715  1  0.094780  0.088330  0.827380  1.0  -0.6555
  O  O1716  1  0.087450  0.090450  0.736010  1.0  -0.6355
  O  O1717  1  0.636170  0.456610  0.103130  1.0  -0.6626
  O  O1718  1  0.691070  0.483670  0.129650  1.0  -0.6399
  O  O1719  1  0.578340  0.339790  0.160710  1.0  -0.6539
  O  O1720  1  0.576220  0.330340  0.069340  1.0  -0.637
  O  O1721  1  0.302840  0.789940  0.436460  1.0  -0.6626
  O  O1722  1  0.357740  0.817000  0.462980  1.0  -0.6358
  O  O1723  1  0.245010  0.673120  0.494040  1.0  -0.6554
  O  O1724  1  0.242890  0.663670  0.402670  1.0  -0.637
  O  O1725  1  0.969500  0.123280  0.769800  1.0  -0.6626
  O  O1726  1  0.024400  0.150340  0.796320  1.0  -0.6399
  O  O1727  1  0.911670  0.006460  0.827380  1.0  -0.6539
  O  O1728  1  0.909550  0.997010  0.736010  1.0  -0.637
  O  O1729  1  0.820440  0.456610  0.103130  1.0  -0.6615
  O  O1730  1  0.792600  0.483670  0.129650  1.0  -0.6366
  O  O1731  1  0.761450  0.339790  0.160710  1.0  -0.6534
  O  O1732  1  0.754120  0.330340  0.069340  1.0  -0.6372
  O  O1733  1  0.487110  0.789940  0.436460  1.0  -0.6615
  O  O1734  1  0.459270  0.817000  0.462980  1.0  -0.6394
  O  O1735  1  0.428120  0.673120  0.494040  1.0  -0.6533
  O  O1736  1  0.420790  0.663670  0.402670  1.0  -0.6372
  O  O1737  1  0.153770  0.123280  0.769800  1.0  -0.6615
  O  O1738  1  0.125930  0.150340  0.796320  1.0  -0.6366
  O  O1739  1  0.094780  0.006460  0.827380  1.0  -0.6534
  O  O1740  1  0.087450  0.997010  0.736010  1.0  -0.6372
  O  O1741  1  0.636170  0.179560  0.103130  1.0  -0.6629
  O  O1742  1  0.691070  0.207400  0.129650  1.0  -0.6397
  O  O1743  1  0.578340  0.238550  0.160710  1.0  -0.6546
  O  O1744  1  0.576220  0.245880  0.069340  1.0  -0.6385
  O  O1745  1  0.302840  0.512890  0.436460  1.0  -0.6629
  O  O1746  1  0.357740  0.540730  0.462980  1.0  -0.6397
  O  O1747  1  0.245010  0.571880  0.494040  1.0  -0.6525
  O  O1748  1  0.242890  0.579210  0.402670  1.0  -0.6385
  O  O1749  1  0.969500  0.846230  0.769800  1.0  -0.6629
  O  O1750  1  0.024400  0.874070  0.796320  1.0  -0.6397
  O  O1751  1  0.911670  0.905220  0.827380  1.0  -0.6546
  O  O1752  1  0.909550  0.912550  0.736010  1.0  -0.6385
  O  O1753  1  0.543390  0.363830  0.103130  1.0  -0.6646
  O  O1754  1  0.516330  0.308930  0.129650  1.0  -0.6418
  O  O1755  1  0.660210  0.421660  0.160710  1.0  -0.6537
  O  O1756  1  0.669660  0.423780  0.069340  1.0  -0.6346
  O  O1757  1  0.210060  0.697160  0.436460  1.0  -0.6646
  O  O1758  1  0.183000  0.642260  0.462980  1.0  -0.6377
  O  O1759  1  0.326880  0.754990  0.494040  1.0  -0.6551
  O  O1760  1  0.336330  0.757110  0.402670  1.0  -0.6346
  O  O1761  1  0.876720  0.030500  0.769800  1.0  -0.6646
  O  O1762  1  0.849660  0.975600  0.796320  1.0  -0.6418
  O  O1763  1  0.993540  0.088330  0.827380  1.0  -0.6537
  O  O1764  1  0.002990  0.090450  0.736010  1.0  -0.6346
  O  O1765  1  0.713580  0.286420  0.103660  1.0  -0.9175
  O  O1766  1  0.380250  0.619750  0.436990  1.0  -0.9136
  O  O1767  1  0.046910  0.953090  0.770330  1.0  -0.9175
  O  O1768  1  0.713580  0.427160  0.103660  1.0  -0.918
  O  O1769  1  0.380250  0.760490  0.436990  1.0  -0.9141
  O  O1770  1  0.046910  0.093830  0.770330  1.0  -0.918
  O  O1771  1  0.572840  0.286420  0.103660  1.0  -0.917
  O  O1772  1  0.239510  0.619750  0.436990  1.0  -0.9126
  O  O1773  1  0.906170  0.953090  0.770330  1.0  -0.917
  O  O1774  1  0.631640  0.263280  0.124230  1.0  -0.8463
  O  O1775  1  0.298310  0.596610  0.457560  1.0  -0.8465
  O  O1776  1  0.964970  0.929950  0.790900  1.0  -0.8464
  O  O1777  1  0.736720  0.368360  0.124230  1.0  -0.8462
  O  O1778  1  0.403390  0.701690  0.457560  1.0  -0.8463
  O  O1779  1  0.070050  0.035030  0.790900  1.0  -0.8462
  O  O1780  1  0.631640  0.368360  0.124230  1.0  -0.8459
  O  O1781  1  0.298310  0.701690  0.457560  1.0  -0.846
  O  O1782  1  0.964970  0.035030  0.790900  1.0  -0.8459
  O  O1783  1  0.666667  0.333333  0.089240  1.0  -0.8548
  O  O1784  1  0.666667  0.333333  0.150470  1.0  -0.9153
  O  O1785  1  0.333333  0.666667  0.422570  1.0  -0.8547
  O  O1786  1  0.333333  0.666667  0.483800  1.0  -0.9155
  O  O1787  1  0.000000  0.000000  0.755910  1.0  -0.8548
  O  O1788  1  0.000000  0.000000  0.817140  1.0  -0.9153
  O  O1789  1  0.179560  0.543390  0.896870  1.0  -0.6629
  O  O1790  1  0.207400  0.516330  0.870350  1.0  -0.6379
  O  O1791  1  0.238550  0.660210  0.839290  1.0  -0.654
  O  O1792  1  0.245880  0.669660  0.930660  1.0  -0.6377
  O  O1793  1  0.846230  0.876720  0.230200  1.0  -0.6629
  O  O1794  1  0.874070  0.849660  0.203680  1.0  -0.6379
  O  O1795  1  0.905220  0.993540  0.172620  1.0  -0.654
  O  O1796  1  0.912550  0.002990  0.263990  1.0  -0.6377
  O  O1797  1  0.512890  0.210060  0.563540  1.0  -0.6629
  O  O1798  1  0.540730  0.183000  0.537020  1.0  -0.6422
  O  O1799  1  0.571880  0.326880  0.505960  1.0  -0.654
  O  O1800  1  0.579210  0.336330  0.597330  1.0  -0.6377
  O  O1801  1  0.363830  0.820440  0.896870  1.0  -0.6642
  O  O1802  1  0.308930  0.792600  0.870350  1.0  -0.6413
  O  O1803  1  0.421660  0.761450  0.839290  1.0  -0.655
  O  O1804  1  0.423780  0.754120  0.930660  1.0  -0.6368
  O  O1805  1  0.030500  0.153770  0.230200  1.0  -0.6642
  O  O1806  1  0.975600  0.125930  0.203680  1.0  -0.6413
  O  O1807  1  0.088330  0.094780  0.172620  1.0  -0.655
  O  O1808  1  0.090450  0.087450  0.263990  1.0  -0.6368
  O  O1809  1  0.697160  0.487110  0.563540  1.0  -0.6642
  O  O1810  1  0.642260  0.459270  0.537020  1.0  -0.6413
  O  O1811  1  0.754990  0.428120  0.505960  1.0  -0.6526
  O  O1812  1  0.757110  0.420790  0.597330  1.0  -0.6368
  O  O1813  1  0.456610  0.636170  0.896870  1.0  -0.6642
  O  O1814  1  0.483670  0.691070  0.870350  1.0  -0.6423
  O  O1815  1  0.339790  0.578340  0.839290  1.0  -0.654
  O  O1816  1  0.330340  0.576220  0.930660  1.0  -0.6336
  O  O1817  1  0.123280  0.969500  0.230200  1.0  -0.6642
  O  O1818  1  0.150340  0.024400  0.203680  1.0  -0.6423
  O  O1819  1  0.006460  0.911670  0.172620  1.0  -0.654
  O  O1820  1  0.997010  0.909550  0.263990  1.0  -0.6336
  O  O1821  1  0.789940  0.302840  0.563540  1.0  -0.6642
  O  O1822  1  0.817000  0.357740  0.537020  1.0  -0.6375
  O  O1823  1  0.673120  0.245010  0.505960  1.0  -0.6547
  O  O1824  1  0.663670  0.242890  0.597330  1.0  -0.6336
  O  O1825  1  0.456610  0.820440  0.896870  1.0  -0.6627
  O  O1826  1  0.483670  0.792600  0.870350  1.0  -0.6378
  O  O1827  1  0.339790  0.761450  0.839290  1.0  -0.6529
  O  O1828  1  0.330340  0.754120  0.930660  1.0  -0.637
  O  O1829  1  0.123280  0.153770  0.230200  1.0  -0.6627
  O  O1830  1  0.150340  0.125930  0.203680  1.0  -0.6378
  O  O1831  1  0.006460  0.094780  0.172620  1.0  -0.6529
  O  O1832  1  0.997010  0.087450  0.263990  1.0  -0.637
  O  O1833  1  0.789940  0.487110  0.563540  1.0  -0.6627
  O  O1834  1  0.817000  0.459270  0.537020  1.0  -0.6419
  O  O1835  1  0.673120  0.428120  0.505960  1.0  -0.6528
  O  O1836  1  0.663670  0.420790  0.597330  1.0  -0.637
  O  O1837  1  0.179560  0.636170  0.896870  1.0  -0.6646
  O  O1838  1  0.207400  0.691070  0.870350  1.0  -0.6437
  O  O1839  1  0.238550  0.578340  0.839290  1.0  -0.6563
  O  O1840  1  0.245880  0.576220  0.930660  1.0  -0.6334
  O  O1841  1  0.846230  0.969500  0.230200  1.0  -0.6646
  O  O1842  1  0.874070  0.024400  0.203680  1.0  -0.6437
  O  O1843  1  0.905220  0.911670  0.172620  1.0  -0.6563
  O  O1844  1  0.912550  0.909550  0.263990  1.0  -0.6334
  O  O1845  1  0.512890  0.302840  0.563540  1.0  -0.6646
  O  O1846  1  0.540730  0.357740  0.537020  1.0  -0.6438
  O  O1847  1  0.571880  0.245010  0.505960  1.0  -0.6543
  O  O1848  1  0.579210  0.242890  0.597330  1.0  -0.6334
  O  O1849  1  0.363830  0.543390  0.896870  1.0  -0.6617
  O  O1850  1  0.308930  0.516330  0.870350  1.0  -0.6419
  O  O1851  1  0.421660  0.660210  0.839290  1.0  -0.6527
  O  O1852  1  0.423780  0.669660  0.930660  1.0  -0.637
  O  O1853  1  0.030500  0.876720  0.230200  1.0  -0.6617
  O  O1854  1  0.975600  0.849660  0.203680  1.0  -0.6419
  O  O1855  1  0.088330  0.993540  0.172620  1.0  -0.6527
  O  O1856  1  0.090450  0.002990  0.263990  1.0  -0.637
  O  O1857  1  0.697160  0.210060  0.563540  1.0  -0.6617
  O  O1858  1  0.642260  0.183000  0.537020  1.0  -0.6376
  O  O1859  1  0.754990  0.326880  0.505960  1.0  -0.6535
  O  O1860  1  0.757110  0.336330  0.597330  1.0  -0.637
  O  O1861  1  0.286420  0.713580  0.896340  1.0  -0.9154
  O  O1862  1  0.953090  0.046910  0.229670  1.0  -0.9154
  O  O1863  1  0.619750  0.380250  0.563010  1.0  -0.9112
  O  O1864  1  0.427160  0.713580  0.896340  1.0  -0.9154
  O  O1865  1  0.093830  0.046910  0.229670  1.0  -0.9154
  O  O1866  1  0.760490  0.380250  0.563010  1.0  -0.9114
  O  O1867  1  0.286420  0.572840  0.896340  1.0  -0.9166
  O  O1868  1  0.953090  0.906170  0.229670  1.0  -0.9166
  O  O1869  1  0.619750  0.239510  0.563010  1.0  -0.9126
  O  O1870  1  0.263280  0.631640  0.875770  1.0  -0.8461
  O  O1871  1  0.929950  0.964970  0.209100  1.0  -0.8461
  O  O1872  1  0.596610  0.298310  0.542440  1.0  -0.8463
  O  O1873  1  0.368360  0.736720  0.875770  1.0  -0.8449
  O  O1874  1  0.035030  0.070050  0.209100  1.0  -0.8449
  O  O1875  1  0.701690  0.403390  0.542440  1.0  -0.8451
  O  O1876  1  0.368360  0.631640  0.875770  1.0  -0.8464
  O  O1877  1  0.035030  0.964970  0.209100  1.0  -0.8464
  O  O1878  1  0.701690  0.298310  0.542440  1.0  -0.8465
  O  O1879  1  0.333333  0.666667  0.910760  1.0  -0.8544
  O  O1880  1  0.333333  0.666667  0.849530  1.0  -0.9163
  O  O1881  1  0.000000  0.000000  0.244090  1.0  -0.8544
  O  O1882  1  0.000000  0.000000  0.182860  1.0  -0.9167
  O  O1883  1  0.666667  0.333333  0.577430  1.0  -0.8546
  O  O1884  1  0.666667  0.333333  0.516200  1.0  -0.9166
