# generated using pymatgen
data_CdH19C18N3O5
_symmetry_space_group_name_H-M   'P 1'
_cell_length_a   16.18300000
_cell_length_b   28.45500000
_cell_length_c   17.23000000
_cell_angle_alpha   90.00000000
_cell_angle_beta   90.00000000
_cell_angle_gamma   90.00000000
_symmetry_Int_Tables_number   1
_chemical_formula_structural   CdH19C18N3O5
_chemical_formula_sum   'Cd16 H304 C288 N48 O80'
_cell_volume   7934.19557595
_cell_formula_units_Z   16
loop_
 _symmetry_equiv_pos_site_id
 _symmetry_equiv_pos_as_xyz
  1  'x, y, z'
loop_
 _atom_site_type_symbol
 _atom_site_label
 _atom_site_symmetry_multiplicity
 _atom_site_fract_x
 _atom_site_fract_y
 _atom_site_fract_z
 _atom_site_occupancy
 _atom_site_charge
  Cd  Cd1  1  0.845820  0.368800  0.026730  1.0  0.9652
  Cd  Cd2  1  0.654180  0.868800  0.473270  1.0  0.9658
  Cd  Cd3  1  0.845820  0.868800  0.973270  1.0  0.9655
  Cd  Cd4  1  0.654180  0.368800  0.526730  1.0  0.9656
  Cd  Cd5  1  0.345820  0.868800  0.026730  1.0  0.9652
  Cd  Cd6  1  0.154180  0.368800  0.473270  1.0  0.9658
  Cd  Cd7  1  0.345820  0.368800  0.973270  1.0  0.9655
  Cd  Cd8  1  0.154180  0.868800  0.526730  1.0  0.9656
  Cd  Cd9  1  0.654180  0.631200  0.026730  1.0  0.966
  Cd  Cd10  1  0.845820  0.131200  0.473270  1.0  0.966
  Cd  Cd11  1  0.654180  0.131200  0.973270  1.0  0.9663
  Cd  Cd12  1  0.845820  0.631200  0.526730  1.0  0.9656
  Cd  Cd13  1  0.154180  0.131200  0.026730  1.0  0.966
  Cd  Cd14  1  0.345820  0.631200  0.473270  1.0  0.966
  Cd  Cd15  1  0.154180  0.631200  0.973270  1.0  0.9663
  Cd  Cd16  1  0.345820  0.131200  0.526730  1.0  0.9656
  H  H17  1  0.870900  0.631100  0.105500  1.0  0.2684
  H  H18  1  0.849200  0.555200  0.009400  1.0  0.1175
  H  H19  1  0.971700  0.427500  0.125300  1.0  0.0801
  H  H20  1  0.817200  0.336200  0.291500  1.0  0.123
  H  H21  1  0.722700  0.338400  0.264700  1.0  0.1214
  H  H22  1  0.888300  0.402700  0.341200  1.0  0.115
  H  H23  1  0.843600  0.452100  0.354800  1.0  0.1077
  H  H24  1  0.869900  0.436500  0.269100  1.0  0.1151
  H  H25  1  0.813400  0.478600  0.978400  1.0  0.073
  H  H26  1  0.012500  0.501600  0.162300  1.0  0.141
  H  H27  1  0.964400  0.586400  0.171700  1.0  0.105
  H  H28  1  0.023600  0.588400  0.097600  1.0  0.1089
  H  H29  1  0.862000  0.708400  0.120000  1.0  0.1276
  H  H30  1  0.931300  0.699300  0.895900  1.0  0.1386
  H  H31  1  0.886500  0.775300  0.879500  1.0  0.0861
  H  H32  1  0.817400  0.784000  0.096500  1.0  0.0758
  H  H33  1  0.730000  0.443800  0.214500  1.0  0.1155
  H  H34  1  0.695900  0.463300  0.295500  1.0  0.1099
  H  H35  1  0.652900  0.418800  0.255500  1.0  0.118
  H  H36  1  0.629100  0.131100  0.394500  1.0  0.2695
  H  H37  1  0.650800  0.055200  0.490600  1.0  0.1175
  H  H38  1  0.528300  0.927500  0.374700  1.0  0.0798
  H  H39  1  0.682800  0.836200  0.208500  1.0  0.1223
  H  H40  1  0.777300  0.838400  0.235300  1.0  0.119
  H  H41  1  0.611700  0.902700  0.158800  1.0  0.1144
  H  H42  1  0.656400  0.952100  0.145200  1.0  0.1079
  H  H43  1  0.630100  0.936500  0.230900  1.0  0.1151
  H  H44  1  0.686600  0.978600  0.521600  1.0  0.0735
  H  H45  1  0.487500  0.001600  0.337700  1.0  0.1409
  H  H46  1  0.535600  0.086400  0.328300  1.0  0.106
  H  H47  1  0.476400  0.088400  0.402400  1.0  0.1089
  H  H48  1  0.638000  0.208400  0.380000  1.0  0.128
  H  H49  1  0.568700  0.199300  0.604100  1.0  0.1385
  H  H50  1  0.613500  0.275300  0.620500  1.0  0.0858
  H  H51  1  0.682600  0.284000  0.403500  1.0  0.0754
  H  H52  1  0.770000  0.943800  0.285500  1.0  0.116
  H  H53  1  0.804100  0.963300  0.204500  1.0  0.1101
  H  H54  1  0.847100  0.918800  0.244500  1.0  0.119
  H  H55  1  0.870900  0.131100  0.894500  1.0  0.269
  H  H56  1  0.849200  0.055200  0.990600  1.0  0.1175
  H  H57  1  0.971700  0.927500  0.874700  1.0  0.0797
  H  H58  1  0.817200  0.836200  0.708500  1.0  0.1226
  H  H59  1  0.722700  0.838400  0.735300  1.0  0.1212
  H  H60  1  0.888300  0.902700  0.658800  1.0  0.1144
  H  H61  1  0.843600  0.952100  0.645200  1.0  0.1078
  H  H62  1  0.869900  0.936500  0.730900  1.0  0.1151
  H  H63  1  0.813400  0.978600  0.021600  1.0  0.0728
  H  H64  1  0.012500  0.001600  0.837700  1.0  0.141
  H  H65  1  0.964400  0.086400  0.828300  1.0  0.1056
  H  H66  1  0.023600  0.088400  0.902400  1.0  0.1086
  H  H67  1  0.862000  0.208400  0.880000  1.0  0.128
  H  H68  1  0.931300  0.199300  0.104100  1.0  0.1382
  H  H69  1  0.886500  0.275300  0.120500  1.0  0.0861
  H  H70  1  0.817400  0.284000  0.903500  1.0  0.0755
  H  H71  1  0.730000  0.943800  0.785500  1.0  0.1165
  H  H72  1  0.695900  0.963300  0.704500  1.0  0.1102
  H  H73  1  0.652900  0.918800  0.744500  1.0  0.1182
  H  H74  1  0.629100  0.631100  0.605500  1.0  0.2685
  H  H75  1  0.650800  0.555200  0.509400  1.0  0.1173
  H  H76  1  0.528300  0.427500  0.625300  1.0  0.0802
  H  H77  1  0.682800  0.336200  0.791500  1.0  0.1227
  H  H78  1  0.777300  0.338400  0.764700  1.0  0.1192
  H  H79  1  0.611700  0.402700  0.841200  1.0  0.1148
  H  H80  1  0.656400  0.452100  0.854800  1.0  0.1077
  H  H81  1  0.630100  0.436500  0.769100  1.0  0.1141
  H  H82  1  0.686600  0.478600  0.478400  1.0  0.0727
  H  H83  1  0.487500  0.501600  0.662300  1.0  0.1407
  H  H84  1  0.535600  0.586400  0.671700  1.0  0.1049
  H  H85  1  0.476400  0.588400  0.597600  1.0  0.1093
  H  H86  1  0.638000  0.708400  0.620000  1.0  0.1277
  H  H87  1  0.568700  0.699300  0.395900  1.0  0.1388
  H  H88  1  0.613500  0.775300  0.379500  1.0  0.086
  H  H89  1  0.682600  0.784000  0.596500  1.0  0.0756
  H  H90  1  0.770000  0.443800  0.714500  1.0  0.1156
  H  H91  1  0.804100  0.463300  0.795500  1.0  0.1106
  H  H92  1  0.847100  0.418800  0.755500  1.0  0.1189
  H  H93  1  0.370900  0.131100  0.105500  1.0  0.2684
  H  H94  1  0.349200  0.055200  0.009400  1.0  0.1175
  H  H95  1  0.471700  0.927500  0.125300  1.0  0.0801
  H  H96  1  0.317200  0.836200  0.291500  1.0  0.123
  H  H97  1  0.222700  0.838400  0.264700  1.0  0.1214
  H  H98  1  0.388300  0.902700  0.341200  1.0  0.115
  H  H99  1  0.343600  0.952100  0.354800  1.0  0.1077
  H  H100  1  0.369900  0.936500  0.269100  1.0  0.1151
  H  H101  1  0.313400  0.978600  0.978400  1.0  0.073
  H  H102  1  0.512500  0.001600  0.162300  1.0  0.141
  H  H103  1  0.464400  0.086400  0.171700  1.0  0.105
  H  H104  1  0.523600  0.088400  0.097600  1.0  0.1089
  H  H105  1  0.362000  0.208400  0.120000  1.0  0.1276
  H  H106  1  0.431300  0.199300  0.895900  1.0  0.1386
  H  H107  1  0.386500  0.275300  0.879500  1.0  0.0861
  H  H108  1  0.317400  0.284000  0.096500  1.0  0.0758
  H  H109  1  0.230000  0.943800  0.214500  1.0  0.1155
  H  H110  1  0.195900  0.963300  0.295500  1.0  0.1099
  H  H111  1  0.152900  0.918800  0.255500  1.0  0.118
  H  H112  1  0.129100  0.631100  0.394500  1.0  0.2695
  H  H113  1  0.150800  0.555200  0.490600  1.0  0.1175
  H  H114  1  0.028300  0.427500  0.374700  1.0  0.0798
  H  H115  1  0.182800  0.336200  0.208500  1.0  0.1223
  H  H116  1  0.277300  0.338400  0.235300  1.0  0.119
  H  H117  1  0.111700  0.402700  0.158800  1.0  0.1144
  H  H118  1  0.156400  0.452100  0.145200  1.0  0.1079
  H  H119  1  0.130100  0.436500  0.230900  1.0  0.1151
  H  H120  1  0.186600  0.478600  0.521600  1.0  0.0735
  H  H121  1  0.987500  0.501600  0.337700  1.0  0.1409
  H  H122  1  0.035600  0.586400  0.328300  1.0  0.106
  H  H123  1  0.976400  0.588400  0.402400  1.0  0.1089
  H  H124  1  0.138000  0.708400  0.380000  1.0  0.128
  H  H125  1  0.068700  0.699300  0.604100  1.0  0.1385
  H  H126  1  0.113500  0.775300  0.620500  1.0  0.0858
  H  H127  1  0.182600  0.784000  0.403500  1.0  0.0754
  H  H128  1  0.270000  0.443800  0.285500  1.0  0.116
  H  H129  1  0.304100  0.463300  0.204500  1.0  0.1101
  H  H130  1  0.347100  0.418800  0.244500  1.0  0.119
  H  H131  1  0.370900  0.631100  0.894500  1.0  0.269
  H  H132  1  0.349200  0.555200  0.990600  1.0  0.1175
  H  H133  1  0.471700  0.427500  0.874700  1.0  0.0797
  H  H134  1  0.317200  0.336200  0.708500  1.0  0.1226
  H  H135  1  0.222700  0.338400  0.735300  1.0  0.1212
  H  H136  1  0.388300  0.402700  0.658800  1.0  0.1144
  H  H137  1  0.343600  0.452100  0.645200  1.0  0.1078
  H  H138  1  0.369900  0.436500  0.730900  1.0  0.1151
  H  H139  1  0.313400  0.478600  0.021600  1.0  0.0728
  H  H140  1  0.512500  0.501600  0.837700  1.0  0.141
  H  H141  1  0.464400  0.586400  0.828300  1.0  0.1056
  H  H142  1  0.523600  0.588400  0.902400  1.0  0.1086
  H  H143  1  0.362000  0.708400  0.880000  1.0  0.128
  H  H144  1  0.431300  0.699300  0.104100  1.0  0.1382
  H  H145  1  0.386500  0.775300  0.120500  1.0  0.0861
  H  H146  1  0.317400  0.784000  0.903500  1.0  0.0755
  H  H147  1  0.230000  0.443800  0.785500  1.0  0.1165
  H  H148  1  0.195900  0.463300  0.704500  1.0  0.1102
  H  H149  1  0.152900  0.418800  0.744500  1.0  0.1182
  H  H150  1  0.129100  0.131100  0.605500  1.0  0.2685
  H  H151  1  0.150800  0.055200  0.509400  1.0  0.1173
  H  H152  1  0.028300  0.927500  0.625300  1.0  0.0802
  H  H153  1  0.182800  0.836200  0.791500  1.0  0.1227
  H  H154  1  0.277300  0.838400  0.764700  1.0  0.1192
  H  H155  1  0.111700  0.902700  0.841200  1.0  0.1148
  H  H156  1  0.156400  0.952100  0.854800  1.0  0.1077
  H  H157  1  0.130100  0.936500  0.769100  1.0  0.1141
  H  H158  1  0.186600  0.978600  0.478400  1.0  0.0727
  H  H159  1  0.987500  0.001600  0.662300  1.0  0.1407
  H  H160  1  0.035600  0.086400  0.671700  1.0  0.1049
  H  H161  1  0.976400  0.088400  0.597600  1.0  0.1093
  H  H162  1  0.138000  0.208400  0.620000  1.0  0.1277
  H  H163  1  0.068700  0.199300  0.395900  1.0  0.1388
  H  H164  1  0.113500  0.275300  0.379500  1.0  0.086
  H  H165  1  0.182600  0.284000  0.596500  1.0  0.0756
  H  H166  1  0.270000  0.943800  0.714500  1.0  0.1156
  H  H167  1  0.304100  0.963300  0.795500  1.0  0.1106
  H  H168  1  0.347100  0.918800  0.755500  1.0  0.1189
  H  H169  1  0.629100  0.368900  0.105500  1.0  0.2694
  H  H170  1  0.650800  0.444800  0.009400  1.0  0.1173
  H  H171  1  0.528300  0.572500  0.125300  1.0  0.0799
  H  H172  1  0.682800  0.663800  0.291500  1.0  0.1231
  H  H173  1  0.777300  0.661600  0.264700  1.0  0.1186
  H  H174  1  0.611700  0.597300  0.341200  1.0  0.1144
  H  H175  1  0.656400  0.547900  0.354800  1.0  0.1089
  H  H176  1  0.630100  0.563500  0.269100  1.0  0.1148
  H  H177  1  0.686600  0.521400  0.978400  1.0  0.0732
  H  H178  1  0.487500  0.498400  0.162300  1.0  0.141
  H  H179  1  0.535600  0.413600  0.171700  1.0  0.1049
  H  H180  1  0.476400  0.411600  0.097600  1.0  0.1095
  H  H181  1  0.638000  0.291600  0.120000  1.0  0.1279
  H  H182  1  0.568700  0.300700  0.895900  1.0  0.1387
  H  H183  1  0.613500  0.224700  0.879500  1.0  0.0858
  H  H184  1  0.682600  0.216000  0.096500  1.0  0.0759
  H  H185  1  0.770000  0.556200  0.214500  1.0  0.1161
  H  H186  1  0.804100  0.536700  0.295500  1.0  0.112
  H  H187  1  0.847100  0.581200  0.255500  1.0  0.119
  H  H188  1  0.870900  0.868900  0.394500  1.0  0.2681
  H  H189  1  0.849200  0.944800  0.490600  1.0  0.1174
  H  H190  1  0.971700  0.072500  0.374700  1.0  0.08
  H  H191  1  0.817200  0.163800  0.208500  1.0  0.1229
  H  H192  1  0.722700  0.161600  0.235300  1.0  0.1202
  H  H193  1  0.888300  0.097300  0.158800  1.0  0.114
  H  H194  1  0.843600  0.047900  0.145200  1.0  0.1082
  H  H195  1  0.869900  0.063500  0.230900  1.0  0.1151
  H  H196  1  0.813400  0.021400  0.521600  1.0  0.0732
  H  H197  1  0.012500  0.998400  0.337700  1.0  0.141
  H  H198  1  0.964400  0.913600  0.328300  1.0  0.1051
  H  H199  1  0.023600  0.911600  0.402400  1.0  0.109
  H  H200  1  0.862000  0.791600  0.380000  1.0  0.1276
  H  H201  1  0.931300  0.800700  0.604100  1.0  0.1382
  H  H202  1  0.886500  0.724700  0.620500  1.0  0.086
  H  H203  1  0.817400  0.716000  0.403500  1.0  0.0759
  H  H204  1  0.730000  0.056200  0.285500  1.0  0.1168
  H  H205  1  0.695900  0.036700  0.204500  1.0  0.1111
  H  H206  1  0.652900  0.081200  0.244500  1.0  0.1185
  H  H207  1  0.629100  0.868900  0.894500  1.0  0.2697
  H  H208  1  0.650800  0.944800  0.990600  1.0  0.1175
  H  H209  1  0.528300  0.072500  0.874700  1.0  0.0803
  H  H210  1  0.682800  0.163800  0.708500  1.0  0.1236
  H  H211  1  0.777300  0.161600  0.735300  1.0  0.1183
  H  H212  1  0.611700  0.097300  0.658800  1.0  0.1144
  H  H213  1  0.656400  0.047900  0.645200  1.0  0.1084
  H  H214  1  0.630100  0.063500  0.730900  1.0  0.1151
  H  H215  1  0.686600  0.021400  0.021600  1.0  0.0734
  H  H216  1  0.487500  0.998400  0.837700  1.0  0.1409
  H  H217  1  0.535600  0.913600  0.828300  1.0  0.1056
  H  H218  1  0.476400  0.911600  0.902400  1.0  0.109
  H  H219  1  0.638000  0.791600  0.880000  1.0  0.1276
  H  H220  1  0.568700  0.800700  0.104100  1.0  0.1384
  H  H221  1  0.613500  0.724700  0.120500  1.0  0.0857
  H  H222  1  0.682600  0.716000  0.903500  1.0  0.0758
  H  H223  1  0.770000  0.056200  0.785500  1.0  0.1162
  H  H224  1  0.804100  0.036700  0.704500  1.0  0.1109
  H  H225  1  0.847100  0.081200  0.744500  1.0  0.1191
  H  H226  1  0.870900  0.368900  0.605500  1.0  0.268
  H  H227  1  0.849200  0.444800  0.509400  1.0  0.1172
  H  H228  1  0.971700  0.572500  0.625300  1.0  0.0796
  H  H229  1  0.817200  0.663800  0.791500  1.0  0.1227
  H  H230  1  0.722700  0.661600  0.764700  1.0  0.1204
  H  H231  1  0.888300  0.597300  0.841200  1.0  0.1143
  H  H232  1  0.843600  0.547900  0.854800  1.0  0.1086
  H  H233  1  0.869900  0.563500  0.769100  1.0  0.1155
  H  H234  1  0.813400  0.521400  0.478400  1.0  0.0733
  H  H235  1  0.012500  0.498400  0.662300  1.0  0.1412
  H  H236  1  0.964400  0.413600  0.671700  1.0  0.1049
  H  H237  1  0.023600  0.411600  0.597600  1.0  0.1093
  H  H238  1  0.862000  0.291600  0.620000  1.0  0.1277
  H  H239  1  0.931300  0.300700  0.395900  1.0  0.1385
  H  H240  1  0.886500  0.224700  0.379500  1.0  0.0859
  H  H241  1  0.817400  0.216000  0.596500  1.0  0.0762
  H  H242  1  0.730000  0.556200  0.714500  1.0  0.1161
  H  H243  1  0.695900  0.536700  0.795500  1.0  0.1117
  H  H244  1  0.652900  0.581200  0.755500  1.0  0.1184
  H  H245  1  0.129100  0.868900  0.105500  1.0  0.2694
  H  H246  1  0.150800  0.944800  0.009400  1.0  0.1173
  H  H247  1  0.028300  0.072500  0.125300  1.0  0.0799
  H  H248  1  0.182800  0.163800  0.291500  1.0  0.1231
  H  H249  1  0.277300  0.161600  0.264700  1.0  0.1186
  H  H250  1  0.111700  0.097300  0.341200  1.0  0.1144
  H  H251  1  0.156400  0.047900  0.354800  1.0  0.1089
  H  H252  1  0.130100  0.063500  0.269100  1.0  0.1148
  H  H253  1  0.186600  0.021400  0.978400  1.0  0.0732
  H  H254  1  0.987500  0.998400  0.162300  1.0  0.141
  H  H255  1  0.035600  0.913600  0.171700  1.0  0.1049
  H  H256  1  0.976400  0.911600  0.097600  1.0  0.1095
  H  H257  1  0.138000  0.791600  0.120000  1.0  0.1279
  H  H258  1  0.068700  0.800700  0.895900  1.0  0.1387
  H  H259  1  0.113500  0.724700  0.879500  1.0  0.0858
  H  H260  1  0.182600  0.716000  0.096500  1.0  0.0759
  H  H261  1  0.270000  0.056200  0.214500  1.0  0.1161
  H  H262  1  0.304100  0.036700  0.295500  1.0  0.112
  H  H263  1  0.347100  0.081200  0.255500  1.0  0.119
  H  H264  1  0.370900  0.368900  0.394500  1.0  0.2681
  H  H265  1  0.349200  0.444800  0.490600  1.0  0.1174
  H  H266  1  0.471700  0.572500  0.374700  1.0  0.08
  H  H267  1  0.317200  0.663800  0.208500  1.0  0.1229
  H  H268  1  0.222700  0.661600  0.235300  1.0  0.1202
  H  H269  1  0.388300  0.597300  0.158800  1.0  0.114
  H  H270  1  0.343600  0.547900  0.145200  1.0  0.1082
  H  H271  1  0.369900  0.563500  0.230900  1.0  0.1151
  H  H272  1  0.313400  0.521400  0.521600  1.0  0.0732
  H  H273  1  0.512500  0.498400  0.337700  1.0  0.141
  H  H274  1  0.464400  0.413600  0.328300  1.0  0.1051
  H  H275  1  0.523600  0.411600  0.402400  1.0  0.109
  H  H276  1  0.362000  0.291600  0.380000  1.0  0.1276
  H  H277  1  0.431300  0.300700  0.604100  1.0  0.1382
  H  H278  1  0.386500  0.224700  0.620500  1.0  0.086
  H  H279  1  0.317400  0.216000  0.403500  1.0  0.0759
  H  H280  1  0.230000  0.556200  0.285500  1.0  0.1168
  H  H281  1  0.195900  0.536700  0.204500  1.0  0.1111
  H  H282  1  0.152900  0.581200  0.244500  1.0  0.1185
  H  H283  1  0.129100  0.368900  0.894500  1.0  0.2697
  H  H284  1  0.150800  0.444800  0.990600  1.0  0.1175
  H  H285  1  0.028300  0.572500  0.874700  1.0  0.0803
  H  H286  1  0.182800  0.663800  0.708500  1.0  0.1236
  H  H287  1  0.277300  0.661600  0.735300  1.0  0.1183
  H  H288  1  0.111700  0.597300  0.658800  1.0  0.1144
  H  H289  1  0.156400  0.547900  0.645200  1.0  0.1084
  H  H290  1  0.130100  0.563500  0.730900  1.0  0.1151
  H  H291  1  0.186600  0.521400  0.021600  1.0  0.0734
  H  H292  1  0.987500  0.498400  0.837700  1.0  0.1409
  H  H293  1  0.035600  0.413600  0.828300  1.0  0.1056
  H  H294  1  0.976400  0.411600  0.902400  1.0  0.109
  H  H295  1  0.138000  0.291600  0.880000  1.0  0.1276
  H  H296  1  0.068700  0.300700  0.104100  1.0  0.1384
  H  H297  1  0.113500  0.224700  0.120500  1.0  0.0857
  H  H298  1  0.182600  0.216000  0.903500  1.0  0.0758
  H  H299  1  0.270000  0.556200  0.785500  1.0  0.1162
  H  H300  1  0.304100  0.536700  0.704500  1.0  0.1109
  H  H301  1  0.347100  0.581200  0.744500  1.0  0.1191
  H  H302  1  0.370900  0.868900  0.605500  1.0  0.268
  H  H303  1  0.349200  0.944800  0.509400  1.0  0.1172
  H  H304  1  0.471700  0.072500  0.625300  1.0  0.0796
  H  H305  1  0.317200  0.163800  0.791500  1.0  0.1227
  H  H306  1  0.222700  0.161600  0.764700  1.0  0.1204
  H  H307  1  0.388300  0.097300  0.841200  1.0  0.1143
  H  H308  1  0.343600  0.047900  0.854800  1.0  0.1086
  H  H309  1  0.369900  0.063500  0.769100  1.0  0.1155
  H  H310  1  0.313400  0.021400  0.478400  1.0  0.0733
  H  H311  1  0.512500  0.998400  0.662300  1.0  0.1412
  H  H312  1  0.464400  0.913600  0.671700  1.0  0.1049
  H  H313  1  0.523600  0.911600  0.597600  1.0  0.1093
  H  H314  1  0.362000  0.791600  0.620000  1.0  0.1277
  H  H315  1  0.431300  0.800700  0.395900  1.0  0.1385
  H  H316  1  0.386500  0.724700  0.379500  1.0  0.0859
  H  H317  1  0.317400  0.716000  0.596500  1.0  0.0762
  H  H318  1  0.230000  0.056200  0.714500  1.0  0.1161
  H  H319  1  0.195900  0.036700  0.795500  1.0  0.1117
  H  H320  1  0.152900  0.081200  0.755500  1.0  0.1184
  C  C321  1  0.875600  0.529600  0.034700  1.0  -0.2182
  C  C322  1  0.945900  0.453900  0.101700  1.0  0.1702
  C  C323  1  0.935400  0.537200  0.089700  1.0  0.1306
  C  C324  1  0.803100  0.361900  0.180300  1.0  0.7374
  C  C325  1  0.775800  0.355700  0.264000  1.0  -0.3086
  C  C326  1  0.765000  0.401900  0.308100  1.0  0.0712
  C  C327  1  0.849300  0.425400  0.319300  1.0  -0.3606
  C  C328  1  0.854600  0.483400  0.016800  1.0  0.1833
  C  C329  1  0.970900  0.498000  0.123800  1.0  -0.2127
  C  C330  1  0.904500  0.696200  0.011400  1.0  0.0041
  C  C331  1  0.965400  0.584900  0.114300  1.0  -0.1007
  C  C332  1  0.946100  0.649900  0.025300  1.0  0.5755
  C  C333  1  0.868700  0.721800  0.069900  1.0  -0.1717
  C  C334  1  0.909500  0.716400  0.938600  1.0  -0.1877
  C  C335  1  0.882500  0.761500  0.929500  1.0  0.1802
  C  C336  1  0.842500  0.766800  0.055600  1.0  0.1748
  C  C337  1  0.705500  0.435000  0.264400  1.0  -0.3399
  C  C338  1  0.725500  0.388400  0.385800  1.0  0.6546
  C  C339  1  0.624400  0.029600  0.465300  1.0  -0.2174
  C  C340  1  0.554100  0.953900  0.398300  1.0  0.1701
  C  C341  1  0.564600  0.037200  0.410300  1.0  0.131
  C  C342  1  0.696900  0.861900  0.319700  1.0  0.7364
  C  C343  1  0.724200  0.855700  0.236000  1.0  -0.3072
  C  C344  1  0.735000  0.901900  0.191900  1.0  0.0708
  C  C345  1  0.650700  0.925400  0.180700  1.0  -0.3609
  C  C346  1  0.645400  0.983400  0.483200  1.0  0.1844
  C  C347  1  0.529100  0.998000  0.376200  1.0  -0.2121
  C  C348  1  0.595500  0.196200  0.488600  1.0  0.0046
  C  C349  1  0.534600  0.084900  0.385700  1.0  -0.101
  C  C350  1  0.553900  0.149900  0.474700  1.0  0.5746
  C  C351  1  0.631300  0.221800  0.430100  1.0  -0.1715
  C  C352  1  0.590500  0.216400  0.561400  1.0  -0.1867
  C  C353  1  0.617500  0.261500  0.570500  1.0  0.1797
  C  C354  1  0.657500  0.266800  0.444400  1.0  0.1751
  C  C355  1  0.794500  0.935000  0.235600  1.0  -0.3407
  C  C356  1  0.774500  0.888400  0.114200  1.0  0.6558
  C  C357  1  0.875600  0.029600  0.965300  1.0  -0.218
  C  C358  1  0.945900  0.953900  0.898300  1.0  0.1699
  C  C359  1  0.935400  0.037200  0.910300  1.0  0.1307
  C  C360  1  0.803100  0.861900  0.819700  1.0  0.7364
  C  C361  1  0.775800  0.855700  0.736000  1.0  -0.308
  C  C362  1  0.765000  0.901900  0.691900  1.0  0.0712
  C  C363  1  0.849300  0.925400  0.680700  1.0  -0.3601
  C  C364  1  0.854600  0.983400  0.983200  1.0  0.1843
  C  C365  1  0.970900  0.998000  0.876200  1.0  -0.2113
  C  C366  1  0.904500  0.196200  0.988600  1.0  0.0042
  C  C367  1  0.965400  0.084900  0.885700  1.0  -0.1015
  C  C368  1  0.946100  0.149900  0.974700  1.0  0.575
  C  C369  1  0.868700  0.221800  0.930100  1.0  -0.1722
  C  C370  1  0.909500  0.216400  0.061400  1.0  -0.1867
  C  C371  1  0.882500  0.261500  0.070500  1.0  0.1799
  C  C372  1  0.842500  0.266800  0.944400  1.0  0.1748
  C  C373  1  0.705500  0.935000  0.735600  1.0  -0.3404
  C  C374  1  0.725500  0.888400  0.614200  1.0  0.6563
  C  C375  1  0.624400  0.529600  0.534700  1.0  -0.2178
  C  C376  1  0.554100  0.453900  0.601700  1.0  0.1702
  C  C377  1  0.564600  0.537200  0.589700  1.0  0.1308
  C  C378  1  0.696900  0.361900  0.680300  1.0  0.7382
  C  C379  1  0.724200  0.355700  0.764000  1.0  -0.3077
  C  C380  1  0.735000  0.401900  0.808100  1.0  0.0707
  C  C381  1  0.650700  0.425400  0.819300  1.0  -0.3615
  C  C382  1  0.645400  0.483400  0.516800  1.0  0.1834
  C  C383  1  0.529100  0.498000  0.623800  1.0  -0.2133
  C  C384  1  0.595500  0.696200  0.511400  1.0  0.0045
  C  C385  1  0.534600  0.584900  0.614300  1.0  -0.101
  C  C386  1  0.553900  0.649900  0.525300  1.0  0.575
  C  C387  1  0.631300  0.721800  0.569900  1.0  -0.1716
  C  C388  1  0.590500  0.716400  0.438600  1.0  -0.187
  C  C389  1  0.617500  0.761500  0.429500  1.0  0.1801
  C  C390  1  0.657500  0.766800  0.555600  1.0  0.1751
  C  C391  1  0.794500  0.435000  0.764400  1.0  -0.3407
  C  C392  1  0.774500  0.388400  0.885800  1.0  0.6546
  C  C393  1  0.375600  0.029600  0.034700  1.0  -0.2182
  C  C394  1  0.445900  0.953900  0.101700  1.0  0.1702
  C  C395  1  0.435400  0.037200  0.089700  1.0  0.1306
  C  C396  1  0.303100  0.861900  0.180300  1.0  0.7374
  C  C397  1  0.275800  0.855700  0.264000  1.0  -0.3086
  C  C398  1  0.265000  0.901900  0.308100  1.0  0.0712
  C  C399  1  0.349300  0.925400  0.319300  1.0  -0.3606
  C  C400  1  0.354600  0.983400  0.016800  1.0  0.1833
  C  C401  1  0.470900  0.998000  0.123800  1.0  -0.2127
  C  C402  1  0.404500  0.196200  0.011400  1.0  0.0041
  C  C403  1  0.465400  0.084900  0.114300  1.0  -0.1007
  C  C404  1  0.446100  0.149900  0.025300  1.0  0.5755
  C  C405  1  0.368700  0.221800  0.069900  1.0  -0.1717
  C  C406  1  0.409500  0.216400  0.938600  1.0  -0.1877
  C  C407  1  0.382500  0.261500  0.929500  1.0  0.1802
  C  C408  1  0.342500  0.266800  0.055600  1.0  0.1748
  C  C409  1  0.205500  0.935000  0.264400  1.0  -0.3399
  C  C410  1  0.225500  0.888400  0.385800  1.0  0.6546
  C  C411  1  0.124400  0.529600  0.465300  1.0  -0.2174
  C  C412  1  0.054100  0.453900  0.398300  1.0  0.1701
  C  C413  1  0.064600  0.537200  0.410300  1.0  0.131
  C  C414  1  0.196900  0.361900  0.319700  1.0  0.7364
  C  C415  1  0.224200  0.355700  0.236000  1.0  -0.3072
  C  C416  1  0.235000  0.401900  0.191900  1.0  0.0708
  C  C417  1  0.150700  0.425400  0.180700  1.0  -0.3609
  C  C418  1  0.145400  0.483400  0.483200  1.0  0.1844
  C  C419  1  0.029100  0.498000  0.376200  1.0  -0.2121
  C  C420  1  0.095500  0.696200  0.488600  1.0  0.0046
  C  C421  1  0.034600  0.584900  0.385700  1.0  -0.101
  C  C422  1  0.053900  0.649900  0.474700  1.0  0.5746
  C  C423  1  0.131300  0.721800  0.430100  1.0  -0.1715
  C  C424  1  0.090500  0.716400  0.561400  1.0  -0.1867
  C  C425  1  0.117500  0.761500  0.570500  1.0  0.1797
  C  C426  1  0.157500  0.766800  0.444400  1.0  0.1751
  C  C427  1  0.294500  0.435000  0.235600  1.0  -0.3407
  C  C428  1  0.274500  0.388400  0.114200  1.0  0.6558
  C  C429  1  0.375600  0.529600  0.965300  1.0  -0.218
  C  C430  1  0.445900  0.453900  0.898300  1.0  0.1699
  C  C431  1  0.435400  0.537200  0.910300  1.0  0.1307
  C  C432  1  0.303100  0.361900  0.819700  1.0  0.7364
  C  C433  1  0.275800  0.355700  0.736000  1.0  -0.308
  C  C434  1  0.265000  0.401900  0.691900  1.0  0.0712
  C  C435  1  0.349300  0.425400  0.680700  1.0  -0.3601
  C  C436  1  0.354600  0.483400  0.983200  1.0  0.1843
  C  C437  1  0.470900  0.498000  0.876200  1.0  -0.2113
  C  C438  1  0.404500  0.696200  0.988600  1.0  0.0042
  C  C439  1  0.465400  0.584900  0.885700  1.0  -0.1015
  C  C440  1  0.446100  0.649900  0.974700  1.0  0.575
  C  C441  1  0.368700  0.721800  0.930100  1.0  -0.1722
  C  C442  1  0.409500  0.716400  0.061400  1.0  -0.1867
  C  C443  1  0.382500  0.761500  0.070500  1.0  0.1799
  C  C444  1  0.342500  0.766800  0.944400  1.0  0.1748
  C  C445  1  0.205500  0.435000  0.735600  1.0  -0.3404
  C  C446  1  0.225500  0.388400  0.614200  1.0  0.6563
  C  C447  1  0.124400  0.029600  0.534700  1.0  -0.2178
  C  C448  1  0.054100  0.953900  0.601700  1.0  0.1702
  C  C449  1  0.064600  0.037200  0.589700  1.0  0.1308
  C  C450  1  0.196900  0.861900  0.680300  1.0  0.7382
  C  C451  1  0.224200  0.855700  0.764000  1.0  -0.3077
  C  C452  1  0.235000  0.901900  0.808100  1.0  0.0707
  C  C453  1  0.150700  0.925400  0.819300  1.0  -0.3615
  C  C454  1  0.145400  0.983400  0.516800  1.0  0.1834
  C  C455  1  0.029100  0.998000  0.623800  1.0  -0.2133
  C  C456  1  0.095500  0.196200  0.511400  1.0  0.0045
  C  C457  1  0.034600  0.084900  0.614300  1.0  -0.101
  C  C458  1  0.053900  0.149900  0.525300  1.0  0.575
  C  C459  1  0.131300  0.221800  0.569900  1.0  -0.1716
  C  C460  1  0.090500  0.216400  0.438600  1.0  -0.187
  C  C461  1  0.117500  0.261500  0.429500  1.0  0.1801
  C  C462  1  0.157500  0.266800  0.555600  1.0  0.1751
  C  C463  1  0.294500  0.935000  0.764400  1.0  -0.3407
  C  C464  1  0.274500  0.888400  0.885800  1.0  0.6546
  C  C465  1  0.624400  0.470400  0.034700  1.0  -0.218
  C  C466  1  0.554100  0.546100  0.101700  1.0  0.1701
  C  C467  1  0.564600  0.462800  0.089700  1.0  0.131
  C  C468  1  0.696900  0.638100  0.180300  1.0  0.7368
  C  C469  1  0.724200  0.644300  0.264000  1.0  -0.3085
  C  C470  1  0.735000  0.598100  0.308100  1.0  0.0703
  C  C471  1  0.650700  0.574600  0.319300  1.0  -0.3612
  C  C472  1  0.645400  0.516600  0.016800  1.0  0.1834
  C  C473  1  0.529100  0.502000  0.123800  1.0  -0.2132
  C  C474  1  0.595500  0.303800  0.011400  1.0  0.0056
  C  C475  1  0.534600  0.415100  0.114300  1.0  -0.1007
  C  C476  1  0.553900  0.350100  0.025300  1.0  0.5755
  C  C477  1  0.631300  0.278200  0.069900  1.0  -0.1718
  C  C478  1  0.590500  0.283600  0.938600  1.0  -0.1868
  C  C479  1  0.617500  0.238500  0.929500  1.0  0.1797
  C  C480  1  0.657500  0.233200  0.055600  1.0  0.1751
  C  C481  1  0.794500  0.565000  0.264400  1.0  -0.341
  C  C482  1  0.774500  0.611600  0.385800  1.0  0.655
  C  C483  1  0.875600  0.970400  0.465300  1.0  -0.2183
  C  C484  1  0.945900  0.046100  0.398300  1.0  0.1704
  C  C485  1  0.935400  0.962800  0.410300  1.0  0.1309
  C  C486  1  0.803100  0.138100  0.319700  1.0  0.7354
  C  C487  1  0.775800  0.144300  0.236000  1.0  -0.3087
  C  C488  1  0.765000  0.098100  0.191900  1.0  0.0712
  C  C489  1  0.849300  0.074600  0.180700  1.0  -0.3607
  C  C490  1  0.854600  0.016600  0.483200  1.0  0.184
  C  C491  1  0.970900  0.002000  0.376200  1.0  -0.2113
  C  C492  1  0.904500  0.803800  0.488600  1.0  0.005
  C  C493  1  0.965400  0.915100  0.385700  1.0  -0.101
  C  C494  1  0.946100  0.850100  0.474700  1.0  0.5755
  C  C495  1  0.868700  0.778200  0.430100  1.0  -0.1719
  C  C496  1  0.909500  0.783600  0.561400  1.0  -0.1863
  C  C497  1  0.882500  0.738500  0.570500  1.0  0.1801
  C  C498  1  0.842500  0.733200  0.444400  1.0  0.1747
  C  C499  1  0.705500  0.065000  0.235600  1.0  -0.3404
  C  C500  1  0.725500  0.111600  0.114200  1.0  0.6561
  C  C501  1  0.624400  0.970400  0.965300  1.0  -0.2177
  C  C502  1  0.554100  0.046100  0.898300  1.0  0.1703
  C  C503  1  0.564600  0.962800  0.910300  1.0  0.1312
  C  C504  1  0.696900  0.138100  0.819700  1.0  0.7348
  C  C505  1  0.724200  0.144300  0.736000  1.0  -0.3078
  C  C506  1  0.735000  0.098100  0.691900  1.0  0.0709
  C  C507  1  0.650700  0.074600  0.680700  1.0  -0.3606
  C  C508  1  0.645400  0.016600  0.983200  1.0  0.1841
  C  C509  1  0.529100  0.002000  0.876200  1.0  -0.2122
  C  C510  1  0.595500  0.803800  0.988600  1.0  0.0057
  C  C511  1  0.534600  0.915100  0.885700  1.0  -0.1006
  C  C512  1  0.553900  0.850100  0.974700  1.0  0.5758
  C  C513  1  0.631300  0.778200  0.930100  1.0  -0.1713
  C  C514  1  0.590500  0.783600  0.061400  1.0  -0.1862
  C  C515  1  0.617500  0.738500  0.070500  1.0  0.18
  C  C516  1  0.657500  0.733200  0.944400  1.0  0.1749
  C  C517  1  0.794500  0.065000  0.735600  1.0  -0.3411
  C  C518  1  0.774500  0.111600  0.614200  1.0  0.6554
  C  C519  1  0.875600  0.470400  0.534700  1.0  -0.2185
  C  C520  1  0.945900  0.546100  0.601700  1.0  0.1703
  C  C521  1  0.935400  0.462800  0.589700  1.0  0.1307
  C  C522  1  0.803100  0.638100  0.680300  1.0  0.7365
  C  C523  1  0.775800  0.644300  0.764000  1.0  -0.3094
  C  C524  1  0.765000  0.598100  0.808100  1.0  0.0706
  C  C525  1  0.849300  0.574600  0.819300  1.0  -0.3612
  C  C526  1  0.854600  0.516600  0.516800  1.0  0.1833
  C  C527  1  0.970900  0.502000  0.623800  1.0  -0.2125
  C  C528  1  0.904500  0.303800  0.511400  1.0  0.0048
  C  C529  1  0.965400  0.415100  0.614300  1.0  -0.1007
  C  C530  1  0.946100  0.350100  0.525300  1.0  0.5756
  C  C531  1  0.868700  0.278200  0.569900  1.0  -0.1721
  C  C532  1  0.909500  0.283600  0.438600  1.0  -0.1873
  C  C533  1  0.882500  0.238500  0.429500  1.0  0.1796
  C  C534  1  0.842500  0.233200  0.555600  1.0  0.1749
  C  C535  1  0.705500  0.565000  0.764400  1.0  -0.34
  C  C536  1  0.725500  0.611600  0.885800  1.0  0.6549
  C  C537  1  0.124400  0.970400  0.034700  1.0  -0.218
  C  C538  1  0.054100  0.046100  0.101700  1.0  0.1701
  C  C539  1  0.064600  0.962800  0.089700  1.0  0.131
  C  C540  1  0.196900  0.138100  0.180300  1.0  0.7368
  C  C541  1  0.224200  0.144300  0.264000  1.0  -0.3085
  C  C542  1  0.235000  0.098100  0.308100  1.0  0.0703
  C  C543  1  0.150700  0.074600  0.319300  1.0  -0.3612
  C  C544  1  0.145400  0.016600  0.016800  1.0  0.1834
  C  C545  1  0.029100  0.002000  0.123800  1.0  -0.2132
  C  C546  1  0.095500  0.803800  0.011400  1.0  0.0056
  C  C547  1  0.034600  0.915100  0.114300  1.0  -0.1007
  C  C548  1  0.053900  0.850100  0.025300  1.0  0.5755
  C  C549  1  0.131300  0.778200  0.069900  1.0  -0.1718
  C  C550  1  0.090500  0.783600  0.938600  1.0  -0.1868
  C  C551  1  0.117500  0.738500  0.929500  1.0  0.1797
  C  C552  1  0.157500  0.733200  0.055600  1.0  0.1751
  C  C553  1  0.294500  0.065000  0.264400  1.0  -0.341
  C  C554  1  0.274500  0.111600  0.385800  1.0  0.655
  C  C555  1  0.375600  0.470400  0.465300  1.0  -0.2183
  C  C556  1  0.445900  0.546100  0.398300  1.0  0.1704
  C  C557  1  0.435400  0.462800  0.410300  1.0  0.1309
  C  C558  1  0.303100  0.638100  0.319700  1.0  0.7354
  C  C559  1  0.275800  0.644300  0.236000  1.0  -0.3087
  C  C560  1  0.265000  0.598100  0.191900  1.0  0.0712
  C  C561  1  0.349300  0.574600  0.180700  1.0  -0.3607
  C  C562  1  0.354600  0.516600  0.483200  1.0  0.184
  C  C563  1  0.470900  0.502000  0.376200  1.0  -0.2113
  C  C564  1  0.404500  0.303800  0.488600  1.0  0.005
  C  C565  1  0.465400  0.415100  0.385700  1.0  -0.101
  C  C566  1  0.446100  0.350100  0.474700  1.0  0.5755
  C  C567  1  0.368700  0.278200  0.430100  1.0  -0.1719
  C  C568  1  0.409500  0.283600  0.561400  1.0  -0.1863
  C  C569  1  0.382500  0.238500  0.570500  1.0  0.1801
  C  C570  1  0.342500  0.233200  0.444400  1.0  0.1747
  C  C571  1  0.205500  0.565000  0.235600  1.0  -0.3404
  C  C572  1  0.225500  0.611600  0.114200  1.0  0.6561
  C  C573  1  0.124400  0.470400  0.965300  1.0  -0.2177
  C  C574  1  0.054100  0.546100  0.898300  1.0  0.1703
  C  C575  1  0.064600  0.462800  0.910300  1.0  0.1312
  C  C576  1  0.196900  0.638100  0.819700  1.0  0.7348
  C  C577  1  0.224200  0.644300  0.736000  1.0  -0.3078
  C  C578  1  0.235000  0.598100  0.691900  1.0  0.0709
  C  C579  1  0.150700  0.574600  0.680700  1.0  -0.3606
  C  C580  1  0.145400  0.516600  0.983200  1.0  0.1841
  C  C581  1  0.029100  0.502000  0.876200  1.0  -0.2122
  C  C582  1  0.095500  0.303800  0.988600  1.0  0.0057
  C  C583  1  0.034600  0.415100  0.885700  1.0  -0.1006
  C  C584  1  0.053900  0.350100  0.974700  1.0  0.5758
  C  C585  1  0.131300  0.278200  0.930100  1.0  -0.1713
  C  C586  1  0.090500  0.283600  0.061400  1.0  -0.1862
  C  C587  1  0.117500  0.238500  0.070500  1.0  0.18
  C  C588  1  0.157500  0.233200  0.944400  1.0  0.1749
  C  C589  1  0.294500  0.565000  0.735600  1.0  -0.3411
  C  C590  1  0.274500  0.611600  0.614200  1.0  0.6554
  C  C591  1  0.375600  0.970400  0.534700  1.0  -0.2185
  C  C592  1  0.445900  0.046100  0.601700  1.0  0.1703
  C  C593  1  0.435400  0.962800  0.589700  1.0  0.1307
  C  C594  1  0.303100  0.138100  0.680300  1.0  0.7365
  C  C595  1  0.275800  0.144300  0.764000  1.0  -0.3094
  C  C596  1  0.265000  0.098100  0.808100  1.0  0.0706
  C  C597  1  0.349300  0.074600  0.819300  1.0  -0.3612
  C  C598  1  0.354600  0.016600  0.516800  1.0  0.1833
  C  C599  1  0.470900  0.002000  0.623800  1.0  -0.2125
  C  C600  1  0.404500  0.803800  0.511400  1.0  0.0048
  C  C601  1  0.465400  0.915100  0.614300  1.0  -0.1007
  C  C602  1  0.446100  0.850100  0.525300  1.0  0.5756
  C  C603  1  0.368700  0.778200  0.569900  1.0  -0.1721
  C  C604  1  0.409500  0.783600  0.438600  1.0  -0.1873
  C  C605  1  0.382500  0.738500  0.429500  1.0  0.1796
  C  C606  1  0.342500  0.733200  0.555600  1.0  0.1749
  C  C607  1  0.205500  0.065000  0.764400  1.0  -0.34
  C  C608  1  0.225500  0.111600  0.885800  1.0  0.6549
  N  N609  1  0.887500  0.445890  0.049000  1.0  -0.3574
  N  N610  1  0.918800  0.624060  0.084200  1.0  -0.387
  N  N611  1  0.850800  0.787130  0.986800  1.0  -0.3526
  N  N612  1  0.612500  0.945890  0.451000  1.0  -0.3563
  N  N613  1  0.581200  0.124060  0.415800  1.0  -0.3887
  N  N614  1  0.649200  0.287130  0.513200  1.0  -0.3524
  N  N615  1  0.887500  0.945890  0.951000  1.0  -0.3571
  N  N616  1  0.918800  0.124060  0.915800  1.0  -0.3881
  N  N617  1  0.850800  0.287130  0.013200  1.0  -0.3527
  N  N618  1  0.612500  0.445890  0.549000  1.0  -0.3566
  N  N619  1  0.581200  0.624060  0.584200  1.0  -0.3874
  N  N620  1  0.649200  0.787130  0.486800  1.0  -0.3522
  N  N621  1  0.387500  0.945890  0.049000  1.0  -0.3574
  N  N622  1  0.418800  0.124060  0.084200  1.0  -0.387
  N  N623  1  0.350800  0.287130  0.986800  1.0  -0.3526
  N  N624  1  0.112500  0.445890  0.451000  1.0  -0.3563
  N  N625  1  0.081200  0.624060  0.415800  1.0  -0.3887
  N  N626  1  0.149200  0.787130  0.513200  1.0  -0.3524
  N  N627  1  0.387500  0.445890  0.951000  1.0  -0.3571
  N  N628  1  0.418800  0.624060  0.915800  1.0  -0.3881
  N  N629  1  0.350800  0.787130  0.013200  1.0  -0.3527
  N  N630  1  0.112500  0.945890  0.549000  1.0  -0.3566
  N  N631  1  0.081200  0.124060  0.584200  1.0  -0.3874
  N  N632  1  0.149200  0.287130  0.486800  1.0  -0.3522
  N  N633  1  0.612500  0.554110  0.049000  1.0  -0.3569
  N  N634  1  0.581200  0.375940  0.084200  1.0  -0.388
  N  N635  1  0.649200  0.212870  0.986800  1.0  -0.3514
  N  N636  1  0.887500  0.054110  0.451000  1.0  -0.3571
  N  N637  1  0.918800  0.875940  0.415800  1.0  -0.388
  N  N638  1  0.850800  0.712870  0.513200  1.0  -0.3524
  N  N639  1  0.612500  0.054110  0.951000  1.0  -0.3567
  N  N640  1  0.581200  0.875940  0.915800  1.0  -0.3892
  N  N641  1  0.649200  0.712870  0.013200  1.0  -0.3516
  N  N642  1  0.887500  0.554110  0.549000  1.0  -0.3572
  N  N643  1  0.918800  0.375940  0.584200  1.0  -0.387
  N  N644  1  0.850800  0.212870  0.486800  1.0  -0.3523
  N  N645  1  0.112500  0.054110  0.049000  1.0  -0.3569
  N  N646  1  0.081200  0.875940  0.084200  1.0  -0.388
  N  N647  1  0.149200  0.712870  0.986800  1.0  -0.3514
  N  N648  1  0.387500  0.554110  0.451000  1.0  -0.3571
  N  N649  1  0.418800  0.375940  0.415800  1.0  -0.388
  N  N650  1  0.350800  0.212870  0.513200  1.0  -0.3524
  N  N651  1  0.112500  0.554110  0.951000  1.0  -0.3567
  N  N652  1  0.081200  0.375940  0.915800  1.0  -0.3892
  N  N653  1  0.149200  0.212870  0.013200  1.0  -0.3516
  N  N654  1  0.387500  0.054110  0.549000  1.0  -0.3572
  N  N655  1  0.418800  0.875940  0.584200  1.0  -0.387
  N  N656  1  0.350800  0.712870  0.486800  1.0  -0.3523
  O  O657  1  0.878400  0.360450  0.163700  1.0  -0.6381
  O  O658  1  0.749300  0.367780  0.128800  1.0  -0.6189
  O  O659  1  0.765500  0.392820  0.446700  1.0  -0.5958
  O  O660  1  0.005800  0.638920  0.984900  1.0  -0.6138
  O  O661  1  0.653000  0.373330  0.387600  1.0  -0.6328
  O  O662  1  0.621600  0.860450  0.336300  1.0  -0.6387
  O  O663  1  0.750700  0.867780  0.371200  1.0  -0.6202
  O  O664  1  0.734500  0.892820  0.053300  1.0  -0.5958
  O  O665  1  0.494200  0.138920  0.515100  1.0  -0.614
  O  O666  1  0.847000  0.873330  0.112400  1.0  -0.6326
  O  O667  1  0.878400  0.860450  0.836300  1.0  -0.6385
  O  O668  1  0.749300  0.867780  0.871200  1.0  -0.6194
  O  O669  1  0.765500  0.892820  0.553300  1.0  -0.5963
  O  O670  1  0.005800  0.138920  0.015100  1.0  -0.614
  O  O671  1  0.653000  0.873330  0.612400  1.0  -0.6331
  O  O672  1  0.621600  0.360450  0.663700  1.0  -0.6389
  O  O673  1  0.750700  0.367780  0.628800  1.0  -0.6197
  O  O674  1  0.734500  0.392820  0.946700  1.0  -0.5956
  O  O675  1  0.494200  0.638920  0.484900  1.0  -0.6139
  O  O676  1  0.847000  0.373330  0.887600  1.0  -0.6323
  O  O677  1  0.378400  0.860450  0.163700  1.0  -0.6381
  O  O678  1  0.249300  0.867780  0.128800  1.0  -0.6189
  O  O679  1  0.265500  0.892820  0.446700  1.0  -0.5958
  O  O680  1  0.505800  0.138920  0.984900  1.0  -0.6138
  O  O681  1  0.153000  0.873330  0.387600  1.0  -0.6328
  O  O682  1  0.121600  0.360450  0.336300  1.0  -0.6387
  O  O683  1  0.250700  0.367780  0.371200  1.0  -0.6202
  O  O684  1  0.234500  0.392820  0.053300  1.0  -0.5958
  O  O685  1  0.994200  0.638920  0.515100  1.0  -0.614
  O  O686  1  0.347000  0.373330  0.112400  1.0  -0.6326
  O  O687  1  0.378400  0.360450  0.836300  1.0  -0.6385
  O  O688  1  0.249300  0.367780  0.871200  1.0  -0.6194
  O  O689  1  0.265500  0.392820  0.553300  1.0  -0.5963
  O  O690  1  0.505800  0.638920  0.015100  1.0  -0.614
  O  O691  1  0.153000  0.373330  0.612400  1.0  -0.6331
  O  O692  1  0.121600  0.860450  0.663700  1.0  -0.6389
  O  O693  1  0.250700  0.867780  0.628800  1.0  -0.6197
  O  O694  1  0.234500  0.892820  0.946700  1.0  -0.5956
  O  O695  1  0.994200  0.138920  0.484900  1.0  -0.6139
  O  O696  1  0.347000  0.873330  0.887600  1.0  -0.6323
  O  O697  1  0.621600  0.639550  0.163700  1.0  -0.6388
  O  O698  1  0.750700  0.632220  0.128800  1.0  -0.619
  O  O699  1  0.734500  0.607180  0.446700  1.0  -0.5961
  O  O700  1  0.494200  0.361080  0.984900  1.0  -0.6141
  O  O701  1  0.847000  0.626670  0.387600  1.0  -0.6315
  O  O702  1  0.878400  0.139550  0.336300  1.0  -0.6383
  O  O703  1  0.749300  0.132220  0.371200  1.0  -0.6187
  O  O704  1  0.765500  0.107180  0.053300  1.0  -0.5961
  O  O705  1  0.005800  0.861080  0.515100  1.0  -0.6138
  O  O706  1  0.653000  0.126670  0.112400  1.0  -0.6327
  O  O707  1  0.621600  0.139550  0.836300  1.0  -0.639
  O  O708  1  0.750700  0.132220  0.871200  1.0  -0.6198
  O  O709  1  0.734500  0.107180  0.553300  1.0  -0.5956
  O  O710  1  0.494200  0.861080  0.015100  1.0  -0.6137
  O  O711  1  0.847000  0.126670  0.612400  1.0  -0.6318
  O  O712  1  0.878400  0.639550  0.663700  1.0  -0.6384
  O  O713  1  0.749300  0.632220  0.628800  1.0  -0.6178
  O  O714  1  0.765500  0.607180  0.946700  1.0  -0.5962
  O  O715  1  0.005800  0.361080  0.484900  1.0  -0.6141
  O  O716  1  0.653000  0.626670  0.887600  1.0  -0.6324
  O  O717  1  0.121600  0.139550  0.163700  1.0  -0.6388
  O  O718  1  0.250700  0.132220  0.128800  1.0  -0.619
  O  O719  1  0.234500  0.107180  0.446700  1.0  -0.5961
  O  O720  1  0.994200  0.861080  0.984900  1.0  -0.6141
  O  O721  1  0.347000  0.126670  0.387600  1.0  -0.6315
  O  O722  1  0.378400  0.639550  0.336300  1.0  -0.6383
  O  O723  1  0.249300  0.632220  0.371200  1.0  -0.6187
  O  O724  1  0.265500  0.607180  0.053300  1.0  -0.5961
  O  O725  1  0.505800  0.361080  0.515100  1.0  -0.6138
  O  O726  1  0.153000  0.626670  0.112400  1.0  -0.6327
  O  O727  1  0.121600  0.639550  0.836300  1.0  -0.639
  O  O728  1  0.250700  0.632220  0.871200  1.0  -0.6198
  O  O729  1  0.234500  0.607180  0.553300  1.0  -0.5956
  O  O730  1  0.994200  0.361080  0.015100  1.0  -0.6137
  O  O731  1  0.347000  0.626670  0.612400  1.0  -0.6318
  O  O732  1  0.378400  0.139550  0.663700  1.0  -0.6384
  O  O733  1  0.249300  0.132220  0.628800  1.0  -0.6178
  O  O734  1  0.265500  0.107180  0.946700  1.0  -0.5962
  O  O735  1  0.505800  0.861080  0.484900  1.0  -0.6141
  O  O736  1  0.153000  0.126670  0.887600  1.0  -0.6324
