# generated using pymatgen
data_NiH16C24(NO2)2
_symmetry_space_group_name_H-M   'P 1'
_cell_length_a   31.81990000
_cell_length_b   31.81990000
_cell_length_c   25.11490000
_cell_angle_alpha   90.00000000
_cell_angle_beta   90.00000000
_cell_angle_gamma   90.00000000
_symmetry_Int_Tables_number   1
_chemical_formula_structural   NiH16C24(NO2)2
_chemical_formula_sum   'Ni32 H512 C768 N64 O128'
_cell_volume   25428.98784379
_cell_formula_units_Z   32
loop_
 _symmetry_equiv_pos_site_id
 _symmetry_equiv_pos_as_xyz
  1  'x, y, z'
loop_
 _atom_site_type_symbol
 _atom_site_label
 _atom_site_symmetry_multiplicity
 _atom_site_fract_x
 _atom_site_fract_y
 _atom_site_fract_z
 _atom_site_occupancy
 _atom_site_charge
  Ni  Ni1  1  0.513300  0.257550  0.640400  1.0  0.766
  Ni  Ni2  1  0.256710  0.014750  0.392970  1.0  0.7775
  Ni  Ni3  1  0.015070  0.755820  0.640290  1.0  0.8171
  Ni  Ni4  1  0.743380  0.986230  0.891180  1.0  0.7737
  Ni  Ni5  1  0.986700  0.242450  0.140400  1.0  0.7676
  Ni  Ni6  1  0.243290  0.485250  0.892970  1.0  0.7767
  Ni  Ni7  1  0.484930  0.744180  0.140290  1.0  0.8186
  Ni  Ni8  1  0.756620  0.513770  0.391180  1.0  0.7743
  Ni  Ni9  1  0.013300  0.757550  0.140400  1.0  0.766
  Ni  Ni10  1  0.756710  0.514750  0.892970  1.0  0.7775
  Ni  Ni11  1  0.515070  0.255820  0.140290  1.0  0.8171
  Ni  Ni12  1  0.243380  0.486230  0.391180  1.0  0.7737
  Ni  Ni13  1  0.486700  0.742450  0.640400  1.0  0.7676
  Ni  Ni14  1  0.743290  0.985250  0.392970  1.0  0.7767
  Ni  Ni15  1  0.984930  0.244180  0.640290  1.0  0.8186
  Ni  Ni16  1  0.256620  0.013770  0.891180  1.0  0.7743
  Ni  Ni17  1  0.742450  0.513300  0.640400  1.0  0.7656
  Ni  Ni18  1  0.985250  0.256710  0.392970  1.0  0.7782
  Ni  Ni19  1  0.244180  0.015070  0.640290  1.0  0.8173
  Ni  Ni20  1  0.013770  0.743380  0.891180  1.0  0.7741
  Ni  Ni21  1  0.757550  0.986700  0.140400  1.0  0.7655
  Ni  Ni22  1  0.514750  0.243290  0.892970  1.0  0.7775
  Ni  Ni23  1  0.255820  0.484930  0.140290  1.0  0.8177
  Ni  Ni24  1  0.486230  0.756620  0.391180  1.0  0.7753
  Ni  Ni25  1  0.242450  0.013300  0.140400  1.0  0.7656
  Ni  Ni26  1  0.485250  0.756710  0.892970  1.0  0.7782
  Ni  Ni27  1  0.744180  0.515070  0.140290  1.0  0.8173
  Ni  Ni28  1  0.513770  0.243380  0.391180  1.0  0.7741
  Ni  Ni29  1  0.257550  0.486700  0.640400  1.0  0.7655
  Ni  Ni30  1  0.014750  0.743290  0.392970  1.0  0.7775
  Ni  Ni31  1  0.755820  0.984930  0.640290  1.0  0.8177
  Ni  Ni32  1  0.986230  0.256620  0.891180  1.0  0.7753
  H  H33  1  0.577000  0.764700  0.148900  1.0  0.0901
  H  H34  1  0.631400  0.796300  0.099700  1.0  0.1322
  H  H35  1  0.542800  0.827600  0.987800  1.0  0.1353
  H  H36  1  0.493700  0.791700  0.038500  1.0  0.078
  H  H37  1  0.664500  0.850000  0.068500  1.0  0.1119
  H  H38  1  0.708800  0.898200  0.025500  1.0  0.1175
  H  H39  1  0.645100  0.879700  0.888600  1.0  0.1022
  H  H40  1  0.596800  0.834100  0.934000  1.0  0.1152
  H  H41  1  0.514900  0.215200  0.744900  1.0  0.113
  H  H42  1  0.556600  0.164800  0.789000  1.0  0.1005
  H  H43  1  0.609600  0.131700  0.652100  1.0  0.1165
  H  H44  1  0.570200  0.182700  0.608700  1.0  0.0879
  H  H45  1  0.573300  0.102400  0.817900  1.0  0.1076
  H  H46  1  0.616400  0.060700  0.866300  1.0  0.1136
  H  H47  1  0.704300  0.065600  0.750200  1.0  0.1084
  H  H48  1  0.662400  0.115100  0.705500  1.0  0.1071
  H  H49  1  0.708500  0.505600  0.492200  1.0  0.0796
  H  H50  1  0.675400  0.455000  0.545800  1.0  0.1331
  H  H51  1  0.702100  0.367800  0.432200  1.0  0.1261
  H  H52  1  0.735200  0.422700  0.382900  1.0  0.0819
  H  H53  1  0.668400  0.401800  0.598300  1.0  0.1247
  H  H54  1  0.620200  0.355800  0.642200  1.0  0.0959
  H  H55  1  0.603500  0.290100  0.507700  1.0  0.1184
  H  H56  1  0.651100  0.335800  0.462700  1.0  0.1215
  H  H57  1  0.813100  0.925000  0.919700  1.0  0.0983
  H  H58  1  0.865100  0.889000  0.879000  1.0  0.1046
  H  H59  1  0.836300  0.943100  0.741100  1.0  0.1181
  H  H60  1  0.785000  0.983800  0.788100  1.0  0.1064
  H  H61  1  0.899200  0.927900  0.715400  1.0  0.119
  H  H62  1  0.949800  0.885600  0.672300  1.0  0.1066
  H  H63  1  0.930200  0.793300  0.778600  1.0  0.0995
  H  H64  1  0.880500  0.833800  0.821500  1.0  0.1206
  H  H65  1  0.236100  0.923100  0.382300  1.0  0.0863
  H  H66  1  0.201900  0.869000  0.427200  1.0  0.1173
  H  H67  1  0.182600  0.953400  0.547300  1.0  0.1061
  H  H68  1  0.213000  0.003200  0.496900  1.0  0.0812
  H  H69  1  0.173700  0.895700  0.597200  1.0  0.1113
  H  H70  1  0.126500  0.850200  0.642500  1.0  0.0994
  H  H71  1  0.103200  0.790200  0.505100  1.0  0.0954
  H  H72  1  0.151500  0.833200  0.460500  1.0  0.1319
  H  H73  1  0.434600  0.822900  0.109000  1.0  0.0845
  H  H74  1  0.399500  0.878000  0.149400  1.0  0.1256
  H  H75  1  0.443700  0.837100  0.289000  1.0  0.0958
  H  H76  1  0.479700  0.785400  0.245400  1.0  0.0702
  H  H77  1  0.340600  0.890600  0.203800  1.0  0.1098
  H  H78  1  0.294700  0.932800  0.255800  1.0  0.1153
  H  H79  1  0.389200  0.952000  0.360900  1.0  0.1244
  H  H80  1  0.432200  0.906700  0.312100  1.0  0.1202
  H  H81  1  0.503200  0.213000  0.537300  1.0  0.0778
  H  H82  1  0.452000  0.181400  0.484200  1.0  0.1356
  H  H83  1  0.368000  0.201200  0.605000  1.0  0.1202
  H  H84  1  0.422000  0.235500  0.652100  1.0  0.0892
  H  H85  1  0.395600  0.175400  0.435500  1.0  0.1271
  H  H86  1  0.347800  0.131400  0.390800  1.0  0.0958
  H  H87  1  0.290400  0.102200  0.527500  1.0  0.0956
  H  H88  1  0.333900  0.151100  0.573200  1.0  0.1314
  H  H89  1  0.282000  0.480400  0.787900  1.0  0.1083
  H  H90  1  0.335800  0.442700  0.743900  1.0  0.1036
  H  H91  1  0.378300  0.399400  0.884100  1.0  0.1272
  H  H92  1  0.322100  0.437900  0.925700  1.0  0.0734
  H  H93  1  0.405100  0.430800  0.719400  1.0  0.1033
  H  H94  1  0.444000  0.387700  0.669000  1.0  0.1089
  H  H95  1  0.437800  0.297900  0.784600  1.0  0.0962
  H  H96  1  0.389800  0.340600  0.831400  1.0  0.1141
  H  H97  1  0.923000  0.735300  0.648900  1.0  0.0903
  H  H98  1  0.868600  0.703700  0.599700  1.0  0.1331
  H  H99  1  0.957200  0.672400  0.487800  1.0  0.1345
  H  H100  1  0.006300  0.708300  0.538500  1.0  0.0779
  H  H101  1  0.835500  0.650000  0.568500  1.0  0.1122
  H  H102  1  0.791200  0.601800  0.525500  1.0  0.1178
  H  H103  1  0.854900  0.620300  0.388600  1.0  0.1023
  H  H104  1  0.903200  0.665900  0.434000  1.0  0.1148
  H  H105  1  0.985100  0.284800  0.244900  1.0  0.1132
  H  H106  1  0.943400  0.335200  0.289000  1.0  0.1006
  H  H107  1  0.890400  0.368300  0.152100  1.0  0.1166
  H  H108  1  0.929800  0.317300  0.108700  1.0  0.0879
  H  H109  1  0.926700  0.397600  0.317900  1.0  0.1061
  H  H110  1  0.883600  0.439300  0.366300  1.0  0.1127
  H  H111  1  0.795700  0.434400  0.250200  1.0  0.1087
  H  H112  1  0.837600  0.384900  0.205500  1.0  0.1071
  H  H113  1  0.791500  0.994400  0.992200  1.0  0.0793
  H  H114  1  0.824600  0.045000  0.045800  1.0  0.1332
  H  H115  1  0.797900  0.132200  0.932200  1.0  0.1259
  H  H116  1  0.764800  0.077300  0.882900  1.0  0.0821
  H  H117  1  0.831600  0.098200  0.098300  1.0  0.1251
  H  H118  1  0.879800  0.144200  0.142200  1.0  0.0956
  H  H119  1  0.896500  0.209900  0.007700  1.0  0.1183
  H  H120  1  0.848900  0.164200  0.962700  1.0  0.1214
  H  H121  1  0.686900  0.575000  0.419700  1.0  0.0988
  H  H122  1  0.634900  0.611000  0.379000  1.0  0.104
  H  H123  1  0.663700  0.556900  0.241100  1.0  0.118
  H  H124  1  0.715000  0.516200  0.288100  1.0  0.1064
  H  H125  1  0.600800  0.572100  0.215400  1.0  0.1179
  H  H126  1  0.550200  0.614400  0.172300  1.0  0.1063
  H  H127  1  0.569800  0.706700  0.278600  1.0  0.0993
  H  H128  1  0.619500  0.666200  0.321500  1.0  0.1203
  H  H129  1  0.263900  0.576900  0.882300  1.0  0.0865
  H  H130  1  0.298100  0.631000  0.927200  1.0  0.1174
  H  H131  1  0.317400  0.546600  0.047300  1.0  0.1066
  H  H132  1  0.287000  0.496800  0.996900  1.0  0.0816
  H  H133  1  0.326300  0.604300  0.097200  1.0  0.1119
  H  H134  1  0.373500  0.649800  0.142500  1.0  0.1
  H  H135  1  0.396800  0.709800  0.005100  1.0  0.096
  H  H136  1  0.348500  0.666800  0.960500  1.0  0.1321
  H  H137  1  0.065400  0.677100  0.609000  1.0  0.0848
  H  H138  1  0.100500  0.622000  0.649400  1.0  0.1249
  H  H139  1  0.056300  0.662900  0.789000  1.0  0.0964
  H  H140  1  0.020300  0.714600  0.745400  1.0  0.0703
  H  H141  1  0.159400  0.609400  0.703800  1.0  0.1103
  H  H142  1  0.205300  0.567200  0.755800  1.0  0.1158
  H  H143  1  0.110800  0.548000  0.860900  1.0  0.1246
  H  H144  1  0.067800  0.593300  0.812100  1.0  0.1192
  H  H145  1  0.996800  0.287000  0.037300  1.0  0.0777
  H  H146  1  0.048000  0.318600  0.984200  1.0  0.1356
  H  H147  1  0.132000  0.298800  0.105000  1.0  0.1203
  H  H148  1  0.078000  0.264500  0.152100  1.0  0.0889
  H  H149  1  0.104400  0.324600  0.935500  1.0  0.1274
  H  H150  1  0.152200  0.368600  0.890800  1.0  0.0957
  H  H151  1  0.209600  0.397800  0.027500  1.0  0.0958
  H  H152  1  0.166100  0.348900  0.073200  1.0  0.1308
  H  H153  1  0.218000  0.019600  0.287900  1.0  0.1086
  H  H154  1  0.164200  0.057300  0.243900  1.0  0.104
  H  H155  1  0.121700  0.100600  0.384100  1.0  0.1274
  H  H156  1  0.177900  0.062100  0.425700  1.0  0.0742
  H  H157  1  0.094900  0.069200  0.219400  1.0  0.103
  H  H158  1  0.056000  0.112300  0.169000  1.0  0.1086
  H  H159  1  0.062200  0.202100  0.284600  1.0  0.0968
  H  H160  1  0.110200  0.159400  0.331400  1.0  0.1138
  H  H161  1  0.077000  0.264700  0.648900  1.0  0.0901
  H  H162  1  0.131400  0.296300  0.599700  1.0  0.1322
  H  H163  1  0.042800  0.327600  0.487800  1.0  0.1353
  H  H164  1  0.993700  0.291700  0.538500  1.0  0.078
  H  H165  1  0.164500  0.350000  0.568500  1.0  0.1119
  H  H166  1  0.208800  0.398200  0.525500  1.0  0.1175
  H  H167  1  0.145100  0.379700  0.388600  1.0  0.1022
  H  H168  1  0.096800  0.334100  0.434000  1.0  0.1152
  H  H169  1  0.014900  0.715200  0.244900  1.0  0.113
  H  H170  1  0.056600  0.664800  0.289000  1.0  0.1005
  H  H171  1  0.109600  0.631700  0.152100  1.0  0.1165
  H  H172  1  0.070200  0.682700  0.108700  1.0  0.0879
  H  H173  1  0.073300  0.602400  0.317900  1.0  0.1076
  H  H174  1  0.116400  0.560700  0.366300  1.0  0.1136
  H  H175  1  0.204300  0.565600  0.250200  1.0  0.1084
  H  H176  1  0.162400  0.615100  0.205500  1.0  0.1071
  H  H177  1  0.208500  0.005600  0.992200  1.0  0.0796
  H  H178  1  0.175400  0.955000  0.045800  1.0  0.1331
  H  H179  1  0.202100  0.867800  0.932200  1.0  0.1261
  H  H180  1  0.235200  0.922700  0.882900  1.0  0.0819
  H  H181  1  0.168400  0.901800  0.098300  1.0  0.1247
  H  H182  1  0.120200  0.855800  0.142200  1.0  0.0959
  H  H183  1  0.103500  0.790100  0.007700  1.0  0.1184
  H  H184  1  0.151100  0.835800  0.962700  1.0  0.1215
  H  H185  1  0.313100  0.425000  0.419700  1.0  0.0983
  H  H186  1  0.365100  0.389000  0.379000  1.0  0.1046
  H  H187  1  0.336300  0.443100  0.241100  1.0  0.1181
  H  H188  1  0.285000  0.483800  0.288100  1.0  0.1064
  H  H189  1  0.399200  0.427900  0.215400  1.0  0.119
  H  H190  1  0.449800  0.385600  0.172300  1.0  0.1066
  H  H191  1  0.430200  0.293300  0.278600  1.0  0.0995
  H  H192  1  0.380500  0.333800  0.321500  1.0  0.1206
  H  H193  1  0.736100  0.423100  0.882300  1.0  0.0863
  H  H194  1  0.701900  0.369000  0.927200  1.0  0.1173
  H  H195  1  0.682600  0.453400  0.047300  1.0  0.1061
  H  H196  1  0.713000  0.503200  0.996900  1.0  0.0812
  H  H197  1  0.673700  0.395700  0.097200  1.0  0.1113
  H  H198  1  0.626500  0.350200  0.142500  1.0  0.0994
  H  H199  1  0.603200  0.290200  0.005100  1.0  0.0954
  H  H200  1  0.651500  0.333200  0.960500  1.0  0.1319
  H  H201  1  0.934600  0.322900  0.609000  1.0  0.0845
  H  H202  1  0.899500  0.378000  0.649400  1.0  0.1256
  H  H203  1  0.943700  0.337100  0.789000  1.0  0.0958
  H  H204  1  0.979700  0.285400  0.745400  1.0  0.0702
  H  H205  1  0.840600  0.390600  0.703800  1.0  0.1098
  H  H206  1  0.794700  0.432800  0.755800  1.0  0.1153
  H  H207  1  0.889200  0.452000  0.860900  1.0  0.1244
  H  H208  1  0.932200  0.406700  0.812100  1.0  0.1202
  H  H209  1  0.003200  0.713000  0.037300  1.0  0.0778
  H  H210  1  0.952000  0.681400  0.984200  1.0  0.1356
  H  H211  1  0.868000  0.701200  0.105000  1.0  0.1202
  H  H212  1  0.922000  0.735500  0.152100  1.0  0.0892
  H  H213  1  0.895600  0.675400  0.935500  1.0  0.1271
  H  H214  1  0.847800  0.631400  0.890800  1.0  0.0958
  H  H215  1  0.790400  0.602200  0.027500  1.0  0.0956
  H  H216  1  0.833900  0.651100  0.073200  1.0  0.1314
  H  H217  1  0.782000  0.980400  0.287900  1.0  0.1083
  H  H218  1  0.835800  0.942700  0.243900  1.0  0.1036
  H  H219  1  0.878300  0.899400  0.384100  1.0  0.1272
  H  H220  1  0.822100  0.937900  0.425700  1.0  0.0734
  H  H221  1  0.905100  0.930800  0.219400  1.0  0.1033
  H  H222  1  0.944000  0.887700  0.169000  1.0  0.1089
  H  H223  1  0.937800  0.797900  0.284600  1.0  0.0962
  H  H224  1  0.889800  0.840600  0.331400  1.0  0.1141
  H  H225  1  0.423000  0.235300  0.148900  1.0  0.0903
  H  H226  1  0.368600  0.203700  0.099700  1.0  0.1331
  H  H227  1  0.457200  0.172400  0.987800  1.0  0.1345
  H  H228  1  0.506300  0.208300  0.038500  1.0  0.0779
  H  H229  1  0.335500  0.150000  0.068500  1.0  0.1122
  H  H230  1  0.291200  0.101800  0.025500  1.0  0.1178
  H  H231  1  0.354900  0.120300  0.888600  1.0  0.1023
  H  H232  1  0.403200  0.165900  0.934000  1.0  0.1148
  H  H233  1  0.485100  0.784800  0.744900  1.0  0.1132
  H  H234  1  0.443400  0.835200  0.789000  1.0  0.1006
  H  H235  1  0.390400  0.868300  0.652100  1.0  0.1166
  H  H236  1  0.429800  0.817300  0.608700  1.0  0.0879
  H  H237  1  0.426700  0.897600  0.817900  1.0  0.1061
  H  H238  1  0.383600  0.939300  0.866300  1.0  0.1127
  H  H239  1  0.295700  0.934400  0.750200  1.0  0.1087
  H  H240  1  0.337600  0.884900  0.705500  1.0  0.1071
  H  H241  1  0.291500  0.494400  0.492200  1.0  0.0793
  H  H242  1  0.324600  0.545000  0.545800  1.0  0.1332
  H  H243  1  0.297900  0.632200  0.432200  1.0  0.1259
  H  H244  1  0.264800  0.577300  0.382900  1.0  0.0821
  H  H245  1  0.331600  0.598200  0.598300  1.0  0.1251
  H  H246  1  0.379800  0.644200  0.642200  1.0  0.0956
  H  H247  1  0.396500  0.709900  0.507700  1.0  0.1183
  H  H248  1  0.348900  0.664200  0.462700  1.0  0.1214
  H  H249  1  0.186900  0.075000  0.919700  1.0  0.0988
  H  H250  1  0.134900  0.111000  0.879000  1.0  0.104
  H  H251  1  0.163700  0.056900  0.741100  1.0  0.118
  H  H252  1  0.215000  0.016200  0.788100  1.0  0.1064
  H  H253  1  0.100800  0.072100  0.715400  1.0  0.1179
  H  H254  1  0.050200  0.114400  0.672300  1.0  0.1063
  H  H255  1  0.069800  0.206700  0.778600  1.0  0.0993
  H  H256  1  0.119500  0.166200  0.821500  1.0  0.1203
  H  H257  1  0.763900  0.076900  0.382300  1.0  0.0865
  H  H258  1  0.798100  0.131000  0.427200  1.0  0.1174
  H  H259  1  0.817400  0.046600  0.547300  1.0  0.1066
  H  H260  1  0.787000  0.996800  0.496900  1.0  0.0816
  H  H261  1  0.826300  0.104300  0.597200  1.0  0.1119
  H  H262  1  0.873500  0.149800  0.642500  1.0  0.1
  H  H263  1  0.896800  0.209800  0.505100  1.0  0.096
  H  H264  1  0.848500  0.166800  0.460500  1.0  0.1321
  H  H265  1  0.565400  0.177100  0.109000  1.0  0.0848
  H  H266  1  0.600500  0.122000  0.149400  1.0  0.1249
  H  H267  1  0.556300  0.162900  0.289000  1.0  0.0964
  H  H268  1  0.520300  0.214600  0.245400  1.0  0.0703
  H  H269  1  0.659400  0.109400  0.203800  1.0  0.1103
  H  H270  1  0.705300  0.067200  0.255800  1.0  0.1158
  H  H271  1  0.610800  0.048000  0.360900  1.0  0.1246
  H  H272  1  0.567800  0.093300  0.312100  1.0  0.1192
  H  H273  1  0.496800  0.787000  0.537300  1.0  0.0777
  H  H274  1  0.548000  0.818600  0.484200  1.0  0.1356
  H  H275  1  0.632000  0.798800  0.605000  1.0  0.1203
  H  H276  1  0.578000  0.764500  0.652100  1.0  0.0889
  H  H277  1  0.604400  0.824600  0.435500  1.0  0.1274
  H  H278  1  0.652200  0.868600  0.390800  1.0  0.0957
  H  H279  1  0.709600  0.897800  0.527500  1.0  0.0958
  H  H280  1  0.666100  0.848900  0.573200  1.0  0.1308
  H  H281  1  0.718000  0.519600  0.787900  1.0  0.1086
  H  H282  1  0.664200  0.557300  0.743900  1.0  0.104
  H  H283  1  0.621700  0.600600  0.884100  1.0  0.1274
  H  H284  1  0.677900  0.562100  0.925700  1.0  0.0742
  H  H285  1  0.594900  0.569200  0.719400  1.0  0.103
  H  H286  1  0.556000  0.612300  0.669000  1.0  0.1086
  H  H287  1  0.562200  0.702100  0.784600  1.0  0.0968
  H  H288  1  0.610200  0.659400  0.831400  1.0  0.1138
  H  H289  1  0.235300  0.577000  0.148900  1.0  0.091
  H  H290  1  0.203700  0.631400  0.099700  1.0  0.134
  H  H291  1  0.172400  0.542800  0.987800  1.0  0.1339
  H  H292  1  0.208300  0.493700  0.038500  1.0  0.0785
  H  H293  1  0.150000  0.664500  0.068500  1.0  0.1113
  H  H294  1  0.101800  0.708800  0.025500  1.0  0.1165
  H  H295  1  0.120300  0.645100  0.888600  1.0  0.1026
  H  H296  1  0.165900  0.596800  0.934000  1.0  0.1152
  H  H297  1  0.784800  0.514900  0.744900  1.0  0.1151
  H  H298  1  0.835200  0.556600  0.789000  1.0  0.101
  H  H299  1  0.868300  0.609600  0.652100  1.0  0.1157
  H  H300  1  0.817300  0.570200  0.608700  1.0  0.0889
  H  H301  1  0.897600  0.573300  0.817900  1.0  0.107
  H  H302  1  0.939300  0.616400  0.866300  1.0  0.1131
  H  H303  1  0.934400  0.704300  0.750200  1.0  0.1088
  H  H304  1  0.884900  0.662400  0.705500  1.0  0.1062
  H  H305  1  0.494400  0.708500  0.492200  1.0  0.0781
  H  H306  1  0.545000  0.675400  0.545800  1.0  0.1341
  H  H307  1  0.632200  0.702100  0.432200  1.0  0.1246
  H  H308  1  0.577300  0.735200  0.382900  1.0  0.0813
  H  H309  1  0.598200  0.668400  0.598300  1.0  0.1236
  H  H310  1  0.644200  0.620200  0.642200  1.0  0.0955
  H  H311  1  0.709900  0.603500  0.507700  1.0  0.119
  H  H312  1  0.664200  0.651100  0.462700  1.0  0.1216
  H  H313  1  0.075000  0.813100  0.919700  1.0  0.0983
  H  H314  1  0.111000  0.865100  0.879000  1.0  0.1043
  H  H315  1  0.056900  0.836300  0.741100  1.0  0.118
  H  H316  1  0.016200  0.785000  0.788100  1.0  0.106
  H  H317  1  0.072100  0.899200  0.715400  1.0  0.1197
  H  H318  1  0.114400  0.949800  0.672300  1.0  0.107
  H  H319  1  0.206700  0.930200  0.778600  1.0  0.0991
  H  H320  1  0.166200  0.880500  0.821500  1.0  0.1218
  H  H321  1  0.076900  0.236100  0.382300  1.0  0.0836
  H  H322  1  0.131000  0.201900  0.427200  1.0  0.1175
  H  H323  1  0.046600  0.182600  0.547300  1.0  0.1073
  H  H324  1  0.996800  0.213000  0.496900  1.0  0.0803
  H  H325  1  0.104300  0.173700  0.597200  1.0  0.111
  H  H326  1  0.149800  0.126500  0.642500  1.0  0.0995
  H  H327  1  0.209800  0.103200  0.505100  1.0  0.096
  H  H328  1  0.166800  0.151500  0.460500  1.0  0.1323
  H  H329  1  0.177100  0.434600  0.109000  1.0  0.0841
  H  H330  1  0.122000  0.399500  0.149400  1.0  0.1248
  H  H331  1  0.162900  0.443700  0.289000  1.0  0.0969
  H  H332  1  0.214600  0.479700  0.245400  1.0  0.07
  H  H333  1  0.109400  0.340600  0.203800  1.0  0.1098
  H  H334  1  0.067200  0.294700  0.255800  1.0  0.1157
  H  H335  1  0.048000  0.389200  0.360900  1.0  0.1246
  H  H336  1  0.093300  0.432200  0.312100  1.0  0.1209
  H  H337  1  0.787000  0.503200  0.537300  1.0  0.08
  H  H338  1  0.818600  0.452000  0.484200  1.0  0.1352
  H  H339  1  0.798800  0.368000  0.605000  1.0  0.1207
  H  H340  1  0.764500  0.422000  0.652100  1.0  0.0886
  H  H341  1  0.824600  0.395600  0.435500  1.0  0.1281
  H  H342  1  0.868600  0.347800  0.390800  1.0  0.0957
  H  H343  1  0.897800  0.290400  0.527500  1.0  0.0962
  H  H344  1  0.848900  0.333900  0.573200  1.0  0.1309
  H  H345  1  0.519600  0.282000  0.787900  1.0  0.1088
  H  H346  1  0.557300  0.335800  0.743900  1.0  0.1034
  H  H347  1  0.600600  0.378300  0.884100  1.0  0.1269
  H  H348  1  0.562100  0.322100  0.925700  1.0  0.0726
  H  H349  1  0.569200  0.405100  0.719400  1.0  0.103
  H  H350  1  0.612300  0.444000  0.669000  1.0  0.1083
  H  H351  1  0.702100  0.437800  0.784600  1.0  0.097
  H  H352  1  0.659400  0.389800  0.831400  1.0  0.1149
  H  H353  1  0.264700  0.923000  0.648900  1.0  0.0916
  H  H354  1  0.296300  0.868600  0.599700  1.0  0.134
  H  H355  1  0.327600  0.957200  0.487800  1.0  0.1344
  H  H356  1  0.291700  0.006300  0.538500  1.0  0.0796
  H  H357  1  0.350000  0.835500  0.568500  1.0  0.1114
  H  H358  1  0.398200  0.791200  0.525500  1.0  0.1175
  H  H359  1  0.379700  0.854900  0.388600  1.0  0.1022
  H  H360  1  0.334100  0.903200  0.434000  1.0  0.1152
  H  H361  1  0.715200  0.985100  0.244900  1.0  0.1144
  H  H362  1  0.664800  0.943400  0.289000  1.0  0.101
  H  H363  1  0.631700  0.890400  0.152100  1.0  0.1158
  H  H364  1  0.682700  0.929800  0.108700  1.0  0.0886
  H  H365  1  0.602400  0.926700  0.317900  1.0  0.1072
  H  H366  1  0.560700  0.883600  0.366300  1.0  0.1138
  H  H367  1  0.565600  0.795700  0.250200  1.0  0.109
  H  H368  1  0.615100  0.837600  0.205500  1.0  0.106
  H  H369  1  0.005600  0.791500  0.992200  1.0  0.0784
  H  H370  1  0.955000  0.824600  0.045800  1.0  0.1342
  H  H371  1  0.867800  0.797900  0.932200  1.0  0.1243
  H  H372  1  0.922700  0.764800  0.882900  1.0  0.0821
  H  H373  1  0.901800  0.831600  0.098300  1.0  0.1239
  H  H374  1  0.855800  0.879800  0.142200  1.0  0.0956
  H  H375  1  0.790100  0.896500  0.007700  1.0  0.1186
  H  H376  1  0.835800  0.848900  0.962700  1.0  0.122
  H  H377  1  0.425000  0.686900  0.419700  1.0  0.0987
  H  H378  1  0.389000  0.634900  0.379000  1.0  0.1045
  H  H379  1  0.443100  0.663700  0.241100  1.0  0.1177
  H  H380  1  0.483800  0.715000  0.288100  1.0  0.1054
  H  H381  1  0.427900  0.600800  0.215400  1.0  0.1187
  H  H382  1  0.385600  0.550200  0.172300  1.0  0.1067
  H  H383  1  0.293300  0.569800  0.278600  1.0  0.0984
  H  H384  1  0.333800  0.619500  0.321500  1.0  0.1213
  H  H385  1  0.423100  0.263900  0.882300  1.0  0.0841
  H  H386  1  0.369000  0.298100  0.927200  1.0  0.1175
  H  H387  1  0.453400  0.317400  0.047300  1.0  0.1074
  H  H388  1  0.503200  0.287000  0.996900  1.0  0.0803
  H  H389  1  0.395700  0.326300  0.097200  1.0  0.1108
  H  H390  1  0.350200  0.373500  0.142500  1.0  0.0998
  H  H391  1  0.290200  0.396800  0.005100  1.0  0.0956
  H  H392  1  0.333200  0.348500  0.960500  1.0  0.1315
  H  H393  1  0.322900  0.065400  0.609000  1.0  0.0847
  H  H394  1  0.378000  0.100500  0.649400  1.0  0.1247
  H  H395  1  0.337100  0.056300  0.789000  1.0  0.0964
  H  H396  1  0.285400  0.020300  0.745400  1.0  0.0703
  H  H397  1  0.390600  0.159400  0.703800  1.0  0.1103
  H  H398  1  0.432800  0.205300  0.755800  1.0  0.1156
  H  H399  1  0.452000  0.110800  0.860900  1.0  0.1243
  H  H400  1  0.406700  0.067800  0.812100  1.0  0.1204
  H  H401  1  0.713000  0.996800  0.037300  1.0  0.0798
  H  H402  1  0.681400  0.048000  0.984200  1.0  0.1347
  H  H403  1  0.701200  0.132000  0.105000  1.0  0.1205
  H  H404  1  0.735500  0.078000  0.152100  1.0  0.0879
  H  H405  1  0.675400  0.104400  0.935500  1.0  0.1282
  H  H406  1  0.631400  0.152200  0.890800  1.0  0.0956
  H  H407  1  0.602200  0.209600  0.027500  1.0  0.0951
  H  H408  1  0.651100  0.166100  0.073200  1.0  0.131
  H  H409  1  0.980400  0.218000  0.287900  1.0  0.1087
  H  H410  1  0.942700  0.164200  0.243900  1.0  0.1032
  H  H411  1  0.899400  0.121700  0.384100  1.0  0.1268
  H  H412  1  0.937900  0.177900  0.425700  1.0  0.0726
  H  H413  1  0.930800  0.094900  0.219400  1.0  0.1036
  H  H414  1  0.887700  0.056000  0.169000  1.0  0.1088
  H  H415  1  0.797900  0.062200  0.284600  1.0  0.0967
  H  H416  1  0.840600  0.110200  0.331400  1.0  0.1143
  H  H417  1  0.735300  0.077000  0.648900  1.0  0.091
  H  H418  1  0.703700  0.131400  0.599700  1.0  0.134
  H  H419  1  0.672400  0.042800  0.487800  1.0  0.1339
  H  H420  1  0.708300  0.993700  0.538500  1.0  0.0785
  H  H421  1  0.650000  0.164500  0.568500  1.0  0.1113
  H  H422  1  0.601800  0.208800  0.525500  1.0  0.1165
  H  H423  1  0.620300  0.145100  0.388600  1.0  0.1026
  H  H424  1  0.665900  0.096800  0.434000  1.0  0.1152
  H  H425  1  0.284800  0.014900  0.244900  1.0  0.1151
  H  H426  1  0.335200  0.056600  0.289000  1.0  0.101
  H  H427  1  0.368300  0.109600  0.152100  1.0  0.1157
  H  H428  1  0.317300  0.070200  0.108700  1.0  0.0889
  H  H429  1  0.397600  0.073300  0.317900  1.0  0.107
  H  H430  1  0.439300  0.116400  0.366300  1.0  0.1131
  H  H431  1  0.434400  0.204300  0.250200  1.0  0.1088
  H  H432  1  0.384900  0.162400  0.205500  1.0  0.1062
  H  H433  1  0.994400  0.208500  0.992200  1.0  0.0781
  H  H434  1  0.045000  0.175400  0.045800  1.0  0.1341
  H  H435  1  0.132200  0.202100  0.932200  1.0  0.1246
  H  H436  1  0.077300  0.235200  0.882900  1.0  0.0813
  H  H437  1  0.098200  0.168400  0.098300  1.0  0.1236
  H  H438  1  0.144200  0.120200  0.142200  1.0  0.0955
  H  H439  1  0.209900  0.103500  0.007700  1.0  0.119
  H  H440  1  0.164200  0.151100  0.962700  1.0  0.1216
  H  H441  1  0.575000  0.313100  0.419700  1.0  0.0983
  H  H442  1  0.611000  0.365100  0.379000  1.0  0.1043
  H  H443  1  0.556900  0.336300  0.241100  1.0  0.118
  H  H444  1  0.516200  0.285000  0.288100  1.0  0.106
  H  H445  1  0.572100  0.399200  0.215400  1.0  0.1197
  H  H446  1  0.614400  0.449800  0.172300  1.0  0.107
  H  H447  1  0.706700  0.430200  0.278600  1.0  0.0991
  H  H448  1  0.666200  0.380500  0.321500  1.0  0.1218
  H  H449  1  0.576900  0.736100  0.882300  1.0  0.0836
  H  H450  1  0.631000  0.701900  0.927200  1.0  0.1175
  H  H451  1  0.546600  0.682600  0.047300  1.0  0.1073
  H  H452  1  0.496800  0.713000  0.996900  1.0  0.0803
  H  H453  1  0.604300  0.673700  0.097200  1.0  0.111
  H  H454  1  0.649800  0.626500  0.142500  1.0  0.0995
  H  H455  1  0.709800  0.603200  0.005100  1.0  0.096
  H  H456  1  0.666800  0.651500  0.960500  1.0  0.1323
  H  H457  1  0.677100  0.934600  0.609000  1.0  0.0841
  H  H458  1  0.622000  0.899500  0.649400  1.0  0.1248
  H  H459  1  0.662900  0.943700  0.789000  1.0  0.0969
  H  H460  1  0.714600  0.979700  0.745400  1.0  0.07
  H  H461  1  0.609400  0.840600  0.703800  1.0  0.1098
  H  H462  1  0.567200  0.794700  0.755800  1.0  0.1157
  H  H463  1  0.548000  0.889200  0.860900  1.0  0.1246
  H  H464  1  0.593300  0.932200  0.812100  1.0  0.1209
  H  H465  1  0.287000  0.003200  0.037300  1.0  0.08
  H  H466  1  0.318600  0.952000  0.984200  1.0  0.1352
  H  H467  1  0.298800  0.868000  0.105000  1.0  0.1207
  H  H468  1  0.264500  0.922000  0.152100  1.0  0.0886
  H  H469  1  0.324600  0.895600  0.935500  1.0  0.1281
  H  H470  1  0.368600  0.847800  0.890800  1.0  0.0957
  H  H471  1  0.397800  0.790400  0.027500  1.0  0.0962
  H  H472  1  0.348900  0.833900  0.073200  1.0  0.1309
  H  H473  1  0.019600  0.782000  0.287900  1.0  0.1088
  H  H474  1  0.057300  0.835800  0.243900  1.0  0.1034
  H  H475  1  0.100600  0.878300  0.384100  1.0  0.1269
  H  H476  1  0.062100  0.822100  0.425700  1.0  0.0726
  H  H477  1  0.069200  0.905100  0.219400  1.0  0.103
  H  H478  1  0.112300  0.944000  0.169000  1.0  0.1083
  H  H479  1  0.202100  0.937800  0.284600  1.0  0.097
  H  H480  1  0.159400  0.889800  0.331400  1.0  0.1149
  H  H481  1  0.764700  0.423000  0.148900  1.0  0.0916
  H  H482  1  0.796300  0.368600  0.099700  1.0  0.134
  H  H483  1  0.827600  0.457200  0.987800  1.0  0.1344
  H  H484  1  0.791700  0.506300  0.038500  1.0  0.0796
  H  H485  1  0.850000  0.335500  0.068500  1.0  0.1114
  H  H486  1  0.898200  0.291200  0.025500  1.0  0.1175
  H  H487  1  0.879700  0.354900  0.888600  1.0  0.1022
  H  H488  1  0.834100  0.403200  0.934000  1.0  0.1152
  H  H489  1  0.215200  0.485100  0.744900  1.0  0.1144
  H  H490  1  0.164800  0.443400  0.789000  1.0  0.101
  H  H491  1  0.131700  0.390400  0.652100  1.0  0.1158
  H  H492  1  0.182700  0.429800  0.608700  1.0  0.0886
  H  H493  1  0.102400  0.426700  0.817900  1.0  0.1072
  H  H494  1  0.060700  0.383600  0.866300  1.0  0.1138
  H  H495  1  0.065600  0.295700  0.750200  1.0  0.109
  H  H496  1  0.115100  0.337600  0.705500  1.0  0.106
  H  H497  1  0.505600  0.291500  0.492200  1.0  0.0784
  H  H498  1  0.455000  0.324600  0.545800  1.0  0.1342
  H  H499  1  0.367800  0.297900  0.432200  1.0  0.1243
  H  H500  1  0.422700  0.264800  0.382900  1.0  0.0821
  H  H501  1  0.401800  0.331600  0.598300  1.0  0.1239
  H  H502  1  0.355800  0.379800  0.642200  1.0  0.0956
  H  H503  1  0.290100  0.396500  0.507700  1.0  0.1186
  H  H504  1  0.335800  0.348900  0.462700  1.0  0.122
  H  H505  1  0.925000  0.186900  0.919700  1.0  0.0987
  H  H506  1  0.889000  0.134900  0.879000  1.0  0.1045
  H  H507  1  0.943100  0.163700  0.741100  1.0  0.1177
  H  H508  1  0.983800  0.215000  0.788100  1.0  0.1054
  H  H509  1  0.927900  0.100800  0.715400  1.0  0.1187
  H  H510  1  0.885600  0.050200  0.672300  1.0  0.1067
  H  H511  1  0.793300  0.069800  0.778600  1.0  0.0984
  H  H512  1  0.833800  0.119500  0.821500  1.0  0.1213
  H  H513  1  0.923100  0.763900  0.382300  1.0  0.0841
  H  H514  1  0.869000  0.798100  0.427200  1.0  0.1175
  H  H515  1  0.953400  0.817400  0.547300  1.0  0.1074
  H  H516  1  0.003200  0.787000  0.496900  1.0  0.0803
  H  H517  1  0.895700  0.826300  0.597200  1.0  0.1108
  H  H518  1  0.850200  0.873500  0.642500  1.0  0.0998
  H  H519  1  0.790200  0.896800  0.505100  1.0  0.0956
  H  H520  1  0.833200  0.848500  0.460500  1.0  0.1315
  H  H521  1  0.822900  0.565400  0.109000  1.0  0.0847
  H  H522  1  0.878000  0.600500  0.149400  1.0  0.1247
  H  H523  1  0.837100  0.556300  0.289000  1.0  0.0964
  H  H524  1  0.785400  0.520300  0.245400  1.0  0.0703
  H  H525  1  0.890600  0.659400  0.203800  1.0  0.1103
  H  H526  1  0.932800  0.705300  0.255800  1.0  0.1156
  H  H527  1  0.952000  0.610800  0.360900  1.0  0.1243
  H  H528  1  0.906700  0.567800  0.312100  1.0  0.1204
  H  H529  1  0.213000  0.496800  0.537300  1.0  0.0798
  H  H530  1  0.181400  0.548000  0.484200  1.0  0.1347
  H  H531  1  0.201200  0.632000  0.605000  1.0  0.1205
  H  H532  1  0.235500  0.578000  0.652100  1.0  0.0879
  H  H533  1  0.175400  0.604400  0.435500  1.0  0.1282
  H  H534  1  0.131400  0.652200  0.390800  1.0  0.0956
  H  H535  1  0.102200  0.709600  0.527500  1.0  0.0951
  H  H536  1  0.151100  0.666100  0.573200  1.0  0.131
  H  H537  1  0.480400  0.718000  0.787900  1.0  0.1087
  H  H538  1  0.442700  0.664200  0.743900  1.0  0.1032
  H  H539  1  0.399400  0.621700  0.884100  1.0  0.1268
  H  H540  1  0.437900  0.677900  0.925700  1.0  0.0726
  H  H541  1  0.430800  0.594900  0.719400  1.0  0.1036
  H  H542  1  0.387700  0.556000  0.669000  1.0  0.1088
  H  H543  1  0.297900  0.562200  0.784600  1.0  0.0967
  H  H544  1  0.340600  0.610200  0.831400  1.0  0.1143
  C  C545  1  0.570400  0.777000  0.115500  1.0  0.1771
  C  C546  1  0.603300  0.796300  0.087100  1.0  -0.1808
  C  C547  1  0.591500  0.816200  0.037200  1.0  0.0588
  C  C548  1  0.551000  0.814600  0.020200  1.0  -0.2119
  C  C549  1  0.521700  0.793300  0.051600  1.0  0.1808
  C  C550  1  0.623400  0.840700  0.006900  1.0  0.0171
  C  C551  1  0.659100  0.857500  0.032600  1.0  -0.123
  C  C552  1  0.686600  0.884700  0.006700  1.0  -0.085
  C  C553  1  0.680600  0.891700  0.952400  1.0  -0.1135
  C  C554  1  0.648500  0.874300  0.925600  1.0  -0.0392
  C  C555  1  0.619000  0.847200  0.953000  1.0  -0.1467
  C  C556  1  0.707800  0.924600  0.926200  1.0  0.6492
  C  C557  1  0.535000  0.199100  0.725900  1.0  0.108
  C  C558  1  0.559700  0.168300  0.751600  1.0  -0.1208
  C  C559  1  0.587700  0.143500  0.725700  1.0  0.0545
  C  C560  1  0.591000  0.149000  0.672000  1.0  -0.1646
  C  C561  1  0.567500  0.179600  0.646100  1.0  0.1543
  C  C562  1  0.610800  0.112300  0.755900  1.0  0.0255
  C  C563  1  0.600200  0.095900  0.803800  1.0  -0.1607
  C  C564  1  0.625800  0.070700  0.832600  1.0  -0.1141
  C  C565  1  0.665300  0.059100  0.814300  1.0  -0.0906
  C  C566  1  0.678200  0.074200  0.765000  1.0  -0.1085
  C  C567  1  0.652300  0.102400  0.737300  1.0  -0.1172
  C  C568  1  0.693800  0.031700  0.846900  1.0  0.6117
  C  C569  1  0.707400  0.477500  0.479800  1.0  0.1783
  C  C570  1  0.686800  0.447400  0.512200  1.0  -0.1894
  C  C571  1  0.684000  0.407200  0.493900  1.0  -0.0303
  C  C572  1  0.702700  0.395800  0.445100  1.0  -0.217
  C  C573  1  0.722800  0.429300  0.416300  1.0  0.1792
  C  C574  1  0.659700  0.375700  0.525100  1.0  0.0139
  C  C575  1  0.654200  0.380300  0.579100  1.0  -0.1876
  C  C576  1  0.626400  0.351900  0.605600  1.0  -0.0255
  C  C577  1  0.609000  0.319200  0.578900  1.0  -0.0838
  C  C578  1  0.616400  0.312800  0.526000  1.0  -0.0252
  C  C579  1  0.643800  0.340900  0.498800  1.0  -0.1241
  C  C580  1  0.575600  0.292800  0.605300  1.0  0.6653
  C  C581  1  0.818400  0.930000  0.883000  1.0  0.1712
  C  C582  1  0.848600  0.908000  0.858600  1.0  -0.1789
  C  C583  1  0.856700  0.911900  0.804700  1.0  0.0974
  C  C584  1  0.832800  0.939400  0.778400  1.0  -0.1419
  C  C585  1  0.801500  0.963700  0.806700  1.0  0.1372
  C  C586  1  0.888300  0.887700  0.774600  1.0  0.0422
  C  C587  1  0.906000  0.900900  0.729200  1.0  -0.1698
  C  C588  1  0.934800  0.874500  0.701800  1.0  -0.0852
  C  C589  1  0.941400  0.834400  0.716400  1.0  -0.1282
  C  C590  1  0.923000  0.820200  0.764900  1.0  -0.0369
  C  C591  1  0.895200  0.844700  0.791700  1.0  -0.1488
  C  C592  1  0.969100  0.805200  0.684100  1.0  0.6104
  C  C593  1  0.223900  0.929000  0.416000  1.0  0.1723
  C  C594  1  0.204000  0.896100  0.442900  1.0  -0.2062
  C  C595  1  0.187100  0.904000  0.493600  1.0  0.0662
  C  C596  1  0.192400  0.946200  0.512800  1.0  -0.1977
  C  C597  1  0.211100  0.975500  0.482800  1.0  0.1742
  C  C598  1  0.163700  0.871900  0.523600  1.0  0.0419
  C  C599  1  0.158700  0.874900  0.577800  1.0  -0.1479
  C  C600  1  0.131000  0.846900  0.605300  1.0  -0.0467
  C  C601  1  0.110900  0.815600  0.578500  1.0  -0.1178
  C  C602  1  0.117600  0.811500  0.524300  1.0  -0.034
  C  C603  1  0.145300  0.838200  0.497000  1.0  -0.1281
  C  C604  1  0.078200  0.790200  0.607000  1.0  0.652
  C  C605  1  0.436100  0.825400  0.146700  1.0  0.1844
  C  C606  1  0.414400  0.858000  0.170300  1.0  -0.2074
  C  C607  1  0.415200  0.861000  0.226900  1.0  0.1036
  C  C608  1  0.440300  0.834500  0.251500  1.0  -0.1585
  C  C609  1  0.461900  0.803300  0.225200  1.0  0.162
  C  C610  1  0.390000  0.893100  0.254900  1.0  0.0209
  C  C611  1  0.349900  0.901800  0.236900  1.0  -0.1199
  C  C612  1  0.322600  0.927400  0.267400  1.0  -0.0065
  C  C613  1  0.337100  0.944100  0.313800  1.0  -0.1245
  C  C614  1  0.378700  0.938200  0.330100  1.0  -0.0699
  C  C615  1  0.404300  0.911800  0.300600  1.0  -0.1359
  C  C616  1  0.307600  0.970200  0.347100  1.0  0.6122
  C  C617  1  0.475500  0.210900  0.551100  1.0  0.1768
  C  C618  1  0.445300  0.191500  0.518800  1.0  -0.1843
  C  C619  1  0.403600  0.187600  0.540600  1.0  0.0113
  C  C620  1  0.395300  0.203500  0.589900  1.0  -0.1763
  C  C621  1  0.428300  0.223600  0.618300  1.0  0.1697
  C  C622  1  0.371200  0.164200  0.509700  1.0  0.0243
  C  C623  1  0.374700  0.160400  0.454700  1.0  -0.2258
  C  C624  1  0.346200  0.133700  0.428400  1.0  -0.0347
  C  C625  1  0.316000  0.110800  0.455100  1.0  -0.1274
  C  C626  1  0.311600  0.117000  0.508600  1.0  -0.0395
  C  C627  1  0.338500  0.145400  0.536500  1.0  -0.1333
  C  C628  1  0.289900  0.077500  0.427300  1.0  0.6485
  C  C629  1  0.300500  0.463000  0.807700  1.0  0.1327
  C  C630  1  0.333000  0.440400  0.781400  1.0  -0.1213
  C  C631  1  0.359400  0.416200  0.808000  1.0  0.0515
  C  C632  1  0.358300  0.414700  0.863800  1.0  -0.1793
  C  C633  1  0.324100  0.438100  0.888000  1.0  0.1798
  C  C634  1  0.392900  0.391200  0.780400  1.0  0.0492
  C  C635  1  0.410300  0.403200  0.732000  1.0  -0.1243
  C  C636  1  0.433900  0.377900  0.702400  1.0  -0.1004
  C  C637  1  0.429300  0.324200  0.770100  1.0  -0.0473
  C  C638  1  0.402000  0.350400  0.799200  1.0  -0.1298
  C  C639  1  0.468600  0.307800  0.686300  1.0  0.6372
  C  C640  1  0.444300  0.336800  0.719200  1.0  -0.1009
  C  C641  1  0.929600  0.723000  0.615500  1.0  0.1769
  C  C642  1  0.896700  0.703700  0.587100  1.0  -0.1808
  C  C643  1  0.908500  0.683800  0.537200  1.0  0.0584
  C  C644  1  0.949000  0.685400  0.520200  1.0  -0.2116
  C  C645  1  0.978300  0.706700  0.551600  1.0  0.178
  C  C646  1  0.876600  0.659300  0.506900  1.0  0.0169
  C  C647  1  0.840900  0.642500  0.532600  1.0  -0.1228
  C  C648  1  0.813400  0.615300  0.506700  1.0  -0.0844
  C  C649  1  0.819400  0.608300  0.452400  1.0  -0.1135
  C  C650  1  0.851500  0.625700  0.425600  1.0  -0.0385
  C  C651  1  0.881000  0.652800  0.453000  1.0  -0.1454
  C  C652  1  0.792200  0.575400  0.426200  1.0  0.6502
  C  C653  1  0.965000  0.300900  0.225900  1.0  0.1076
  C  C654  1  0.940300  0.331700  0.251600  1.0  -0.1209
  C  C655  1  0.912300  0.356500  0.225700  1.0  0.0558
  C  C656  1  0.909000  0.351000  0.172000  1.0  -0.1643
  C  C657  1  0.932500  0.320400  0.146100  1.0  0.1539
  C  C658  1  0.889200  0.387700  0.255900  1.0  0.0262
  C  C659  1  0.899800  0.404100  0.303800  1.0  -0.1619
  C  C660  1  0.874200  0.429300  0.332600  1.0  -0.116
  C  C661  1  0.834700  0.440900  0.314300  1.0  -0.0904
  C  C662  1  0.821800  0.425800  0.265000  1.0  -0.1069
  C  C663  1  0.847700  0.397600  0.237300  1.0  -0.1166
  C  C664  1  0.806200  0.468300  0.346900  1.0  0.6126
  C  C665  1  0.792600  0.022500  0.979800  1.0  0.1777
  C  C666  1  0.813200  0.052600  0.012200  1.0  -0.1899
  C  C667  1  0.816000  0.092800  0.993900  1.0  -0.0303
  C  C668  1  0.797300  0.104200  0.945100  1.0  -0.2165
  C  C669  1  0.777200  0.070700  0.916300  1.0  0.1798
  C  C670  1  0.840300  0.124300  0.025100  1.0  0.0139
  C  C671  1  0.845800  0.119700  0.079100  1.0  -0.1877
  C  C672  1  0.873600  0.148100  0.105600  1.0  -0.0252
  C  C673  1  0.891000  0.180800  0.078900  1.0  -0.0844
  C  C674  1  0.883600  0.187200  0.026000  1.0  -0.0249
  C  C675  1  0.856200  0.159100  0.998800  1.0  -0.1248
  C  C676  1  0.924400  0.207200  0.105300  1.0  0.6658
  C  C677  1  0.681600  0.570000  0.383000  1.0  0.1724
  C  C678  1  0.651400  0.592000  0.358600  1.0  -0.1775
  C  C679  1  0.643300  0.588100  0.304700  1.0  0.0973
  C  C680  1  0.667200  0.560600  0.278400  1.0  -0.1442
  C  C681  1  0.698500  0.536300  0.306700  1.0  0.1369
  C  C682  1  0.611700  0.612300  0.274600  1.0  0.0425
  C  C683  1  0.594000  0.599100  0.229200  1.0  -0.1704
  C  C684  1  0.565200  0.625500  0.201800  1.0  -0.0842
  C  C685  1  0.558600  0.665600  0.216400  1.0  -0.1283
  C  C686  1  0.577000  0.679800  0.264900  1.0  -0.0378
  C  C687  1  0.604800  0.655300  0.291700  1.0  -0.1501
  C  C688  1  0.530900  0.694800  0.184100  1.0  0.6109
  C  C689  1  0.276100  0.571000  0.916000  1.0  0.1724
  C  C690  1  0.296000  0.603900  0.942900  1.0  -0.2053
  C  C691  1  0.312900  0.596000  0.993600  1.0  0.0663
  C  C692  1  0.307600  0.553800  0.012800  1.0  -0.1979
  C  C693  1  0.288900  0.524500  0.982800  1.0  0.1733
  C  C694  1  0.336300  0.628100  0.023600  1.0  0.0422
  C  C695  1  0.341300  0.625100  0.077800  1.0  -0.1474
  C  C696  1  0.369000  0.653100  0.105300  1.0  -0.0471
  C  C697  1  0.389100  0.684400  0.078500  1.0  -0.1179
  C  C698  1  0.382400  0.688500  0.024300  1.0  -0.034
  C  C699  1  0.354700  0.661800  0.997000  1.0  -0.1279
  C  C700  1  0.421800  0.709800  0.107000  1.0  0.6527
  C  C701  1  0.063900  0.674600  0.646700  1.0  0.1852
  C  C702  1  0.085600  0.642000  0.670300  1.0  -0.2065
  C  C703  1  0.084800  0.639000  0.726900  1.0  0.1034
  C  C704  1  0.059700  0.665500  0.751500  1.0  -0.1574
  C  C705  1  0.038100  0.696700  0.725200  1.0  0.1633
  C  C706  1  0.110000  0.606900  0.754900  1.0  0.0205
  C  C707  1  0.150100  0.598200  0.736900  1.0  -0.1207
  C  C708  1  0.177400  0.572600  0.767400  1.0  -0.002
  C  C709  1  0.162900  0.555900  0.813800  1.0  -0.1246
  C  C710  1  0.121300  0.561800  0.830100  1.0  -0.0689
  C  C711  1  0.095700  0.588200  0.800600  1.0  -0.1362
  C  C712  1  0.192400  0.529800  0.847100  1.0  0.6128
  C  C713  1  0.024500  0.289100  0.051100  1.0  0.1784
  C  C714  1  0.054700  0.308500  0.018800  1.0  -0.1835
  C  C715  1  0.096400  0.312400  0.040600  1.0  0.0121
  C  C716  1  0.104700  0.296500  0.089900  1.0  -0.1765
  C  C717  1  0.071700  0.276400  0.118300  1.0  0.1699
  C  C718  1  0.128800  0.335800  0.009700  1.0  0.0248
  C  C719  1  0.125300  0.339600  0.954700  1.0  -0.2251
  C  C720  1  0.153800  0.366300  0.928400  1.0  -0.035
  C  C721  1  0.184000  0.389200  0.955100  1.0  -0.1273
  C  C722  1  0.188400  0.383000  0.008600  1.0  -0.0396
  C  C723  1  0.161500  0.354600  0.036500  1.0  -0.1348
  C  C724  1  0.210100  0.422500  0.927300  1.0  0.6471
  C  C725  1  0.199500  0.037000  0.307700  1.0  0.1324
  C  C726  1  0.167000  0.059600  0.281400  1.0  -0.1215
  C  C727  1  0.140600  0.083800  0.308000  1.0  0.0506
  C  C728  1  0.141700  0.085300  0.363800  1.0  -0.1794
  C  C729  1  0.175900  0.061900  0.388000  1.0  0.1796
  C  C730  1  0.107100  0.108800  0.280400  1.0  0.0498
  C  C731  1  0.089700  0.096800  0.232000  1.0  -0.1238
  C  C732  1  0.066100  0.122100  0.202400  1.0  -0.1014
  C  C733  1  0.070700  0.175800  0.270100  1.0  -0.0474
  C  C734  1  0.098000  0.149600  0.299200  1.0  -0.1298
  C  C735  1  0.031400  0.192200  0.186300  1.0  0.6371
  C  C736  1  0.055700  0.163200  0.219200  1.0  -0.1016
  C  C737  1  0.070400  0.277000  0.615500  1.0  0.1771
  C  C738  1  0.103300  0.296300  0.587100  1.0  -0.1808
  C  C739  1  0.091500  0.316200  0.537200  1.0  0.0588
  C  C740  1  0.051000  0.314600  0.520200  1.0  -0.2119
  C  C741  1  0.021700  0.293300  0.551600  1.0  0.1808
  C  C742  1  0.123400  0.340700  0.506900  1.0  0.0171
  C  C743  1  0.159100  0.357500  0.532600  1.0  -0.123
  C  C744  1  0.186600  0.384700  0.506700  1.0  -0.085
  C  C745  1  0.180600  0.391700  0.452400  1.0  -0.1135
  C  C746  1  0.148500  0.374300  0.425600  1.0  -0.0392
  C  C747  1  0.119000  0.347200  0.453000  1.0  -0.1467
  C  C748  1  0.207800  0.424600  0.426200  1.0  0.6492
  C  C749  1  0.035000  0.699100  0.225900  1.0  0.108
  C  C750  1  0.059700  0.668300  0.251600  1.0  -0.1208
  C  C751  1  0.087700  0.643500  0.225700  1.0  0.0545
  C  C752  1  0.091000  0.649000  0.172000  1.0  -0.1646
  C  C753  1  0.067500  0.679600  0.146100  1.0  0.1543
  C  C754  1  0.110800  0.612300  0.255900  1.0  0.0255
  C  C755  1  0.100200  0.595900  0.303800  1.0  -0.1607
  C  C756  1  0.125800  0.570700  0.332600  1.0  -0.1141
  C  C757  1  0.165300  0.559100  0.314300  1.0  -0.0906
  C  C758  1  0.178200  0.574200  0.265000  1.0  -0.1085
  C  C759  1  0.152300  0.602400  0.237300  1.0  -0.1172
  C  C760  1  0.193800  0.531700  0.346900  1.0  0.6117
  C  C761  1  0.207400  0.977500  0.979800  1.0  0.1783
  C  C762  1  0.186800  0.947400  0.012200  1.0  -0.1894
  C  C763  1  0.184000  0.907200  0.993900  1.0  -0.0303
  C  C764  1  0.202700  0.895800  0.945100  1.0  -0.217
  C  C765  1  0.222800  0.929300  0.916300  1.0  0.1792
  C  C766  1  0.159700  0.875700  0.025100  1.0  0.0139
  C  C767  1  0.154200  0.880300  0.079100  1.0  -0.1876
  C  C768  1  0.126400  0.851900  0.105600  1.0  -0.0255
  C  C769  1  0.109000  0.819200  0.078900  1.0  -0.0838
  C  C770  1  0.116400  0.812800  0.026000  1.0  -0.0252
  C  C771  1  0.143800  0.840900  0.998800  1.0  -0.1241
  C  C772  1  0.075600  0.792800  0.105300  1.0  0.6653
  C  C773  1  0.318400  0.430000  0.383000  1.0  0.1712
  C  C774  1  0.348600  0.408000  0.358600  1.0  -0.1789
  C  C775  1  0.356700  0.411900  0.304700  1.0  0.0974
  C  C776  1  0.332800  0.439400  0.278400  1.0  -0.1419
  C  C777  1  0.301500  0.463700  0.306700  1.0  0.1372
  C  C778  1  0.388300  0.387700  0.274600  1.0  0.0422
  C  C779  1  0.406000  0.400900  0.229200  1.0  -0.1698
  C  C780  1  0.434800  0.374500  0.201800  1.0  -0.0852
  C  C781  1  0.441400  0.334400  0.216400  1.0  -0.1282
  C  C782  1  0.423000  0.320200  0.264900  1.0  -0.0369
  C  C783  1  0.395200  0.344700  0.291700  1.0  -0.1488
  C  C784  1  0.469100  0.305200  0.184100  1.0  0.6104
  C  C785  1  0.723900  0.429000  0.916000  1.0  0.1723
  C  C786  1  0.704000  0.396100  0.942900  1.0  -0.2062
  C  C787  1  0.687100  0.404000  0.993600  1.0  0.0662
  C  C788  1  0.692400  0.446200  0.012800  1.0  -0.1977
  C  C789  1  0.711100  0.475500  0.982800  1.0  0.1742
  C  C790  1  0.663700  0.371900  0.023600  1.0  0.0419
  C  C791  1  0.658700  0.374900  0.077800  1.0  -0.1479
  C  C792  1  0.631000  0.346900  0.105300  1.0  -0.0467
  C  C793  1  0.610900  0.315600  0.078500  1.0  -0.1178
  C  C794  1  0.617600  0.311500  0.024300  1.0  -0.034
  C  C795  1  0.645300  0.338200  0.997000  1.0  -0.1281
  C  C796  1  0.578200  0.290200  0.107000  1.0  0.652
  C  C797  1  0.936100  0.325400  0.646700  1.0  0.1844
  C  C798  1  0.914400  0.358000  0.670300  1.0  -0.2074
  C  C799  1  0.915200  0.361000  0.726900  1.0  0.1036
  C  C800  1  0.940300  0.334500  0.751500  1.0  -0.1585
  C  C801  1  0.961900  0.303300  0.725200  1.0  0.162
  C  C802  1  0.890000  0.393100  0.754900  1.0  0.0209
  C  C803  1  0.849900  0.401800  0.736900  1.0  -0.1199
  C  C804  1  0.822600  0.427400  0.767400  1.0  -0.0065
  C  C805  1  0.837100  0.444100  0.813800  1.0  -0.1245
  C  C806  1  0.878700  0.438200  0.830100  1.0  -0.0699
  C  C807  1  0.904300  0.411800  0.800600  1.0  -0.1359
  C  C808  1  0.807600  0.470200  0.847100  1.0  0.6122
  C  C809  1  0.975500  0.710900  0.051100  1.0  0.1768
  C  C810  1  0.945300  0.691500  0.018800  1.0  -0.1843
  C  C811  1  0.903600  0.687600  0.040600  1.0  0.0113
  C  C812  1  0.895300  0.703500  0.089900  1.0  -0.1763
  C  C813  1  0.928300  0.723600  0.118300  1.0  0.1697
  C  C814  1  0.871200  0.664200  0.009700  1.0  0.0243
  C  C815  1  0.874700  0.660400  0.954700  1.0  -0.2258
  C  C816  1  0.846200  0.633700  0.928400  1.0  -0.0347
  C  C817  1  0.816000  0.610800  0.955100  1.0  -0.1274
  C  C818  1  0.811600  0.617000  0.008600  1.0  -0.0395
  C  C819  1  0.838500  0.645400  0.036500  1.0  -0.1333
  C  C820  1  0.789900  0.577500  0.927300  1.0  0.6485
  C  C821  1  0.800500  0.963000  0.307700  1.0  0.1327
  C  C822  1  0.833000  0.940400  0.281400  1.0  -0.1213
  C  C823  1  0.859400  0.916200  0.308000  1.0  0.0515
  C  C824  1  0.858300  0.914700  0.363800  1.0  -0.1793
  C  C825  1  0.824100  0.938100  0.388000  1.0  0.1798
  C  C826  1  0.892900  0.891200  0.280400  1.0  0.0492
  C  C827  1  0.910300  0.903200  0.232000  1.0  -0.1243
  C  C828  1  0.933900  0.877900  0.202400  1.0  -0.1004
  C  C829  1  0.929300  0.824200  0.270100  1.0  -0.0473
  C  C830  1  0.902000  0.850400  0.299200  1.0  -0.1298
  C  C831  1  0.968600  0.807800  0.186300  1.0  0.6372
  C  C832  1  0.944300  0.836800  0.219200  1.0  -0.1009
  C  C833  1  0.429600  0.223000  0.115500  1.0  0.1769
  C  C834  1  0.396700  0.203700  0.087100  1.0  -0.1808
  C  C835  1  0.408500  0.183800  0.037200  1.0  0.0584
  C  C836  1  0.449000  0.185400  0.020200  1.0  -0.2116
  C  C837  1  0.478300  0.206700  0.051600  1.0  0.178
  C  C838  1  0.376600  0.159300  0.006900  1.0  0.0169
  C  C839  1  0.340900  0.142500  0.032600  1.0  -0.1228
  C  C840  1  0.313400  0.115300  0.006700  1.0  -0.0844
  C  C841  1  0.319400  0.108300  0.952400  1.0  -0.1135
  C  C842  1  0.351500  0.125700  0.925600  1.0  -0.0385
  C  C843  1  0.381000  0.152800  0.953000  1.0  -0.1454
  C  C844  1  0.292200  0.075400  0.926200  1.0  0.6502
  C  C845  1  0.465000  0.800900  0.725900  1.0  0.1076
  C  C846  1  0.440300  0.831700  0.751600  1.0  -0.1209
  C  C847  1  0.412300  0.856500  0.725700  1.0  0.0558
  C  C848  1  0.409000  0.851000  0.672000  1.0  -0.1643
  C  C849  1  0.432500  0.820400  0.646100  1.0  0.1539
  C  C850  1  0.389200  0.887700  0.755900  1.0  0.0262
  C  C851  1  0.399800  0.904100  0.803800  1.0  -0.1619
  C  C852  1  0.374200  0.929300  0.832600  1.0  -0.116
  C  C853  1  0.334700  0.940900  0.814300  1.0  -0.0904
  C  C854  1  0.321800  0.925800  0.765000  1.0  -0.1069
  C  C855  1  0.347700  0.897600  0.737300  1.0  -0.1166
  C  C856  1  0.306200  0.968300  0.846900  1.0  0.6126
  C  C857  1  0.292600  0.522500  0.479800  1.0  0.1777
  C  C858  1  0.313200  0.552600  0.512200  1.0  -0.1899
  C  C859  1  0.316000  0.592800  0.493900  1.0  -0.0303
  C  C860  1  0.297300  0.604200  0.445100  1.0  -0.2165
  C  C861  1  0.277200  0.570700  0.416300  1.0  0.1798
  C  C862  1  0.340300  0.624300  0.525100  1.0  0.0139
  C  C863  1  0.345800  0.619700  0.579100  1.0  -0.1877
  C  C864  1  0.373600  0.648100  0.605600  1.0  -0.0252
  C  C865  1  0.391000  0.680800  0.578900  1.0  -0.0844
  C  C866  1  0.383600  0.687200  0.526000  1.0  -0.0249
  C  C867  1  0.356200  0.659100  0.498800  1.0  -0.1248
  C  C868  1  0.424400  0.707200  0.605300  1.0  0.6658
  C  C869  1  0.181600  0.070000  0.883000  1.0  0.1724
  C  C870  1  0.151400  0.092000  0.858600  1.0  -0.1775
  C  C871  1  0.143300  0.088100  0.804700  1.0  0.0973
  C  C872  1  0.167200  0.060600  0.778400  1.0  -0.1442
  C  C873  1  0.198500  0.036300  0.806700  1.0  0.1369
  C  C874  1  0.111700  0.112300  0.774600  1.0  0.0425
  C  C875  1  0.094000  0.099100  0.729200  1.0  -0.1704
  C  C876  1  0.065200  0.125500  0.701800  1.0  -0.0842
  C  C877  1  0.058600  0.165600  0.716400  1.0  -0.1283
  C  C878  1  0.077000  0.179800  0.764900  1.0  -0.0378
  C  C879  1  0.104800  0.155300  0.791700  1.0  -0.1501
  C  C880  1  0.030900  0.194800  0.684100  1.0  0.6109
  C  C881  1  0.776100  0.071000  0.416000  1.0  0.1724
  C  C882  1  0.796000  0.103900  0.442900  1.0  -0.2053
  C  C883  1  0.812900  0.096000  0.493600  1.0  0.0663
  C  C884  1  0.807600  0.053800  0.512800  1.0  -0.1979
  C  C885  1  0.788900  0.024500  0.482800  1.0  0.1733
  C  C886  1  0.836300  0.128100  0.523600  1.0  0.0422
  C  C887  1  0.841300  0.125100  0.577800  1.0  -0.1474
  C  C888  1  0.869000  0.153100  0.605300  1.0  -0.0471
  C  C889  1  0.889100  0.184400  0.578500  1.0  -0.1179
  C  C890  1  0.882400  0.188500  0.524300  1.0  -0.034
  C  C891  1  0.854700  0.161800  0.497000  1.0  -0.1279
  C  C892  1  0.921800  0.209800  0.607000  1.0  0.6527
  C  C893  1  0.563900  0.174600  0.146700  1.0  0.1852
  C  C894  1  0.585600  0.142000  0.170300  1.0  -0.2065
  C  C895  1  0.584800  0.139000  0.226900  1.0  0.1034
  C  C896  1  0.559700  0.165500  0.251500  1.0  -0.1574
  C  C897  1  0.538100  0.196700  0.225200  1.0  0.1633
  C  C898  1  0.610000  0.106900  0.254900  1.0  0.0205
  C  C899  1  0.650100  0.098200  0.236900  1.0  -0.1207
  C  C900  1  0.677400  0.072600  0.267400  1.0  -0.002
  C  C901  1  0.662900  0.055900  0.313800  1.0  -0.1246
  C  C902  1  0.621300  0.061800  0.330100  1.0  -0.0689
  C  C903  1  0.595700  0.088200  0.300600  1.0  -0.1362
  C  C904  1  0.692400  0.029800  0.347100  1.0  0.6128
  C  C905  1  0.524500  0.789100  0.551100  1.0  0.1784
  C  C906  1  0.554700  0.808500  0.518800  1.0  -0.1835
  C  C907  1  0.596400  0.812400  0.540600  1.0  0.0121
  C  C908  1  0.604700  0.796500  0.589900  1.0  -0.1765
  C  C909  1  0.571700  0.776400  0.618300  1.0  0.1699
  C  C910  1  0.628800  0.835800  0.509700  1.0  0.0248
  C  C911  1  0.625300  0.839600  0.454700  1.0  -0.2251
  C  C912  1  0.653800  0.866300  0.428400  1.0  -0.035
  C  C913  1  0.684000  0.889200  0.455100  1.0  -0.1273
  C  C914  1  0.688400  0.883000  0.508600  1.0  -0.0396
  C  C915  1  0.661500  0.854600  0.536500  1.0  -0.1348
  C  C916  1  0.710100  0.922500  0.427300  1.0  0.6471
  C  C917  1  0.699500  0.537000  0.807700  1.0  0.1324
  C  C918  1  0.667000  0.559600  0.781400  1.0  -0.1215
  C  C919  1  0.640600  0.583800  0.808000  1.0  0.0506
  C  C920  1  0.641700  0.585300  0.863800  1.0  -0.1794
  C  C921  1  0.675900  0.561900  0.888000  1.0  0.1796
  C  C922  1  0.607100  0.608800  0.780400  1.0  0.0498
  C  C923  1  0.589700  0.596800  0.732000  1.0  -0.1238
  C  C924  1  0.566100  0.622100  0.702400  1.0  -0.1014
  C  C925  1  0.570700  0.675800  0.770100  1.0  -0.0474
  C  C926  1  0.598000  0.649600  0.799200  1.0  -0.1298
  C  C927  1  0.531400  0.692200  0.686300  1.0  0.6371
  C  C928  1  0.555700  0.663200  0.719200  1.0  -0.1016
  C  C929  1  0.223000  0.570400  0.115500  1.0  0.1767
  C  C930  1  0.203700  0.603300  0.087100  1.0  -0.1863
  C  C931  1  0.183800  0.591500  0.037200  1.0  0.06
  C  C932  1  0.185400  0.551000  0.020200  1.0  -0.212
  C  C933  1  0.206700  0.521700  0.051600  1.0  0.182
  C  C934  1  0.159300  0.623400  0.006900  1.0  0.0167
  C  C935  1  0.142500  0.659100  0.032600  1.0  -0.1228
  C  C936  1  0.115300  0.686600  0.006700  1.0  -0.0865
  C  C937  1  0.108300  0.680600  0.952400  1.0  -0.1137
  C  C938  1  0.125700  0.648500  0.925600  1.0  -0.0398
  C  C939  1  0.152800  0.619000  0.953000  1.0  -0.146
  C  C940  1  0.075400  0.707800  0.926200  1.0  0.6492
  C  C941  1  0.800900  0.535000  0.725900  1.0  0.1072
  C  C942  1  0.831700  0.559700  0.751600  1.0  -0.1213
  C  C943  1  0.856500  0.587700  0.725700  1.0  0.0553
  C  C944  1  0.851000  0.591000  0.672000  1.0  -0.1665
  C  C945  1  0.820400  0.567500  0.646100  1.0  0.1538
  C  C946  1  0.887700  0.610800  0.755900  1.0  0.0262
  C  C947  1  0.904100  0.600200  0.803800  1.0  -0.1675
  C  C948  1  0.929300  0.625800  0.832600  1.0  -0.1151
  C  C949  1  0.940900  0.665300  0.814300  1.0  -0.0895
  C  C950  1  0.925800  0.678200  0.765000  1.0  -0.1073
  C  C951  1  0.897600  0.652300  0.737300  1.0  -0.1171
  C  C952  1  0.968300  0.693800  0.846900  1.0  0.6134
  C  C953  1  0.522500  0.707400  0.479800  1.0  0.1759
  C  C954  1  0.552600  0.686800  0.512200  1.0  -0.1925
  C  C955  1  0.592800  0.684000  0.493900  1.0  -0.03
  C  C956  1  0.604200  0.702700  0.445100  1.0  -0.215
  C  C957  1  0.570700  0.722800  0.416300  1.0  0.1792
  C  C958  1  0.624300  0.659700  0.525100  1.0  0.0142
  C  C959  1  0.619700  0.654200  0.579100  1.0  -0.1859
  C  C960  1  0.648100  0.626400  0.605600  1.0  -0.0245
  C  C961  1  0.680800  0.609000  0.578900  1.0  -0.0842
  C  C962  1  0.687200  0.616400  0.526000  1.0  -0.0241
  C  C963  1  0.659100  0.643800  0.498800  1.0  -0.1241
  C  C964  1  0.707200  0.575600  0.605300  1.0  0.6647
  C  C965  1  0.070000  0.818400  0.883000  1.0  0.1721
  C  C966  1  0.092000  0.848600  0.858600  1.0  -0.1769
  C  C967  1  0.088100  0.856700  0.804700  1.0  0.0991
  C  C968  1  0.060600  0.832800  0.778400  1.0  -0.1427
  C  C969  1  0.036300  0.801500  0.806700  1.0  0.1379
  C  C970  1  0.112300  0.888300  0.774600  1.0  0.0423
  C  C971  1  0.099100  0.906000  0.729200  1.0  -0.1696
  C  C972  1  0.125500  0.934800  0.701800  1.0  -0.0832
  C  C973  1  0.165600  0.941400  0.716400  1.0  -0.1284
  C  C974  1  0.179800  0.923000  0.764900  1.0  -0.0373
  C  C975  1  0.155300  0.895200  0.791700  1.0  -0.1469
  C  C976  1  0.194800  0.969100  0.684100  1.0  0.6101
  C  C977  1  0.071000  0.223900  0.416000  1.0  0.1732
  C  C978  1  0.103900  0.204000  0.442900  1.0  -0.2021
  C  C979  1  0.096000  0.187100  0.493600  1.0  0.0662
  C  C980  1  0.053800  0.192400  0.512800  1.0  -0.1954
  C  C981  1  0.024500  0.211100  0.482800  1.0  0.1713
  C  C982  1  0.128100  0.163700  0.523600  1.0  0.0404
  C  C983  1  0.125100  0.158700  0.577800  1.0  -0.1465
  C  C984  1  0.153100  0.131000  0.605300  1.0  -0.0461
  C  C985  1  0.184400  0.110900  0.578500  1.0  -0.1184
  C  C986  1  0.188500  0.117600  0.524300  1.0  -0.0348
  C  C987  1  0.161800  0.145300  0.497000  1.0  -0.1282
  C  C988  1  0.209800  0.078200  0.607000  1.0  0.6533
  C  C989  1  0.174600  0.436100  0.146700  1.0  0.1857
  C  C990  1  0.142000  0.414400  0.170300  1.0  -0.2061
  C  C991  1  0.139000  0.415200  0.226900  1.0  0.1026
  C  C992  1  0.165500  0.440300  0.251500  1.0  -0.1593
  C  C993  1  0.196700  0.461900  0.225200  1.0  0.1617
  C  C994  1  0.106900  0.390000  0.254900  1.0  0.0222
  C  C995  1  0.098200  0.349900  0.236900  1.0  -0.1198
  C  C996  1  0.072600  0.322600  0.267400  1.0  -0.0058
  C  C997  1  0.055900  0.337100  0.313800  1.0  -0.1237
  C  C998  1  0.061800  0.378700  0.330100  1.0  -0.071
  C  C999  1  0.088200  0.404300  0.300600  1.0  -0.1378
  C  C1000  1  0.029800  0.307600  0.347100  1.0  0.6143
  C  C1001  1  0.789100  0.475500  0.551100  1.0  0.1812
  C  C1002  1  0.808500  0.445300  0.518800  1.0  -0.1824
  C  C1003  1  0.812400  0.403600  0.540600  1.0  0.0115
  C  C1004  1  0.796500  0.395300  0.589900  1.0  -0.1784
  C  C1005  1  0.776400  0.428300  0.618300  1.0  0.1682
  C  C1006  1  0.835800  0.371200  0.509700  1.0  0.025
  C  C1007  1  0.839600  0.374700  0.454700  1.0  -0.2259
  C  C1008  1  0.866300  0.346200  0.428400  1.0  -0.0356
  C  C1009  1  0.889200  0.316000  0.455100  1.0  -0.1292
  C  C1010  1  0.883000  0.311600  0.508600  1.0  -0.0406
  C  C1011  1  0.854600  0.338500  0.536500  1.0  -0.1355
  C  C1012  1  0.922500  0.289900  0.427300  1.0  0.6475
  C  C1013  1  0.537000  0.300500  0.807700  1.0  0.1331
  C  C1014  1  0.559600  0.333000  0.781400  1.0  -0.1208
  C  C1015  1  0.583800  0.359400  0.808000  1.0  0.0525
  C  C1016  1  0.585300  0.358300  0.863800  1.0  -0.1791
  C  C1017  1  0.561900  0.324100  0.888000  1.0  0.1796
  C  C1018  1  0.608800  0.392900  0.780400  1.0  0.0487
  C  C1019  1  0.596800  0.410300  0.732000  1.0  -0.1207
  C  C1020  1  0.622100  0.433900  0.702400  1.0  -0.0994
  C  C1021  1  0.675800  0.429300  0.770100  1.0  -0.0486
  C  C1022  1  0.649600  0.402000  0.799200  1.0  -0.1287
  C  C1023  1  0.692200  0.468600  0.686300  1.0  0.6376
  C  C1024  1  0.663200  0.444300  0.719200  1.0  -0.1006
  C  C1025  1  0.277000  0.929600  0.615500  1.0  0.1765
  C  C1026  1  0.296300  0.896700  0.587100  1.0  -0.1845
  C  C1027  1  0.316200  0.908500  0.537200  1.0  0.0595
  C  C1028  1  0.314600  0.949000  0.520200  1.0  -0.2109
  C  C1029  1  0.293300  0.978300  0.551600  1.0  0.1819
  C  C1030  1  0.340700  0.876600  0.506900  1.0  0.0181
  C  C1031  1  0.357500  0.840900  0.532600  1.0  -0.1216
  C  C1032  1  0.384700  0.813400  0.506700  1.0  -0.0862
  C  C1033  1  0.391700  0.819400  0.452400  1.0  -0.1125
  C  C1034  1  0.374300  0.851500  0.425600  1.0  -0.0395
  C  C1035  1  0.347200  0.881000  0.453000  1.0  -0.1473
  C  C1036  1  0.424600  0.792200  0.426200  1.0  0.6495
  C  C1037  1  0.699100  0.965000  0.225900  1.0  0.1063
  C  C1038  1  0.668300  0.940300  0.251600  1.0  -0.1222
  C  C1039  1  0.643500  0.912300  0.225700  1.0  0.0552
  C  C1040  1  0.649000  0.909000  0.172000  1.0  -0.1658
  C  C1041  1  0.679600  0.932500  0.146100  1.0  0.154
  C  C1042  1  0.612300  0.889200  0.255900  1.0  0.0252
  C  C1043  1  0.595900  0.899800  0.303800  1.0  -0.1675
  C  C1044  1  0.570700  0.874200  0.332600  1.0  -0.1148
  C  C1045  1  0.559100  0.834700  0.314300  1.0  -0.0915
  C  C1046  1  0.574200  0.821800  0.265000  1.0  -0.108
  C  C1047  1  0.602400  0.847700  0.237300  1.0  -0.1172
  C  C1048  1  0.531700  0.806200  0.346900  1.0  0.6133
  C  C1049  1  0.977500  0.792600  0.979800  1.0  0.1758
  C  C1050  1  0.947400  0.813200  0.012200  1.0  -0.1914
  C  C1051  1  0.907200  0.816000  0.993900  1.0  -0.0299
  C  C1052  1  0.895800  0.797300  0.945100  1.0  -0.2157
  C  C1053  1  0.929300  0.777200  0.916300  1.0  0.1793
  C  C1054  1  0.875700  0.840300  0.025100  1.0  0.0143
  C  C1055  1  0.880300  0.845800  0.079100  1.0  -0.1871
  C  C1056  1  0.851900  0.873600  0.105600  1.0  -0.0252
  C  C1057  1  0.819200  0.891000  0.078900  1.0  -0.0838
  C  C1058  1  0.812800  0.883600  0.026000  1.0  -0.0248
  C  C1059  1  0.840900  0.856200  0.998800  1.0  -0.1237
  C  C1060  1  0.792800  0.924400  0.105300  1.0  0.6659
  C  C1061  1  0.430000  0.681600  0.383000  1.0  0.1717
  C  C1062  1  0.408000  0.651400  0.358600  1.0  -0.1775
  C  C1063  1  0.411900  0.643300  0.304700  1.0  0.0982
  C  C1064  1  0.439400  0.667200  0.278400  1.0  -0.1429
  C  C1065  1  0.463700  0.698500  0.306700  1.0  0.1378
  C  C1066  1  0.387700  0.611700  0.274600  1.0  0.0422
  C  C1067  1  0.400900  0.594000  0.229200  1.0  -0.1684
  C  C1068  1  0.374500  0.565200  0.201800  1.0  -0.0822
  C  C1069  1  0.334400  0.558600  0.216400  1.0  -0.1288
  C  C1070  1  0.320200  0.577000  0.264900  1.0  -0.0388
  C  C1071  1  0.344700  0.604800  0.291700  1.0  -0.1474
  C  C1072  1  0.305200  0.530900  0.184100  1.0  0.6116
  C  C1073  1  0.429000  0.276100  0.916000  1.0  0.1734
  C  C1074  1  0.396100  0.296000  0.942900  1.0  -0.2026
  C  C1075  1  0.404000  0.312900  0.993600  1.0  0.0668
  C  C1076  1  0.446200  0.307600  0.012800  1.0  -0.197
  C  C1077  1  0.475500  0.288900  0.982800  1.0  0.1698
  C  C1078  1  0.371900  0.336300  0.023600  1.0  0.0399
  C  C1079  1  0.374900  0.341300  0.077800  1.0  -0.1465
  C  C1080  1  0.346900  0.369000  0.105300  1.0  -0.046
  C  C1081  1  0.315600  0.389100  0.078500  1.0  -0.1176
  C  C1082  1  0.311500  0.382400  0.024300  1.0  -0.0327
  C  C1083  1  0.338200  0.354700  0.997000  1.0  -0.1268
  C  C1084  1  0.290200  0.421800  0.107000  1.0  0.653
  C  C1085  1  0.325400  0.063900  0.646700  1.0  0.1855
  C  C1086  1  0.358000  0.085600  0.670300  1.0  -0.206
  C  C1087  1  0.361000  0.084800  0.726900  1.0  0.1024
  C  C1088  1  0.334500  0.059700  0.751500  1.0  -0.1577
  C  C1089  1  0.303300  0.038100  0.725200  1.0  0.1629
  C  C1090  1  0.393100  0.110000  0.754900  1.0  0.0215
  C  C1091  1  0.401800  0.150100  0.736900  1.0  -0.1194
  C  C1092  1  0.427400  0.177400  0.767400  1.0  -0.0058
  C  C1093  1  0.444100  0.162900  0.813800  1.0  -0.1238
  C  C1094  1  0.438200  0.121300  0.830100  1.0  -0.0681
  C  C1095  1  0.411800  0.095700  0.800600  1.0  -0.1392
  C  C1096  1  0.470200  0.192400  0.847100  1.0  0.6149
  C  C1097  1  0.710900  0.024500  0.051100  1.0  0.1814
  C  C1098  1  0.691500  0.054700  0.018800  1.0  -0.1814
  C  C1099  1  0.687600  0.096400  0.040600  1.0  0.0113
  C  C1100  1  0.703500  0.104700  0.089900  1.0  -0.1791
  C  C1101  1  0.723600  0.071700  0.118300  1.0  0.1688
  C  C1102  1  0.664200  0.128800  0.009700  1.0  0.0257
  C  C1103  1  0.660400  0.125300  0.954700  1.0  -0.2252
  C  C1104  1  0.633700  0.153800  0.928400  1.0  -0.0355
  C  C1105  1  0.610800  0.184000  0.955100  1.0  -0.1282
  C  C1106  1  0.617000  0.188400  0.008600  1.0  -0.0399
  C  C1107  1  0.645400  0.161500  0.036500  1.0  -0.1355
  C  C1108  1  0.577500  0.210100  0.927300  1.0  0.6473
  C  C1109  1  0.963000  0.199500  0.307700  1.0  0.1333
  C  C1110  1  0.940400  0.167000  0.281400  1.0  -0.1211
  C  C1111  1  0.916200  0.140600  0.308000  1.0  0.0521
  C  C1112  1  0.914700  0.141700  0.363800  1.0  -0.1794
  C  C1113  1  0.938100  0.175900  0.388000  1.0  0.1792
  C  C1114  1  0.891200  0.107100  0.280400  1.0  0.0476
  C  C1115  1  0.903200  0.089700  0.232000  1.0  -0.1198
  C  C1116  1  0.877900  0.066100  0.202400  1.0  -0.0976
  C  C1117  1  0.824200  0.070700  0.270100  1.0  -0.0469
  C  C1118  1  0.850400  0.098000  0.299200  1.0  -0.1297
  C  C1119  1  0.807800  0.031400  0.186300  1.0  0.6371
  C  C1120  1  0.836800  0.055700  0.219200  1.0  -0.1016
  C  C1121  1  0.723000  0.070400  0.615500  1.0  0.1767
  C  C1122  1  0.703700  0.103300  0.587100  1.0  -0.1863
  C  C1123  1  0.683800  0.091500  0.537200  1.0  0.06
  C  C1124  1  0.685400  0.051000  0.520200  1.0  -0.212
  C  C1125  1  0.706700  0.021700  0.551600  1.0  0.182
  C  C1126  1  0.659300  0.123400  0.506900  1.0  0.0167
  C  C1127  1  0.642500  0.159100  0.532600  1.0  -0.1228
  C  C1128  1  0.615300  0.186600  0.506700  1.0  -0.0865
  C  C1129  1  0.608300  0.180600  0.452400  1.0  -0.1137
  C  C1130  1  0.625700  0.148500  0.425600  1.0  -0.0398
  C  C1131  1  0.652800  0.119000  0.453000  1.0  -0.146
  C  C1132  1  0.575400  0.207800  0.426200  1.0  0.6492
  C  C1133  1  0.300900  0.035000  0.225900  1.0  0.1072
  C  C1134  1  0.331700  0.059700  0.251600  1.0  -0.1213
  C  C1135  1  0.356500  0.087700  0.225700  1.0  0.0553
  C  C1136  1  0.351000  0.091000  0.172000  1.0  -0.1665
  C  C1137  1  0.320400  0.067500  0.146100  1.0  0.1538
  C  C1138  1  0.387700  0.110800  0.255900  1.0  0.0262
  C  C1139  1  0.404100  0.100200  0.303800  1.0  -0.1675
  C  C1140  1  0.429300  0.125800  0.332600  1.0  -0.1151
  C  C1141  1  0.440900  0.165300  0.314300  1.0  -0.0895
  C  C1142  1  0.425800  0.178200  0.265000  1.0  -0.1073
  C  C1143  1  0.397600  0.152300  0.237300  1.0  -0.1171
  C  C1144  1  0.468300  0.193800  0.346900  1.0  0.6134
  C  C1145  1  0.022500  0.207400  0.979800  1.0  0.1759
  C  C1146  1  0.052600  0.186800  0.012200  1.0  -0.1925
  C  C1147  1  0.092800  0.184000  0.993900  1.0  -0.03
  C  C1148  1  0.104200  0.202700  0.945100  1.0  -0.215
  C  C1149  1  0.070700  0.222800  0.916300  1.0  0.1792
  C  C1150  1  0.124300  0.159700  0.025100  1.0  0.0142
  C  C1151  1  0.119700  0.154200  0.079100  1.0  -0.1859
  C  C1152  1  0.148100  0.126400  0.105600  1.0  -0.0245
  C  C1153  1  0.180800  0.109000  0.078900  1.0  -0.0842
  C  C1154  1  0.187200  0.116400  0.026000  1.0  -0.0241
  C  C1155  1  0.159100  0.143800  0.998800  1.0  -0.1241
  C  C1156  1  0.207200  0.075600  0.105300  1.0  0.6647
  C  C1157  1  0.570000  0.318400  0.383000  1.0  0.1721
  C  C1158  1  0.592000  0.348600  0.358600  1.0  -0.1769
  C  C1159  1  0.588100  0.356700  0.304700  1.0  0.0991
  C  C1160  1  0.560600  0.332800  0.278400  1.0  -0.1427
  C  C1161  1  0.536300  0.301500  0.306700  1.0  0.1379
  C  C1162  1  0.612300  0.388300  0.274600  1.0  0.0423
  C  C1163  1  0.599100  0.406000  0.229200  1.0  -0.1696
  C  C1164  1  0.625500  0.434800  0.201800  1.0  -0.0832
  C  C1165  1  0.665600  0.441400  0.216400  1.0  -0.1284
  C  C1166  1  0.679800  0.423000  0.264900  1.0  -0.0373
  C  C1167  1  0.655300  0.395200  0.291700  1.0  -0.1469
  C  C1168  1  0.694800  0.469100  0.184100  1.0  0.6101
  C  C1169  1  0.571000  0.723900  0.916000  1.0  0.1732
  C  C1170  1  0.603900  0.704000  0.942900  1.0  -0.2021
  C  C1171  1  0.596000  0.687100  0.993600  1.0  0.0662
  C  C1172  1  0.553800  0.692400  0.012800  1.0  -0.1954
  C  C1173  1  0.524500  0.711100  0.982800  1.0  0.1713
  C  C1174  1  0.628100  0.663700  0.023600  1.0  0.0404
  C  C1175  1  0.625100  0.658700  0.077800  1.0  -0.1465
  C  C1176  1  0.653100  0.631000  0.105300  1.0  -0.0461
  C  C1177  1  0.684400  0.610900  0.078500  1.0  -0.1184
  C  C1178  1  0.688500  0.617600  0.024300  1.0  -0.0348
  C  C1179  1  0.661800  0.645300  0.997000  1.0  -0.1282
  C  C1180  1  0.709800  0.578200  0.107000  1.0  0.6533
  C  C1181  1  0.674600  0.936100  0.646700  1.0  0.1857
  C  C1182  1  0.642000  0.914400  0.670300  1.0  -0.2061
  C  C1183  1  0.639000  0.915200  0.726900  1.0  0.1026
  C  C1184  1  0.665500  0.940300  0.751500  1.0  -0.1593
  C  C1185  1  0.696700  0.961900  0.725200  1.0  0.1617
  C  C1186  1  0.606900  0.890000  0.754900  1.0  0.0222
  C  C1187  1  0.598200  0.849900  0.736900  1.0  -0.1198
  C  C1188  1  0.572600  0.822600  0.767400  1.0  -0.0058
  C  C1189  1  0.555900  0.837100  0.813800  1.0  -0.1237
  C  C1190  1  0.561800  0.878700  0.830100  1.0  -0.071
  C  C1191  1  0.588200  0.904300  0.800600  1.0  -0.1378
  C  C1192  1  0.529800  0.807600  0.847100  1.0  0.6143
  C  C1193  1  0.289100  0.975500  0.051100  1.0  0.1812
  C  C1194  1  0.308500  0.945300  0.018800  1.0  -0.1824
  C  C1195  1  0.312400  0.903600  0.040600  1.0  0.0115
  C  C1196  1  0.296500  0.895300  0.089900  1.0  -0.1784
  C  C1197  1  0.276400  0.928300  0.118300  1.0  0.1682
  C  C1198  1  0.335800  0.871200  0.009700  1.0  0.025
  C  C1199  1  0.339600  0.874700  0.954700  1.0  -0.2259
  C  C1200  1  0.366300  0.846200  0.928400  1.0  -0.0356
  C  C1201  1  0.389200  0.816000  0.955100  1.0  -0.1292
  C  C1202  1  0.383000  0.811600  0.008600  1.0  -0.0406
  C  C1203  1  0.354600  0.838500  0.036500  1.0  -0.1355
  C  C1204  1  0.422500  0.789900  0.927300  1.0  0.6475
  C  C1205  1  0.037000  0.800500  0.307700  1.0  0.1331
  C  C1206  1  0.059600  0.833000  0.281400  1.0  -0.1208
  C  C1207  1  0.083800  0.859400  0.308000  1.0  0.0525
  C  C1208  1  0.085300  0.858300  0.363800  1.0  -0.1791
  C  C1209  1  0.061900  0.824100  0.388000  1.0  0.1796
  C  C1210  1  0.108800  0.892900  0.280400  1.0  0.0487
  C  C1211  1  0.096800  0.910300  0.232000  1.0  -0.1207
  C  C1212  1  0.122100  0.933900  0.202400  1.0  -0.0994
  C  C1213  1  0.175800  0.929300  0.270100  1.0  -0.0486
  C  C1214  1  0.149600  0.902000  0.299200  1.0  -0.1287
  C  C1215  1  0.192200  0.968600  0.186300  1.0  0.6376
  C  C1216  1  0.163200  0.944300  0.219200  1.0  -0.1006
  C  C1217  1  0.777000  0.429600  0.115500  1.0  0.1765
  C  C1218  1  0.796300  0.396700  0.087100  1.0  -0.1845
  C  C1219  1  0.816200  0.408500  0.037200  1.0  0.0595
  C  C1220  1  0.814600  0.449000  0.020200  1.0  -0.2109
  C  C1221  1  0.793300  0.478300  0.051600  1.0  0.1819
  C  C1222  1  0.840700  0.376600  0.006900  1.0  0.0181
  C  C1223  1  0.857500  0.340900  0.032600  1.0  -0.1216
  C  C1224  1  0.884700  0.313400  0.006700  1.0  -0.0862
  C  C1225  1  0.891700  0.319400  0.952400  1.0  -0.1125
  C  C1226  1  0.874300  0.351500  0.925600  1.0  -0.0395
  C  C1227  1  0.847200  0.381000  0.953000  1.0  -0.1473
  C  C1228  1  0.924600  0.292200  0.926200  1.0  0.6495
  C  C1229  1  0.199100  0.465000  0.725900  1.0  0.1063
  C  C1230  1  0.168300  0.440300  0.751600  1.0  -0.1222
  C  C1231  1  0.143500  0.412300  0.725700  1.0  0.0552
  C  C1232  1  0.149000  0.409000  0.672000  1.0  -0.1658
  C  C1233  1  0.179600  0.432500  0.646100  1.0  0.154
  C  C1234  1  0.112300  0.389200  0.755900  1.0  0.0252
  C  C1235  1  0.095900  0.399800  0.803800  1.0  -0.1675
  C  C1236  1  0.070700  0.374200  0.832600  1.0  -0.1148
  C  C1237  1  0.059100  0.334700  0.814300  1.0  -0.0915
  C  C1238  1  0.074200  0.321800  0.765000  1.0  -0.108
  C  C1239  1  0.102400  0.347700  0.737300  1.0  -0.1172
  C  C1240  1  0.031700  0.306200  0.846900  1.0  0.6133
  C  C1241  1  0.477500  0.292600  0.479800  1.0  0.1758
  C  C1242  1  0.447400  0.313200  0.512200  1.0  -0.1914
  C  C1243  1  0.407200  0.316000  0.493900  1.0  -0.0299
  C  C1244  1  0.395800  0.297300  0.445100  1.0  -0.2157
  C  C1245  1  0.429300  0.277200  0.416300  1.0  0.1793
  C  C1246  1  0.375700  0.340300  0.525100  1.0  0.0143
  C  C1247  1  0.380300  0.345800  0.579100  1.0  -0.1871
  C  C1248  1  0.351900  0.373600  0.605600  1.0  -0.0252
  C  C1249  1  0.319200  0.391000  0.578900  1.0  -0.0838
  C  C1250  1  0.312800  0.383600  0.526000  1.0  -0.0248
  C  C1251  1  0.340900  0.356200  0.498800  1.0  -0.1237
  C  C1252  1  0.292800  0.424400  0.605300  1.0  0.6659
  C  C1253  1  0.930000  0.181600  0.883000  1.0  0.1717
  C  C1254  1  0.908000  0.151400  0.858600  1.0  -0.1775
  C  C1255  1  0.911900  0.143300  0.804700  1.0  0.0982
  C  C1256  1  0.939400  0.167200  0.778400  1.0  -0.1429
  C  C1257  1  0.963700  0.198500  0.806700  1.0  0.1378
  C  C1258  1  0.887700  0.111700  0.774600  1.0  0.0422
  C  C1259  1  0.900900  0.094000  0.729200  1.0  -0.1684
  C  C1260  1  0.874500  0.065200  0.701800  1.0  -0.0822
  C  C1261  1  0.834400  0.058600  0.716400  1.0  -0.1288
  C  C1262  1  0.820200  0.077000  0.764900  1.0  -0.0388
  C  C1263  1  0.844700  0.104800  0.791700  1.0  -0.1474
  C  C1264  1  0.805200  0.030900  0.684100  1.0  0.6116
  C  C1265  1  0.929000  0.776100  0.416000  1.0  0.1734
  C  C1266  1  0.896100  0.796000  0.442900  1.0  -0.2026
  C  C1267  1  0.904000  0.812900  0.493600  1.0  0.0668
  C  C1268  1  0.946200  0.807600  0.512800  1.0  -0.197
  C  C1269  1  0.975500  0.788900  0.482800  1.0  0.1698
  C  C1270  1  0.871900  0.836300  0.523600  1.0  0.0399
  C  C1271  1  0.874900  0.841300  0.577800  1.0  -0.1465
  C  C1272  1  0.846900  0.869000  0.605300  1.0  -0.046
  C  C1273  1  0.815600  0.889100  0.578500  1.0  -0.1176
  C  C1274  1  0.811500  0.882400  0.524300  1.0  -0.0327
  C  C1275  1  0.838200  0.854700  0.497000  1.0  -0.1268
  C  C1276  1  0.790200  0.921800  0.607000  1.0  0.653
  C  C1277  1  0.825400  0.563900  0.146700  1.0  0.1855
  C  C1278  1  0.858000  0.585600  0.170300  1.0  -0.206
  C  C1279  1  0.861000  0.584800  0.226900  1.0  0.1024
  C  C1280  1  0.834500  0.559700  0.251500  1.0  -0.1577
  C  C1281  1  0.803300  0.538100  0.225200  1.0  0.1629
  C  C1282  1  0.893100  0.610000  0.254900  1.0  0.0215
  C  C1283  1  0.901800  0.650100  0.236900  1.0  -0.1194
  C  C1284  1  0.927400  0.677400  0.267400  1.0  -0.0058
  C  C1285  1  0.944100  0.662900  0.313800  1.0  -0.1238
  C  C1286  1  0.938200  0.621300  0.330100  1.0  -0.0681
  C  C1287  1  0.911800  0.595700  0.300600  1.0  -0.1392
  C  C1288  1  0.970200  0.692400  0.347100  1.0  0.6149
  C  C1289  1  0.210900  0.524500  0.551100  1.0  0.1814
  C  C1290  1  0.191500  0.554700  0.518800  1.0  -0.1814
  C  C1291  1  0.187600  0.596400  0.540600  1.0  0.0113
  C  C1292  1  0.203500  0.604700  0.589900  1.0  -0.1791
  C  C1293  1  0.223600  0.571700  0.618300  1.0  0.1688
  C  C1294  1  0.164200  0.628800  0.509700  1.0  0.0257
  C  C1295  1  0.160400  0.625300  0.454700  1.0  -0.2252
  C  C1296  1  0.133700  0.653800  0.428400  1.0  -0.0355
  C  C1297  1  0.110800  0.684000  0.455100  1.0  -0.1282
  C  C1298  1  0.117000  0.688400  0.508600  1.0  -0.0399
  C  C1299  1  0.145400  0.661500  0.536500  1.0  -0.1355
  C  C1300  1  0.077500  0.710100  0.427300  1.0  0.6473
  C  C1301  1  0.463000  0.699500  0.807700  1.0  0.1333
  C  C1302  1  0.440400  0.667000  0.781400  1.0  -0.1211
  C  C1303  1  0.416200  0.640600  0.808000  1.0  0.0521
  C  C1304  1  0.414700  0.641700  0.863800  1.0  -0.1794
  C  C1305  1  0.438100  0.675900  0.888000  1.0  0.1792
  C  C1306  1  0.391200  0.607100  0.780400  1.0  0.0476
  C  C1307  1  0.403200  0.589700  0.732000  1.0  -0.1198
  C  C1308  1  0.377900  0.566100  0.702400  1.0  -0.0976
  C  C1309  1  0.324200  0.570700  0.770100  1.0  -0.0469
  C  C1310  1  0.350400  0.598000  0.799200  1.0  -0.1297
  C  C1311  1  0.307800  0.531400  0.686300  1.0  0.6371
  C  C1312  1  0.336800  0.555700  0.719200  1.0  -0.1016
  N  N1313  1  0.529500  0.774800  0.098600  1.0  -0.3311
  N  N1314  1  0.541200  0.204800  0.672500  1.0  -0.3456
  N  N1315  1  0.725300  0.468900  0.433000  1.0  -0.3084
  N  N1316  1  0.795900  0.958200  0.858000  1.0  -0.304
  N  N1317  1  0.227200  0.968800  0.434900  1.0  -0.3137
  N  N1318  1  0.459000  0.796900  0.173400  1.0  -0.3212
  N  N1319  1  0.468600  0.226600  0.599600  1.0  -0.3246
  N  N1320  1  0.296000  0.459500  0.861400  1.0  -0.3017
  N  N1321  1  0.970500  0.725200  0.598600  1.0  -0.3299
  N  N1322  1  0.958800  0.295200  0.172500  1.0  -0.346
  N  N1323  1  0.774700  0.031100  0.933000  1.0  -0.3104
  N  N1324  1  0.704100  0.541800  0.358000  1.0  -0.3046
  N  N1325  1  0.272800  0.531200  0.934900  1.0  -0.313
  N  N1326  1  0.041000  0.703100  0.673400  1.0  -0.3204
  N  N1327  1  0.031400  0.273400  0.099600  1.0  -0.3253
  N  N1328  1  0.204000  0.040500  0.361400  1.0  -0.3006
  N  N1329  1  0.029500  0.274800  0.598600  1.0  -0.3311
  N  N1330  1  0.041200  0.704800  0.172500  1.0  -0.3456
  N  N1331  1  0.225300  0.968900  0.933000  1.0  -0.3084
  N  N1332  1  0.295900  0.458200  0.358000  1.0  -0.304
  N  N1333  1  0.727200  0.468800  0.934900  1.0  -0.3137
  N  N1334  1  0.959000  0.296900  0.673400  1.0  -0.3212
  N  N1335  1  0.968600  0.726600  0.099600  1.0  -0.3246
  N  N1336  1  0.796000  0.959500  0.361400  1.0  -0.3017
  N  N1337  1  0.470500  0.225200  0.098600  1.0  -0.3299
  N  N1338  1  0.458800  0.795200  0.672500  1.0  -0.346
  N  N1339  1  0.274700  0.531100  0.433000  1.0  -0.3104
  N  N1340  1  0.204100  0.041800  0.858000  1.0  -0.3046
  N  N1341  1  0.772800  0.031200  0.434900  1.0  -0.313
  N  N1342  1  0.541000  0.203100  0.173400  1.0  -0.3204
  N  N1343  1  0.531400  0.773400  0.599600  1.0  -0.3253
  N  N1344  1  0.704000  0.540500  0.861400  1.0  -0.3006
  N  N1345  1  0.225200  0.529500  0.098600  1.0  -0.3318
  N  N1346  1  0.795200  0.541200  0.672500  1.0  -0.3453
  N  N1347  1  0.531100  0.725300  0.433000  1.0  -0.3093
  N  N1348  1  0.041800  0.795900  0.858000  1.0  -0.3049
  N  N1349  1  0.031200  0.227200  0.434900  1.0  -0.3127
  N  N1350  1  0.203100  0.459000  0.173400  1.0  -0.3198
  N  N1351  1  0.773400  0.468600  0.599600  1.0  -0.3263
  N  N1352  1  0.540500  0.296000  0.861400  1.0  -0.3026
  N  N1353  1  0.274800  0.970500  0.598600  1.0  -0.3323
  N  N1354  1  0.704800  0.958800  0.172500  1.0  -0.3461
  N  N1355  1  0.968900  0.774700  0.933000  1.0  -0.3086
  N  N1356  1  0.458200  0.704100  0.358000  1.0  -0.3033
  N  N1357  1  0.468800  0.272800  0.934900  1.0  -0.3117
  N  N1358  1  0.296900  0.041000  0.673400  1.0  -0.3199
  N  N1359  1  0.726600  0.031400  0.099600  1.0  -0.3262
  N  N1360  1  0.959500  0.204000  0.361400  1.0  -0.3022
  N  N1361  1  0.725200  0.029500  0.598600  1.0  -0.3318
  N  N1362  1  0.295200  0.041200  0.172500  1.0  -0.3453
  N  N1363  1  0.031100  0.225300  0.933000  1.0  -0.3093
  N  N1364  1  0.541800  0.295900  0.358000  1.0  -0.3049
  N  N1365  1  0.531200  0.727200  0.934900  1.0  -0.3127
  N  N1366  1  0.703100  0.959000  0.673400  1.0  -0.3198
  N  N1367  1  0.273400  0.968600  0.099600  1.0  -0.3263
  N  N1368  1  0.040500  0.796000  0.361400  1.0  -0.3026
  N  N1369  1  0.774800  0.470500  0.098600  1.0  -0.3323
  N  N1370  1  0.204800  0.458800  0.672500  1.0  -0.3461
  N  N1371  1  0.468900  0.274700  0.433000  1.0  -0.3086
  N  N1372  1  0.958200  0.204100  0.858000  1.0  -0.3033
  N  N1373  1  0.968800  0.772800  0.434900  1.0  -0.3117
  N  N1374  1  0.796900  0.541000  0.173400  1.0  -0.3199
  N  N1375  1  0.226600  0.531400  0.599600  1.0  -0.3262
  N  N1376  1  0.459500  0.704000  0.861400  1.0  -0.3022
  O  O1377  1  0.733000  0.945600  0.953100  1.0  -0.5403
  O  O1378  1  0.703400  0.931100  0.876300  1.0  -0.5703
  O  O1379  1  0.685400  0.021700  0.894800  1.0  -0.6046
  O  O1380  1  0.729300  0.021900  0.826900  1.0  -0.5352
  O  O1381  1  0.568600  0.296400  0.655500  1.0  -0.5741
  O  O1382  1  0.554200  0.267600  0.578600  1.0  -0.5449
  O  O1383  1  0.980600  0.815300  0.638900  1.0  -0.5804
  O  O1384  1  0.979200  0.770400  0.704000  1.0  -0.5465
  O  O1385  1  0.055700  0.765500  0.579300  1.0  -0.5245
  O  O1386  1  0.071400  0.794300  0.654900  1.0  -0.5432
  O  O1387  1  0.272200  0.979700  0.328100  1.0  -0.5545
  O  O1388  1  0.317900  0.982500  0.394000  1.0  -0.5678
  O  O1389  1  0.294300  0.072200  0.377900  1.0  -0.5601
  O  O1390  1  0.266200  0.055800  0.455400  1.0  -0.5346
  O  O1391  1  0.478300  0.272000  0.707000  1.0  -0.5361
  O  O1392  1  0.479100  0.318100  0.640200  1.0  -0.574
  O  O1393  1  0.767000  0.554400  0.453100  1.0  -0.5396
  O  O1394  1  0.796600  0.568900  0.376300  1.0  -0.5693
  O  O1395  1  0.814600  0.478300  0.394800  1.0  -0.6052
  O  O1396  1  0.770700  0.478100  0.326900  1.0  -0.5334
  O  O1397  1  0.931400  0.203600  0.155500  1.0  -0.5753
  O  O1398  1  0.945800  0.232400  0.078600  1.0  -0.5445
  O  O1399  1  0.519400  0.684700  0.138900  1.0  -0.5813
  O  O1400  1  0.520800  0.729600  0.204000  1.0  -0.5472
  O  O1401  1  0.444300  0.734500  0.079300  1.0  -0.525
  O  O1402  1  0.428600  0.705700  0.154900  1.0  -0.5437
  O  O1403  1  0.227800  0.520300  0.828100  1.0  -0.5548
  O  O1404  1  0.182100  0.517500  0.894000  1.0  -0.5655
  O  O1405  1  0.205700  0.427800  0.877900  1.0  -0.5598
  O  O1406  1  0.233800  0.444200  0.955400  1.0  -0.5339
  O  O1407  1  0.021700  0.228000  0.207000  1.0  -0.5359
  O  O1408  1  0.020900  0.181900  0.140200  1.0  -0.5744
  O  O1409  1  0.233000  0.445600  0.453100  1.0  -0.5403
  O  O1410  1  0.203400  0.431100  0.376300  1.0  -0.5703
  O  O1411  1  0.185400  0.521700  0.394800  1.0  -0.6046
  O  O1412  1  0.229300  0.521900  0.326900  1.0  -0.5352
  O  O1413  1  0.068600  0.796400  0.155500  1.0  -0.5741
  O  O1414  1  0.054200  0.767600  0.078600  1.0  -0.5449
  O  O1415  1  0.480600  0.315300  0.138900  1.0  -0.5804
  O  O1416  1  0.479200  0.270400  0.204000  1.0  -0.5465
  O  O1417  1  0.555700  0.265500  0.079300  1.0  -0.5245
  O  O1418  1  0.571400  0.294300  0.154900  1.0  -0.5432
  O  O1419  1  0.772200  0.479700  0.828100  1.0  -0.5545
  O  O1420  1  0.817900  0.482500  0.894000  1.0  -0.5678
  O  O1421  1  0.794300  0.572200  0.877900  1.0  -0.5601
  O  O1422  1  0.766200  0.555800  0.955400  1.0  -0.5346
  O  O1423  1  0.978300  0.772000  0.207000  1.0  -0.5361
  O  O1424  1  0.979100  0.818100  0.140200  1.0  -0.574
  O  O1425  1  0.267000  0.054400  0.953100  1.0  -0.5396
  O  O1426  1  0.296600  0.068900  0.876300  1.0  -0.5693
  O  O1427  1  0.314600  0.978300  0.894800  1.0  -0.6052
  O  O1428  1  0.270700  0.978100  0.826900  1.0  -0.5334
  O  O1429  1  0.431400  0.703600  0.655500  1.0  -0.5753
  O  O1430  1  0.445800  0.732400  0.578600  1.0  -0.5445
  O  O1431  1  0.019400  0.184700  0.638900  1.0  -0.5813
  O  O1432  1  0.020800  0.229600  0.704000  1.0  -0.5472
  O  O1433  1  0.944300  0.234500  0.579300  1.0  -0.525
  O  O1434  1  0.928600  0.205700  0.654900  1.0  -0.5437
  O  O1435  1  0.727800  0.020300  0.328100  1.0  -0.5548
  O  O1436  1  0.682100  0.017500  0.394000  1.0  -0.5655
  O  O1437  1  0.705700  0.927800  0.377900  1.0  -0.5598
  O  O1438  1  0.733800  0.944200  0.455400  1.0  -0.5339
  O  O1439  1  0.521700  0.728000  0.707000  1.0  -0.5359
  O  O1440  1  0.520900  0.681900  0.640200  1.0  -0.5744
  O  O1441  1  0.054400  0.733000  0.953100  1.0  -0.541
  O  O1442  1  0.068900  0.703400  0.876300  1.0  -0.5712
  O  O1443  1  0.978300  0.685400  0.894800  1.0  -0.6049
  O  O1444  1  0.978100  0.729300  0.826900  1.0  -0.5353
  O  O1445  1  0.703600  0.568600  0.655500  1.0  -0.5735
  O  O1446  1  0.732400  0.554200  0.578600  1.0  -0.5418
  O  O1447  1  0.184700  0.980600  0.638900  1.0  -0.5805
  O  O1448  1  0.229600  0.979200  0.704000  1.0  -0.5469
  O  O1449  1  0.234500  0.055700  0.579300  1.0  -0.525
  O  O1450  1  0.205700  0.071400  0.654900  1.0  -0.5423
  O  O1451  1  0.020300  0.272200  0.328100  1.0  -0.5558
  O  O1452  1  0.017500  0.317900  0.394000  1.0  -0.568
  O  O1453  1  0.927800  0.294300  0.377900  1.0  -0.563
  O  O1454  1  0.944200  0.266200  0.455400  1.0  -0.535
  O  O1455  1  0.728000  0.478300  0.707000  1.0  -0.5384
  O  O1456  1  0.681900  0.479100  0.640200  1.0  -0.5752
  O  O1457  1  0.445600  0.767000  0.453100  1.0  -0.5393
  O  O1458  1  0.431100  0.796600  0.376300  1.0  -0.5711
  O  O1459  1  0.521700  0.814600  0.394800  1.0  -0.6058
  O  O1460  1  0.521900  0.770700  0.326900  1.0  -0.5349
  O  O1461  1  0.796400  0.931400  0.155500  1.0  -0.5723
  O  O1462  1  0.767600  0.945800  0.078600  1.0  -0.5432
  O  O1463  1  0.315300  0.519400  0.138900  1.0  -0.5814
  O  O1464  1  0.270400  0.520800  0.204000  1.0  -0.5474
  O  O1465  1  0.265500  0.444300  0.079300  1.0  -0.5249
  O  O1466  1  0.294300  0.428600  0.154900  1.0  -0.542
  O  O1467  1  0.479700  0.227800  0.828100  1.0  -0.5564
  O  O1468  1  0.482500  0.182100  0.894000  1.0  -0.5684
  O  O1469  1  0.572200  0.205700  0.877900  1.0  -0.564
  O  O1470  1  0.555800  0.233800  0.955400  1.0  -0.5365
  O  O1471  1  0.772000  0.021700  0.207000  1.0  -0.5372
  O  O1472  1  0.818100  0.020900  0.140200  1.0  -0.576
  O  O1473  1  0.554400  0.233000  0.453100  1.0  -0.541
  O  O1474  1  0.568900  0.203400  0.376300  1.0  -0.5712
  O  O1475  1  0.478300  0.185400  0.394800  1.0  -0.6049
  O  O1476  1  0.478100  0.229300  0.326900  1.0  -0.5353
  O  O1477  1  0.203600  0.068600  0.155500  1.0  -0.5735
  O  O1478  1  0.232400  0.054200  0.078600  1.0  -0.5418
  O  O1479  1  0.684700  0.480600  0.138900  1.0  -0.5805
  O  O1480  1  0.729600  0.479200  0.204000  1.0  -0.5469
  O  O1481  1  0.734500  0.555700  0.079300  1.0  -0.525
  O  O1482  1  0.705700  0.571400  0.154900  1.0  -0.5423
  O  O1483  1  0.520300  0.772200  0.828100  1.0  -0.5558
  O  O1484  1  0.517500  0.817900  0.894000  1.0  -0.568
  O  O1485  1  0.427800  0.794300  0.877900  1.0  -0.563
  O  O1486  1  0.444200  0.766200  0.955400  1.0  -0.535
  O  O1487  1  0.228000  0.978300  0.207000  1.0  -0.5384
  O  O1488  1  0.181900  0.979100  0.140200  1.0  -0.5752
  O  O1489  1  0.945600  0.267000  0.953100  1.0  -0.5393
  O  O1490  1  0.931100  0.296600  0.876300  1.0  -0.5711
  O  O1491  1  0.021700  0.314600  0.894800  1.0  -0.6058
  O  O1492  1  0.021900  0.270700  0.826900  1.0  -0.5349
  O  O1493  1  0.296400  0.431400  0.655500  1.0  -0.5723
  O  O1494  1  0.267600  0.445800  0.578600  1.0  -0.5432
  O  O1495  1  0.815300  0.019400  0.638900  1.0  -0.5814
  O  O1496  1  0.770400  0.020800  0.704000  1.0  -0.5474
  O  O1497  1  0.765500  0.944300  0.579300  1.0  -0.5249
  O  O1498  1  0.794300  0.928600  0.654900  1.0  -0.542
  O  O1499  1  0.979700  0.727800  0.328100  1.0  -0.5564
  O  O1500  1  0.982500  0.682100  0.394000  1.0  -0.5684
  O  O1501  1  0.072200  0.705700  0.377900  1.0  -0.564
  O  O1502  1  0.055800  0.733800  0.455400  1.0  -0.5365
  O  O1503  1  0.272000  0.521700  0.707000  1.0  -0.5372
  O  O1504  1  0.318100  0.520900  0.640200  1.0  -0.576
