# generated using pymatgen
data_CoH16C24(NO2)2
_symmetry_space_group_name_H-M   'P 1'
_cell_length_a   25.33230000
_cell_length_b   25.92010000
_cell_length_c   25.92010000
_cell_angle_alpha   76.18490000
_cell_angle_beta   60.74740000
_cell_angle_gamma   60.74740000
_symmetry_Int_Tables_number   1
_chemical_formula_structural   CoH16C24(NO2)2
_chemical_formula_sum   'Co16 H256 C384 N32 O64'
_cell_volume   12955.45855695
_cell_formula_units_Z   16
loop_
 _symmetry_equiv_pos_site_id
 _symmetry_equiv_pos_as_xyz
  1  'x, y, z'
loop_
 _atom_site_type_symbol
 _atom_site_label
 _atom_site_symmetry_multiplicity
 _atom_site_fract_x
 _atom_site_fract_y
 _atom_site_fract_z
 _atom_site_occupancy
 _atom_site_charge
  Co  Co1  1  0.829040  0.771530  0.739450  1.0  0.8787
  Co  Co2  1  0.333730  0.769900  0.733200  1.0  0.8824
  Co  Co3  1  0.850410  0.729530  0.237010  1.0  0.7831
  Co  Co4  1  0.312940  0.271070  0.762770  1.0  0.8365
  Co  Co5  1  0.340020  0.228470  0.260550  1.0  0.8794
  Co  Co6  1  0.836830  0.230100  0.266800  1.0  0.8834
  Co  Co7  1  0.816950  0.270470  0.762990  1.0  0.7823
  Co  Co8  1  0.346780  0.728930  0.237230  1.0  0.8372
  Co  Co9  1  0.568490  0.260550  0.771530  1.0  0.8791
  Co  Co10  1  0.066930  0.266800  0.769900  1.0  0.8838
  Co  Co11  1  0.087420  0.762990  0.729530  1.0  0.7831
  Co  Co12  1  0.075710  0.237230  0.271070  1.0  0.8366
  Co  Co13  1  0.600570  0.739450  0.228470  1.0  0.8797
  Co  Co14  1  0.103630  0.733200  0.230100  1.0  0.8826
  Co  Co15  1  0.579940  0.237010  0.270470  1.0  0.7823
  Co  Co16  1  0.584010  0.762770  0.728930  1.0  0.8372
  H  H17  1  0.725900  0.127600  0.786800  1.0  0.1164
  H  H18  1  0.096100  0.395100  0.805500  1.0  0.0845
  H  H19  1  0.930100  0.894600  0.683400  1.0  0.1345
  H  H20  1  0.424000  0.073500  0.667700  1.0  0.1304
  H  H21  1  0.418500  0.153600  0.692200  1.0  0.0739
  H  H22  1  0.426100  0.985300  0.693300  1.0  0.0983
  H  H23  1  0.694700  0.257700  0.308700  1.0  0.0911
  H  H24  1  0.057200  0.634200  0.733000  1.0  0.1251
  H  H25  1  0.433500  0.893900  0.682500  1.0  0.1186
  H  H26  1  0.917700  0.075900  0.669700  1.0  0.1152
  H  H27  1  0.909900  0.368500  0.286900  1.0  0.127
  H  H28  1  0.595200  0.276900  0.395300  1.0  0.1107
  H  H29  1  0.921000  0.987600  0.697400  1.0  0.1064
  H  H30  1  0.912600  0.766300  0.355100  1.0  0.1207
  H  H31  1  0.824100  0.333333  0.185900  1.0  0.0964
  H  H32  1  0.916000  0.572500  0.833900  1.0  0.1159
  H  H33  1  0.538200  0.780300  0.102700  1.0  0.1208
  H  H34  1  0.002400  0.481000  0.815800  1.0  0.1228
  H  H35  1  0.767900  0.726900  0.695100  1.0  0.0967
  H  H36  1  0.782900  0.693200  0.445400  1.0  0.104
  H  H37  1  0.808800  0.515200  0.182800  1.0  0.122
  H  H38  1  0.802300  0.602700  0.194100  1.0  0.0905
  H  H39  1  0.154000  0.728500  0.859500  1.0  0.0959
  H  H40  1  0.784400  0.265200  0.392600  1.0  0.0803
  H  H41  1  0.553600  0.736700  0.943300  1.0  0.1206
  H  H42  1  0.954600  0.521000  0.239600  1.0  0.1005
  H  H43  1  0.723900  0.215000  0.805000  1.0  0.122
  H  H44  1  0.223400  0.213700  0.794900  1.0  0.0993
  H  H45  1  0.919600  0.150500  0.695700  1.0  0.0801
  H  H46  1  0.831400  0.423800  0.166600  1.0  0.1253
  H  H47  1  0.835600  0.662100  0.814300  1.0  0.1039
  H  H48  1  0.961700  0.433000  0.230400  1.0  0.0917
  H  H49  1  0.239300  0.978100  0.705500  1.0  0.1093
  H  H50  1  0.732300  0.978200  0.721200  1.0  0.101
  H  H51  1  0.784800  0.694900  0.535700  1.0  0.1284
  H  H52  1  0.173200  0.832100  0.936300  1.0  0.1286
  H  H53  1  0.195900  0.481800  0.793600  1.0  0.091
  H  H54  1  0.234700  0.069000  0.721800  1.0  0.095
  H  H55  1  0.448300  0.773000  0.019000  1.0  0.1139
  H  H56  1  0.530800  0.228500  0.643700  1.0  0.1152
  H  H57  1  0.584700  0.822100  0.027700  1.0  0.1027
  H  H58  1  0.726600  0.069000  0.736600  1.0  0.1032
  H  H59  1  0.093100  0.814800  0.024400  1.0  0.0976
  H  H60  1  0.908100  0.775600  0.448400  1.0  0.1162
  H  H61  1  0.686700  0.295400  0.479000  1.0  0.1266
  H  H62  1  0.898700  0.286600  0.298000  1.0  0.0619
  H  H63  1  0.671400  0.832800  0.938200  1.0  0.1357
  H  H64  1  0.063400  0.725300  0.943300  1.0  0.1114
  H  H65  1  0.960300  0.763800  0.189400  1.0  0.0801
  H  H66  1  0.880800  0.740600  0.105400  1.0  0.0927
  H  H67  1  0.623000  0.237100  0.554900  1.0  0.0803
  H  H68  1  0.921600  0.768800  0.604600  1.0  0.0941
  H  H69  1  0.045900  0.775600  0.102800  1.0  0.1193
  H  H70  1  0.969400  0.749800  0.015000  1.0  0.1086
  H  H71  1  0.914300  0.774200  0.519000  1.0  0.1235
  H  H72  1  0.463400  0.750400  0.191800  1.0  0.1044
  H  H73  1  0.365700  0.761000  0.105800  1.0  0.1116
  H  H74  1  0.414600  0.335100  0.558700  1.0  0.1133
  H  H75  1  0.637000  0.748600  0.855600  1.0  0.0881
  H  H76  1  0.226900  0.127300  0.774700  1.0  0.1308
  H  H77  1  0.107700  0.570800  0.795000  1.0  0.1227
  H  H78  1  0.502700  0.336000  0.478000  1.0  0.1128
  H  H79  1  0.976700  0.718100  0.720500  1.0  0.0726
  H  H80  1  0.771100  0.719600  0.607800  1.0  0.1447
  H  H81  1  0.640300  0.872400  0.213200  1.0  0.1162
  H  H82  1  0.296700  0.604900  0.194500  1.0  0.0841
  H  H83  1  0.508100  0.105400  0.316600  1.0  0.1338
  H  H84  1  0.165200  0.926500  0.332300  1.0  0.1301
  H  H85  1  0.264300  0.846400  0.307800  1.0  0.0743
  H  H86  1  0.104700  0.014700  0.306700  1.0  0.0996
  H  H87  1  0.261100  0.742300  0.691300  1.0  0.0887
  H  H88  1  0.424400  0.365800  0.267000  1.0  0.1233
  H  H89  1  0.009900  0.106100  0.317500  1.0  0.1185
  H  H90  1  0.663300  0.924100  0.330300  1.0  0.1148
  H  H91  1  0.565300  0.631500  0.713100  1.0  0.1279
  H  H92  1  0.267400  0.723100  0.604700  1.0  0.111
  H  H93  1  0.606000  0.012400  0.302600  1.0  0.1077
  H  H94  1  0.034000  0.233700  0.644900  1.0  0.1211
  H  H95  1  0.343300  0.666667  0.814100  1.0  0.0956
  H  H96  1  0.322400  0.427500  0.166100  1.0  0.1169
  H  H97  1  0.421200  0.219700  0.897300  1.0  0.122
  H  H98  1  0.299200  0.519000  0.184200  1.0  0.123
  H  H99  1  0.189900  0.273100  0.304900  1.0  0.0987
  H  H100  1  0.921500  0.306800  0.554600  1.0  0.1055
  H  H101  1  0.506800  0.484800  0.817200  1.0  0.1192
  H  H102  1  0.599100  0.397300  0.805900  1.0  0.0911
  H  H103  1  0.742000  0.271500  0.140500  1.0  0.0955
  H  H104  1  0.442200  0.734800  0.607400  1.0  0.0799
  H  H105  1  0.233600  0.263300  0.056700  1.0  0.1208
  H  H106  1  0.715200  0.479000  0.760400  1.0  0.1002
  H  H107  1  0.743900  0.785000  0.195000  1.0  0.1222
  H  H108  1  0.232000  0.786300  0.205100  1.0  0.0999
  H  H109  1  0.765800  0.849500  0.304300  1.0  0.0791
  H  H110  1  0.421800  0.576200  0.833400  1.0  0.1246
  H  H111  1  0.312000  0.337900  0.185700  1.0  0.1045
  H  H112  1  0.625100  0.567000  0.769600  1.0  0.0905
  H  H113  1  0.922900  0.021900  0.294500  1.0  0.1084
  H  H114  1  0.431700  0.021800  0.278800  1.0  0.0994
  H  H115  1  0.015400  0.305100  0.464300  1.0  0.1287
  H  H116  1  0.941600  0.167900  0.063700  1.0  0.1279
  H  H117  1  0.471300  0.518200  0.206400  1.0  0.0902
  H  H118  1  0.025500  0.931000  0.278200  1.0  0.0954
  H  H119  1  0.240300  0.227000  0.981000  1.0  0.112
  H  H120  1  0.403000  0.771500  0.356300  1.0  0.1164
  H  H121  1  0.434500  0.177900  0.972300  1.0  0.1008
  H  H122  1  0.532200  0.931000  0.263400  1.0  0.103
  H  H123  1  0.932300  0.185200  0.975600  1.0  0.095
  H  H124  1  0.132100  0.224400  0.551600  1.0  0.1149
  H  H125  1  0.461100  0.704600  0.521000  1.0  0.1251
  H  H126  1  0.483300  0.713400  0.702000  1.0  0.0615
  H  H127  1  0.442400  0.167200  0.061800  1.0  0.1352
  H  H128  1  0.732000  0.274700  0.056700  1.0  0.1124
  H  H129  1  0.913500  0.236200  0.810600  1.0  0.0741
  H  H130  1  0.726800  0.259400  0.894600  1.0  0.0924
  H  H131  1  0.415000  0.762900  0.445100  1.0  0.0809
  H  H132  1  0.295000  0.231200  0.395400  1.0  0.0945
  H  H133  1  0.924300  0.224400  0.897200  1.0  0.1197
  H  H134  1  0.734200  0.250200  0.985000  1.0  0.1066
  H  H135  1  0.207500  0.225800  0.481000  1.0  0.1261
  H  H136  1  0.405600  0.249600  0.808200  1.0  0.1028
  H  H137  1  0.232500  0.239000  0.894200  1.0  0.1119
  H  H138  1  0.308400  0.664900  0.441300  1.0  0.1121
  H  H139  1  0.241200  0.251400  0.144400  1.0  0.0866
  H  H140  1  0.128900  0.872700  0.225300  1.0  0.1307
  H  H141  1  0.473500  0.429200  0.205000  1.0  0.1226
  H  H142  1  0.316700  0.664000  0.522000  1.0  0.1137
  H  H143  1  0.415300  0.281900  0.279500  1.0  0.0724
  H  H144  1  0.098500  0.280400  0.392200  1.0  0.1436
  H  H145  1  0.512700  0.213200  0.127600  1.0  0.1144
  H  H146  1  0.901600  0.194500  0.395100  1.0  0.0869
  H  H147  1  0.613500  0.316600  0.894600  1.0  0.1346
  H  H148  1  0.091700  0.332300  0.073500  1.0  0.1299
  H  H149  1  0.110700  0.307800  0.153600  1.0  0.0701
  H  H150  1  0.119400  0.306700  0.985300  1.0  0.098
  H  H151  1  0.003400  0.691300  0.257700  1.0  0.0904
  H  H152  1  0.790200  0.267000  0.634200  1.0  0.1239
  H  H153  1  0.116000  0.317500  0.893900  1.0  0.1188
  H  H154  1  0.587400  0.330300  0.075900  1.0  0.1144
  H  H155  1  0.196800  0.713100  0.368500  1.0  0.1272
  H  H156  1  0.990500  0.604700  0.276900  1.0  0.1102
  H  H157  1  0.618400  0.302600  0.987600  1.0  0.1065
  H  H158  1  0.267700  0.644900  0.766300  1.0  0.1213
  H  H159  1  0.010000  0.814100  0.333333  1.0  0.0948
  H  H160  1  0.749900  0.166100  0.572500  1.0  0.1161
  H  H161  1  0.640900  0.897300  0.780300  1.0  0.1213
  H  H162  1  0.818200  0.184200  0.481000  1.0  0.1211
  H  H163  1  0.463000  0.304900  0.726900  1.0  0.0975
  H  H164  1  0.228300  0.554600  0.693200  1.0  0.1048
  H  H165  1  0.991600  0.817200  0.515200  1.0  0.1195
  H  H166  1  0.996400  0.805900  0.602700  1.0  0.0912
  H  H167  1  0.013500  0.140500  0.728500  1.0  0.0962
  H  H168  1  0.177000  0.607400  0.265200  1.0  0.0809
  H  H169  1  0.496900  0.056700  0.736700  1.0  0.1212
  H  H170  1  0.194200  0.760400  0.521000  1.0  0.0996
  H  H171  1  0.528900  0.195000  0.215000  1.0  0.1239
  H  H172  1  0.018300  0.205100  0.213700  1.0  0.0991
  H  H173  1  0.615300  0.304300  0.150500  1.0  0.0765
  H  H174  1  0.998000  0.833400  0.423800  1.0  0.1243
  H  H175  1  0.649900  0.185700  0.662100  1.0  0.1045
  H  H176  1  0.192100  0.769600  0.433000  1.0  0.0907
  H  H177  1  0.944800  0.294500  0.978100  1.0  0.1083
  H  H178  1  0.453500  0.278800  0.978200  1.0  0.0998
  H  H179  1  0.320500  0.464300  0.694900  1.0  0.1293
  H  H180  1  0.109500  0.063700  0.832100  1.0  0.1278
  H  H181  1  0.989500  0.206400  0.481800  1.0  0.09
  H  H182  1  0.956500  0.278200  0.069000  1.0  0.0952
  H  H183  1  0.467300  0.981000  0.773000  1.0  0.1142
  H  H184  1  0.174500  0.356300  0.228500  1.0  0.116
  H  H185  1  0.612400  0.972300  0.822100  1.0  0.1033
  H  H186  1  0.463200  0.263400  0.069000  1.0  0.1024
  H  H187  1  0.117500  0.975600  0.814800  1.0  0.0989
  H  H188  1  0.356500  0.551600  0.775600  1.0  0.1178
  H  H189  1  0.165700  0.521000  0.295400  1.0  0.1261
  H  H190  1  0.196700  0.702000  0.286600  1.0  0.0611
  H  H191  1  0.609600  0.061800  0.832800  1.0  0.1345
  H  H192  1  0.006700  0.056700  0.725300  1.0  0.1129
  H  H193  1  0.149700  0.810600  0.763800  1.0  0.0753
  H  H194  1  0.986200  0.894600  0.740600  1.0  0.0924
  H  H195  1  0.177900  0.445100  0.237100  1.0  0.0805
  H  H196  1  0.526200  0.395400  0.768800  1.0  0.0948
  H  H197  1  0.148700  0.897200  0.775600  1.0  0.119
  H  H198  1  0.984400  0.985000  0.749800  1.0  0.1079
  H  H199  1  0.433300  0.481000  0.774200  1.0  0.125
  H  H200  1  0.655200  0.808200  0.750400  1.0  0.1031
  H  H201  1  0.471500  0.894200  0.761000  1.0  0.1098
  H  H202  1  0.973300  0.441300  0.335100  1.0  0.113
  H  H203  1  0.492600  0.144400  0.748600  1.0  0.0871
  H  H204  1  0.001600  0.225300  0.127300  1.0  0.1297
  H  H205  1  0.902700  0.205000  0.570800  1.0  0.1241
  H  H206  1  0.980700  0.522000  0.336000  1.0  0.1149
  H  H207  1  0.697200  0.279500  0.718100  1.0  0.0735
  H  H208  1  0.378900  0.392200  0.719600  1.0  0.1437
  H  H209  1  0.853500  0.786800  0.872400  1.0  0.1176
  H  H210  1  0.491200  0.805500  0.604900  1.0  0.0845
  H  H211  1  0.824700  0.683400  0.105400  1.0  0.1349
  H  H212  1  0.497500  0.667700  0.926500  1.0  0.1308
  H  H213  1  0.572100  0.692200  0.846400  1.0  0.0724
  H  H214  1  0.411400  0.693300  0.014700  1.0  0.0981
  H  H215  1  0.952400  0.308700  0.742300  1.0  0.0904
  H  H216  1  0.691400  0.733000  0.365800  1.0  0.123
  H  H217  1  0.327400  0.682500  0.106100  1.0  0.12
  H  H218  1  0.993600  0.669700  0.924100  1.0  0.1144
  H  H219  1  0.278400  0.286900  0.631500  1.0  0.1273
  H  H220  1  0.872100  0.395300  0.723100  1.0  0.1101
  H  H221  1  0.908600  0.697400  0.012400  1.0  0.1067
  H  H222  1  0.678900  0.355100  0.233700  1.0  0.121
  H  H223  1  0.157400  0.185900  0.666667  1.0  0.0952
  H  H224  1  0.488500  0.833900  0.427500  1.0  0.116
  H  H225  1  0.318500  0.102700  0.219700  1.0  0.1211
  H  H226  1  0.483400  0.815800  0.519000  1.0  0.1213
  H  H227  1  0.494800  0.695100  0.273100  1.0  0.098
  H  H228  1  0.476100  0.445400  0.306800  1.0  0.1037
  H  H229  1  0.324000  0.182800  0.484800  1.0  0.1192
  H  H230  1  0.405000  0.194100  0.397300  1.0  0.0942
  H  H231  1  0.882500  0.859500  0.271500  1.0  0.0958
  H  H232  1  0.049600  0.392600  0.734800  1.0  0.0795
  H  H233  1  0.290300  0.943300  0.263300  1.0  0.1215
  H  H234  1  0.475600  0.239600  0.479000  1.0  0.1004
  H  H235  1  0.938900  0.805000  0.785000  1.0  0.1229
  H  H236  1  0.437100  0.794900  0.786300  1.0  0.0993
  H  H237  1  0.070100  0.695700  0.849500  1.0  0.0774
  H  H238  1  0.255200  0.166600  0.576200  1.0  0.1239
  H  H239  1  0.497700  0.814300  0.337900  1.0  0.1031
  H  H240  1  0.394700  0.230400  0.567000  1.0  0.0922
  H  H241  1  0.217400  0.705500  0.021900  1.0  0.1083
  H  H242  1  0.710500  0.721200  0.021800  1.0  0.0998
  H  H243  1  0.479700  0.535700  0.305100  1.0  0.1286
  H  H244  1  0.005300  0.936300  0.167900  1.0  0.1282
  H  H245  1  0.677700  0.793600  0.518200  1.0  0.0897
  H  H246  1  0.303700  0.721800  0.931000  1.0  0.0972
  H  H247  1  0.221300  0.019000  0.227000  1.0  0.1147
  H  H248  1  0.759300  0.643700  0.771500  1.0  0.1155
  H  H249  1  0.406800  0.027700  0.177900  1.0  0.1021
  H  H250  1  0.795600  0.736600  0.931000  1.0  0.104
  H  H251  1  0.907900  0.024400  0.185200  1.0  0.0972
  H  H252  1  0.683700  0.448400  0.224400  1.0  0.1133
  H  H253  1  0.982100  0.479000  0.704600  1.0  0.1258
  H  H254  1  0.185300  0.298000  0.713400  1.0  0.0608
  H  H255  1  0.504200  0.938200  0.167200  1.0  0.1338
  H  H256  1  0.788700  0.943300  0.274700  1.0  0.1123
  H  H257  1  0.724100  0.189400  0.236200  1.0  0.0747
  H  H258  1  0.621400  0.105400  0.259400  1.0  0.0915
  H  H259  1  0.860100  0.554900  0.762900  1.0  0.083
  H  H260  1  0.690400  0.604600  0.231200  1.0  0.0945
  H  H261  1  0.821500  0.102800  0.224400  1.0  0.1195
  H  H262  1  0.719200  0.015000  0.250200  1.0  0.1073
  H  H263  1  0.688500  0.519000  0.225800  1.0  0.1244
  H  H264  1  0.213800  0.191800  0.249600  1.0  0.1027
  H  H265  1  0.126700  0.105800  0.239000  1.0  0.1108
  H  H266  1  0.749700  0.558700  0.664900  1.0  0.1121
  H  H267  1  0.385600  0.855600  0.251400  1.0  0.0867
  H  H268  1  0.354200  0.774700  0.872700  1.0  0.1303
  H  H269  1  0.678500  0.795000  0.429200  1.0  0.1226
  H  H270  1  0.838700  0.478000  0.664000  1.0  0.1139
  H  H271  1  0.694800  0.720500  0.281900  1.0  0.0711
  H  H272  1  0.490700  0.607800  0.280400  1.0  0.1438
  C  C273  1  0.850600  0.725500  0.392100  1.0  -0.072
  C  C274  1  0.845400  0.729600  0.334000  1.0  0.5874
  C  C275  1  0.233000  0.779100  0.834900  1.0  0.5741
  C  C276  1  0.828100  0.927500  0.709100  1.0  -0.0534
  C  C277  1  0.668200  0.780900  0.889900  1.0  -0.0631
  C  C278  1  0.765000  0.134200  0.765200  1.0  -0.0595
  C  C279  1  0.403800  0.278700  0.671300  1.0  0.3934
  C  C280  1  0.097400  0.431400  0.804000  1.0  -0.0147
  C  C281  1  0.630400  0.280000  0.453200  1.0  0.0762
  C  C282  1  0.728900  0.780500  0.837300  1.0  0.5531
  C  C283  1  0.502900  0.774700  0.054500  1.0  0.0423
  C  C284  1  0.462100  0.284300  0.609900  1.0  -0.1044
  C  C285  1  0.888200  0.928900  0.695700  1.0  -0.121
  C  C286  1  0.333500  0.925600  0.700000  1.0  -0.0257
  C  C287  1  0.177600  0.778400  0.886200  1.0  -0.0064
  C  C288  1  0.382000  0.101900  0.693700  1.0  -0.2266
  C  C289  1  0.155100  0.429000  0.799600  1.0  -0.1454
  C  C290  1  0.377600  0.150400  0.707200  1.0  0.1886
  C  C291  1  0.995500  0.591400  0.787000  1.0  0.0286
  C  C292  1  0.387800  0.984300  0.696100  1.0  -0.1103
  C  C293  1  0.216500  0.369500  0.790900  1.0  0.6647
  C  C294  1  0.331300  0.036300  0.704500  1.0  0.0111
  C  C295  1  0.694200  0.262400  0.344200  1.0  0.1732
  C  C296  1  0.012500  0.638400  0.750000  1.0  -0.1896
  C  C297  1  0.392100  0.928700  0.691300  1.0  -0.1194
  C  C298  1  0.015300  0.764500  0.050500  1.0  0.0254
  C  C299  1  0.324900  0.092600  0.717800  1.0  0.0831
  C  C300  1  0.877400  0.103600  0.698200  1.0  -0.1923
  C  C301  1  0.890200  0.364100  0.266100  1.0  -0.1837
  C  C302  1  0.633600  0.273600  0.396600  1.0  -0.112
  C  C303  1  0.882700  0.985300  0.701900  1.0  -0.0905
  C  C304  1  0.873400  0.465400  0.219000  1.0  0.0495
  C  C305  1  0.887500  0.751500  0.390900  1.0  -0.0707
  C  C306  1  0.824700  0.873000  0.714800  1.0  0.6443
  C  C307  1  0.838200  0.343200  0.208400  1.0  0.1546
  C  C308  1  0.929800  0.601400  0.809200  1.0  -0.1199
  C  C309  1  0.852800  0.737400  0.552000  1.0  0.009
  C  C310  1  0.072000  0.771200  0.991600  1.0  -0.0008
  C  C311  1  0.505600  0.772400  0.102200  1.0  -0.1529
  C  C312  1  0.558700  0.783300  0.993900  1.0  0.0051
  C  C313  1  0.823100  0.036200  0.714000  1.0  0.0489
  C  C314  1  0.043500  0.481200  0.806400  1.0  -0.1555
  C  C315  1  0.800900  0.734300  0.659700  1.0  0.1633
  C  C316  1  0.811300  0.707200  0.445400  1.0  -0.0565
  C  C317  1  0.835200  0.516100  0.198500  1.0  -0.1507
  C  C318  1  0.835400  0.566800  0.200800  1.0  -0.0166
  C  C319  1  0.140200  0.748300  0.893500  1.0  -0.0325
  C  C320  1  0.745400  0.268300  0.392700  1.0  0.1691
  C  C321  1  0.329400  0.872300  0.703700  1.0  0.5846
  C  C322  1  0.576900  0.756700  0.942500  1.0  -0.1869
  C  C323  1  0.925400  0.519200  0.228000  1.0  -0.0068
  C  C324  1  0.763500  0.186500  0.776900  1.0  0.1135
  C  C325  1  0.264400  0.185200  0.767600  1.0  0.1467
  C  C326  1  0.877700  0.149100  0.711300  1.0  0.1685
  C  C327  1  0.050200  0.533500  0.794100  1.0  0.0127
  C  C328  1  0.844300  0.397100  0.195100  1.0  -0.1722
  C  C329  1  0.881500  0.654700  0.795900  1.0  0.1448
  C  C330  1  0.869800  0.410100  0.225300  1.0  0.0164
  C  C331  1  0.926200  0.468600  0.226600  1.0  -0.146
  C  C332  1  0.573000  0.284600  0.507800  1.0  0.0992
  C  C333  1  0.276800  0.977900  0.705700  1.0  -0.0559
  C  C334  1  0.770800  0.978800  0.718600  1.0  -0.0706
  C  C335  1  0.811400  0.708100  0.499700  1.0  -0.1786
  C  C336  1  0.154800  0.807400  0.937000  1.0  -0.1558
  C  C337  1  0.157000  0.482400  0.795800  1.0  -0.0304
  C  C338  1  0.275600  0.033900  0.712100  1.0  -0.1543
  C  C339  1  0.450600  0.770100  0.055100  1.0  -0.1344
  C  C340  1  0.524700  0.251500  0.610700  1.0  -0.1018
  C  C341  1  0.595300  0.807100  0.992100  1.0  -0.1095
  C  C342  1  0.768100  0.034300  0.724700  1.0  -0.1649
  C  C343  1  0.104500  0.799200  0.988800  1.0  -0.1156
  C  C344  1  0.886200  0.755300  0.446900  1.0  -0.1351
  C  C345  1  0.820300  0.094500  0.724500  1.0  0.0835
  C  C346  1  0.687500  0.283200  0.446800  1.0  -0.1509
  C  C347  1  0.881100  0.316300  0.273500  1.0  0.1729
  C  C348  1  0.649200  0.811200  0.940000  1.0  -0.1349
  C  C349  1  0.087500  0.744500  0.942500  1.0  -0.1093
  C  C350  1  0.961800  0.761300  0.152700  1.0  0.2045
  C  C351  1  0.579200  0.256000  0.556400  1.0  -0.0998
  C  C352  1  0.888000  0.760200  0.607000  1.0  0.1776
  C  C353  1  0.013200  0.768400  0.101400  1.0  -0.195
  C  C354  1  0.968200  0.753100  0.051300  1.0  -0.139
  C  C355  1  0.888400  0.759200  0.553800  1.0  -0.1838
  C  C356  1  0.458500  0.757700  0.156300  1.0  0.1366
  C  C357  1  0.402800  0.761900  0.105500  1.0  0.1289
  C  C358  1  0.457600  0.314200  0.558600  1.0  -0.0477
  C  C359  1  0.854800  0.730400  0.496000  1.0  0.0183
  C  C360  1  0.628900  0.760900  0.891500  1.0  -0.0622
  C  C361  1  0.266400  0.133300  0.755900  1.0  -0.139
  C  C362  1  0.106700  0.534600  0.795000  1.0  -0.1791
  C  C363  1  0.508900  0.314500  0.511500  1.0  -0.166
  C  C364  1  0.965100  0.686700  0.740300  1.0  0.1881
  C  C365  1  0.803100  0.729000  0.607400  1.0  -0.1493
  C  C366  1  0.881900  0.568900  0.212500  1.0  -0.133
  C  C367  1  0.875700  0.632500  0.214900  1.0  0.6804
  C  C368  1  0.918000  0.746400  0.104200  1.0  0.1333
  C  C369  1  0.968200  0.274500  0.607900  1.0  -0.0721
  C  C370  1  0.909000  0.270400  0.666000  1.0  0.5876
  C  C371  1  0.847000  0.220900  0.165100  1.0  0.5773
  C  C372  1  0.464700  0.072500  0.290900  1.0  -0.0539
  C  C373  1  0.339000  0.219100  0.110100  1.0  -0.0655
  C  C374  1  0.664400  0.865800  0.234800  1.0  -0.0597
  C  C375  1  0.353800  0.721300  0.328700  1.0  0.3937
  C  C376  1  0.332800  0.568600  0.196000  1.0  -0.0122
  C  C377  1  0.363600  0.720000  0.546800  1.0  0.0735
  C  C378  1  0.346700  0.219500  0.162700  1.0  0.5573
  C  C379  1  0.332100  0.225300  0.945500  1.0  0.0391
  C  C380  1  0.356300  0.715700  0.390100  1.0  -0.1096
  C  C381  1  0.512800  0.071100  0.304300  1.0  -0.1212
  C  C382  1  0.959100  0.074400  0.300000  1.0  -0.0247
  C  C383  1  0.842200  0.221600  0.113800  1.0  -0.0062
  C  C384  1  0.177600  0.898100  0.306300  1.0  -0.2264
  C  C385  1  0.383700  0.571000  0.200400  1.0  -0.1506
  C  C386  1  0.235200  0.849600  0.292800  1.0  0.1878
  C  C387  1  0.373900  0.408600  0.213000  1.0  0.0295
  C  C388  1  0.068200  0.015700  0.303900  1.0  -0.1099
  C  C389  1  0.376900  0.630500  0.209100  1.0  0.6654
  C  C390  1  0.072100  0.963700  0.295500  1.0  0.0109
  C  C391  1  0.300800  0.737600  0.655800  1.0  0.1765
  C  C392  1  0.400900  0.361600  0.250000  1.0  -0.1894
  C  C393  1  0.012100  0.071300  0.308700  1.0  -0.1207
  C  C394  1  0.830300  0.235500  0.949500  1.0  0.0217
  C  C395  1  0.135300  0.907400  0.282200  1.0  0.0846
  C  C396  1  0.679200  0.896400  0.301800  1.0  -0.1932
  C  C397  1  0.520400  0.635900  0.733900  1.0  -0.184
  C  C398  1  0.303800  0.726400  0.603400  1.0  -0.1136
  C  C399  1  0.569900  0.014700  0.298100  1.0  -0.0906
  C  C400  1  0.557800  0.534600  0.781000  1.0  0.0495
  C  C401  1  0.029900  0.248500  0.609100  1.0  -0.073
  C  C402  1  0.412500  0.127000  0.285200  1.0  0.6444
  C  C403  1  0.389800  0.656800  0.791600  1.0  0.1526
  C  C404  1  0.340400  0.398600  0.190800  1.0  -0.1212
  C  C405  1  0.142200  0.262600  0.448000  1.0  0.0072
  C  C406  1  0.834800  0.228800  0.008400  1.0  0.0016
  C  C407  1  0.380200  0.227600  0.897800  1.0  -0.1554
  C  C408  1  0.335900  0.216700  0.006100  1.0  0.0056
  C  C409  1  0.573300  0.963800  0.286000  1.0  0.0484
  C  C410  1  0.331100  0.518800  0.193600  1.0  -0.1553
  C  C411  1  0.194900  0.265700  0.340300  1.0  0.1607
  C  C412  1  0.963900  0.292800  0.554600  1.0  -0.0557
  C  C413  1  0.549800  0.483900  0.801500  1.0  -0.1515
  C  C414  1  0.603000  0.433200  0.799200  1.0  -0.0162
  C  C415  1  0.782000  0.251700  0.106500  1.0  -0.0288
  C  C416  1  0.406400  0.731700  0.607300  1.0  0.1712
  C  C417  1  0.905400  0.127700  0.296300  1.0  0.5847
  C  C418  1  0.276100  0.243300  0.057500  1.0  -0.1862
  C  C419  1  0.672600  0.480800  0.772000  1.0  -0.0059
  C  C420  1  0.726900  0.813500  0.223100  1.0  0.1128
  C  C421  1  0.217200  0.814800  0.232400  1.0  0.1456
  C  C422  1  0.738100  0.850900  0.288700  1.0  0.1682
  C  C423  1  0.377800  0.466500  0.205900  1.0  0.0121
  C  C424  1  0.436500  0.602900  0.804900  1.0  -0.1732
  C  C425  1  0.332100  0.345300  0.204100  1.0  0.1439
  C  C426  1  0.505200  0.589900  0.774700  1.0  0.016
  C  C427  1  0.621400  0.531400  0.773400  1.0  -0.1437
  C  C428  1  0.365400  0.715400  0.492200  1.0  0.0996
  C  C429  1  0.960400  0.022100  0.294300  1.0  -0.0577
  C  C430  1  0.468200  0.021200  0.281400  1.0  -0.0711
  C  C431  1  0.019200  0.291900  0.500300  1.0  -0.1777
  C  C432  1  0.899200  0.192600  0.063000  1.0  -0.1557
  C  C433  1  0.435200  0.517600  0.204200  1.0  -0.0304
  C  C434  1  0.021600  0.966100  0.287900  1.0  -0.1527
  C  C435  1  0.275800  0.229900  0.944900  1.0  -0.1333
  C  C436  1  0.386900  0.748500  0.389300  1.0  -0.1025
  C  C437  1  0.394500  0.192900  0.007900  1.0  -0.1106
  C  C438  1  0.527100  0.965700  0.275300  1.0  -0.1642
  C  C439  1  0.892500  0.200800  0.011200  1.0  -0.1138
  C  C440  1  0.088400  0.244700  0.553100  1.0  -0.1334
  C  C441  1  0.639300  0.905500  0.275500  1.0  0.0826
  C  C442  1  0.417500  0.716800  0.553200  1.0  -0.1483
  C  C443  1  0.470900  0.683700  0.726500  1.0  0.1717
  C  C444  1  0.400400  0.188800  0.060000  1.0  -0.1338
  C  C445  1  0.774500  0.255500  0.057500  1.0  -0.1069
  C  C446  1  0.875800  0.238700  0.847300  1.0  0.2035
  C  C447  1  0.391600  0.744000  0.443600  1.0  -0.0994
  C  C448  1  0.255200  0.239800  0.393000  1.0  0.1754
  C  C449  1  0.883000  0.231600  0.898600  1.0  -0.1956
  C  C450  1  0.772600  0.246900  0.948700  1.0  -0.138
  C  C451  1  0.201400  0.240800  0.446200  1.0  -0.1818
  C  C452  1  0.372500  0.242300  0.843700  1.0  0.137
  C  C453  1  0.270200  0.238100  0.894500  1.0  0.1308
  C  C454  1  0.330400  0.685800  0.441400  1.0  -0.0454
  C  C455  1  0.081200  0.269600  0.504000  1.0  0.0184
  C  C456  1  0.281300  0.239100  0.108500  1.0  -0.0618
  C  C457  1  0.155600  0.866700  0.244100  1.0  -0.1362
  C  C458  1  0.436300  0.465400  0.205000  1.0  -0.1803
  C  C459  1  0.334900  0.685500  0.488500  1.0  -0.1621
  C  C460  1  0.392100  0.313300  0.259700  1.0  0.1882
  C  C461  1  0.139500  0.271000  0.392600  1.0  -0.1482
  C  C462  1  0.663300  0.431100  0.787500  1.0  -0.1307
  C  C463  1  0.723100  0.367500  0.785100  1.0  0.6802
  C  C464  1  0.768600  0.253600  0.895800  1.0  0.1345
  C  C465  1  0.242700  0.607900  0.725500  1.0  -0.0711
  C  C466  1  0.179400  0.666000  0.729600  1.0  0.5876
  C  C467  1  0.067900  0.165100  0.779100  1.0  0.5758
  C  C468  1  0.537200  0.290900  0.927500  1.0  -0.0546
  C  C469  1  0.558100  0.110100  0.780900  1.0  -0.064
  C  C470  1  0.530200  0.234800  0.134200  1.0  -0.0608
  C  C471  1  0.075100  0.328700  0.278700  1.0  0.3895
  C  C472  1  0.901400  0.196000  0.431400  1.0  -0.0176
  C  C473  1  0.083600  0.546800  0.280000  1.0  0.0766
  C  C474  1  0.566200  0.162700  0.780500  1.0  0.5547
  C  C475  1  0.557400  0.945500  0.774700  1.0  0.0405
  C  C476  1  0.072000  0.390100  0.284300  1.0  -0.1035
  C  C477  1  0.583900  0.304300  0.928900  1.0  -0.1203
  C  C478  1  0.033500  0.300000  0.925600  1.0  -0.0259
  C  C479  1  0.063800  0.113800  0.778400  1.0  -0.0052
  C  C480  1  0.075700  0.306300  0.101900  1.0  -0.2289
  C  C481  1  0.954700  0.200400  0.429000  1.0  -0.1508
  C  C482  1  0.084800  0.292800  0.150400  1.0  0.191
  C  C483  1  0.782500  0.213000  0.591400  1.0  0.0303
  C  C484  1  0.083900  0.303900  0.984300  1.0  -0.1099
  C  C485  1  0.007400  0.209100  0.369500  1.0  0.663
  C  C486  1  0.035800  0.295500  0.036300  1.0  0.0092
  C  C487  1  0.038400  0.655800  0.262400  1.0  0.1744
  C  C488  1  0.762500  0.250000  0.638400  1.0  -0.1891
  C  C489  1  0.083400  0.308700  0.928700  1.0  -0.1197
  C  C490  1  0.065800  0.949500  0.764500  1.0  0.0205
  C  C491  1  0.042700  0.282200  0.092600  1.0  0.0838
  C  C492  1  0.575600  0.301800  0.103600  1.0  -0.1964
  C  C493  1  0.156300  0.733900  0.364100  1.0  -0.1777
  C  C494  1  0.030200  0.603400  0.273600  1.0  -0.1119
  C  C495  1  0.584600  0.298100  0.985300  1.0  -0.0908
  C  C496  1  0.092400  0.781000  0.465400  1.0  0.0472
  C  C497  1  0.278400  0.609100  0.751500  1.0  -0.0715
  C  C498  1  0.539500  0.285200  0.873000  1.0  0.6435
  C  C499  1  0.046600  0.791600  0.343200  1.0  0.158
  C  C500  1  0.739000  0.190800  0.601400  1.0  -0.1214
  C  C501  1  0.404800  0.448000  0.737400  1.0  0.01
  C  C502  1  0.063600  0.008400  0.771200  1.0  0.0008
  C  C503  1  0.607800  0.897800  0.772400  1.0  -0.1549
  C  C504  1  0.552600  0.006100  0.783300  1.0  0.0038
  C  C505  1  0.537100  0.286000  0.036200  1.0  0.0471
  C  C506  1  0.849900  0.193600  0.481200  1.0  -0.1559
  C  C507  1  0.460600  0.340300  0.734300  1.0  0.1595
  C  C508  1  0.256700  0.554600  0.707200  1.0  -0.0514
  C  C509  1  0.033700  0.801500  0.516100  1.0  -0.1469
  C  C510  1  0.036200  0.799200  0.566800  1.0  -0.0139
  C  C511  1  0.033700  0.106500  0.748300  1.0  -0.0309
  C  C512  1  0.138100  0.607300  0.268300  1.0  0.168
  C  C513  1  0.033100  0.296300  0.872300  1.0  0.5858
  C  C514  1  0.519400  0.057500  0.756700  1.0  -0.1881
  C  C515  1  0.153400  0.772000  0.519200  1.0  -0.003
  C  C516  1  0.540400  0.223100  0.186500  1.0  0.1141
  C  C517  1  0.032000  0.232400  0.185200  1.0  0.1463
  C  C518  1  0.589000  0.288700  0.149100  1.0  0.1722
  C  C519  1  0.844300  0.205900  0.533500  1.0  0.0116
  C  C520  1  0.039400  0.804900  0.397100  1.0  -0.1761
  C  C521  1  0.677400  0.204100  0.654700  1.0  0.1465
  C  C522  1  0.095100  0.774700  0.410100  1.0  0.0173
  C  C523  1  0.152800  0.773400  0.468600  1.0  -0.1449
  C  C524  1  0.080800  0.492200  0.284600  1.0  0.1008
  C  C525  1  0.982500  0.294300  0.977900  1.0  -0.0575
  C  C526  1  0.489400  0.281400  0.978800  1.0  -0.0715
  C  C527  1  0.311100  0.500300  0.708100  1.0  -0.1763
  C  C528  1  0.091800  0.063000  0.807400  1.0  -0.1533
  C  C529  1  0.952800  0.204200  0.482400  1.0  -0.0302
  C  C530  1  0.987700  0.287900  0.033900  1.0  -0.1518
  C  C531  1  0.505700  0.944900  0.770100  1.0  -0.1349
  C  C532  1  0.135400  0.389300  0.251500  1.0  -0.1028
  C  C533  1  0.587400  0.007900  0.807100  1.0  -0.1041
  C  C534  1  0.492800  0.275300  0.034300  1.0  -0.1616
  C  C535  1  0.093300  0.011200  0.799200  1.0  -0.112
  C  C536  1  0.333100  0.553100  0.755300  1.0  -0.1346
  C  C537  1  0.544800  0.275500  0.094500  1.0  0.0815
  C  C538  1  0.134300  0.553200  0.283200  1.0  -0.1504
  C  C539  1  0.154600  0.726500  0.316300  1.0  0.1735
  C  C540  1  0.589200  0.060000  0.811200  1.0  -0.1322
  C  C541  1  0.030000  0.057500  0.744500  1.0  -0.1069
  C  C542  1  0.114500  0.847300  0.761300  1.0  0.202
  C  C543  1  0.135600  0.443600  0.256000  1.0  -0.098
  C  C544  1  0.495000  0.393000  0.760200  1.0  0.1732
  C  C545  1  0.114600  0.898600  0.768400  1.0  -0.1943
  C  C546  1  0.019500  0.948700  0.753100  1.0  -0.1371
  C  C547  1  0.442200  0.446200  0.759200  1.0  -0.183
  C  C548  1  0.614800  0.843700  0.757700  1.0  0.1331
  C  C549  1  0.508300  0.894500  0.761900  1.0  0.126
  C  C550  1  0.016200  0.441400  0.314200  1.0  -0.0475
  C  C551  1  0.350800  0.504000  0.730400  1.0  0.0176
  C  C552  1  0.520400  0.108500  0.760900  1.0  -0.0638
  C  C553  1  0.022300  0.244100  0.133300  1.0  -0.1387
  C  C554  1  0.901700  0.205000  0.534600  1.0  -0.1817
  C  C555  1  0.020400  0.488500  0.314500  1.0  -0.1622
  C  C556  1  0.705400  0.259700  0.686700  1.0  0.1884
  C  C557  1  0.410500  0.392600  0.729000  1.0  -0.1481
  C  C558  1  0.094400  0.787500  0.568900  1.0  -0.132
  C  C559  1  0.090600  0.785100  0.632500  1.0  0.6833
  C  C560  1  0.022200  0.895800  0.746400  1.0  0.1337
  C  C561  1  0.576100  0.392100  0.274500  1.0  -0.0705
  C  C562  1  0.575000  0.334000  0.270400  1.0  0.587
  C  C563  1  0.012100  0.834900  0.220900  1.0  0.5736
  C  C564  1  0.755600  0.709100  0.072500  1.0  -0.054
  C  C565  1  0.449100  0.889900  0.219100  1.0  -0.0645
  C  C566  1  0.899200  0.765200  0.865800  1.0  -0.0594
  C  C567  1  0.682500  0.671300  0.721300  1.0  0.3908
  C  C568  1  0.528800  0.804000  0.568600  1.0  -0.0136
  C  C569  1  0.910400  0.453200  0.720000  1.0  0.0733
  C  C570  1  0.509400  0.837300  0.219500  1.0  0.5531
  C  C571  1  0.277600  0.054500  0.225300  1.0  0.0412
  C  C572  1  0.746400  0.609900  0.715700  1.0  -0.1037
  C  C573  1  0.817100  0.695700  0.071100  1.0  -0.1225
  C  C574  1  0.259100  0.700000  0.074400  1.0  -0.0262
  C  C575  1  0.956000  0.886200  0.221600  1.0  -0.0076
  C  C576  1  0.483900  0.693700  0.898100  1.0  -0.2278
  C  C577  1  0.584100  0.799600  0.571000  1.0  -0.1565
  C  C578  1  0.528000  0.707200  0.849600  1.0  0.1911
  C  C579  1  0.586900  0.787000  0.408600  1.0  0.0306
  C  C580  1  0.372100  0.696100  0.015700  1.0  -0.1102
  C  C581  1  0.586000  0.790900  0.630500  1.0  0.6666
  C  C582  1  0.367600  0.704500  0.963700  1.0  0.0101
  C  C583  1  0.956600  0.344200  0.737600  1.0  0.1744
  C  C584  1  0.650900  0.750000  0.361600  1.0  -0.1866
  C  C585  1  0.320800  0.691300  0.071300  1.0  -0.1178
  C  C586  1  0.779800  0.050500  0.235500  1.0  0.0191
  C  C587  1  0.417500  0.717800  0.907400  1.0  0.0839
  C  C588  1  0.981000  0.698200  0.896400  1.0  -0.1962
  C  C589  1  0.254300  0.266100  0.635900  1.0  -0.1802
  C  C590  1  0.907200  0.396600  0.726400  1.0  -0.1122
  C  C591  1  0.868000  0.701900  0.014700  1.0  -0.0898
  C  C592  1  0.338800  0.219000  0.534600  1.0  0.0494
  C  C593  1  0.639000  0.390900  0.248500  1.0  -0.0731
  C  C594  1  0.697700  0.714800  0.127000  1.0  0.6436
  C  C595  1  0.181400  0.208400  0.656800  1.0  0.1552
  C  C596  1  0.531200  0.809200  0.398600  1.0  -0.1212
  C  C597  1  0.590200  0.552000  0.262600  1.0  0.0029
  C  C598  1  0.843200  0.991600  0.228800  1.0  0.0009
  C  C599  1  0.278000  0.102200  0.227600  1.0  -0.1532
  C  C600  1  0.342000  0.993900  0.216700  1.0  0.0054
  C  C601  1  0.859300  0.714000  0.963800  1.0  0.0449
  C  C602  1  0.524700  0.806400  0.518800  1.0  -0.1538
  C  C603  1  0.535200  0.659700  0.265700  1.0  0.1599
  C  C604  1  0.518500  0.445400  0.292800  1.0  -0.0544
  C  C605  1  0.351300  0.198500  0.483900  1.0  -0.1495
  C  C606  1  0.402200  0.200800  0.433200  1.0  -0.0182
  C  C607  1  0.888500  0.893500  0.251700  1.0  -0.0324
  C  C608  1  0.013700  0.392700  0.731700  1.0  0.168
  C  C609  1  0.201700  0.703700  0.127700  1.0  0.5854
  C  C610  1  0.333600  0.942500  0.243300  1.0  -0.1861
  C  C611  1  0.444600  0.228000  0.480800  1.0  -0.0065
  C  C612  1  0.950000  0.776900  0.813500  1.0  0.1132
  C  C613  1  0.449600  0.767600  0.814800  1.0  0.1447
  C  C614  1  0.026800  0.711300  0.850900  1.0  0.1718
  C  C615  1  0.583700  0.794100  0.466500  1.0  0.0106
  C  C616  1  0.241400  0.195100  0.602900  1.0  -0.1724
  C  C617  1  0.536200  0.795900  0.345300  1.0  0.1488
  C  C618  1  0.279900  0.225300  0.589900  1.0  0.0163
  C  C619  1  0.394800  0.226600  0.531400  1.0  -0.1452
  C  C620  1  0.857600  0.507800  0.715400  1.0  0.0979
  C  C621  1  0.254700  0.705700  0.022100  1.0  -0.0573
  C  C622  1  0.749600  0.718600  0.021200  1.0  -0.0712
  C  C623  1  0.519500  0.499700  0.291900  1.0  -0.1762
  C  C624  1  0.962200  0.937000  0.192600  1.0  -0.1582
  C  C625  1  0.639400  0.795800  0.517600  1.0  -0.028
  C  C626  1  0.309500  0.712100  0.966100  1.0  -0.153
  C  C627  1  0.220700  0.055100  0.229900  1.0  -0.1324
  C  C628  1  0.776200  0.610700  0.748500  1.0  -0.0986
  C  C629  1  0.402400  0.992100  0.192900  1.0  -0.1065
  C  C630  1  0.802400  0.724700  0.965700  1.0  -0.1638
  C  C631  1  0.903700  0.988800  0.200800  1.0  -0.1115
  C  C632  1  0.641500  0.446900  0.244700  1.0  -0.1329
  C  C633  1  0.914800  0.724500  0.905500  1.0  0.0833
  C  C634  1  0.970700  0.446800  0.716800  1.0  -0.1493
  C  C635  1  0.197400  0.273500  0.683700  1.0  0.1744
  C  C636  1  0.460400  0.940000  0.188800  1.0  -0.1332
  C  C637  1  0.832000  0.942500  0.255500  1.0  -0.1087
  C  C638  1  0.723100  0.152700  0.238700  1.0  0.2026
  C  C639  1  0.835200  0.556400  0.744000  1.0  -0.0984
  C  C640  1  0.648200  0.607000  0.239800  1.0  0.1749
  C  C641  1  0.781600  0.101400  0.231600  1.0  -0.1954
  C  C642  1  0.721300  0.051300  0.246900  1.0  -0.1393
  C  C643  1  0.647600  0.553800  0.240800  1.0  -0.1824
  C  C644  1  0.216200  0.156300  0.242300  1.0  0.1345
  C  C645  1  0.164700  0.105500  0.238100  1.0  0.1271
  C  C646  1  0.771800  0.558600  0.685800  1.0  -0.044
  C  C647  1  0.585200  0.496000  0.269600  1.0  0.02
  C  C648  1  0.389800  0.891500  0.239100  1.0  -0.0666
  C  C649  1  0.399700  0.755900  0.866700  1.0  -0.1385
  C  C650  1  0.641300  0.795000  0.465400  1.0  -0.1781
  C  C651  1  0.823400  0.511500  0.685500  1.0  -0.1671
  C  C652  1  0.651800  0.740300  0.313300  1.0  0.1886
  C  C653  1  0.532100  0.607400  0.271000  1.0  -0.1486
  C  C654  1  0.450800  0.212500  0.431100  1.0  -0.129
  C  C655  1  0.508200  0.214900  0.367500  1.0  0.6812
  C  C656  1  0.664400  0.104200  0.253600  1.0  0.1328
  N  N657  1  0.321500  0.195000  0.739600  1.0  -0.3452
  N  N658  1  0.844000  0.750000  0.664800  1.0  -0.353
  N  N659  1  0.822600  0.193400  0.745200  1.0  -0.3422
  N  N660  1  0.752100  0.257900  0.340300  1.0  -0.3346
  N  N661  1  0.851600  0.304200  0.252400  1.0  -0.313
  N  N662  1  0.901900  0.696300  0.755500  1.0  -0.361
  N  N663  1  0.915800  0.751600  0.154000  1.0  -0.2845
  N  N664  1  0.409100  0.754800  0.155200  1.0  -0.2858
  N  N665  1  0.256100  0.805000  0.260400  1.0  -0.3442
  N  N666  1  0.258800  0.250000  0.335200  1.0  -0.3515
  N  N667  1  0.761200  0.806600  0.254800  1.0  -0.3426
  N  N668  1  0.350300  0.742100  0.659700  1.0  -0.3359
  N  N669  1  0.408200  0.695800  0.747600  1.0  -0.3106
  N  N670  1  0.353700  0.303700  0.244500  1.0  -0.3622
  N  N671  1  0.821400  0.248400  0.846000  1.0  -0.2876
  N  N672  1  0.319100  0.245200  0.844800  1.0  -0.2873
  N  N673  1  0.061100  0.260400  0.195000  1.0  -0.3472
  N  N674  1  0.508800  0.335200  0.750000  1.0  -0.3522
  N  N675  1  0.567800  0.254800  0.193400  1.0  -0.3428
  N  N676  1  0.092400  0.659700  0.257900  1.0  -0.3319
  N  N677  1  0.104000  0.747600  0.304200  1.0  -0.3127
  N  N678  1  0.657400  0.244500  0.696300  1.0  -0.3602
  N  N679  1  0.069800  0.846000  0.751600  1.0  -0.2874
  N  N680  1  0.564300  0.844800  0.754800  1.0  -0.2883
  N  N681  1  0.516500  0.739600  0.805000  1.0  -0.3455
  N  N682  1  0.594000  0.664800  0.250000  1.0  -0.3518
  N  N683  1  0.016000  0.745200  0.806600  1.0  -0.3435
  N  N684  1  0.010000  0.340300  0.742100  1.0  -0.3337
  N  N685  1  0.155800  0.252400  0.695800  1.0  -0.3112
  N  N686  1  0.598200  0.755500  0.303700  1.0  -0.3627
  N  N687  1  0.667400  0.154000  0.248400  1.0  -0.2872
  N  N688  1  0.163900  0.155200  0.245200  1.0  -0.2868
  O  O689  1  0.806900  0.709800  0.337800  1.0  -0.5899
  O  O690  1  0.347000  0.302700  0.664500  1.0  -0.5902
  O  O691  1  0.767900  0.798400  0.834000  1.0  -0.5534
  O  O692  1  0.273700  0.797100  0.829900  1.0  -0.5918
  O  O693  1  0.210800  0.326000  0.791200  1.0  -0.548
  O  O694  1  0.380100  0.821500  0.709300  1.0  -0.5268
  O  O695  1  0.744900  0.754900  0.787700  1.0  -0.5391
  O  O696  1  0.411900  0.255200  0.709000  1.0  -0.5572
  O  O697  1  0.876700  0.823800  0.714200  1.0  -0.5443
  O  O698  1  0.250200  0.756100  0.782900  1.0  -0.5582
  O  O699  1  0.877900  0.746900  0.291300  1.0  -0.5282
  O  O700  1  0.267700  0.367500  0.786900  1.0  -0.5439
  O  O701  1  0.772200  0.869900  0.723900  1.0  -0.5796
  O  O702  1  0.275900  0.869500  0.712500  1.0  -0.6397
  O  O703  1  0.831400  0.675100  0.209300  1.0  -0.5643
  O  O704  1  0.918700  0.634900  0.222500  1.0  -0.5623
  O  O705  1  0.854500  0.290200  0.662200  1.0  -0.5889
  O  O706  1  0.314200  0.697300  0.335500  1.0  -0.5913
  O  O707  1  0.400300  0.201600  0.166000  1.0  -0.5571
  O  O708  1  0.900700  0.202900  0.170100  1.0  -0.5927
  O  O709  1  0.328000  0.674000  0.208800  1.0  -0.5493
  O  O710  1  0.910900  0.178500  0.290700  1.0  -0.5266
  O  O711  1  0.287500  0.245100  0.212300  1.0  -0.5389
  O  O712  1  0.376100  0.744800  0.291000  1.0  -0.5588
  O  O713  1  0.414700  0.176200  0.285800  1.0  -0.5441
  O  O714  1  0.789200  0.243900  0.217100  1.0  -0.5578
  O  O715  1  0.916100  0.253100  0.708700  1.0  -0.5279
  O  O716  1  0.422100  0.632500  0.213100  1.0  -0.5454
  O  O717  1  0.366000  0.130100  0.276100  1.0  -0.5821
  O  O718  1  0.857900  0.130500  0.287500  1.0  -0.6391
  O  O719  1  0.715800  0.324900  0.790700  1.0  -0.5633
  O  O720  1  0.776100  0.365100  0.777500  1.0  -0.5621
  O  O721  1  0.144700  0.662200  0.709800  1.0  -0.5921
  O  O722  1  0.011500  0.335500  0.302700  1.0  -0.5906
  O  O723  1  0.601900  0.166000  0.798400  1.0  -0.5564
  O  O724  1  0.103600  0.170100  0.797100  1.0  -0.5944
  O  O725  1  0.002000  0.208800  0.326000  1.0  -0.5493
  O  O726  1  0.089400  0.290700  0.821500  1.0  -0.529
  O  O727  1  0.532600  0.212300  0.754900  1.0  -0.5398
  O  O728  1  0.120900  0.291000  0.255200  1.0  -0.559
  O  O729  1  0.590900  0.285800  0.823800  1.0  -0.5473
  O  O730  1  0.033100  0.217100  0.756100  1.0  -0.5584
  O  O731  1  0.169200  0.708700  0.746900  1.0  -0.5289
  O  O732  1  0.054600  0.213100  0.367500  1.0  -0.5438
  O  O733  1  0.496100  0.276100  0.869900  1.0  -0.5813
  O  O734  1  0.988400  0.287500  0.869500  1.0  -0.6405
  O  O735  1  0.040700  0.790700  0.675100  1.0  -0.5668
  O  O736  1  0.141200  0.777500  0.634900  1.0  -0.562
  O  O737  1  0.516700  0.337800  0.290200  1.0  -0.5891
  O  O738  1  0.649700  0.664500  0.697300  1.0  -0.5957
  O  O739  1  0.566300  0.834000  0.201600  1.0  -0.5565
  O  O740  1  0.070800  0.829900  0.202900  1.0  -0.5949
  O  O741  1  0.536800  0.791200  0.674000  1.0  -0.5503
  O  O742  1  0.201600  0.709300  0.178500  1.0  -0.5282
  O  O743  1  0.499800  0.787700  0.245100  1.0  -0.5395
  O  O744  1  0.667100  0.709000  0.744800  1.0  -0.5577
  O  O745  1  0.700500  0.714200  0.176200  1.0  -0.5477
  O  O746  1  0.006300  0.782900  0.243900  1.0  -0.5577
  O  O747  1  0.624800  0.291300  0.253100  1.0  -0.5289
  O  O748  1  0.635200  0.786900  0.632500  1.0  -0.5464
  O  O749  1  0.642100  0.723900  0.130100  1.0  -0.5797
  O  O750  1  0.145400  0.712500  0.130500  1.0  -0.6394
  O  O751  1  0.506500  0.209300  0.324900  1.0  -0.5686
  O  O752  1  0.553600  0.222500  0.365100  1.0  -0.5614
