# generated using pymatgen
data_Mn2FeH36C44Br4(N5O2)2
_symmetry_space_group_name_H-M   'P 1'
_cell_length_a   28.55540000
_cell_length_b   28.55540000
_cell_length_c   19.21550000
_cell_angle_alpha   90.00000000
_cell_angle_beta   90.00000000
_cell_angle_gamma   120.00000000
_symmetry_Int_Tables_number   1
_chemical_formula_structural   Mn2FeH36C44Br4(N5O2)2
_chemical_formula_sum   'Mn18 Fe9 H324 C396 Br36 N90 O36'
_cell_volume   13569.34290369
_cell_formula_units_Z   9
loop_
 _symmetry_equiv_pos_site_id
 _symmetry_equiv_pos_as_xyz
  1  'x, y, z'
loop_
 _atom_site_type_symbol
 _atom_site_label
 _atom_site_symmetry_multiplicity
 _atom_site_fract_x
 _atom_site_fract_y
 _atom_site_fract_z
 _atom_site_occupancy
 _atom_site_charge
  Mn  Mn1  1  0.020290  0.764170  0.080770  1.0  0.9226
  Mn  Mn2  1  0.734210  0.755160  0.851560  1.0  0.9474
  Mn  Mn3  1  0.686690  0.590490  0.183450  1.0  0.9212
  Mn  Mn4  1  0.401960  0.312150  0.412670  1.0  0.9217
  Mn  Mn5  1  0.354250  0.926260  0.180160  1.0  0.9237
  Mn  Mn6  1  0.071040  0.646350  0.409320  1.0  0.9225
  Mn  Mn7  1  0.910190  0.598040  0.746000  1.0  0.9193
  Mn  Mn8  1  0.903800  0.313310  0.516780  1.0  0.9189
  Mn  Mn9  1  0.409510  0.096200  0.850120  1.0  0.9192
  Mn  Mn10  1  0.687850  0.089810  0.079330  1.0  0.9207
  Mn  Mn11  1  0.235830  0.256120  0.747440  1.0  0.9201
  Mn  Mn12  1  0.244840  0.979050  0.518230  1.0  0.9477
  Mn  Mn13  1  0.073740  0.427990  0.846830  1.0  0.923
  Mn  Mn14  1  0.353650  0.424690  0.075990  1.0  0.9223
  Mn  Mn15  1  0.743880  0.979710  0.414100  1.0  0.9232
  Mn  Mn16  1  0.020950  0.265790  0.184890  1.0  0.9469
  Mn  Mn17  1  0.572010  0.645750  0.513490  1.0  0.9225
  Mn  Mn18  1  0.575310  0.928960  0.742650  1.0  0.9209
  Fe  Fe19  1  0.822730  0.643790  0.965500  1.0  0.8794
  Fe  Fe20  1  0.487420  0.510270  0.295130  1.0  0.8396
  Fe  Fe21  1  0.157190  0.846690  0.298360  1.0  0.8632
  Fe  Fe22  1  0.022850  0.512580  0.628460  1.0  0.8472
  Fe  Fe23  1  0.489730  0.977150  0.961800  1.0  0.8446
  Fe  Fe24  1  0.356210  0.178940  0.632170  1.0  0.883
  Fe  Fe25  1  0.153310  0.310500  0.965030  1.0  0.8678
  Fe  Fe26  1  0.821060  0.177270  0.298830  1.0  0.8751
  Fe  Fe27  1  0.689500  0.842810  0.631690  1.0  0.8701
  H  H28  1  0.118400  0.933300  0.036800  1.0  0.1243
  H  H29  1  0.140400  0.007700  0.107300  1.0  0.1296
  H  H30  1  0.029200  0.911400  0.249400  1.0  0.1263
  H  H31  1  0.972400  0.817700  0.228800  1.0  0.1271
  H  H32  1  0.900800  0.710300  0.156600  1.0  0.1205
  H  H33  1  0.918600  0.735200  0.232900  1.0  0.1119
  H  H34  1  0.951200  0.619400  0.159600  1.0  0.1146
  H  H35  1  0.921400  0.642700  0.112400  1.0  0.1238
  H  H36  1  0.030900  0.642200  0.129300  1.0  0.1368
  H  H37  1  0.114800  0.650900  0.098400  1.0  0.1333
  H  H38  1  0.205600  0.751600  0.944000  1.0  0.1243
  H  H39  1  0.146800  0.785500  0.935500  1.0  0.1227
  H  H40  1  0.889500  0.600700  0.251500  1.0  0.1226
  H  H41  1  0.857300  0.624500  0.210300  1.0  0.1203
  H  H42  1  0.880200  0.646200  0.286700  1.0  0.1175
  H  H43  1  0.019100  0.727300  0.243600  1.0  0.114
  H  H44  1  0.994200  0.666800  0.271900  1.0  0.1197
  H  H45  1  0.976900  0.706800  0.306600  1.0  0.1202
  H  H46  1  0.809100  0.923300  0.908000  1.0  0.1157
  H  H47  1  0.864600  0.000200  0.842600  1.0  0.1234
  H  H48  1  0.875500  0.907600  0.692500  1.0  0.1146
  H  H49  1  0.836800  0.812600  0.705500  1.0  0.128
  H  H50  1  0.803100  0.705400  0.774800  1.0  0.1157
  H  H51  1  0.808800  0.730400  0.698800  1.0  0.1075
  H  H52  1  0.662600  0.610900  0.771600  1.0  0.1137
  H  H53  1  0.715800  0.635400  0.818900  1.0  0.1239
  H  H54  1  0.603700  0.627400  0.808700  1.0  0.1313
  H  H55  1  0.526600  0.637600  0.832100  1.0  0.1281
  H  H56  1  0.534900  0.744800  0.975500  1.0  0.1217
  H  H57  1  0.627400  0.778800  0.988000  1.0  0.1314
  H  H58  1  0.762300  0.642500  0.645500  1.0  0.1242
  H  H59  1  0.705900  0.595800  0.675600  1.0  0.1175
  H  H60  1  0.759900  0.617200  0.720600  1.0  0.1141
  H  H61  1  0.695200  0.716600  0.692800  1.0  0.1101
  H  H62  1  0.666100  0.657900  0.657600  1.0  0.1179
  H  H63  1  0.723100  0.704300  0.628600  1.0  0.1195
  H  H64  1  0.785400  0.519100  0.228900  1.0  0.1223
  H  H65  1  0.807700  0.467700  0.158000  1.0  0.1237
  H  H66  1  0.696200  0.451800  0.016200  1.0  0.1304
  H  H67  1  0.639400  0.488800  0.035300  1.0  0.1257
  H  H68  1  0.567500  0.524800  0.107300  1.0  0.1153
  H  H69  1  0.585600  0.518000  0.030900  1.0  0.1134
  H  H70  1  0.617400  0.666100  0.103800  1.0  0.1183
  H  H71  1  0.587300  0.613100  0.151300  1.0  0.1198
  H  H72  1  0.695500  0.722900  0.139000  1.0  0.1335
  H  H73  1  0.781900  0.797800  0.165300  1.0  0.1341
  H  H74  1  0.873600  0.786700  0.318200  1.0  0.1238
  H  H75  1  0.813400  0.694800  0.328500  1.0  0.1243
  H  H76  1  0.545600  0.566600  0.978800  1.0  0.1167
  H  H77  1  0.556400  0.622800  0.010800  1.0  0.1178
  H  H78  1  0.523900  0.568300  0.055000  1.0  0.1177
  H  H79  1  0.686500  0.627900  0.020700  1.0  0.1208
  H  H80  1  0.660000  0.662000  0.991900  1.0  0.1217
  H  H81  1  0.644100  0.604800  0.957900  1.0  0.1196
  H  H82  1  0.476600  0.218100  0.358470  1.0  0.1148
  H  H83  1  0.533500  0.198800  0.423270  1.0  0.1227
  H  H84  1  0.542900  0.301900  0.573770  1.0  0.1204
  H  H85  1  0.504000  0.357300  0.559570  1.0  0.1282
  H  H86  1  0.470900  0.431400  0.489070  1.0  0.1222
  H  H87  1  0.477200  0.412300  0.564970  1.0  0.1089
  H  H88  1  0.329800  0.384300  0.493070  1.0  0.1195
  H  H89  1  0.382700  0.413100  0.445270  1.0  0.1143
  H  H90  1  0.271300  0.307700  0.458670  1.0  0.1299
  H  H91  1  0.194400  0.223700  0.432670  1.0  0.1336
  H  H92  1  0.201300  0.124900  0.286370  1.0  0.1255
  H  H93  1  0.293800  0.181700  0.275870  1.0  0.1195
  H  H94  1  0.373600  0.443500  0.587870  1.0  0.118
  H  H95  1  0.427800  0.476000  0.543070  1.0  0.1198
  H  H96  1  0.430000  0.453500  0.618570  1.0  0.122
  H  H97  1  0.364200  0.312600  0.572170  1.0  0.1109
  H  H98  1  0.334200  0.341700  0.606270  1.0  0.1191
  H  H99  1  0.391300  0.353300  0.636170  1.0  0.1137
  H  H100  1  0.450000  0.852100  0.228400  1.0  0.1168
  H  H101  1  0.471800  0.799900  0.158700  1.0  0.1154
  H  H102  1  0.363300  0.786600  0.014600  1.0  0.1239
  H  H103  1  0.307000  0.824300  0.032700  1.0  0.1288
  H  H104  1  0.234500  0.859700  0.105000  1.0  0.1157
  H  H105  1  0.252000  0.852200  0.028600  1.0  0.111
  H  H106  1  0.284000  0.000300  0.099900  1.0  0.1171
  H  H107  1  0.254500  0.947500  0.147700  1.0  0.1263
  H  H108  1  0.362500  0.057700  0.131000  1.0  0.1287
  H  H109  1  0.445900  0.134000  0.160600  1.0  0.1362
  H  H110  1  0.539800  0.126100  0.312300  1.0  0.1198
  H  H111  1  0.482800  0.033600  0.321500  1.0  0.1239
  H  H112  1  0.212400  0.900100  0.975600  1.0  0.1233
  H  H113  1  0.223500  0.957000  0.005700  1.0  0.121
  H  H114  1  0.190800  0.903300  0.051300  1.0  0.1238
  H  H115  1  0.353300  0.962900  0.018200  1.0  0.1173
  H  H116  1  0.326100  0.995700  0.987300  1.0  0.1185
  H  H117  1  0.311200  0.938200  0.955200  1.0  0.1176
  H  H118  1  0.143200  0.549700  0.358400  1.0  0.1061
  H  H119  1  0.197800  0.528700  0.424200  1.0  0.1225
  H  H120  1  0.211300  0.635800  0.572100  1.0  0.1263
  H  H121  1  0.173300  0.692100  0.556400  1.0  0.1267
  H  H122  1  0.139000  0.765100  0.486900  1.0  0.1267
  H  H123  1  0.144300  0.745500  0.562900  1.0  0.1165
  H  H124  1  0.997700  0.717600  0.488600  1.0  0.1195
  H  H125  1  0.051000  0.746700  0.441600  1.0  0.1204
  H  H126  1  0.939300  0.640900  0.452100  1.0  0.1293
  H  H127  1  0.863600  0.554000  0.427400  1.0  0.1337
  H  H128  1  0.874100  0.457800  0.280700  1.0  0.1219
  H  H129  1  0.965800  0.517800  0.268100  1.0  0.1242
  H  H130  1  0.040900  0.775700  0.586900  1.0  0.1104
  H  H131  1  0.093100  0.808700  0.538700  1.0  0.1092
  H  H132  1  0.098900  0.787400  0.613400  1.0  0.1209
  H  H133  1  0.001500  0.674800  0.603200  1.0  0.1162
  H  H134  1  0.058800  0.686500  0.632700  1.0  0.1127
  H  H135  1  0.031400  0.645800  0.568800  1.0  0.1147
  H  H136  1  0.741500  0.523400  0.691800  1.0  0.1159
  H  H137  1  0.665300  0.466500  0.756600  1.0  0.1231
  H  H138  1  0.759000  0.457100  0.907100  1.0  0.1204
  H  H139  1  0.853300  0.496000  0.892900  1.0  0.1292
  H  H140  1  0.960500  0.529100  0.822400  1.0  0.1218
  H  H141  1  0.935100  0.522800  0.898300  1.0  0.1093
  H  H142  1  0.054500  0.670200  0.826400  1.0  0.1161
  H  H143  1  0.030400  0.617300  0.778600  1.0  0.1125
  H  H144  1  0.036400  0.728700  0.792000  1.0  0.1299
  H  H145  1  0.029300  0.805600  0.766000  1.0  0.1352
  H  H146  1  0.923600  0.798700  0.619700  1.0  0.1253
  H  H147  1  0.887900  0.706200  0.609200  1.0  0.1204
  H  H148  1  0.069900  0.626400  0.921200  1.0  0.1196
  H  H149  1  0.048200  0.572200  0.876400  1.0  0.1199
  H  H150  1  0.023500  0.570000  0.951900  1.0  0.1224
  H  H151  1  0.948400  0.635800  0.905500  1.0  0.112
  H  H152  1  0.007500  0.665800  0.939600  1.0  0.1169
  H  H153  1  0.962000  0.608700  0.969500  1.0  0.1139
  H  H154  1  0.733700  0.214600  0.562230  1.0  0.122
  H  H155  1  0.660000  0.192300  0.491330  1.0  0.122
  H  H156  1  0.755600  0.303800  0.349530  1.0  0.1306
  H  H157  1  0.849400  0.360600  0.368630  1.0  0.126
  H  H158  1  0.957300  0.432500  0.440630  1.0  0.1149
  H  H159  1  0.932400  0.414400  0.364230  1.0  0.1143
  H  H160  1  0.048700  0.382600  0.437130  1.0  0.1234
  H  H161  1  0.025800  0.412700  0.484630  1.0  0.121
  H  H162  1  0.027400  0.304500  0.472330  1.0  0.133
  H  H163  1  0.015900  0.218100  0.498630  1.0  0.1328
  H  H164  1  0.913100  0.126400  0.651530  1.0  0.1232
  H  H165  1  0.881400  0.186600  0.661830  1.0  0.1241
  H  H166  1  0.021000  0.454400  0.312130  1.0  0.1174
  H  H167  1  0.066400  0.443600  0.344130  1.0  0.1179
  H  H168  1  0.044400  0.476100  0.388330  1.0  0.1162
  H  H169  1  0.941400  0.313500  0.354030  1.0  0.1193
  H  H170  1  0.002000  0.340000  0.325230  1.0  0.1231
  H  H171  1  0.960700  0.355900  0.291230  1.0  0.1197
  H  H172  1  0.480900  0.266300  0.895570  1.0  0.1231
  H  H173  1  0.532300  0.340000  0.824670  1.0  0.1231
  H  H174  1  0.548200  0.244400  0.682870  1.0  0.1299
  H  H175  1  0.511200  0.150600  0.701970  1.0  0.1255
  H  H176  1  0.475200  0.042700  0.773970  1.0  0.1159
  H  H177  1  0.482000  0.067600  0.697570  1.0  0.114
  H  H178  1  0.333900  0.951300  0.770470  1.0  0.114
  H  H179  1  0.386900  0.974200  0.817970  1.0  0.1205
  H  H180  1  0.277100  0.972600  0.805670  1.0  0.1329
  H  H181  1  0.202200  0.984100  0.831970  1.0  0.1323
  H  H182  1  0.213300  0.086900  0.984870  1.0  0.1232
  H  H183  1  0.305200  0.118600  0.995170  1.0  0.124
  H  H184  1  0.433400  0.979000  0.645470  1.0  0.1168
  H  H185  1  0.377200  0.933600  0.677470  1.0  0.1164
  H  H186  1  0.431700  0.955600  0.721670  1.0  0.1164
  H  H187  1  0.372100  0.058600  0.687370  1.0  0.1187
  H  H188  1  0.338000  0.998000  0.658570  1.0  0.1205
  H  H189  1  0.395200  0.039300  0.624570  1.0  0.1202
  H  H190  1  0.781900  0.258500  0.025130  1.0  0.1158
  H  H191  1  0.801200  0.334700  0.089930  1.0  0.1228
  H  H192  1  0.698100  0.241000  0.240430  1.0  0.1205
  H  H193  1  0.642700  0.146700  0.226230  1.0  0.1283
  H  H194  1  0.568600  0.039500  0.155730  1.0  0.1232
  H  H195  1  0.587700  0.064900  0.231630  1.0  0.1097
  H  H196  1  0.615700  0.945500  0.159730  1.0  0.115
  H  H197  1  0.586900  0.969600  0.111930  1.0  0.1131
  H  H198  1  0.692300  0.963600  0.125330  1.0  0.1294
  H  H199  1  0.776300  0.970700  0.099330  1.0  0.1333
  H  H200  1  0.875100  0.076400  0.953030  1.0  0.1245
  H  H201  1  0.818300  0.112100  0.942530  1.0  0.1205
  H  H202  1  0.556500  0.930100  0.254530  1.0  0.1181
  H  H203  1  0.524000  0.951800  0.209730  1.0  0.1211
  H  H204  1  0.546500  0.976500  0.285230  1.0  0.121
  H  H205  1  0.687400  0.051600  0.238830  1.0  0.1125
  H  H206  1  0.658300  0.992500  0.272930  1.0  0.1181
  H  H207  1  0.646700  0.038000  0.302830  1.0  0.1132
  H  H208  1  0.066700  0.185100  0.703470  1.0  0.1242
  H  H209  1  0.992300  0.132700  0.773970  1.0  0.1304
  H  H210  1  0.088600  0.117800  0.916070  1.0  0.1261
  H  H211  1  0.182300  0.154700  0.895470  1.0  0.127
  H  H212  1  0.289700  0.190500  0.823270  1.0  0.1185
  H  H213  1  0.264800  0.183400  0.899570  1.0  0.1113
  H  H214  1  0.380600  0.331800  0.826270  1.0  0.1144
  H  H215  1  0.357300  0.278700  0.779070  1.0  0.1232
  H  H216  1  0.357800  0.388700  0.795970  1.0  0.1376
  H  H217  1  0.349100  0.463900  0.765070  1.0  0.1354
  H  H218  1  0.248400  0.454000  0.610670  1.0  0.1247
  H  H219  1  0.214500  0.361300  0.602170  1.0  0.123
  H  H220  1  0.399300  0.288800  0.918170  1.0  0.1229
  H  H221  1  0.375500  0.232800  0.876970  1.0  0.1205
  H  H222  1  0.353800  0.234000  0.953370  1.0  0.1173
  H  H223  1  0.272700  0.291800  0.910270  1.0  0.1144
  H  H224  1  0.333200  0.327400  0.938570  1.0  0.1189
  H  H225  1  0.293200  0.270100  0.973270  1.0  0.121
  H  H226  1  0.076700  0.885800  0.574670  1.0  0.1144
  H  H227  1  0.999800  0.864400  0.509270  1.0  0.1229
  H  H228  1  0.092400  0.967900  0.359170  1.0  0.1151
  H  H229  1  0.187400  0.024200  0.372170  1.0  0.129
  H  H230  1  0.294600  0.097700  0.441470  1.0  0.1161
  H  H231  1  0.269600  0.078400  0.365470  1.0  0.1079
  H  H232  1  0.389100  0.051700  0.438270  1.0  0.1213
  H  H233  1  0.364600  0.080400  0.485570  1.0  0.1244
  H  H234  1  0.372600  0.976300  0.475370  1.0  0.1302
  H  H235  1  0.362400  0.889000  0.498770  1.0  0.1289
  H  H236  1  0.255200  0.790100  0.642170  1.0  0.1221
  H  H237  1  0.221200  0.848600  0.654670  1.0  0.1315
  H  H238  1  0.357500  0.119800  0.312170  1.0  0.1229
  H  H239  1  0.404200  0.110100  0.342270  1.0  0.1117
  H  H240  1  0.382800  0.142700  0.387270  1.0  0.1134
  H  H241  1  0.283400  0.978600  0.359470  1.0  0.1091
  H  H242  1  0.342100  0.008200  0.324270  1.0  0.1189
  H  H243  1  0.295700  0.018800  0.295270  1.0  0.1187
  H  H244  1  0.147900  0.597900  0.895070  1.0  0.1172
  H  H245  1  0.200100  0.671900  0.825370  1.0  0.1149
  H  H246  1  0.213400  0.576700  0.681270  1.0  0.1237
  H  H247  1  0.175700  0.482700  0.699370  1.0  0.1286
  H  H248  1  0.140300  0.374800  0.771670  1.0  0.1159
  H  H249  1  0.147800  0.399800  0.695270  1.0  0.1117
  H  H250  1  0.999700  0.283700  0.766570  1.0  0.1135
  H  H251  1  0.052500  0.307000  0.814370  1.0  0.1262
  H  H252  1  0.942300  0.304800  0.797670  1.0  0.1276
  H  H253  1  0.866000  0.311900  0.827270  1.0  0.1342
  H  H254  1  0.873900  0.413700  0.978970  1.0  0.1196
  H  H255  1  0.966400  0.449200  0.988170  1.0  0.1237
  H  H256  1  0.099900  0.312300  0.642270  1.0  0.124
  H  H257  1  0.043000  0.266500  0.672370  1.0  0.1206
  H  H258  1  0.096700  0.287500  0.717970  1.0  0.1241
  H  H259  1  0.037100  0.390400  0.684870  1.0  0.115
  H  H260  1  0.004300  0.330400  0.653970  1.0  0.1199
  H  H261  1  0.061800  0.373000  0.621870  1.0  0.1183
  H  H262  1  0.450300  0.593500  0.025070  1.0  0.1079
  H  H263  1  0.471300  0.669100  0.090870  1.0  0.1224
  H  H264  1  0.364200  0.575500  0.238770  1.0  0.128
  H  H265  1  0.307900  0.481200  0.223070  1.0  0.1268
  H  H266  1  0.234900  0.373900  0.153570  1.0  0.1246
  H  H267  1  0.254500  0.398800  0.229570  1.0  0.1164
  H  H268  1  0.282400  0.280100  0.155270  1.0  0.114
  H  H269  1  0.253300  0.304300  0.108270  1.0  0.1196
  H  H270  1  0.359100  0.298400  0.118770  1.0  0.1299
  H  H271  1  0.446000  0.309600  0.094070  1.0  0.1329
  H  H272  1  0.542200  0.416300  0.947370  1.0  0.1219
  H  H273  1  0.482200  0.448000  0.934770  1.0  0.125
  H  H274  1  0.224300  0.265200  0.253570  1.0  0.1119
  H  H275  1  0.191300  0.284400  0.205370  1.0  0.111
  H  H276  1  0.212600  0.311500  0.280070  1.0  0.122
  H  H277  1  0.325200  0.326700  0.269870  1.0  0.1159
  H  H278  1  0.313500  0.372300  0.299370  1.0  0.1125
  H  H279  1  0.354200  0.385600  0.235470  1.0  0.1165
  H  H280  1  0.814900  0.881600  0.370130  1.0  0.1242
  H  H281  1  0.867300  0.859600  0.440630  1.0  0.1288
  H  H282  1  0.882200  0.970800  0.582730  1.0  0.1248
  H  H283  1  0.845300  0.027600  0.562130  1.0  0.1272
  H  H284  1  0.809500  0.099200  0.489930  1.0  0.1198
  H  H285  1  0.816600  0.081400  0.566230  1.0  0.1113
  H  H286  1  0.668200  0.048800  0.492930  1.0  0.1191
  H  H287  1  0.721300  0.078600  0.445730  1.0  0.1246
  H  H288  1  0.611300  0.969100  0.462630  1.0  0.1362
  H  H289  1  0.536100  0.885200  0.431730  1.0  0.1337
  H  H290  1  0.546000  0.794400  0.277330  1.0  0.1243
  H  H291  1  0.638700  0.853200  0.268830  1.0  0.1223
  H  H292  1  0.711200  0.110500  0.584830  1.0  0.125
  H  H293  1  0.767200  0.142700  0.543630  1.0  0.119
  H  H294  1  0.766000  0.119800  0.620030  1.0  0.1162
  H  H295  1  0.708200  0.980900  0.576930  1.0  0.1146
  H  H296  1  0.672600  0.005800  0.605230  1.0  0.1194
  H  H297  1  0.729900  0.023100  0.639930  1.0  0.121
  H  H298  1  0.114200  0.190900  0.241330  1.0  0.1153
  H  H299  1  0.135600  0.135400  0.175930  1.0  0.1231
  H  H300  1  0.032100  0.124500  0.025830  1.0  0.1144
  H  H301  1  0.975800  0.163200  0.038830  1.0  0.129
  H  H302  1  0.902300  0.196900  0.108130  1.0  0.1169
  H  H303  1  0.921600  0.191200  0.032130  1.0  0.1074
  H  H304  1  0.948300  0.337400  0.104930  1.0  0.1169
  H  H305  1  0.919600  0.284200  0.152230  1.0  0.1237
  H  H306  1  0.023700  0.396300  0.142030  1.0  0.1299
  H  H307  1  0.111000  0.473400  0.165430  1.0  0.1312
  H  H308  1  0.209900  0.465100  0.308830  1.0  0.1225
  H  H309  1  0.151400  0.372600  0.321330  1.0  0.132
  H  H310  1  0.880200  0.237700  0.978830  1.0  0.1223
  H  H311  1  0.889900  0.294100  0.008930  1.0  0.1178
  H  H312  1  0.857300  0.240100  0.053930  1.0  0.1153
  H  H313  1  0.021400  0.304800  0.026130  1.0  0.1121
  H  H314  1  0.991800  0.333900  0.990930  1.0  0.117
  H  H315  1  0.981200  0.276900  0.961930  1.0  0.1184
  H  H316  1  0.402100  0.550000  0.561730  1.0  0.1164
  H  H317  1  0.328100  0.528200  0.492030  1.0  0.1141
  H  H318  1  0.423300  0.636700  0.347930  1.0  0.1235
  H  H319  1  0.517300  0.693000  0.366030  1.0  0.1288
  H  H320  1  0.625200  0.765500  0.438330  1.0  0.1155
  H  H321  1  0.600200  0.748000  0.361930  1.0  0.1123
  H  H322  1  0.716300  0.716000  0.433230  1.0  0.1232
  H  H323  1  0.693000  0.745500  0.481030  1.0  0.1269
  H  H324  1  0.695200  0.637500  0.464330  1.0  0.1279
  H  H325  1  0.688100  0.554100  0.493930  1.0  0.1345
  H  H326  1  0.586300  0.460200  0.645630  1.0  0.1201
  H  H327  1  0.550800  0.517200  0.654830  1.0  0.123
  H  H328  1  0.687700  0.787600  0.308930  1.0  0.1241
  H  H329  1  0.733500  0.776500  0.339030  1.0  0.1183
  H  H330  1  0.712500  0.809200  0.384630  1.0  0.1239
  H  H331  1  0.609600  0.646700  0.351530  1.0  0.1153
  H  H332  1  0.669600  0.673900  0.320630  1.0  0.1222
  H  H333  1  0.627000  0.688800  0.288530  1.0  0.1175
  H  H334  1  0.406500  0.856800  0.691730  1.0  0.1071
  H  H335  1  0.330900  0.802200  0.757530  1.0  0.1226
  H  H336  1  0.424500  0.788700  0.905430  1.0  0.1272
  H  H337  1  0.518800  0.826700  0.889730  1.0  0.1281
  H  H338  1  0.626100  0.861000  0.820230  1.0  0.1259
  H  H339  1  0.601200  0.855700  0.896230  1.0  0.1164
  H  H340  1  0.719900  0.002300  0.821930  1.0  0.1156
  H  H341  1  0.695700  0.949000  0.774930  1.0  0.1187
  H  H342  1  0.701600  0.060700  0.785430  1.0  0.1304
  H  H343  1  0.690400  0.136400  0.760730  1.0  0.1349
  H  H344  1  0.583700  0.125900  0.614030  1.0  0.1219
  H  H345  1  0.552000  0.034200  0.601430  1.0  0.125
  H  H346  1  0.734800  0.959100  0.920230  1.0  0.1115
  H  H347  1  0.715600  0.906900  0.872030  1.0  0.1105
  H  H348  1  0.688500  0.901100  0.946730  1.0  0.1218
  H  H349  1  0.673300  0.998500  0.936530  1.0  0.1136
  H  H350  1  0.627700  0.941200  0.966030  1.0  0.113
  H  H351  1  0.614400  0.968600  0.902130  1.0  0.1166
  C  C352  1  0.896130  0.697190  0.998430  1.0  0.1026
  C  C353  1  0.797750  0.693500  0.933060  1.0  0.0933
  C  C354  1  0.752010  0.587430  0.935270  1.0  0.2093
  C  C355  1  0.840670  0.589780  0.995780  1.0  0.2163
  C  C356  1  0.788400  0.638850  0.056280  1.0  0.0873
  C  C357  1  0.854610  0.642740  0.874770  1.0  0.0862
  C  C358  1  0.059200  0.876540  0.099410  1.0  0.3106
  C  C359  1  0.099730  0.928530  0.079510  1.0  -0.208
  C  C360  1  0.112800  0.972710  0.121030  1.0  -0.0577
  C  C361  1  0.084940  0.965460  0.183790  1.0  0.0077
  C  C362  1  0.046990  0.915540  0.206120  1.0  -0.078
  C  C363  1  0.034080  0.869730  0.164780  1.0  -0.0618
  C  C364  1  0.992110  0.817840  0.188850  1.0  0.055
  C  C365  1  0.930510  0.723810  0.191090  1.0  -0.0984
  C  C366  1  0.940190  0.677230  0.211210  1.0  0.1315
  C  C367  1  0.951200  0.652820  0.146140  1.0  -0.1028
  C  C368  1  0.037700  0.673880  0.104650  1.0  0.0843
  C  C369  1  0.086070  0.699740  0.062620  1.0  -0.0431
  C  C370  1  0.121450  0.678930  0.066300  1.0  -0.0732
  C  C371  1  0.165710  0.699400  0.023200  1.0  -0.0606
  C  C372  1  0.175240  0.738630  0.974180  1.0  -0.034
  C  C373  1  0.140370  0.758740  0.969480  1.0  -0.1688
  C  C374  1  0.095360  0.740410  0.014010  1.0  0.3539
  C  C375  1  0.886990  0.633180  0.242800  1.0  -0.3754
  C  C376  1  0.986760  0.696250  0.262960  1.0  -0.3644
  C  C377  1  0.808390  0.867730  0.838690  1.0  0.2525
  C  C378  1  0.822470  0.919850  0.864220  1.0  -0.1157
  C  C379  1  0.855540  0.965430  0.825700  1.0  -0.022
  C  C380  1  0.875520  0.960140  0.762030  1.0  0.0101
  C  C381  1  0.861780  0.910420  0.736320  1.0  -0.0405
  C  C382  1  0.827480  0.863210  0.773900  1.0  -0.0965
  C  C383  1  0.817260  0.811610  0.746010  1.0  0.0591
  C  C384  1  0.785810  0.718190  0.741000  1.0  -0.0944
  C  C385  1  0.730350  0.670740  0.721350  1.0  0.134
  C  C386  1  0.695340  0.644870  0.785600  1.0  -0.0785
  C  C387  1  0.627730  0.661280  0.829560  1.0  0.0433
  C  C388  1  0.603950  0.687450  0.868330  1.0  -0.05
  C  C389  1  0.547560  0.666667  0.862960  1.0  -0.0166
  C  C390  1  0.523210  0.688510  0.902420  1.0  -0.0376
  C  C391  1  0.552530  0.730180  0.948640  1.0  -0.0189
  C  C392  1  0.607480  0.750560  0.955630  1.0  -0.1168
  C  C393  1  0.634070  0.730080  0.915450  1.0  0.3085
  C  C394  1  0.740550  0.627640  0.687700  1.0  -0.383
  C  C395  1  0.701030  0.689030  0.670470  1.0  -0.3432
  C  C396  1  0.561610  0.531990  0.263960  1.0  0.1045
  C  C397  1  0.415790  0.494900  0.324490  1.0  0.2179
  C  C398  1  0.504170  0.581910  0.263820  1.0  0.2166
  C  C399  1  0.726100  0.517330  0.166100  1.0  0.2833
  C  C400  1  0.766850  0.505510  0.186100  1.0  -0.1311
  C  C401  1  0.779870  0.474850  0.144500  1.0  -0.0304
  C  C402  1  0.752210  0.454200  0.082500  1.0  0.0398
  C  C403  1  0.713920  0.465810  0.059340  1.0  -0.0872
  C  C404  1  0.701080  0.498810  0.100280  1.0  -0.074
  C  C405  1  0.658890  0.508430  0.075310  1.0  0.0535
  C  C406  1  0.597340  0.541160  0.072980  1.0  -0.0623
  C  C407  1  0.607230  0.597130  0.053490  1.0  0.1556
  C  C408  1  0.617300  0.632650  0.117850  1.0  -0.1049
  C  C409  1  0.703280  0.697990  0.161570  1.0  0.0777
  C  C410  1  0.752200  0.720500  0.202570  1.0  -0.037
  C  C411  1  0.788260  0.776490  0.197780  1.0  -0.0622
  C  C412  1  0.832750  0.800060  0.240360  1.0  -0.0062
  C  C413  1  0.842620  0.769780  0.289110  1.0  -0.0477
  C  C414  1  0.807070  0.715240  0.294660  1.0  -0.1541
  C  C415  1  0.761570  0.689210  0.251170  1.0  0.3285
  C  C416  1  0.553350  0.587850  0.021600  1.0  -0.3743
  C  C417  1  0.653640  0.625500  0.001300  1.0  -0.3427
  C  C418  1  0.454490  0.479340  0.204460  1.0  0.0976
  C  C419  1  0.463730  0.436500  0.329010  1.0  0.1131
  C  C420  1  0.476580  0.274130  0.425640  1.0  0.3327
  C  C421  1  0.490430  0.235840  0.401670  1.0  -0.1352
  C  C422  1  0.523770  0.224040  0.440270  1.0  -0.0131
  C  C423  1  0.543150  0.249120  0.504340  1.0  -0.0066
  C  C424  1  0.529390  0.285230  0.529870  1.0  -0.0682
  C  C425  1  0.495180  0.297780  0.491350  1.0  -0.0743
  C  C426  1  0.484890  0.338970  0.518740  1.0  0.0515
  C  C427  1  0.453970  0.401400  0.523080  1.0  -0.0963
  C  C428  1  0.398360  0.393030  0.543230  1.0  0.1407
  C  C429  1  0.362680  0.383350  0.478850  1.0  -0.0861
  C  C430  1  0.295270  0.298530  0.436240  1.0  0.0543
  C  C431  1  0.271250  0.249150  0.396690  1.0  -0.049
  C  C432  1  0.215030  0.215080  0.401950  1.0  -0.0572
  C  C433  1  0.190270  0.169020  0.361870  1.0  -0.0395
  C  C434  1  0.219320  0.156490  0.314360  1.0  -0.0298
  C  C435  1  0.274040  0.190200  0.308400  1.0  -0.1386
  C  C436  1  0.301630  0.237160  0.349360  1.0  0.317
  C  C437  1  0.408350  0.446330  0.576170  1.0  -0.3793
  C  C438  1  0.369410  0.345950  0.594070  1.0  -0.3412
  C  C439  1  0.517620  0.544460  0.385760  1.0  0.1129
  C  C440  1  0.086940  0.831870  0.330260  1.0  0.2148
  C  C441  1  0.133130  0.771710  0.329180  1.0  0.0923
  C  C442  1  0.230130  0.867860  0.263670  1.0  0.0975
  C  C443  1  0.174240  0.918600  0.269580  1.0  0.2094
  C  C444  1  0.189170  0.879030  0.389650  1.0  0.1041
  C  C445  1  0.121810  0.817400  0.207760  1.0  0.1245
  C  C446  1  0.392750  0.852410  0.163960  1.0  0.2868
  C  C447  1  0.432070  0.839100  0.185090  1.0  -0.1282
  C  C448  1  0.444640  0.807790  0.144200  1.0  -0.0302
  C  C449  1  0.417960  0.787470  0.081350  1.0  0.0225
  C  C450  1  0.380820  0.800160  0.057980  1.0  -0.0899
  C  C451  1  0.368430  0.833640  0.098490  1.0  -0.0728
  C  C452  1  0.326220  0.843820  0.072900  1.0  0.0562
  C  C453  1  0.264060  0.875750  0.070250  1.0  -0.1004
  C  C454  1  0.273800  0.931680  0.050000  1.0  0.1446
  C  C455  1  0.284350  0.967120  0.113960  1.0  -0.0977
  C  C456  1  0.370150  0.033420  0.155570  1.0  0.0613
  C  C457  1  0.419020  0.057000  0.197050  1.0  -0.0583
  C  C458  1  0.453380  0.113210  0.192630  1.0  -0.0736
  C  C459  1  0.498150  0.137930  0.235310  1.0  -0.0358
  C  C460  1  0.508980  0.108440  0.282960  1.0  -0.0321
  C  C461  1  0.475190  0.053500  0.288140  1.0  -0.1395
  C  C462  1  0.429580  0.026040  0.245100  1.0  0.3155
  C  C463  1  0.220250  0.922160  0.017700  1.0  -0.37
  C  C464  1  0.320270  0.959650  0.998000  1.0  -0.3432
  C  C465  1  0.144750  0.607570  0.423610  1.0  0.316
  C  C466  1  0.157390  0.567890  0.401300  1.0  -0.1939
  C  C467  1  0.189540  0.555230  0.440200  1.0  -0.0252
  C  C468  1  0.210230  0.581560  0.503500  1.0  -0.0101
  C  C469  1  0.197380  0.618700  0.528500  1.0  -0.076
  C  C470  1  0.163430  0.631550  0.489340  1.0  -0.0773
  C  C471  1  0.153670  0.673110  0.516110  1.0  0.0552
  C  C472  1  0.121600  0.734820  0.520410  1.0  -0.1074
  C  C473  1  0.065640  0.726350  0.539560  1.0  0.1401
  C  C474  1  0.030750  0.716800  0.474880  1.0  -0.0889
  C  C475  1  0.963870  0.631980  0.430750  1.0  0.0534
  C  C476  1  0.941000  0.582350  0.390830  1.0  -0.0462
  C  C477  1  0.884910  0.546490  0.396270  1.0  -0.0649
  C  C478  1  0.861400  0.500390  0.355860  1.0  -0.0476
  C  C479  1  0.891280  0.489630  0.308430  1.0  -0.0296
  C  C480  1  0.945670  0.524900  0.301540  1.0  -0.1429
  C  C481  1  0.972170  0.571600  0.343510  1.0  0.3521
  C  C482  1  0.075550  0.779340  0.572560  1.0  -0.3703
  C  C483  1  0.036730  0.679120  0.590650  1.0  -0.3458
  C  C484  1  0.024850  0.545510  0.537790  1.0  0.0966
  C  C485  1  0.972770  0.536270  0.662340  1.0  0.1118
  C  C486  1  0.797550  0.523420  0.758970  1.0  0.3324
  C  C487  1  0.745410  0.509570  0.735000  1.0  -0.1355
  C  C488  1  0.700270  0.476230  0.773600  1.0  -0.0115
  C  C489  1  0.705970  0.456850  0.837670  1.0  -0.0036
  C  C490  1  0.755840  0.470610  0.863200  1.0  -0.0702
  C  C491  1  0.802600  0.504820  0.824680  1.0  -0.0725
  C  C492  1  0.854080  0.515110  0.852070  1.0  0.0506
  C  C493  1  0.947430  0.546030  0.856410  1.0  -0.0943
  C  C494  1  0.994670  0.601640  0.876560  1.0  0.142
  C  C495  1  0.020670  0.637320  0.812180  1.0  -0.0863
  C  C496  1  0.003260  0.704730  0.769570  1.0  0.0517
  C  C497  1  0.977900  0.728750  0.730020  1.0  -0.0499
  C  C498  1  0.000050  0.784970  0.735280  1.0  -0.0567
  C  C499  1  0.978750  0.809730  0.695200  1.0  -0.0374
  C  C500  1  0.937170  0.780680  0.647690  1.0  -0.0264
  C  C501  1  0.916160  0.725960  0.641730  1.0  -0.1381
  C  C502  1  0.935530  0.698370  0.682690  1.0  0.3156
  C  C503  1  0.037980  0.591650  0.909500  1.0  -0.3783
  C  C504  1  0.976540  0.630590  0.927400  1.0  -0.3409
  C  C505  1  0.026840  0.482380  0.719100  1.0  0.1154
  C  C506  1  0.970380  0.438390  0.597290  1.0  0.1079
  C  C507  1  0.079110  0.584210  0.657820  1.0  0.2182
  C  C508  1  0.077740  0.495830  0.597150  1.0  0.2184
  C  C509  1  0.791230  0.273900  0.499430  1.0  0.2838
  C  C510  1  0.738660  0.233150  0.519430  1.0  -0.1315
  C  C511  1  0.694980  0.220130  0.477830  1.0  -0.0298
  C  C512  1  0.701990  0.247790  0.415830  1.0  0.0338
  C  C513  1  0.751890  0.286080  0.392670  1.0  -0.0832
  C  C514  1  0.797730  0.298920  0.433610  1.0  -0.0742
  C  C515  1  0.849540  0.341110  0.408640  1.0  0.0552
  C  C516  1  0.943820  0.402660  0.406310  1.0  -0.0627
  C  C517  1  0.989900  0.392770  0.386820  1.0  0.1559
  C  C518  1  0.015350  0.382700  0.451180  1.0  -0.105
  C  C519  1  0.994710  0.296720  0.494900  1.0  0.0814
  C  C520  1  0.968300  0.247800  0.535900  1.0  -0.0358
  C  C521  1  0.988230  0.211740  0.531110  1.0  -0.0635
  C  C522  1  0.967310  0.167250  0.573690  1.0  -0.0045
  C  C523  1  0.927160  0.157380  0.622440  1.0  -0.0457
  C  C524  1  0.908170  0.192930  0.627990  1.0  -0.1559
  C  C525  1  0.927640  0.238430  0.584500  1.0  0.3273
  C  C526  1  0.034500  0.446650  0.354930  1.0  -0.3742
  C  C527  1  0.971860  0.346360  0.334630  1.0  -0.342
  C  C528  1  0.455540  0.973160  0.052430  1.0  0.1135
  C  C529  1  0.468010  0.029620  0.930630  1.0  0.1069
  C  C530  1  0.505100  0.920890  0.991160  1.0  0.2199
  C  C531  1  0.418090  0.922260  0.930490  1.0  0.2183
  C  C532  1  0.482670  0.208770  0.832770  1.0  0.2855
  C  C533  1  0.494490  0.261340  0.852770  1.0  -0.1307
  C  C534  1  0.525150  0.305020  0.811170  1.0  -0.0296
  C  C535  1  0.545800  0.298010  0.749170  1.0  0.0438
  C  C536  1  0.534190  0.248110  0.726010  1.0  -0.0815
  C  C537  1  0.501190  0.202270  0.766950  1.0  -0.0758
  C  C538  1  0.491570  0.150460  0.741980  1.0  0.055
  C  C539  1  0.458840  0.056180  0.739650  1.0  -0.0627
  C  C540  1  0.402870  0.010100  0.720160  1.0  0.1565
  C  C541  1  0.367350  0.984650  0.784520  1.0  -0.1039
  C  C542  1  0.302010  0.005290  0.828240  1.0  0.0799
  C  C543  1  0.279500  0.031700  0.869240  1.0  -0.0339
  C  C544  1  0.223510  0.011770  0.864450  1.0  -0.0632
  C  C545  1  0.199940  0.032690  0.907030  1.0  -0.0119
  C  C546  1  0.230220  0.072840  0.955780  1.0  -0.0454
  C  C547  1  0.284760  0.091830  0.961330  1.0  -0.1591
  C  C548  1  0.310790  0.072360  0.917840  1.0  0.3278
  C  C549  1  0.412150  0.965500  0.688270  1.0  -0.3754
  C  C550  1  0.374500  0.028140  0.667970  1.0  -0.3427
  C  C551  1  0.520660  0.975150  0.871120  1.0  0.0964
  C  C552  1  0.563500  0.027230  0.995670  1.0  0.1119
  C  C553  1  0.725870  0.202450  0.092300  1.0  0.3317
  C  C554  1  0.764160  0.254590  0.068330  1.0  -0.1328
  C  C555  1  0.775960  0.299730  0.106930  1.0  -0.0117
  C  C556  1  0.750880  0.294030  0.171000  1.0  -0.0009
  C  C557  1  0.714770  0.244160  0.196530  1.0  -0.0675
  C  C558  1  0.702220  0.197400  0.158010  1.0  -0.075
  C  C559  1  0.661030  0.145920  0.185400  1.0  0.0502
  C  C560  1  0.598600  0.052570  0.189740  1.0  -0.0967
  C  C561  1  0.606970  0.005330  0.209890  1.0  0.1419
  C  C562  1  0.616650  0.979330  0.145510  1.0  -0.087
  C  C563  1  0.701470  0.996740  0.102900  1.0  0.0533
  C  C564  1  0.750850  0.022100  0.063350  1.0  -0.0494
  C  C565  1  0.784920  0.999950  0.068610  1.0  -0.0583
  C  C566  1  0.830980  0.021250  0.028530  1.0  -0.0449
  C  C567  1  0.843510  0.062830  0.981020  1.0  -0.0255
  C  C568  1  0.809800  0.083840  0.975060  1.0  -0.1409
  C  C569  1  0.762840  0.064470  0.016020  1.0  0.3165
  C  C570  1  0.553670  0.962020  0.242830  1.0  -0.3801
  C  C571  1  0.654050  0.023460  0.260730  1.0  -0.3414
  C  C572  1  0.302810  0.198940  0.665100  1.0  0.1018
  C  C573  1  0.306500  0.104250  0.599730  1.0  0.0922
  C  C574  1  0.412570  0.164580  0.601940  1.0  0.2102
  C  C575  1  0.410220  0.250890  0.662450  1.0  0.2156
  C  C576  1  0.361150  0.149550  0.722950  1.0  0.0902
  C  C577  1  0.357260  0.211870  0.541440  1.0  0.0859
  C  C578  1  0.123460  0.182660  0.766080  1.0  0.3111
  C  C579  1  0.071470  0.171200  0.746180  1.0  -0.2081
  C  C580  1  0.027290  0.140090  0.787700  1.0  -0.0607
  C  C581  1  0.034540  0.119480  0.850460  1.0  0.0014
  C  C582  1  0.084460  0.131450  0.872790  1.0  -0.0813
  C  C583  1  0.130270  0.164350  0.831450  1.0  -0.0599
  C  C584  1  0.182160  0.174270  0.855520  1.0  0.0569
  C  C585  1  0.276190  0.206700  0.857760  1.0  -0.0982
  C  C586  1  0.322770  0.262960  0.877880  1.0  0.131
  C  C587  1  0.347180  0.298380  0.812810  1.0  -0.1041
  C  C588  1  0.326120  0.363820  0.771320  1.0  0.085
  C  C589  1  0.300260  0.386330  0.729290  1.0  -0.0426
  C  C590  1  0.321070  0.442520  0.732970  1.0  -0.0692
  C  C591  1  0.300600  0.466310  0.689870  1.0  -0.0495
  C  C592  1  0.261370  0.436610  0.640850  1.0  -0.0355
  C  C593  1  0.241260  0.381630  0.636150  1.0  -0.1669
  C  C594  1  0.259590  0.354950  0.680680  1.0  0.3535
  C  C595  1  0.366820  0.253810  0.909470  1.0  -0.3726
  C  C596  1  0.303750  0.290510  0.929630  1.0  -0.3643
  C  C597  1  0.132270  0.940660  0.505360  1.0  0.2504
  C  C598  1  0.080150  0.902620  0.530890  1.0  -0.1197
  C  C599  1  0.034570  0.890110  0.492370  1.0  -0.0233
  C  C600  1  0.039860  0.915380  0.428700  1.0  0.0026
  C  C601  1  0.089580  0.951360  0.402990  1.0  -0.0398
  C  C602  1  0.136790  0.964270  0.440570  1.0  -0.0965
  C  C603  1  0.188390  0.005650  0.412680  1.0  0.0574
  C  C604  1  0.281810  0.067620  0.407670  1.0  -0.0945
  C  C605  1  0.329260  0.059610  0.388020  1.0  0.1328
  C  C606  1  0.355130  0.050470  0.452270  1.0  -0.0799
  C  C607  1  0.338720  0.966450  0.496230  1.0  0.0461
  C  C608  1  0.312550  0.916500  0.535000  1.0  -0.0504
  C  C609  1  0.333333  0.880880  0.529630  1.0  -0.021
  C  C610  1  0.311490  0.834700  0.569090  1.0  -0.0363
  C  C611  1  0.269820  0.822350  0.615310  1.0  -0.0223
  C  C612  1  0.249440  0.856920  0.622300  1.0  -0.1148
  C  C613  1  0.269920  0.903990  0.582120  1.0  0.3107
  C  C614  1  0.372360  0.112910  0.354370  1.0  -0.3803
  C  C615  1  0.310970  0.012000  0.337140  1.0  -0.3429
  C  C616  1  0.168130  0.255070  0.996930  1.0  0.2159
  C  C617  1  0.228290  0.361420  0.995850  1.0  0.089
  C  C618  1  0.132140  0.362270  0.930340  1.0  0.0985
  C  C619  1  0.081400  0.255640  0.936250  1.0  0.2104
  C  C620  1  0.120970  0.310140  0.056320  1.0  0.1029
  C  C621  1  0.182600  0.304410  0.874430  1.0  0.1235
  C  C622  1  0.147590  0.540340  0.830630  1.0  0.2889
  C  C623  1  0.160900  0.592970  0.851760  1.0  -0.1255
  C  C624  1  0.192210  0.636850  0.810870  1.0  -0.0291
  C  C625  1  0.212530  0.630490  0.748020  1.0  0.0231
  C  C626  1  0.199840  0.580660  0.724650  1.0  -0.0847
  C  C627  1  0.166360  0.534790  0.765160  1.0  -0.0752
  C  C628  1  0.156180  0.482400  0.739570  1.0  0.0557
  C  C629  1  0.124250  0.388310  0.736920  1.0  -0.1015
  C  C630  1  0.068320  0.342120  0.716670  1.0  0.1451
  C  C631  1  0.032880  0.317230  0.780630  1.0  -0.0972
  C  C632  1  0.966580  0.336730  0.822240  1.0  0.0624
  C  C633  1  0.943000  0.362020  0.863720  1.0  -0.0556
  C  C634  1  0.886790  0.340170  0.859300  1.0  -0.0736
  C  C635  1  0.862070  0.360220  0.901980  1.0  -0.0412
  C  C636  1  0.891560  0.400540  0.949630  1.0  -0.0292
  C  C637  1  0.946500  0.421690  0.954810  1.0  -0.1426
  C  C638  1  0.973960  0.403540  0.911770  1.0  0.3146
  C  C639  1  0.077840  0.298090  0.684370  1.0  -0.3716
  C  C640  1  0.040350  0.360620  0.664670  1.0  -0.342
  C  C641  1  0.392430  0.537180  0.090280  1.0  0.3166
  C  C642  1  0.432110  0.589500  0.067970  1.0  -0.1936
  C  C643  1  0.444770  0.634310  0.106870  1.0  -0.024
  C  C644  1  0.418440  0.628670  0.170170  1.0  -0.0028
  C  C645  1  0.381300  0.578680  0.195170  1.0  -0.0757
  C  C646  1  0.368450  0.531880  0.156010  1.0  -0.0776
  C  C647  1  0.326890  0.480560  0.182780  1.0  0.0539
  C  C648  1  0.265180  0.386780  0.187080  1.0  -0.1073
  C  C649  1  0.273650  0.339290  0.206230  1.0  0.1414
  C  C650  1  0.283200  0.313950  0.141550  1.0  -0.0878
  C  C651  1  0.368020  0.331890  0.097420  1.0  0.0526
  C  C652  1  0.417650  0.358650  0.057500  1.0  -0.0475
  C  C653  1  0.453510  0.338420  0.062940  1.0  -0.0654
  C  C654  1  0.499610  0.361010  0.022530  1.0  -0.0544
  C  C655  1  0.510370  0.401650  0.975100  1.0  -0.0277
  C  C656  1  0.475100  0.420770  0.968210  1.0  -0.1436
  C  C657  1  0.428400  0.400570  0.010180  1.0  0.353
  C  C658  1  0.220660  0.296210  0.239230  1.0  -0.3733
  C  C659  1  0.320880  0.357610  0.257320  1.0  -0.3466
  C  C660  1  0.801060  0.103870  0.331760  1.0  0.103
  C  C661  1  0.895750  0.202250  0.266390  1.0  0.0925
  C  C662  1  0.835420  0.247990  0.268600  1.0  0.2087
  C  C663  1  0.749110  0.159330  0.329110  1.0  0.2148
  C  C664  1  0.850450  0.211600  0.389610  1.0  0.0879
  C  C665  1  0.788130  0.145390  0.208100  1.0  0.0872
  C  C666  1  0.817340  0.940800  0.432740  1.0  0.3124
  C  C667  1  0.828800  0.900270  0.412840  1.0  -0.208
  C  C668  1  0.859910  0.887200  0.454360  1.0  -0.0579
  C  C669  1  0.880520  0.915060  0.517120  1.0  -0.0025
  C  C670  1  0.868550  0.953010  0.539450  1.0  -0.0788
  C  C671  1  0.835650  0.965920  0.498110  1.0  -0.0609
  C  C672  1  0.825730  0.007890  0.522180  1.0  0.0567
  C  C673  1  0.793300  0.069490  0.524420  1.0  -0.0991
  C  C674  1  0.737040  0.059810  0.544540  1.0  0.1307
  C  C675  1  0.701620  0.048800  0.479470  1.0  -0.1058
  C  C676  1  0.636180  0.962300  0.437980  1.0  0.0871
  C  C677  1  0.613670  0.913930  0.395950  1.0  -0.0414
  C  C678  1  0.557480  0.878550  0.399630  1.0  -0.0718
  C  C679  1  0.533690  0.834290  0.356530  1.0  -0.0534
  C  C680  1  0.563390  0.824760  0.307510  1.0  -0.0362
  C  C681  1  0.618370  0.859630  0.302810  1.0  -0.1673
  C  C682  1  0.645050  0.904640  0.347340  1.0  0.3553
  C  C683  1  0.746190  0.113010  0.576130  1.0  -0.3733
  C  C684  1  0.709490  0.013240  0.596290  1.0  -0.364
  C  C685  1  0.059340  0.191610  0.172020  1.0  0.2503
  C  C686  1  0.097380  0.177530  0.197550  1.0  -0.118
  C  C687  1  0.109890  0.144460  0.159030  1.0  -0.0217
  C  C688  1  0.084620  0.124480  0.095360  1.0  0.0097
  C  C689  1  0.048640  0.138220  0.069650  1.0  -0.0432
  C  C690  1  0.035730  0.172520  0.107230  1.0  -0.0964
  C  C691  1  0.994350  0.182740  0.079340  1.0  0.0566
  C  C692  1  0.932380  0.214190  0.074330  1.0  -0.0921
  C  C693  1  0.940390  0.269650  0.054680  1.0  0.1341
  C  C694  1  0.949530  0.304660  0.118930  1.0  -0.0795
  C  C695  1  0.033550  0.372270  0.162890  1.0  0.0426
  C  C696  1  0.083500  0.396050  0.201660  1.0  -0.0523
  C  C697  1  0.119120  0.452440  0.196290  1.0  -0.0394
  C  C698  1  0.165300  0.476790  0.235750  1.0  -0.0359
  C  C699  1  0.177650  0.447470  0.281970  1.0  -0.0211
  C  C700  1  0.143080  0.392520  0.288960  1.0  -0.1137
  C  C701  1  0.096010  0.365930  0.248780  1.0  0.3102
  C  C702  1  0.887090  0.259450  0.021030  1.0  -0.3809
  C  C703  1  0.988000  0.298970  0.003800  1.0  -0.3432
  C  C704  1  0.744930  0.913060  0.663590  1.0  0.2133
  C  C705  1  0.638580  0.866870  0.662510  1.0  0.0882
  C  C706  1  0.637730  0.769870  0.597000  1.0  0.0993
  C  C707  1  0.744360  0.825760  0.602910  1.0  0.2102
  C  C708  1  0.689860  0.810830  0.722980  1.0  0.106
  C  C709  1  0.695590  0.878190  0.541090  1.0  0.1228
  C  C710  1  0.459660  0.607250  0.497290  1.0  0.2876
  C  C711  1  0.407030  0.567930  0.518420  1.0  -0.1266
  C  C712  1  0.363150  0.555360  0.477530  1.0  -0.0298
  C  C713  1  0.369510  0.582040  0.414680  1.0  0.0161
  C  C714  1  0.419340  0.619180  0.391310  1.0  -0.0864
  C  C715  1  0.465210  0.631570  0.431820  1.0  -0.0723
  C  C716  1  0.517600  0.673780  0.406230  1.0  0.0564
  C  C717  1  0.611690  0.735940  0.403580  1.0  -0.102
  C  C718  1  0.657880  0.726200  0.383330  1.0  0.1436
  C  C719  1  0.682770  0.715650  0.447290  1.0  -0.0981
  C  C720  1  0.663270  0.629850  0.488900  1.0  0.0636
  C  C721  1  0.637980  0.580980  0.530380  1.0  -0.0573
  C  C722  1  0.659830  0.546620  0.525960  1.0  -0.0759
  C  C723  1  0.639780  0.501850  0.568640  1.0  -0.0317
  C  C724  1  0.599460  0.491020  0.616290  1.0  -0.0319
  C  C725  1  0.578310  0.524810  0.621470  1.0  -0.14
  C  C726  1  0.596460  0.570420  0.578430  1.0  0.3162
  C  C727  1  0.701910  0.779750  0.351030  1.0  -0.3709
  C  C728  1  0.639380  0.679730  0.331330  1.0  -0.3421
  C  C729  1  0.462820  0.855250  0.756940  1.0  0.3147
  C  C730  1  0.410500  0.842610  0.734630  1.0  -0.1959
  C  C731  1  0.365690  0.810460  0.773530  1.0  -0.0251
  C  C732  1  0.371330  0.789770  0.836830  1.0  -0.0063
  C  C733  1  0.421320  0.802620  0.861830  1.0  -0.0757
  C  C734  1  0.468120  0.836570  0.822670  1.0  -0.0761
  C  C735  1  0.519440  0.846330  0.849440  1.0  0.0558
  C  C736  1  0.613220  0.878400  0.853740  1.0  -0.1053
  C  C737  1  0.660710  0.934360  0.872890  1.0  0.1407
  C  C738  1  0.686050  0.969250  0.808210  1.0  -0.0871
  C  C739  1  0.668110  0.036130  0.764080  1.0  0.0536
  C  C740  1  0.641350  0.059000  0.724160  1.0  -0.0464
  C  C741  1  0.661580  0.115090  0.729600  1.0  -0.0656
  C  C742  1  0.638990  0.138600  0.689190  1.0  -0.044
  C  C743  1  0.598350  0.108720  0.641760  1.0  -0.0275
  C  C744  1  0.579230  0.054330  0.634870  1.0  -0.1415
  C  C745  1  0.599430  0.027830  0.676840  1.0  0.3526
  C  C746  1  0.703790  0.924450  0.905890  1.0  -0.3696
  C  C747  1  0.642390  0.963270  0.923980  1.0  -0.3462
  Br  Br748  1  0.099850  0.026790  0.238700  1.0  -0.0826
  Br  Br749  1  0.214660  0.672390  0.030750  1.0  -0.0453
  Br  Br750  1  0.923070  0.023200  0.710300  1.0  -0.1311
  Br  Br751  1  0.447760  0.661950  0.891180  1.0  -0.0624
  Br  Br752  1  0.767440  0.407660  0.027650  1.0  -0.0747
  Br  Br753  1  0.883080  0.875470  0.232110  1.0  -0.0505
  Br  Br754  1  0.590840  0.233940  0.556120  1.0  -0.1144
  Br  Br755  1  0.114470  0.120770  0.371660  1.0  -0.0568
  Br  Br756  1  0.432590  0.740260  0.027550  1.0  -0.0771
  Br  Br757  1  0.545740  0.214140  0.226490  1.0  -0.0452
  Br  Br758  1  0.256860  0.565790  0.556170  1.0  -0.109
  Br  Br759  1  0.786340  0.450120  0.365970  1.0  -0.0454
  Br  Br760  1  0.643100  0.409160  0.889450  1.0  -0.1142
  Br  Br761  1  0.006300  0.885530  0.704990  1.0  -0.0586
  Br  Br762  1  0.640230  0.232560  0.360980  1.0  -0.0758
  Br  Br763  1  0.992400  0.116920  0.565440  1.0  -0.0535
  Br  Br764  1  0.592340  0.359770  0.694320  1.0  -0.0745
  Br  Br765  1  0.124530  0.007600  0.898780  1.0  -0.0522
  Br  Br766  1  0.766060  0.356900  0.222780  1.0  -0.1152
  Br  Br767  1  0.879230  0.993700  0.038320  1.0  -0.0588
  Br  Br768  1  0.973210  0.073060  0.905370  1.0  -0.082
  Br  Br769  1  0.327610  0.542270  0.697420  1.0  -0.0447
  Br  Br770  1  0.976800  0.899870  0.376970  1.0  -0.1304
  Br  Br771  1  0.338050  0.785800  0.557840  1.0  -0.0616
  Br  Br772  1  0.259740  0.692330  0.694220  1.0  -0.0776
  Br  Br773  1  0.785860  0.331600  0.893160  1.0  -0.0414
  Br  Br774  1  0.434210  0.691070  0.222840  1.0  -0.1133
  Br  Br775  1  0.549880  0.336220  0.032640  1.0  -0.0467
  Br  Br776  1  0.926940  0.900150  0.572040  1.0  -0.0825
  Br  Br777  1  0.457730  0.785340  0.364090  1.0  -0.0441
  Br  Br778  1  0.100130  0.076930  0.043630  1.0  -0.1301
  Br  Br779  1  0.214200  0.552240  0.224510  1.0  -0.0665
  Br  Br780  1  0.307670  0.567410  0.360880  1.0  -0.0775
  Br  Br781  1  0.668400  0.454260  0.559820  1.0  -0.0432
  Br  Br782  1  0.308930  0.743140  0.889500  1.0  -0.1094
  Br  Br783  1  0.663780  0.213660  0.699300  1.0  -0.0462
  N  N784  1  0.978520  0.771410  0.161670  1.0  -0.3432
  N  N785  1  0.002950  0.689760  0.111850  1.0  -0.341
  N  N786  1  0.784100  0.764670  0.771330  1.0  -0.3409
  N  N787  1  0.678530  0.679830  0.820940  1.0  -0.3353
  N  N788  1  0.939490  0.724410  0.019330  1.0  -0.4641
  N  N789  1  0.778380  0.717870  0.912960  1.0  -0.4728
  N  N790  1  0.709270  0.554770  0.918540  1.0  -0.4595
  N  N791  1  0.851930  0.558080  0.011850  1.0  -0.415
  N  N792  1  0.763500  0.632190  0.106350  1.0  -0.4688
  N  N793  1  0.874190  0.638740  0.824500  1.0  -0.4491
  N  N794  1  0.645300  0.541490  0.102590  1.0  -0.3476
  N  N795  1  0.669280  0.647470  0.152760  1.0  -0.3474
  N  N796  1  0.605450  0.548740  0.244500  1.0  -0.4669
  N  N797  1  0.372860  0.484610  0.339820  1.0  -0.4229
  N  N798  1  0.515460  0.624260  0.246690  1.0  -0.4178
  N  N799  1  0.452090  0.353050  0.492740  1.0  -0.341
  N  N800  1  0.346310  0.331380  0.443900  1.0  -0.3387
  N  N801  1  0.430750  0.460270  0.153560  1.0  -0.4731
  N  N802  1  0.445220  0.392880  0.350660  1.0  -0.4594
  N  N803  1  0.536470  0.569220  0.435710  1.0  -0.442
  N  N804  1  0.312350  0.876580  0.099530  1.0  -0.3391
  N  N805  1  0.336190  0.982730  0.148890  1.0  -0.3436
  N  N806  1  0.120340  0.686790  0.489860  1.0  -0.3425
  N  N807  1  0.014790  0.665000  0.439750  1.0  -0.3429
  N  N808  1  0.043750  0.821210  0.347080  1.0  -0.4463
  N  N809  1  0.114790  0.727920  0.348500  1.0  -0.4618
  N  N810  1  0.273720  0.884950  0.242170  1.0  -0.4645
  N  N811  1  0.184970  0.961720  0.254440  1.0  -0.4144
  N  N812  1  0.208860  0.902280  0.439950  1.0  -0.4666
  N  N813  1  0.097120  0.799010  0.157940  1.0  -0.4269
  N  N814  1  0.900960  0.547910  0.826070  1.0  -0.3416
  N  N815  1  0.985070  0.653690  0.777230  1.0  -0.3391
  N  N816  1  0.029520  0.569250  0.486890  1.0  -0.4734
  N  N817  1  0.947660  0.554780  0.683990  1.0  -0.4582
  N  N818  1  0.032750  0.463530  0.769050  1.0  -0.4406
  N  N819  1  0.896190  0.354700  0.435920  1.0  -0.348
  N  N820  1  0.978190  0.330720  0.486090  1.0  -0.3452
  N  N821  1  0.943290  0.394550  0.577830  1.0  -0.4671
  N  N822  1  0.111750  0.627140  0.673150  1.0  -0.4258
  N  N823  1  0.108800  0.484540  0.580020  1.0  -0.417
  N  N824  1  0.430780  0.967250  0.102380  1.0  -0.4429
  N  N825  1  0.458510  0.103810  0.769260  1.0  -0.3501
  N  N826  1  0.352530  0.021810  0.819430  1.0  -0.346
  N  N827  1  0.451260  0.056710  0.911170  1.0  -0.468
  N  N828  1  0.515390  0.888250  0.006490  1.0  -0.4217
  N  N829  1  0.375740  0.891200  0.913360  1.0  -0.4151
  N  N830  1  0.646950  0.099040  0.159400  1.0  -0.3423
  N  N831  1  0.668620  0.014930  0.110560  1.0  -0.3382
  N  N832  1  0.539730  0.970480  0.820220  1.0  -0.476
  N  N833  1  0.607120  0.052340  0.017320  1.0  -0.4606
  N  N834  1  0.228590  0.207110  0.828340  1.0  -0.3427
  N  N835  1  0.310240  0.313190  0.778520  1.0  -0.3423
  N  N836  1  0.235330  0.019430  0.438000  1.0  -0.3362
  N  N837  1  0.320170  0.998700  0.487610  1.0  -0.3341
  N  N838  1  0.275590  0.215080  0.686000  1.0  -0.4613
  N  N839  1  0.282130  0.060510  0.579630  1.0  -0.4704
  N  N840  1  0.445230  0.154500  0.585210  1.0  -0.4603
  N  N841  1  0.441920  0.293850  0.678520  1.0  -0.4187
  N  N842  1  0.367810  0.131310  0.773020  1.0  -0.4683
  N  N843  1  0.361260  0.235450  0.491170  1.0  -0.4455
  N  N844  1  0.123420  0.435770  0.766200  1.0  -0.3406
  N  N845  1  0.017270  0.353460  0.815560  1.0  -0.3421
  N  N846  1  0.313210  0.433550  0.156530  1.0  -0.345
  N  N847  1  0.335000  0.349790  0.106420  1.0  -0.3419
  N  N848  1  0.178790  0.222540  0.013750  1.0  -0.4468
  N  N849  1  0.272080  0.386870  0.015170  1.0  -0.4612
  N  N850  1  0.115050  0.388770  0.908840  1.0  -0.4667
  N  N851  1  0.038280  0.223250  0.921110  1.0  -0.4116
  N  N852  1  0.097720  0.306580  0.106620  1.0  -0.4676
  N  N853  1  0.200990  0.298110  0.824610  1.0  -0.4281
  N  N854  1  0.792890  0.021480  0.495000  1.0  -0.3446
  N  N855  1  0.686810  0.997050  0.445180  1.0  -0.341
  N  N856  1  0.980570  0.215900  0.104660  1.0  -0.3389
  N  N857  1  0.001300  0.321470  0.154270  1.0  -0.3349
  N  N858  1  0.784920  0.060510  0.352660  1.0  -0.4643
  N  N859  1  0.939490  0.221620  0.246290  1.0  -0.4691
  N  N860  1  0.845500  0.290730  0.251870  1.0  -0.4631
  N  N861  1  0.706150  0.148070  0.345180  1.0  -0.4156
  N  N862  1  0.868690  0.236500  0.439680  1.0  -0.4683
  N  N863  1  0.764550  0.125810  0.157830  1.0  -0.4459
  N  N864  1  0.564230  0.687650  0.432860  1.0  -0.3386
  N  N865  1  0.646540  0.663810  0.482220  1.0  -0.3417
  N  N866  1  0.566450  0.879660  0.823190  1.0  -0.3443
  N  N867  1  0.650210  0.985210  0.773080  1.0  -0.3425
  N  N868  1  0.777460  0.956250  0.680410  1.0  -0.4503
  N  N869  1  0.613130  0.885210  0.681830  1.0  -0.4579
  N  N870  1  0.611230  0.726280  0.575500  1.0  -0.4651
  N  N871  1  0.776750  0.815030  0.587770  1.0  -0.413
  N  N872  1  0.693420  0.791140  0.773280  1.0  -0.4668
  N  N873  1  0.701890  0.902880  0.491270  1.0  -0.4271
  O  O874  1  0.044080  0.836160  0.054660  1.0  -0.5718
  O  O875  1  0.062430  0.760140  0.006980  1.0  -0.5492
  O  O876  1  0.781000  0.825830  0.881330  1.0  -0.565
  O  O877  1  0.686990  0.749740  0.924370  1.0  -0.5503
  O  O878  1  0.710810  0.542860  0.210320  1.0  -0.56
  O  O879  1  0.727910  0.636270  0.257800  1.0  -0.548
  O  O880  1  0.449260  0.288500  0.383760  1.0  -0.5615
  O  O881  1  0.354360  0.269250  0.340800  1.0  -0.5418
  O  O882  1  0.377610  0.878140  0.207230  1.0  -0.5559
  O  O883  1  0.397180  0.973350  0.252730  1.0  -0.5502
  O  O884  1  0.117960  0.621810  0.380850  1.0  -0.5608
  O  O885  1  0.024780  0.605340  0.335210  1.0  -0.5453
  O  O886  1  0.839240  0.550740  0.717090  1.0  -0.5559
  O  O887  1  0.914890  0.645640  0.674130  1.0  -0.5446
  O  O888  1  0.832050  0.289190  0.543650  1.0  -0.5599
  O  O889  1  0.908360  0.272090  0.591130  1.0  -0.5454
  O  O890  1  0.457140  0.167950  0.876990  1.0  -0.5631
  O  O891  1  0.363730  0.091640  0.924470  1.0  -0.546
  O  O892  1  0.711500  0.160760  0.050420  1.0  -0.562
  O  O893  1  0.730750  0.085110  0.007460  1.0  -0.5452
  O  O894  1  0.163840  0.207920  0.721330  1.0  -0.5654
  O  O895  1  0.239860  0.302290  0.673650  1.0  -0.5508
  O  O896  1  0.174170  0.955170  0.548000  1.0  -0.5645
  O  O897  1  0.250260  0.937250  0.591040  1.0  -0.5486
  O  O898  1  0.121860  0.499470  0.873900  1.0  -0.5579
  O  O899  1  0.026650  0.423830  0.919400  1.0  -0.5476
  O  O900  1  0.378190  0.496150  0.047520  1.0  -0.563
  O  O901  1  0.394660  0.419440  0.001880  1.0  -0.5495
  O  O902  1  0.792080  0.955920  0.387990  1.0  -0.5713
  O  O903  1  0.697710  0.937570  0.340310  1.0  -0.5464
  O  O904  1  0.044830  0.219000  0.214660  1.0  -0.5651
  O  O905  1  0.062750  0.313010  0.257700  1.0  -0.551
  O  O906  1  0.500530  0.622390  0.540560  1.0  -0.5562
  O  O907  1  0.576170  0.602820  0.586060  1.0  -0.5467
  O  O908  1  0.503850  0.882040  0.714180  1.0  -0.5562
  O  O909  1  0.580560  0.975220  0.668540  1.0  -0.5492
