# generated using pymatgen
data_FeAgH30(C14N3)3
_symmetry_space_group_name_H-M   'P 1'
_cell_length_a   14.88200000
_cell_length_b   31.20340000
_cell_length_c   36.96090000
_cell_angle_alpha   113.68900000
_cell_angle_beta   99.13030000
_cell_angle_gamma   95.79770000
_symmetry_Int_Tables_number   1
_chemical_formula_structural   FeAgH30(C14N3)3
_chemical_formula_sum   'Fe12 Ag12 H360 C504 N108'
_cell_volume   15258.29318859
_cell_formula_units_Z   12
loop_
 _symmetry_equiv_pos_site_id
 _symmetry_equiv_pos_as_xyz
  1  'x, y, z'
loop_
 _atom_site_type_symbol
 _atom_site_label
 _atom_site_symmetry_multiplicity
 _atom_site_fract_x
 _atom_site_fract_y
 _atom_site_fract_z
 _atom_site_occupancy
 _atom_site_charge
  Fe  Fe1  1  0.938350  0.327250  0.948120  1.0  0.2887
  Fe  Fe2  1  0.648320  0.555160  0.442500  1.0  0.3328
  Fe  Fe3  1  0.509770  0.620870  0.948120  1.0  0.2913
  Fe  Fe4  1  0.294180  0.887340  0.442500  1.0  0.3322
  Fe  Fe5  1  0.217120  0.967120  0.934240  1.0  0.2384
  Fe  Fe6  1  0.960440  0.210440  0.420880  1.0  0.2345
  Fe  Fe7  1  0.061650  0.672750  0.051880  1.0  0.2912
  Fe  Fe8  1  0.351680  0.444840  0.557500  1.0  0.3325
  Fe  Fe9  1  0.490230  0.379130  0.051880  1.0  0.2885
  Fe  Fe10  1  0.705820  0.112660  0.557500  1.0  0.333
  Fe  Fe11  1  0.782880  0.032880  0.065760  1.0  0.2395
  Fe  Fe12  1  0.039560  0.789560  0.579120  1.0  0.2341
  Ag  Ag13  1  0.055170  0.469180  0.247460  1.0  0.2913
  Ag  Ag14  1  0.724740  0.701940  0.741660  1.0  0.2723
  Ag  Ag15  1  0.692290  0.778280  0.247460  1.0  0.2909
  Ag  Ag16  1  0.516920  0.039720  0.741660  1.0  0.2724
  Ag  Ag17  1  0.367230  0.117230  0.234460  1.0  0.2847
  Ag  Ag18  1  0.109380  0.359380  0.718760  1.0  0.2936
  Ag  Ag19  1  0.944830  0.530820  0.752540  1.0  0.2906
  Ag  Ag20  1  0.275260  0.298060  0.258340  1.0  0.2723
  Ag  Ag21  1  0.307710  0.221720  0.752540  1.0  0.2913
  Ag  Ag22  1  0.483080  0.960280  0.258340  1.0  0.2722
  Ag  Ag23  1  0.632770  0.882770  0.765540  1.0  0.2847
  Ag  Ag24  1  0.890620  0.640620  0.281240  1.0  0.2939
  H  H25  1  0.965700  0.219400  0.915600  1.0  0.0956
  H  H26  1  0.014000  0.175100  0.850800  1.0  0.1132
  H  H27  1  0.055400  0.234100  0.823200  1.0  0.1359
  H  H28  1  0.096400  0.427700  0.890600  1.0  0.1055
  H  H29  1  0.080100  0.485700  0.957000  1.0  0.1097
  H  H30  1  0.008100  0.439200  0.990600  1.0  0.104
  H  H31  1  0.936400  0.302000  0.803400  1.0  0.1313
  H  H32  1  0.970500  0.306700  0.746400  1.0  0.0747
  H  H33  1  0.227600  0.359000  0.799000  1.0  0.0836
  H  H34  1  0.201300  0.356800  0.857800  1.0  0.0953
  H  H35  1  0.532100  0.514300  0.896000  1.0  0.1018
  H  H36  1  0.583900  0.488100  0.829200  1.0  0.1086
  H  H37  1  0.626800  0.560300  0.818600  1.0  0.1335
  H  H38  1  0.689800  0.747000  0.921400  1.0  0.143
  H  H39  1  0.665400  0.788500  0.992800  1.0  0.1086
  H  H40  1  0.586900  0.727300  0.009200  1.0  0.1046
  H  H41  1  0.521300  0.642300  0.818600  1.0  0.1122
  H  H42  1  0.561800  0.660700  0.768400  1.0  0.0748
  H  H43  1  0.823500  0.697800  0.824000  1.0  0.074
  H  H44  1  0.788800  0.681200  0.877000  1.0  0.1068
  H  H45  1  0.771400  0.380600  0.954800  1.0  0.1
  H  H46  1  0.729600  0.433800  0.019000  1.0  0.111
  H  H47  1  0.847700  0.435300  0.076000  1.0  0.1181
  H  H48  1  0.168000  0.366600  0.079200  1.0  0.1082
  H  H49  1  0.237700  0.315300  0.025000  1.0  0.0892
  H  H50  1  0.126800  0.293300  0.958800  1.0  0.0947
  H  H51  1  0.006900  0.343000  0.100800  1.0  0.1351
  H  H52  1  0.025900  0.376500  0.170000  1.0  0.0587
  H  H53  1  0.057700  0.504800  0.177000  1.0  0.086
  H  H54  1  0.031500  0.476400  0.108200  1.0  0.1062
  H  H55  1  0.698400  0.452700  0.396400  1.0  0.0995
  H  H56  1  0.605100  0.390300  0.329200  1.0  0.1127
  H  H57  1  0.464300  0.420300  0.312200  1.0  0.1132
  H  H58  1  0.318400  0.570900  0.400800  1.0  0.1369
  H  H59  1  0.382000  0.639500  0.469200  1.0  0.1092
  H  H60  1  0.542600  0.631900  0.493800  1.0  0.1037
  H  H61  1  0.312800  0.429800  0.339800  1.0  0.0995
  H  H62  1  0.179400  0.411100  0.289800  1.0  0.0958
  H  H63  1  0.252600  0.530900  0.279600  1.0  0.0828
  H  H64  1  0.386100  0.552700  0.330200  1.0  0.1321
  H  H65  1  0.800900  0.528800  0.493600  1.0  0.0998
  H  H66  1  0.943100  0.500100  0.472400  1.0  0.1116
  H  H67  1  0.943000  0.501800  0.405200  1.0  0.1299
  H  H68  1  0.723300  0.569900  0.317800  1.0  0.1244
  H  H69  1  0.588800  0.612700  0.332800  1.0  0.1198
  H  H70  1  0.556700  0.612400  0.396600  1.0  0.0944
  H  H71  1  0.795600  0.453500  0.321000  1.0  0.1219
  H  H72  1  0.880600  0.432300  0.272200  1.0  0.0822
  H  H73  1  0.005900  0.563300  0.310400  1.0  0.0716
  H  H74  1  0.921900  0.590100  0.360600  1.0  0.1229
  H  H75  1  0.731500  0.656200  0.453600  1.0  0.0977
  H  H76  1  0.773500  0.729800  0.518200  1.0  0.1099
  H  H77  1  0.751800  0.705400  0.573200  1.0  0.1092
  H  H78  1  0.637500  0.533600  0.571000  1.0  0.1086
  H  H79  1  0.584700  0.452500  0.514800  1.0  0.1091
  H  H80  1  0.585400  0.461600  0.450000  1.0  0.0988
  H  H81  1  0.836300  0.641200  0.606200  1.0  0.1265
  H  H82  1  0.848400  0.673800  0.675000  1.0  0.0901
  H  H83  1  0.577000  0.661300  0.659800  1.0  0.0829
  H  H84  1  0.560800  0.626700  0.590800  1.0  0.1132
  H  H85  1  0.731700  0.815700  0.804600  1.0  0.0667
  H  H86  1  0.839200  0.878900  0.854000  1.0  0.1112
  H  H87  1  0.040200  0.810600  0.808800  1.0  0.1283
  H  H88  1  0.926200  0.750500  0.761000  1.0  0.0732
  H  H89  1  0.987300  0.816900  0.895000  1.0  0.1238
  H  H90  1  0.086800  0.830300  0.960400  1.0  0.1066
  H  H91  1  0.202700  0.905500  0.983400  1.0  0.1044
  H  H92  1  0.959600  0.924000  0.810800  1.0  0.1153
  H  H93  1  0.038600  0.005700  0.826200  1.0  0.1039
  H  H94  1  0.164600  0.031500  0.888600  1.0  0.0979
  H  H95  1  0.395200  0.923100  0.942400  1.0  0.1055
  H  H96  1  0.503600  0.939300  0.009000  1.0  0.1148
  H  H97  1  0.434100  0.991000  0.064000  1.0  0.1049
  H  H98  1  0.402800  0.090500  0.090000  1.0  0.138
  H  H99  1  0.431600  0.125200  0.160200  1.0  0.079
  H  H100  1  0.341300  0.219300  0.300000  1.0  0.0894
  H  H101  1  0.249400  0.247100  0.347200  1.0  0.1079
  H  H102  1  0.074800  0.121400  0.289200  1.0  0.1302
  H  H103  1  0.172300  0.096200  0.243600  1.0  0.0909
  H  H104  1  0.851400  0.264200  0.375400  1.0  0.0969
  H  H105  1  0.886000  0.270500  0.312600  1.0  0.1098
  H  H106  1  0.022200  0.232200  0.297600  1.0  0.1007
  H  H107  1  0.256000  0.165000  0.380200  1.0  0.1156
  H  H108  1  0.263500  0.158900  0.445400  1.0  0.112
  H  H109  1  0.118700  0.183300  0.469600  1.0  0.1041
  H  H110  1  0.024600  0.313500  0.429400  1.0  0.1028
  H  H111  1  0.068700  0.387800  0.495200  1.0  0.1099
  H  H112  1  0.064400  0.362500  0.550600  1.0  0.1097
  H  H113  1  0.174700  0.297400  0.576600  1.0  0.1125
  H  H114  1  0.207200  0.331000  0.646200  1.0  0.0986
  H  H115  1  0.449900  0.696200  0.915600  1.0  0.0961
  H  H116  1  0.336800  0.675700  0.850800  1.0  0.1127
  H  H117  1  0.267800  0.589100  0.823200  1.0  0.1346
  H  H118  1  0.294200  0.462900  0.890600  1.0  0.1061
  H  H119  1  0.376900  0.471300  0.957000  1.0  0.1107
  H  H120  1  0.482500  0.551400  0.990600  1.0  0.1025
  H  H121  1  0.367000  0.501400  0.803400  1.0  0.1309
  H  H122  1  0.275900  0.439700  0.746400  1.0  0.0748
  H  H123  1  0.071400  0.440000  0.799000  1.0  0.0832
  H  H124  1  0.156500  0.501000  0.857800  1.0  0.0953
  H  H125  1  0.863900  0.381700  0.896000  1.0  0.1029
  H  H126  1  0.745300  0.341100  0.829200  1.0  0.1065
  H  H127  1  0.691800  0.258300  0.818600  1.0  0.1332
  H  H128  1  0.731600  0.174400  0.921400  1.0  0.1419
  H  H129  1  0.827400  0.204300  0.992800  1.0  0.1074
  H  H130  1  0.922300  0.281900  0.009200  1.0  0.0994
  H  H131  1  0.797300  0.176300  0.818600  1.0  0.1119
  H  H132  1  0.706600  0.107700  0.768400  1.0  0.0742
  H  H133  1  0.500500  0.126200  0.824000  1.0  0.0736
  H  H134  1  0.588200  0.195800  0.877000  1.0  0.1078
  H  H135  1  0.683400  0.574200  0.954800  1.0  0.1008
  H  H136  1  0.789400  0.585200  0.019000  1.0  0.1108
  H  H137  1  0.728300  0.640700  0.076000  1.0  0.1178
  H  H138  1  0.411200  0.712600  0.079200  1.0  0.109
  H  H139  1  0.287300  0.709700  0.025000  1.0  0.0904
  H  H140  1  0.332000  0.665500  0.958800  1.0  0.0927
  H  H141  1  0.593900  0.757800  0.100800  1.0  0.1354
  H  H142  1  0.644100  0.793500  0.170000  1.0  0.0589
  H  H143  1  0.619300  0.672200  0.177000  1.0  0.0861
  H  H144  1  0.576700  0.631800  0.108200  1.0  0.106
  H  H145  1  0.198000  0.943700  0.396400  1.0  0.1002
  H  H146  1  0.224100  0.938900  0.329200  1.0  0.1119
  H  H147  1  0.347900  0.891900  0.312200  1.0  0.1136
  H  H148  1  0.582400  0.829900  0.400800  1.0  0.1356
  H  H149  1  0.587200  0.829700  0.469200  1.0  0.107
  H  H150  1  0.451200  0.861900  0.493800  1.0  0.0995
  H  H151  1  0.527000  0.910000  0.339800  1.0  0.1011
  H  H152  1  0.610400  0.878700  0.289800  1.0  0.0964
  H  H153  1  0.527000  0.748700  0.279600  1.0  0.084
  H  H154  1  0.444100  0.777500  0.330200  1.0  0.1314
  H  H155  1  0.192700  0.964800  0.493600  1.0  0.1017
  H  H156  1  0.029300  0.972300  0.472400  1.0  0.1134
  H  H157  1  0.962200  0.903400  0.405200  1.0  0.1298
  H  H158  1  0.094500  0.747900  0.317800  1.0  0.1219
  H  H159  1  0.244000  0.720100  0.332800  1.0  0.122
  H  H160  1  0.339900  0.784200  0.396600  1.0  0.0931
  H  H161  1  0.025400  0.867500  0.321000  1.0  0.1224
  H  H162  1  0.891600  0.839900  0.272200  1.0  0.0829
  H  H163  1  0.804500  0.747100  0.310400  1.0  0.072
  H  H164  1  0.938700  0.770500  0.360600  1.0  0.1242
  H  H165  1  0.222100  0.797400  0.453600  1.0  0.0966
  H  H166  1  0.244700  0.788400  0.518200  1.0  0.1101
  H  H167  1  0.321400  0.867800  0.573200  1.0  0.1094
  H  H168  1  0.433500  0.037400  0.571000  1.0  0.1075
  H  H169  1  0.430100  0.062300  0.514800  1.0  0.1088
  H  H170  1  0.364600  0.988400  0.450000  1.0  0.1029
  H  H171  1  0.269900  0.965000  0.606200  1.0  0.1247
  H  H172  1  0.326600  0.001200  0.675000  1.0  0.0901
  H  H173  1  0.582800  0.998500  0.659800  1.0  0.0832
  H  H174  1  0.530000  0.964100  0.590800  1.0  0.1137
  H  H175  1  0.572900  0.988900  0.804600  1.0  0.067
  H  H176  1  0.514800  0.975100  0.854000  1.0  0.1107
  H  H177  1  0.268600  0.998200  0.808800  1.0  0.1281
  H  H178  1  0.334800  0.010500  0.761000  1.0  0.0738
  H  H179  1  0.407700  0.078100  0.895000  1.0  0.1241
  H  H180  1  0.373600  0.130100  0.960400  1.0  0.1089
  H  H181  1  0.280700  0.077900  0.983400  1.0  0.1064
  H  H182  1  0.351200  0.886800  0.810800  1.0  0.1142
  H  H183  1  0.287600  0.820500  0.826200  1.0  0.106
  H  H184  1  0.224000  0.857100  0.888600  1.0  0.0972
  H  H185  1  0.047200  0.019300  0.942400  1.0  0.1059
  H  H186  1  0.005400  0.069700  0.009000  1.0  0.1155
  H  H187  1  0.129900  0.073000  0.064000  1.0  0.1047
  H  H188  1  0.187200  0.999500  0.090000  1.0  0.1362
  H  H189  1  0.228600  0.035000  0.160200  1.0  0.0793
  H  H190  1  0.458700  0.080700  0.300000  1.0  0.0895
  H  H191  1  0.597800  0.100100  0.347200  1.0  0.109
  H  H192  1  0.714400  0.167800  0.289200  1.0  0.1309
  H  H193  1  0.571300  0.147400  0.243600  1.0  0.0911
  H  H194  1  0.024000  0.111200  0.375400  1.0  0.0973
  H  H195  1  0.926600  0.042100  0.312600  1.0  0.1106
  H  H196  1  0.775400  0.065400  0.297600  1.0  0.1003
  H  H197  1  0.624200  0.215200  0.380200  1.0  0.1158
  H  H198  1  0.681900  0.286500  0.445400  1.0  0.1133
  H  H199  1  0.850900  0.286300  0.469600  1.0  0.1053
  H  H200  1  0.904800  0.115900  0.429400  1.0  0.1031
  H  H201  1  0.926500  0.107400  0.495200  1.0  0.1106
  H  H202  1  0.986200  0.188100  0.550600  1.0  0.1109
  H  H203  1  0.901900  0.279200  0.576600  1.0  0.1118
  H  H204  1  0.939000  0.315200  0.646200  1.0  0.0977
  H  H205  1  0.034300  0.780600  0.084400  1.0  0.0962
  H  H206  1  0.986000  0.824900  0.149200  1.0  0.1141
  H  H207  1  0.944600  0.765900  0.176800  1.0  0.1353
  H  H208  1  0.903600  0.572300  0.109400  1.0  0.1053
  H  H209  1  0.919900  0.514300  0.043000  1.0  0.1113
  H  H210  1  0.991900  0.560800  0.009400  1.0  0.1035
  H  H211  1  0.063600  0.698000  0.196600  1.0  0.131
  H  H212  1  0.029500  0.693300  0.253600  1.0  0.0743
  H  H213  1  0.772400  0.641000  0.201000  1.0  0.0835
  H  H214  1  0.798700  0.643200  0.142200  1.0  0.0944
  H  H215  1  0.467900  0.485700  0.104000  1.0  0.1023
  H  H216  1  0.416100  0.511900  0.170800  1.0  0.1085
  H  H217  1  0.373200  0.439700  0.181400  1.0  0.1315
  H  H218  1  0.310200  0.253000  0.078600  1.0  0.145
  H  H219  1  0.334600  0.211500  0.007200  1.0  0.109
  H  H220  1  0.413100  0.272700  0.990800  1.0  0.1039
  H  H221  1  0.478700  0.357700  0.181400  1.0  0.1118
  H  H222  1  0.438200  0.339300  0.231600  1.0  0.0755
  H  H223  1  0.176500  0.302200  0.176000  1.0  0.0738
  H  H224  1  0.211200  0.318800  0.123000  1.0  0.1072
  H  H225  1  0.228600  0.619400  0.045200  1.0  0.0999
  H  H226  1  0.270400  0.566200  0.981000  1.0  0.1099
  H  H227  1  0.152300  0.564700  0.924000  1.0  0.1174
  H  H228  1  0.832000  0.633400  0.920800  1.0  0.1089
  H  H229  1  0.762300  0.684700  0.975000  1.0  0.0891
  H  H230  1  0.873200  0.706700  0.041200  1.0  0.0955
  H  H231  1  0.993100  0.657000  0.899200  1.0  0.1345
  H  H232  1  0.974100  0.623500  0.830000  1.0  0.0587
  H  H233  1  0.942300  0.495200  0.823000  1.0  0.0869
  H  H234  1  0.968500  0.523600  0.891800  1.0  0.1058
  H  H235  1  0.301600  0.547300  0.603600  1.0  0.1024
  H  H236  1  0.394900  0.609700  0.670800  1.0  0.1148
  H  H237  1  0.535700  0.579700  0.687800  1.0  0.1122
  H  H238  1  0.681600  0.429100  0.599200  1.0  0.1355
  H  H239  1  0.618000  0.360500  0.530800  1.0  0.1095
  H  H240  1  0.457400  0.368100  0.506200  1.0  0.1028
  H  H241  1  0.687200  0.570200  0.660200  1.0  0.0996
  H  H242  1  0.820600  0.588900  0.710200  1.0  0.0963
  H  H243  1  0.747400  0.469100  0.720400  1.0  0.0833
  H  H244  1  0.613900  0.447300  0.669800  1.0  0.1323
  H  H245  1  0.199100  0.471200  0.506400  1.0  0.1004
  H  H246  1  0.056900  0.499900  0.527600  1.0  0.1125
  H  H247  1  0.057000  0.498200  0.594800  1.0  0.1303
  H  H248  1  0.276700  0.430100  0.682200  1.0  0.124
  H  H249  1  0.411200  0.387300  0.667200  1.0  0.1205
  H  H250  1  0.443300  0.387600  0.603400  1.0  0.0925
  H  H251  1  0.204400  0.546500  0.679000  1.0  0.1229
  H  H252  1  0.119400  0.567700  0.727800  1.0  0.0821
  H  H253  1  0.994100  0.436700  0.689600  1.0  0.0721
  H  H254  1  0.078100  0.409900  0.639400  1.0  0.1231
  H  H255  1  0.268500  0.343800  0.546400  1.0  0.0975
  H  H256  1  0.226500  0.270200  0.481800  1.0  0.1103
  H  H257  1  0.248200  0.294600  0.426800  1.0  0.1088
  H  H258  1  0.362500  0.466400  0.429000  1.0  0.1093
  H  H259  1  0.415300  0.547500  0.485200  1.0  0.1079
  H  H260  1  0.414600  0.538400  0.550000  1.0  0.0995
  H  H261  1  0.163700  0.358800  0.393800  1.0  0.1273
  H  H262  1  0.151600  0.326200  0.325000  1.0  0.0897
  H  H263  1  0.423000  0.338700  0.340200  1.0  0.0833
  H  H264  1  0.439200  0.373300  0.409200  1.0  0.1131
  H  H265  1  0.268300  0.184300  0.195400  1.0  0.0671
  H  H266  1  0.160800  0.121100  0.146000  1.0  0.1108
  H  H267  1  0.959800  0.189400  0.191200  1.0  0.1281
  H  H268  1  0.073800  0.249500  0.239000  1.0  0.0731
  H  H269  1  0.012700  0.183100  0.105000  1.0  0.1237
  H  H270  1  0.913200  0.169700  0.039600  1.0  0.1063
  H  H271  1  0.797300  0.094500  0.016600  1.0  0.1028
  H  H272  1  0.040400  0.076000  0.189200  1.0  0.1159
  H  H273  1  0.961400  0.994300  0.173800  1.0  0.1053
  H  H274  1  0.835400  0.968500  0.111400  1.0  0.0974
  H  H275  1  0.604800  0.076900  0.057600  1.0  0.1055
  H  H276  1  0.496400  0.060700  0.991000  1.0  0.1153
  H  H277  1  0.565900  0.009000  0.936000  1.0  0.1053
  H  H278  1  0.597200  0.909500  0.910000  1.0  0.1375
  H  H279  1  0.568400  0.874800  0.839800  1.0  0.0783
  H  H280  1  0.658700  0.780700  0.700000  1.0  0.0888
  H  H281  1  0.750600  0.752900  0.652800  1.0  0.108
  H  H282  1  0.925200  0.878600  0.710800  1.0  0.1306
  H  H283  1  0.827700  0.903800  0.756400  1.0  0.091
  H  H284  1  0.148600  0.735800  0.624600  1.0  0.0965
  H  H285  1  0.114000  0.729500  0.687400  1.0  0.1117
  H  H286  1  0.977800  0.767800  0.702400  1.0  0.1002
  H  H287  1  0.744000  0.835000  0.619800  1.0  0.1159
  H  H288  1  0.736500  0.841100  0.554600  1.0  0.1115
  H  H289  1  0.881300  0.816700  0.530400  1.0  0.1047
  H  H290  1  0.975400  0.686500  0.570600  1.0  0.1013
  H  H291  1  0.931300  0.612200  0.504800  1.0  0.1086
  H  H292  1  0.935600  0.637500  0.449400  1.0  0.1093
  H  H293  1  0.825300  0.702600  0.423400  1.0  0.1116
  H  H294  1  0.792800  0.669000  0.353800  1.0  0.0982
  H  H295  1  0.550100  0.303800  0.084400  1.0  0.0951
  H  H296  1  0.663200  0.324300  0.149200  1.0  0.1126
  H  H297  1  0.732200  0.410900  0.176800  1.0  0.1337
  H  H298  1  0.705800  0.537100  0.109400  1.0  0.1055
  H  H299  1  0.623100  0.528700  0.043000  1.0  0.1101
  H  H300  1  0.517500  0.448600  0.009400  1.0  0.1022
  H  H301  1  0.633000  0.498600  0.196600  1.0  0.1301
  H  H302  1  0.724100  0.560300  0.253600  1.0  0.0739
  H  H303  1  0.928600  0.560000  0.201000  1.0  0.0838
  H  H304  1  0.843500  0.499000  0.142200  1.0  0.0945
  H  H305  1  0.136100  0.618300  0.104000  1.0  0.1031
  H  H306  1  0.254700  0.658900  0.170800  1.0  0.1058
  H  H307  1  0.308200  0.741700  0.181400  1.0  0.1334
  H  H308  1  0.268400  0.825600  0.078600  1.0  0.1411
  H  H309  1  0.172600  0.795700  0.007200  1.0  0.1065
  H  H310  1  0.077700  0.718100  0.990800  1.0  0.0989
  H  H311  1  0.202700  0.823700  0.181400  1.0  0.1113
  H  H312  1  0.293400  0.892300  0.231600  1.0  0.074
  H  H313  1  0.499500  0.873800  0.176000  1.0  0.0738
  H  H314  1  0.411800  0.804200  0.123000  1.0  0.1082
  H  H315  1  0.316600  0.425800  0.045200  1.0  0.1011
  H  H316  1  0.210600  0.414800  0.981000  1.0  0.112
  H  H317  1  0.271700  0.359300  0.924000  1.0  0.1163
  H  H318  1  0.588800  0.287400  0.920800  1.0  0.1094
  H  H319  1  0.712700  0.290300  0.975000  1.0  0.0904
  H  H320  1  0.668000  0.334500  0.041200  1.0  0.0932
  H  H321  1  0.406100  0.242200  0.899200  1.0  0.1356
  H  H322  1  0.355900  0.206500  0.830000  1.0  0.0596
  H  H323  1  0.380700  0.327800  0.823000  1.0  0.0858
  H  H324  1  0.423300  0.368200  0.891800  1.0  0.1059
  H  H325  1  0.802000  0.056300  0.603600  1.0  0.0984
  H  H326  1  0.775900  0.061100  0.670800  1.0  0.1117
  H  H327  1  0.652100  0.108100  0.687800  1.0  0.1132
  H  H328  1  0.417600  0.170100  0.599200  1.0  0.1367
  H  H329  1  0.412800  0.170300  0.530800  1.0  0.1067
  H  H330  1  0.548800  0.138100  0.506200  1.0  0.1012
  H  H331  1  0.473000  0.090000  0.660200  1.0  0.1012
  H  H332  1  0.389600  0.121300  0.710200  1.0  0.0964
  H  H333  1  0.473000  0.251300  0.720400  1.0  0.083
  H  H334  1  0.555900  0.222500  0.669800  1.0  0.1335
  H  H335  1  0.807300  0.035200  0.506400  1.0  0.1017
  H  H336  1  0.970700  0.027700  0.527600  1.0  0.1144
  H  H337  1  0.037800  0.096600  0.594800  1.0  0.1286
  H  H338  1  0.905500  0.252100  0.682200  1.0  0.1232
  H  H339  1  0.756000  0.279900  0.667200  1.0  0.1242
  H  H340  1  0.660100  0.215800  0.603400  1.0  0.0956
  H  H341  1  0.974600  0.132500  0.679000  1.0  0.122
  H  H342  1  0.108400  0.160100  0.727800  1.0  0.0825
  H  H343  1  0.195500  0.252900  0.689600  1.0  0.0727
  H  H344  1  0.061300  0.229500  0.639400  1.0  0.1249
  H  H345  1  0.777900  0.202600  0.546400  1.0  0.0982
  H  H346  1  0.755300  0.211600  0.481800  1.0  0.1126
  H  H347  1  0.678600  0.132200  0.426800  1.0  0.1107
  H  H348  1  0.566500  0.962600  0.429000  1.0  0.1069
  H  H349  1  0.569900  0.937700  0.485200  1.0  0.1088
  H  H350  1  0.635400  0.011600  0.550000  1.0  0.1011
  H  H351  1  0.730100  0.035000  0.393800  1.0  0.1268
  H  H352  1  0.673400  0.998800  0.325000  1.0  0.089
  H  H353  1  0.417200  0.001500  0.340200  1.0  0.0834
  H  H354  1  0.470000  0.035900  0.409200  1.0  0.1135
  H  H355  1  0.427100  0.011100  0.195400  1.0  0.0664
  H  H356  1  0.485200  0.024900  0.146000  1.0  0.1108
  H  H357  1  0.731400  0.001800  0.191200  1.0  0.1285
  H  H358  1  0.665200  0.989500  0.239000  1.0  0.0734
  H  H359  1  0.592300  0.921900  0.105000  1.0  0.1244
  H  H360  1  0.626400  0.869900  0.039600  1.0  0.1082
  H  H361  1  0.719300  0.922100  0.016600  1.0  0.1054
  H  H362  1  0.648800  0.113200  0.189200  1.0  0.1152
  H  H363  1  0.712400  0.179500  0.173800  1.0  0.1063
  H  H364  1  0.776000  0.142900  0.111400  1.0  0.0982
  H  H365  1  0.952800  0.980700  0.057600  1.0  0.1056
  H  H366  1  0.994600  0.930300  0.991000  1.0  0.1153
  H  H367  1  0.870100  0.927000  0.936000  1.0  0.1043
  H  H368  1  0.812800  0.000500  0.910000  1.0  0.1375
  H  H369  1  0.771400  0.965000  0.839800  1.0  0.0794
  H  H370  1  0.541300  0.919300  0.700000  1.0  0.0899
  H  H371  1  0.402200  0.899900  0.652800  1.0  0.1083
  H  H372  1  0.285600  0.832200  0.710800  1.0  0.1309
  H  H373  1  0.428700  0.852600  0.756400  1.0  0.0911
  H  H374  1  0.976000  0.888800  0.624600  1.0  0.098
  H  H375  1  0.073400  0.957900  0.687400  1.0  0.1123
  H  H376  1  0.224600  0.934600  0.702400  1.0  0.1001
  H  H377  1  0.375800  0.784800  0.619800  1.0  0.1145
  H  H378  1  0.318100  0.713500  0.554600  1.0  0.1135
  H  H379  1  0.149100  0.713700  0.530400  1.0  0.1041
  H  H380  1  0.095200  0.884100  0.570600  1.0  0.105
  H  H381  1  0.073500  0.892600  0.504800  1.0  0.1105
  H  H382  1  0.013800  0.811900  0.449400  1.0  0.1121
  H  H383  1  0.098100  0.720800  0.423400  1.0  0.1128
  H  H384  1  0.061000  0.684800  0.353800  1.0  0.0978
  C  C385  1  0.984350  0.233350  0.898700  1.0  0.0341
  C  C386  1  0.011690  0.208190  0.862580  1.0  -0.1024
  C  C387  1  0.034320  0.240320  0.847440  1.0  -0.1738
  C  C388  1  0.019840  0.284740  0.875280  1.0  0.1597
  C  C389  1  0.041950  0.329250  0.875300  1.0  -0.0805
  C  C390  1  0.042980  0.372780  0.906160  1.0  0.1685
  C  C391  1  0.073160  0.420160  0.910320  1.0  -0.1454
  C  C392  1  0.063450  0.452050  0.946300  1.0  -0.1528
  C  C393  1  0.023460  0.425560  0.964920  1.0  0.0262
  C  C394  1  0.067590  0.329290  0.837580  1.0  0.1046
  C  C395  1  0.997730  0.313930  0.803460  1.0  -0.2353
  C  C396  1  0.019470  0.316470  0.769540  1.0  0.1912
  C  C397  1  0.167100  0.346600  0.799600  1.0  0.1463
  C  C398  1  0.151460  0.345660  0.834920  1.0  -0.1724
  C  C399  1  0.553840  0.534940  0.884880  1.0  -0.0148
  C  C400  1  0.582380  0.519880  0.846960  1.0  -0.149
  C  C401  1  0.606620  0.559220  0.841440  1.0  -0.1654
  C  C402  1  0.596440  0.598940  0.876280  1.0  0.1633
  C  C403  1  0.622360  0.646260  0.885520  1.0  -0.0712
  C  C404  1  0.622580  0.683480  0.922160  1.0  0.1769
  C  C405  1  0.660990  0.732690  0.935980  1.0  -0.1906
  C  C406  1  0.647510  0.755510  0.975420  1.0  -0.0954
  C  C407  1  0.603570  0.721170  0.984140  1.0  0.0288
  C  C408  1  0.650240  0.658140  0.853080  1.0  0.11
  C  C409  1  0.584570  0.653070  0.820340  1.0  -0.1786
  C  C410  1  0.609430  0.663430  0.790060  1.0  0.1395
  C  C411  1  0.761380  0.685180  0.822360  1.0  0.126
  C  C412  1  0.740990  0.675690  0.854380  1.0  -0.2025
  C  C413  1  0.806180  0.388580  0.981160  1.0  0.0573
  C  C414  1  0.781110  0.417910  0.016820  1.0  -0.1111
  C  C415  1  0.846110  0.419010  0.047820  1.0  -0.171
  C  C416  1  0.910930  0.391030  0.030260  1.0  0.168
  C  C417  1  0.991230  0.384330  0.051060  1.0  -0.1108
  C  C418  1  0.055410  0.358610  0.032620  1.0  0.147
  C  C419  1  0.141680  0.352980  0.050960  1.0  -0.1687
  C  C420  1  0.179690  0.325090  0.021580  1.0  -0.1049
  C  C421  1  0.116940  0.313040  0.984680  1.0  0.0179
  C  C422  1  0.010470  0.406370  0.095540  1.0  0.1243
  C  C423  1  0.013530  0.376530  0.115460  1.0  -0.226
  C  C424  1  0.026430  0.397330  0.157060  1.0  0.1551
  C  C425  1  0.043720  0.471320  0.161040  1.0  0.1326
  C  C426  1  0.029090  0.454590  0.120180  1.0  -0.2013
  C  C427  1  0.640160  0.454760  0.382920  1.0  0.0055
  C  C428  1  0.588640  0.419640  0.345080  1.0  -0.1647
  C  C429  1  0.511480  0.435880  0.336160  1.0  -0.1638
  C  C430  1  0.512800  0.480800  0.369000  1.0  0.2072
  C  C431  1  0.445440  0.508340  0.374080  1.0  -0.1036
  C  C432  1  0.448480  0.550180  0.409360  1.0  0.1797
  C  C433  1  0.377970  0.577170  0.417540  1.0  -0.1139
  C  C434  1  0.413530  0.615130  0.455260  1.0  -0.1115
  C  C435  1  0.502920  0.610620  0.468640  1.0  0.0038
  C  C436  1  0.361160  0.493460  0.341320  1.0  0.037
  C  C437  1  0.300530  0.451430  0.328260  1.0  -0.1298
  C  C438  1  0.220910  0.440210  0.298220  1.0  0.1274
  C  C439  1  0.263940  0.510440  0.292480  1.0  0.1462
  C  C440  1  0.344180  0.523880  0.322560  1.0  -0.1758
  C  C441  1  0.818820  0.526520  0.469440  1.0  0.0339
  C  C442  1  0.898230  0.510230  0.457860  1.0  -0.1183
  C  C443  1  0.898560  0.511560  0.421320  1.0  -0.1705
  C  C444  1  0.819580  0.530480  0.412160  1.0  0.2059
  C  C445  1  0.792790  0.538790  0.378180  1.0  -0.0876
  C  C446  1  0.719440  0.560840  0.372080  1.0  0.1499
  C  C447  1  0.694910  0.575410  0.340220  1.0  -0.1624
  C  C448  1  0.621130  0.598930  0.348460  1.0  -0.1051
  C  C449  1  0.604030  0.598330  0.384060  1.0  0.0446
  C  C450  1  0.848450  0.524250  0.346500  1.0  0.1208
  C  C451  1  0.838410  0.477210  0.319620  1.0  -0.2145
  C  C452  1  0.890490  0.464890  0.290780  1.0  0.1391
  C  C453  1  0.962310  0.540610  0.312820  1.0  0.1481
  C  C454  1  0.912460  0.557160  0.342920  1.0  -0.2168
  C  C455  1  0.729080  0.656980  0.479360  1.0  0.0573
  C  C456  1  0.753020  0.698520  0.515240  1.0  -0.0895
  C  C457  1  0.740990  0.684990  0.545180  1.0  -0.1773
  C  C458  1  0.709470  0.635170  0.527140  1.0  0.1837
  C  C459  1  0.685910  0.607310  0.545820  1.0  -0.1004
  C  C460  1  0.649670  0.558270  0.525740  1.0  0.1388
  C  C461  1  0.630850  0.525650  0.542900  1.0  -0.1617
  C  C462  1  0.601890  0.481190  0.512380  1.0  -0.1391
  C  C463  1  0.602850  0.486850  0.476300  1.0  0.0324
  C  C464  1  0.695600  0.629900  0.590600  1.0  0.089
  C  C465  1  0.781880  0.644580  0.616760  1.0  -0.1839
  C  C466  1  0.788620  0.663820  0.657640  1.0  0.1495
  C  C467  1  0.630920  0.656420  0.649040  1.0  0.1444
  C  C468  1  0.621080  0.636280  0.607760  1.0  -0.1421
  C  C469  1  0.795550  0.814450  0.805700  1.0  0.1615
  C  C470  1  0.859360  0.852560  0.835320  1.0  -0.2087
  C  C471  1  0.951710  0.851910  0.837420  1.0  0.102
  C  C472  1  0.976920  0.812620  0.808840  1.0  -0.2153
  C  C473  1  0.908040  0.776840  0.780680  1.0  0.1602
  C  C474  1  0.026010  0.889810  0.869220  1.0  -0.0683
  C  C475  1  0.064220  0.882220  0.903240  1.0  0.1812
  C  C476  1  0.035740  0.843140  0.911280  1.0  -0.0856
  C  C477  1  0.090560  0.850260  0.946720  1.0  -0.1289
  C  C478  1  0.154700  0.892900  0.959600  1.0  0.0005
  C  C479  1  0.052700  0.931300  0.864000  1.0  0.1573
  C  C480  1  0.009390  0.943390  0.832980  1.0  -0.1678
  C  C481  1  0.052670  0.987670  0.841140  1.0  -0.1467
  C  C482  1  0.123090  0.001890  0.876380  1.0  0.0079
  C  C483  1  0.386990  0.942790  0.968580  1.0  0.0239
  C  C484  1  0.448170  0.951370  0.005940  1.0  -0.1264
  C  C485  1  0.410490  0.979990  0.035780  1.0  -0.1502
  C  C486  1  0.329480  0.990880  0.017560  1.0  0.1744
  C  C487  1  0.365210  0.078910  0.103820  1.0  -0.2056
  C  C488  1  0.382100  0.098800  0.145600  1.0  0.1605
  C  C489  1  0.287800  0.198700  0.298400  1.0  0.1479
  C  C490  1  0.232750  0.215450  0.326500  1.0  -0.1446
  C  C491  1  0.155010  0.186510  0.324420  1.0  0.0629
  C  C492  1  0.130520  0.141820  0.292640  1.0  -0.1617
  C  C493  1  0.188960  0.126960  0.265520  1.0  0.1477
  C  C494  1  0.900630  0.252730  0.363060  1.0  -0.0069
  C  C495  1  0.919450  0.256450  0.327700  1.0  -0.1504
  C  C496  1  0.994400  0.235800  0.319800  1.0  -0.1579
  C  C497  1  0.024350  0.220550  0.350500  1.0  0.1991
  C  C498  1  0.100070  0.201170  0.356740  1.0  -0.0467
  C  C499  1  0.132110  0.191410  0.389020  1.0  0.1693
  C  C500  1  0.212210  0.173110  0.396820  1.0  -0.1797
  C  C501  1  0.215960  0.169160  0.432120  1.0  -0.1479
  C  C502  1  0.134880  0.183480  0.445760  1.0  0.0024
  C  C503  1  0.028190  0.314190  0.455580  1.0  0.0316
  C  C504  1  0.053230  0.356130  0.492260  1.0  -0.1261
  C  C505  1  0.050650  0.342050  0.522500  1.0  -0.1561
  C  C506  1  0.023670  0.291070  0.504740  1.0  0.1651
  C  C507  1  0.125430  0.300430  0.590460  1.0  -0.1432
  C  C508  1  0.144580  0.320680  0.631760  1.0  0.1454
  C  C509  1  0.414350  0.665350  0.898700  1.0  0.0298
  C  C510  1  0.350890  0.654390  0.862580  1.0  -0.1004
  C  C511  1  0.313120  0.607120  0.847440  1.0  -0.1726
  C  C512  1  0.355440  0.590540  0.875280  1.0  0.1614
  C  C513  1  0.333333  0.546050  0.875300  1.0  -0.0808
  C  C514  1  0.363180  0.533380  0.906160  1.0  0.1684
  C  C515  1  0.337160  0.490160  0.910320  1.0  -0.1482
  C  C516  1  0.382850  0.494250  0.946300  1.0  -0.1536
  C  C517  1  0.441460  0.539360  0.964920  1.0  0.0256
  C  C518  1  0.269990  0.508290  0.837580  1.0  0.107
  C  C519  1  0.305730  0.489530  0.803460  1.0  -0.2345
  C  C520  1  0.250070  0.453070  0.769540  1.0  0.1904
  C  C521  1  0.132500  0.453000  0.799600  1.0  0.1429
  C  C522  1  0.183460  0.489260  0.834920  1.0  -0.1739
  C  C523  1  0.831040  0.349940  0.884880  1.0  -0.0206
  C  C524  1  0.764580  0.327080  0.846960  1.0  -0.1481
  C  C525  1  0.734820  0.282220  0.841440  1.0  -0.1642
  C  C526  1  0.779840  0.277340  0.876280  1.0  0.1655
  C  C527  1  0.763160  0.239260  0.885520  1.0  -0.0727
  C  C528  1  0.799580  0.238680  0.922160  1.0  0.1778
  C  C529  1  0.774990  0.203290  0.935980  1.0  -0.1928
  C  C530  1  0.827910  0.219910  0.975420  1.0  -0.093
  C  C531  1  0.880570  0.262970  0.984140  1.0  0.0284
  C  C532  1  0.702840  0.194940  0.853080  1.0  0.1052
  C  C533  1  0.735770  0.167270  0.820340  1.0  -0.1784
  C  C534  1  0.680630  0.126630  0.790060  1.0  0.1347
  C  C535  1  0.560980  0.137180  0.822360  1.0  0.1244
  C  C536  1  0.613390  0.178690  0.854380  1.0  -0.2046
  C  C537  1  0.674980  0.592580  0.981160  1.0  0.0539
  C  C538  1  0.735710  0.598910  0.016820  1.0  -0.1119
  C  C539  1  0.701710  0.628810  0.047820  1.0  -0.1716
  C  C540  1  0.619330  0.639230  0.030260  1.0  0.1682
  C  C541  1  0.559830  0.666667  0.051060  1.0  -0.1085
  C  C542  1  0.477210  0.674010  0.032620  1.0  0.1504
  C  C543  1  0.409280  0.697980  0.050960  1.0  -0.169
  C  C544  1  0.341890  0.696490  0.021580  1.0  -0.1045
  C  C545  1  0.367740  0.671640  0.984680  1.0  0.018
  C  C546  1  0.585070  0.689170  0.095540  1.0  0.1255
  C  C547  1  0.601930  0.738930  0.115460  1.0  -0.2222
  C  C548  1  0.630630  0.759730  0.157060  1.0  0.1548
  C  C549  1  0.617320  0.689720  0.161040  1.0  0.1351
  C  C550  1  0.591090  0.665590  0.120180  1.0  -0.2032
  C  C551  1  0.242760  0.928160  0.382920  1.0  0.0016
  C  C552  1  0.256440  0.925440  0.345080  1.0  -0.164
  C  C553  1  0.324680  0.900280  0.336160  1.0  -0.1604
  C  C554  1  0.356200  0.888200  0.369000  1.0  0.2079
  C  C555  1  0.428640  0.865740  0.374080  1.0  -0.1026
  C  C556  1  0.460880  0.859180  0.409360  1.0  0.1823
  C  C557  1  0.539570  0.840370  0.417540  1.0  -0.1151
  C  C558  1  0.541730  0.840130  0.455260  1.0  -0.1097
  C  C559  1  0.465720  0.858020  0.468640  1.0  0.005
  C  C560  1  0.480160  0.847860  0.341320  1.0  0.0357
  C  C561  1  0.527730  0.876830  0.328260  1.0  -0.1344
  C  C562  1  0.577310  0.858010  0.298220  1.0  0.1287
  C  C563  1  0.528540  0.782040  0.292480  1.0  0.1442
  C  C564  1  0.478380  0.798680  0.322560  1.0  -0.1762
  C  C565  1  0.150620  0.942920  0.469440  1.0  0.0327
  C  C566  1  0.059630  0.947630  0.457860  1.0  -0.1176
  C  C567  1  0.022760  0.909760  0.421320  1.0  -0.1694
  C  C568  1  0.092580  0.881680  0.412160  1.0  0.2049
  C  C569  1  0.085390  0.839390  0.378180  1.0  -0.089
  C  C570  1  0.152640  0.811240  0.372080  1.0  0.1507
  C  C571  1  0.145310  0.764810  0.340220  1.0  -0.1648
  C  C572  1  0.227330  0.749530  0.348460  1.0  -0.1114
  C  C573  1  0.280030  0.785730  0.384060  1.0  0.0477
  C  C574  1  0.998050  0.822250  0.346500  1.0  0.1201
  C  C575  1  0.981210  0.842410  0.319620  1.0  -0.2107
  C  C576  1  0.900290  0.825890  0.290780  1.0  0.138
  C  C577  1  0.850510  0.772210  0.312820  1.0  0.1452
  C  C578  1  0.930460  0.785760  0.342920  1.0  -0.2127
  C  C579  1  0.250280  0.822380  0.479360  1.0  0.0549
  C  C580  1  0.262220  0.816720  0.515240  1.0  -0.0903
  C  C581  1  0.304190  0.860190  0.545180  1.0  -0.1794
  C  C582  1  0.317670  0.891970  0.527140  1.0  0.1842
  C  C583  1  0.359910  0.938510  0.545820  1.0  -0.1014
  C  C584  1  0.376070  0.967470  0.525740  1.0  0.1378
  C  C585  1  0.412050  0.017250  0.542900  1.0  -0.1613
  C  C586  1  0.410490  0.031190  0.512380  1.0  -0.1379
  C  C587  1  0.373450  0.989450  0.476300  1.0  0.032
  C  C588  1  0.395000  0.960700  0.590600  1.0  0.088
  C  C589  1  0.334880  0.972180  0.616760  1.0  -0.1842
  C  C590  1  0.369020  0.993820  0.657640  1.0  0.1499
  C  C591  1  0.518120  0.992620  0.649040  1.0  0.1463
  C  C592  1  0.486680  0.971480  0.607760  1.0  -0.1438
  C  C593  1  0.510150  0.991250  0.805700  1.0  0.1615
  C  C594  1  0.475960  0.982760  0.835320  1.0  -0.2076
  C  C595  1  0.385710  0.985510  0.837420  1.0  0.1007
  C  C596  1  0.331920  0.996220  0.808840  1.0  -0.2153
  C  C597  1  0.372640  0.003840  0.780680  1.0  0.1641
  C  C598  1  0.343210  0.979410  0.869220  1.0  -0.0675
  C  C599  1  0.339020  0.021020  0.903240  1.0  0.1811
  C  C600  1  0.375540  0.068140  0.911280  1.0  -0.0833
  C  C601  1  0.356160  0.096460  0.946720  1.0  -0.1271
  C  C602  1  0.304900  0.066700  0.959600  1.0  0.003
  C  C603  1  0.311300  0.932700  0.864000  1.0  0.1559
  C  C604  1  0.323590  0.889590  0.832980  1.0  -0.1677
  C  C605  1  0.288470  0.853470  0.841140  1.0  -0.1513
  C  C606  1  0.253290  0.874490  0.876380  1.0  0.0106
  C  C607  1  0.081590  0.025790  0.968580  1.0  0.0216
  C  C608  1  0.057770  0.054570  0.005940  1.0  -0.1249
  C  C609  1  0.125290  0.055790  0.035780  1.0  -0.149
  C  C610  1  0.188080  0.026680  0.017560  1.0  0.1727
  C  C611  1  0.238610  0.024910  0.103820  1.0  -0.2048
  C  C612  1  0.263500  0.046800  0.145600  1.0  0.1605
  C  C613  1  0.510600  0.099700  0.298400  1.0  0.147
  C  C614  1  0.593750  0.111050  0.326500  1.0  -0.1434
  C  C615  1  0.669410  0.137910  0.324420  1.0  0.0621
  C  C616  1  0.662120  0.150820  0.292640  1.0  -0.1613
  C  C617  1  0.576560  0.138560  0.265520  1.0  0.1472
  C  C618  1  0.962430  0.110330  0.363060  1.0  -0.0078
  C  C619  1  0.908250  0.071250  0.327700  1.0  -0.15
  C  C620  1  0.825400  0.084000  0.319800  1.0  -0.1592
  C  C621  1  0.826150  0.129950  0.350500  1.0  0.2013
  C  C622  1  0.756670  0.155570  0.356740  1.0  -0.0462
  C  C623  1  0.756910  0.197610  0.389020  1.0  0.1682
  C  C624  1  0.684610  0.223710  0.396820  1.0  -0.1761
  C  C625  1  0.716160  0.262960  0.432120  1.0  -0.1504
  C  C626  1  0.810880  0.262280  0.445760  1.0  -0.0025
  C  C627  1  0.927390  0.141390  0.455580  1.0  0.0298
  C  C628  1  0.939030  0.136130  0.492260  1.0  -0.1256
  C  C629  1  0.971850  0.180450  0.522500  1.0  -0.1594
  C  C630  1  0.981070  0.213670  0.504740  1.0  0.1671
  C  C631  1  0.965030  0.290030  0.590460  1.0  -0.1426
  C  C632  1  0.987180  0.311080  0.631760  1.0  0.1525
  C  C633  1  0.268270  0.018270  0.036540  1.0  -0.0658
  C  C634  1  0.291420  0.041420  0.082840  1.0  0.0587
  C  C635  1  0.011770  0.261770  0.523540  1.0  -0.0545
  C  C636  1  0.034280  0.284280  0.568560  1.0  0.0522
  C  C637  1  0.015650  0.766650  0.101300  1.0  0.0315
  C  C638  1  0.988310  0.791810  0.137420  1.0  -0.1013
  C  C639  1  0.965680  0.759680  0.152560  1.0  -0.1724
  C  C640  1  0.980160  0.715260  0.124720  1.0  0.1615
  C  C641  1  0.958050  0.670750  0.124700  1.0  -0.081
  C  C642  1  0.957020  0.627220  0.093840  1.0  0.169
  C  C643  1  0.926840  0.579840  0.089680  1.0  -0.1463
  C  C644  1  0.936550  0.547950  0.053700  1.0  -0.1546
  C  C645  1  0.976540  0.574440  0.035080  1.0  0.0235
  C  C646  1  0.932410  0.670710  0.162420  1.0  0.1056
  C  C647  1  0.002270  0.686070  0.196540  1.0  -0.2335
  C  C648  1  0.980530  0.683530  0.230460  1.0  0.1914
  C  C649  1  0.832900  0.653400  0.200400  1.0  0.1454
  C  C650  1  0.848540  0.654340  0.165080  1.0  -0.1738
  C  C651  1  0.446160  0.465060  0.115120  1.0  -0.0147
  C  C652  1  0.417620  0.480120  0.153040  1.0  -0.146
  C  C653  1  0.393380  0.440780  0.158560  1.0  -0.1679
  C  C654  1  0.403560  0.401060  0.123720  1.0  0.1637
  C  C655  1  0.377640  0.353740  0.114480  1.0  -0.0728
  C  C656  1  0.377420  0.316520  0.077840  1.0  0.1778
  C  C657  1  0.339010  0.267310  0.064020  1.0  -0.1919
  C  C658  1  0.352490  0.244490  0.024580  1.0  -0.0962
  C  C659  1  0.396430  0.278830  0.015860  1.0  0.0284
  C  C660  1  0.349760  0.341860  0.146920  1.0  0.1076
  C  C661  1  0.415430  0.346930  0.179660  1.0  -0.1805
  C  C662  1  0.390570  0.336570  0.209940  1.0  0.1405
  C  C663  1  0.238620  0.314820  0.177640  1.0  0.1261
  C  C664  1  0.259010  0.324310  0.145620  1.0  -0.2037
  C  C665  1  0.193820  0.611420  0.018840  1.0  0.0562
  C  C666  1  0.218890  0.582090  0.983180  1.0  -0.1104
  C  C667  1  0.153890  0.580990  0.952180  1.0  -0.1726
  C  C668  1  0.089070  0.608970  0.969740  1.0  0.1666
  C  C669  1  0.008770  0.615670  0.948940  1.0  -0.1104
  C  C670  1  0.944590  0.641390  0.967380  1.0  0.1477
  C  C671  1  0.858320  0.647020  0.949040  1.0  -0.1707
  C  C672  1  0.820310  0.674910  0.978420  1.0  -0.1036
  C  C673  1  0.883060  0.686960  0.015320  1.0  0.018
  C  C674  1  0.989530  0.593630  0.904460  1.0  0.123
  C  C675  1  0.986470  0.623470  0.884540  1.0  -0.2249
  C  C676  1  0.973570  0.602670  0.842940  1.0  0.1563
  C  C677  1  0.956280  0.528680  0.838960  1.0  0.1319
  C  C678  1  0.970910  0.545410  0.879820  1.0  -0.1987
  C  C679  1  0.359840  0.545240  0.617080  1.0  0.006
  C  C680  1  0.411360  0.580360  0.654920  1.0  -0.1656
  C  C681  1  0.488520  0.564120  0.663840  1.0  -0.1616
  C  C682  1  0.487200  0.519200  0.631000  1.0  0.2082
  C  C683  1  0.554560  0.491660  0.625920  1.0  -0.104
  C  C684  1  0.551520  0.449820  0.590640  1.0  0.1806
  C  C685  1  0.622030  0.422830  0.582460  1.0  -0.1144
  C  C686  1  0.586470  0.384870  0.544740  1.0  -0.1111
  C  C687  1  0.497080  0.389380  0.531360  1.0  0.007
  C  C688  1  0.638840  0.506540  0.658680  1.0  0.0367
  C  C689  1  0.699470  0.548570  0.671740  1.0  -0.1301
  C  C690  1  0.779090  0.559790  0.701780  1.0  0.1275
  C  C691  1  0.736060  0.489560  0.707520  1.0  0.1458
  C  C692  1  0.655820  0.476120  0.677440  1.0  -0.1751
  C  C693  1  0.181180  0.473480  0.530560  1.0  0.0307
  C  C694  1  0.101770  0.489770  0.542140  1.0  -0.1197
  C  C695  1  0.101440  0.488440  0.578680  1.0  -0.1699
  C  C696  1  0.180420  0.469520  0.587840  1.0  0.2052
  C  C697  1  0.207210  0.461210  0.621820  1.0  -0.0881
  C  C698  1  0.280560  0.439160  0.627920  1.0  0.151
  C  C699  1  0.305090  0.424590  0.659780  1.0  -0.16
  C  C700  1  0.378870  0.401070  0.651540  1.0  -0.1085
  C  C701  1  0.395970  0.401670  0.615940  1.0  0.0462
  C  C702  1  0.151550  0.475750  0.653500  1.0  0.1201
  C  C703  1  0.161590  0.522790  0.680380  1.0  -0.2134
  C  C704  1  0.109510  0.535110  0.709220  1.0  0.1389
  C  C705  1  0.037690  0.459390  0.687180  1.0  0.1478
  C  C706  1  0.087540  0.442840  0.657080  1.0  -0.2156
  C  C707  1  0.270920  0.343020  0.520640  1.0  0.0619
  C  C708  1  0.246980  0.301480  0.484760  1.0  -0.0903
  C  C709  1  0.259010  0.315010  0.454820  1.0  -0.179
  C  C710  1  0.290530  0.364830  0.472860  1.0  0.1837
  C  C711  1  0.314090  0.392690  0.454180  1.0  -0.1014
  C  C712  1  0.350330  0.441730  0.474260  1.0  0.1391
  C  C713  1  0.369150  0.474350  0.457100  1.0  -0.1621
  C  C714  1  0.398110  0.518810  0.487620  1.0  -0.1379
  C  C715  1  0.397150  0.513150  0.523700  1.0  0.0317
  C  C716  1  0.304400  0.370100  0.409400  1.0  0.088
  C  C717  1  0.218120  0.355420  0.383240  1.0  -0.1845
  C  C718  1  0.211380  0.336180  0.342360  1.0  0.1485
  C  C719  1  0.369080  0.343580  0.350960  1.0  0.1435
  C  C720  1  0.378920  0.363720  0.392240  1.0  -0.1438
  C  C721  1  0.204450  0.185550  0.194300  1.0  0.1609
  C  C722  1  0.140640  0.147440  0.164680  1.0  -0.2094
  C  C723  1  0.048290  0.148090  0.162580  1.0  0.1012
  C  C724  1  0.023080  0.187380  0.191160  1.0  -0.2152
  C  C725  1  0.091960  0.223160  0.219320  1.0  0.1606
  C  C726  1  0.973990  0.110190  0.130780  1.0  -0.0676
  C  C727  1  0.935780  0.117780  0.096760  1.0  0.1814
  C  C728  1  0.964260  0.156860  0.088720  1.0  -0.0815
  C  C729  1  0.909440  0.149740  0.053280  1.0  -0.1282
  C  C730  1  0.845300  0.107100  0.040400  1.0  0.0029
  C  C731  1  0.947300  0.068700  0.136000  1.0  0.1573
  C  C732  1  0.990610  0.056610  0.167020  1.0  -0.1666
  C  C733  1  0.947330  0.012330  0.158860  1.0  -0.1468
  C  C734  1  0.876910  0.998110  0.123620  1.0  0.0107
  C  C735  1  0.613010  0.057210  0.031420  1.0  0.0237
  C  C736  1  0.551830  0.048630  0.994060  1.0  -0.1244
  C  C737  1  0.589510  0.020010  0.964220  1.0  -0.1505
  C  C738  1  0.670520  0.009120  0.982440  1.0  0.1745
  C  C739  1  0.634790  0.921090  0.896180  1.0  -0.2029
  C  C740  1  0.617900  0.901200  0.854400  1.0  0.1614
  C  C741  1  0.712200  0.801300  0.701600  1.0  0.1483
  C  C742  1  0.767250  0.784550  0.673500  1.0  -0.1446
  C  C743  1  0.844990  0.813490  0.675580  1.0  0.0614
  C  C744  1  0.869480  0.858180  0.707360  1.0  -0.1617
  C  C745  1  0.811040  0.873040  0.734480  1.0  0.1464
  C  C746  1  0.099370  0.747270  0.636940  1.0  -0.0087
  C  C747  1  0.080550  0.743550  0.672300  1.0  -0.148
  C  C748  1  0.005600  0.764200  0.680200  1.0  -0.156
  C  C749  1  0.975650  0.779450  0.649500  1.0  0.2003
  C  C750  1  0.899930  0.798830  0.643260  1.0  -0.0465
  C  C751  1  0.867890  0.808590  0.610980  1.0  0.1684
  C  C752  1  0.787790  0.826890  0.603180  1.0  -0.1793
  C  C753  1  0.784040  0.830840  0.567880  1.0  -0.1502
  C  C754  1  0.865120  0.816520  0.554240  1.0  -0.0004
  C  C755  1  0.971810  0.685810  0.544420  1.0  0.0342
  C  C756  1  0.946770  0.643870  0.507740  1.0  -0.1268
  C  C757  1  0.949350  0.657950  0.477500  1.0  -0.1595
  C  C758  1  0.976330  0.708930  0.495260  1.0  0.1658
  C  C759  1  0.874570  0.699570  0.409540  1.0  -0.1438
  C  C760  1  0.855420  0.679320  0.368240  1.0  0.1454
  C  C761  1  0.585650  0.334650  0.101300  1.0  0.031
  C  C762  1  0.649110  0.345610  0.137420  1.0  -0.1001
  C  C763  1  0.686880  0.392880  0.152560  1.0  -0.1719
  C  C764  1  0.644560  0.409460  0.124720  1.0  0.1617
  C  C765  1  0.666667  0.453950  0.124700  1.0  -0.0805
  C  C766  1  0.636820  0.466620  0.093840  1.0  0.1686
  C  C767  1  0.662840  0.509840  0.089680  1.0  -0.1467
  C  C768  1  0.617150  0.505750  0.053700  1.0  -0.1532
  C  C769  1  0.558540  0.460640  0.035080  1.0  0.0255
  C  C770  1  0.730010  0.491710  0.162420  1.0  0.1062
  C  C771  1  0.694270  0.510470  0.196540  1.0  -0.2355
  C  C772  1  0.749930  0.546930  0.230460  1.0  0.1906
  C  C773  1  0.867500  0.547000  0.200400  1.0  0.1443
  C  C774  1  0.816540  0.510740  0.165080  1.0  -0.1723
  C  C775  1  0.168960  0.650060  0.115120  1.0  -0.0203
  C  C776  1  0.235420  0.672920  0.153040  1.0  -0.1465
  C  C777  1  0.265180  0.717780  0.158560  1.0  -0.1634
  C  C778  1  0.220160  0.722660  0.123720  1.0  0.1652
  C  C779  1  0.236840  0.760740  0.114480  1.0  -0.0724
  C  C780  1  0.200420  0.761320  0.077840  1.0  0.1764
  C  C781  1  0.225010  0.796710  0.064020  1.0  -0.1904
  C  C782  1  0.172090  0.780090  0.024580  1.0  -0.093
  C  C783  1  0.119430  0.737030  0.015860  1.0  0.0287
  C  C784  1  0.297160  0.805060  0.146920  1.0  0.1054
  C  C785  1  0.264230  0.832730  0.179660  1.0  -0.1783
  C  C786  1  0.319370  0.873370  0.209940  1.0  0.1345
  C  C787  1  0.439020  0.862820  0.177640  1.0  0.1248
  C  C788  1  0.386610  0.821310  0.145620  1.0  -0.2043
  C  C789  1  0.325020  0.407420  0.018840  1.0  0.0554
  C  C790  1  0.264290  0.401090  0.983180  1.0  -0.1111
  C  C791  1  0.298290  0.371190  0.952180  1.0  -0.1739
  C  C792  1  0.380670  0.360770  0.969740  1.0  0.167
  C  C793  1  0.440170  0.333270  0.948940  1.0  -0.1104
  C  C794  1  0.522790  0.325990  0.967380  1.0  0.1478
  C  C795  1  0.590720  0.302020  0.949040  1.0  -0.1707
  C  C796  1  0.658110  0.303510  0.978420  1.0  -0.1045
  C  C797  1  0.632260  0.328360  0.015320  1.0  0.0234
  C  C798  1  0.414930  0.310830  0.904460  1.0  0.125
  C  C799  1  0.398070  0.261070  0.884540  1.0  -0.2191
  C  C800  1  0.369370  0.240270  0.842940  1.0  0.1559
  C  C801  1  0.382680  0.310280  0.838960  1.0  0.1365
  C  C802  1  0.408910  0.334410  0.879820  1.0  -0.2053
  C  C803  1  0.757240  0.071840  0.617080  1.0  -1e-04
  C  C804  1  0.743560  0.074560  0.654920  1.0  -0.1608
  C  C805  1  0.675320  0.099720  0.663840  1.0  -0.1601
  C  C806  1  0.643800  0.111800  0.631000  1.0  0.2076
  C  C807  1  0.571360  0.134260  0.625920  1.0  -0.1045
  C  C808  1  0.539120  0.140820  0.590640  1.0  0.1805
  C  C809  1  0.460430  0.159630  0.582460  1.0  -0.1151
  C  C810  1  0.458270  0.159870  0.544740  1.0  -0.11
  C  C811  1  0.534280  0.141980  0.531360  1.0  0.0031
  C  C812  1  0.519840  0.152140  0.658680  1.0  0.0361
  C  C813  1  0.472270  0.123170  0.671740  1.0  -0.1336
  C  C814  1  0.422690  0.141990  0.701780  1.0  0.13
  C  C815  1  0.471460  0.217960  0.707520  1.0  0.1454
  C  C816  1  0.521620  0.201320  0.677440  1.0  -0.1776
  C  C817  1  0.849380  0.057080  0.530560  1.0  0.0346
  C  C818  1  0.940370  0.052370  0.542140  1.0  -0.1192
  C  C819  1  0.977240  0.090240  0.578680  1.0  -0.1696
  C  C820  1  0.907420  0.118320  0.587840  1.0  0.2061
  C  C821  1  0.914610  0.160610  0.621820  1.0  -0.088
  C  C822  1  0.847360  0.188760  0.627920  1.0  0.1513
  C  C823  1  0.854690  0.235190  0.659780  1.0  -0.1633
  C  C824  1  0.772670  0.250470  0.651540  1.0  -0.111
  C  C825  1  0.719970  0.214270  0.615940  1.0  0.0471
  C  C826  1  0.001950  0.177750  0.653500  1.0  0.1217
  C  C827  1  0.018790  0.157590  0.680380  1.0  -0.2137
  C  C828  1  0.099710  0.174110  0.709220  1.0  0.1366
  C  C829  1  0.149490  0.227790  0.687180  1.0  0.147
  C  C830  1  0.069540  0.214240  0.657080  1.0  -0.2151
  C  C831  1  0.749720  0.177620  0.520640  1.0  0.0548
  C  C832  1  0.737780  0.183280  0.484760  1.0  -0.0899
  C  C833  1  0.695810  0.139810  0.454820  1.0  -0.1796
  C  C834  1  0.682330  0.108030  0.472860  1.0  0.1837
  C  C835  1  0.640090  0.061490  0.454180  1.0  -0.1012
  C  C836  1  0.623930  0.032530  0.474260  1.0  0.1378
  C  C837  1  0.587950  0.982750  0.457100  1.0  -0.1598
  C  C838  1  0.589510  0.968810  0.487620  1.0  -0.1395
  C  C839  1  0.626550  0.010550  0.523700  1.0  0.0349
  C  C840  1  0.605000  0.039300  0.409400  1.0  0.0875
  C  C841  1  0.665120  0.027820  0.383240  1.0  -0.1855
  C  C842  1  0.630980  0.006180  0.342360  1.0  0.1493
  C  C843  1  0.481880  0.007380  0.350960  1.0  0.146
  C  C844  1  0.513320  0.028520  0.392240  1.0  -0.1426
  C  C845  1  0.489850  0.008750  0.194300  1.0  0.1629
  C  C846  1  0.524040  0.017240  0.164680  1.0  -0.2086
  C  C847  1  0.614290  0.014490  0.162580  1.0  0.101
  C  C848  1  0.668080  0.003780  0.191160  1.0  -0.2158
  C  C849  1  0.627360  0.996160  0.219320  1.0  0.1656
  C  C850  1  0.656790  0.020590  0.130780  1.0  -0.0679
  C  C851  1  0.660980  0.978980  0.096760  1.0  0.18
  C  C852  1  0.624460  0.931860  0.088720  1.0  -0.084
  C  C853  1  0.643840  0.903540  0.053280  1.0  -0.1309
  C  C854  1  0.695100  0.933300  0.040400  1.0  0.0015
  C  C855  1  0.688700  0.067300  0.136000  1.0  0.1573
  C  C856  1  0.676410  0.110410  0.167020  1.0  -0.1679
  C  C857  1  0.711530  0.146530  0.158860  1.0  -0.1482
  C  C858  1  0.746710  0.125510  0.123620  1.0  0.0079
  C  C859  1  0.918410  0.974210  0.031420  1.0  0.0261
  C  C860  1  0.942230  0.945430  0.994060  1.0  -0.1277
  C  C861  1  0.874710  0.944210  0.964220  1.0  -0.151
  C  C862  1  0.811920  0.973320  0.982440  1.0  0.1723
  C  C863  1  0.761390  0.975090  0.896180  1.0  -0.2047
  C  C864  1  0.736500  0.953200  0.854400  1.0  0.1611
  C  C865  1  0.489400  0.900300  0.701600  1.0  0.1473
  C  C866  1  0.406250  0.888950  0.673500  1.0  -0.144
  C  C867  1  0.330590  0.862090  0.675580  1.0  0.0635
  C  C868  1  0.337880  0.849180  0.707360  1.0  -0.1607
  C  C869  1  0.423440  0.861440  0.734480  1.0  0.1479
  C  C870  1  0.037570  0.889670  0.636940  1.0  -0.006
  C  C871  1  0.091750  0.928750  0.672300  1.0  -0.1481
  C  C872  1  0.174600  0.916000  0.680200  1.0  -0.1588
  C  C873  1  0.173850  0.870050  0.649500  1.0  0.2013
  C  C874  1  0.243330  0.844430  0.643260  1.0  -0.0466
  C  C875  1  0.243090  0.802390  0.610980  1.0  0.1696
  C  C876  1  0.315390  0.776290  0.603180  1.0  -0.1778
  C  C877  1  0.283840  0.737040  0.567880  1.0  -0.1505
  C  C878  1  0.189120  0.737720  0.554240  1.0  -0.0009
  C  C879  1  0.072610  0.858610  0.544420  1.0  0.0293
  C  C880  1  0.060970  0.863870  0.507740  1.0  -0.1243
  C  C881  1  0.028150  0.819550  0.477500  1.0  -0.161
  C  C882  1  0.018930  0.786330  0.495260  1.0  0.1665
  C  C883  1  0.034970  0.709970  0.409540  1.0  -0.1432
  C  C884  1  0.012820  0.688920  0.368240  1.0  0.1506
  C  C885  1  0.731730  0.981730  0.963460  1.0  -0.065
  C  C886  1  0.708580  0.958580  0.917160  1.0  0.059
  C  C887  1  0.988230  0.738230  0.476460  1.0  -0.0552
  C  C888  1  0.965720  0.715720  0.431440  1.0  0.0523
  N  N889  1  0.987590  0.278690  0.906580  1.0  -0.3554
  N  N890  1  0.010130  0.378330  0.941260  1.0  -0.2955
  N  N891  1  0.101030  0.331130  0.766460  1.0  -0.3342
  N  N892  1  0.562220  0.581520  0.901840  1.0  -0.3281
  N  N893  1  0.586750  0.677650  0.952900  1.0  -0.3275
  N  N894  1  0.696970  0.677070  0.789540  1.0  -0.2995
  N  N895  1  0.884040  0.373240  0.988480  1.0  -0.3395
  N  N896  1  0.042640  0.332640  0.990480  1.0  -0.3583
  N  N897  1  0.039290  0.442590  0.180180  1.0  -0.3087
  N  N898  1  0.596460  0.491360  0.397320  1.0  -0.3468
  N  N899  1  0.525960  0.571760  0.441000  1.0  -0.3256
  N  N900  1  0.201330  0.470330  0.280460  1.0  -0.339
  N  N901  1  0.771380  0.538280  0.442360  1.0  -0.3019
  N  N902  1  0.660930  0.576230  0.399060  1.0  -0.3489
  N  N903  1  0.953080  0.494680  0.286960  1.0  -0.3145
  N  N904  1  0.702510  0.618710  0.484840  1.0  -0.3637
  N  N905  1  0.631730  0.532230  0.483880  1.0  -0.3334
  N  N906  1  0.712860  0.669360  0.674620  1.0  -0.335
  N  N907  1  0.818770  0.776070  0.778540  1.0  -0.3473
  N  N908  1  0.138410  0.913310  0.933620  1.0  -0.3656
  N  N909  1  0.123650  0.968550  0.890100  1.0  -0.3452
  N  N910  1  0.316130  0.966830  0.975860  1.0  -0.3293
  N  N911  1  0.267670  0.154970  0.269540  1.0  -0.3
  N  N912  1  0.962260  0.230960  0.376600  1.0  -0.3309
  N  N913  1  0.085160  0.196860  0.420520  1.0  -0.2833
  N  N914  1  0.009940  0.275340  0.462500  1.0  -0.3243
  N  N915  1  0.418990  0.627890  0.906580  1.0  -0.3565
  N  N916  1  0.431130  0.562930  0.941260  1.0  -0.2933
  N  N917  1  0.165430  0.435330  0.766460  1.0  -0.3348
  N  N918  1  0.839620  0.320320  0.901840  1.0  -0.3263
  N  N919  1  0.866150  0.275250  0.952900  1.0  -0.3246
  N  N920  1  0.592570  0.112470  0.789540  1.0  -0.2991
  N  N921  1  0.604440  0.615240  0.988480  1.0  -0.3392
  N  N922  1  0.447840  0.657840  0.990480  1.0  -0.3601
  N  N923  1  0.640890  0.737590  0.180180  1.0  -0.309
  N  N924  1  0.300860  0.905960  0.397320  1.0  -0.343
  N  N925  1  0.415040  0.869240  0.441000  1.0  -0.325
  N  N926  1  0.579130  0.810130  0.280460  1.0  -0.3414
  N  N927  1  0.170980  0.904080  0.442360  1.0  -0.3005
  N  N928  1  0.238130  0.822830  0.399060  1.0  -0.3528
  N  N929  1  0.833880  0.792280  0.286960  1.0  -0.3103
  N  N930  1  0.282330  0.866130  0.484840  1.0  -0.3632
  N  N931  1  0.352150  0.951650  0.483880  1.0  -0.3332
  N  N932  1  0.461760  0.005260  0.674620  1.0  -0.334
  N  N933  1  0.459770  0.002470  0.778540  1.0  -0.3505
  N  N934  1  0.295210  0.020310  0.933620  1.0  -0.3684
  N  N935  1  0.266450  0.921550  0.890100  1.0  -0.3477
  N  N936  1  0.159730  0.009030  0.975860  1.0  -0.3308
  N  N937  1  0.501870  0.114570  0.269540  1.0  -0.3003
  N  N938  1  0.914340  0.145640  0.376600  1.0  -0.3338
  N  N939  1  0.835360  0.223660  0.420520  1.0  -0.285
  N  N940  1  0.952560  0.187160  0.462500  1.0  -0.3251
  N  N941  1  0.333440  0.083440  0.166880  1.0  -0.3557
  N  N942  1  0.076330  0.326330  0.652660  1.0  -0.3518
  N  N943  1  0.012410  0.721310  0.093420  1.0  -0.3571
  N  N944  1  0.989870  0.621670  0.058740  1.0  -0.2968
  N  N945  1  0.898970  0.668870  0.233540  1.0  -0.335
  N  N946  1  0.437780  0.418480  0.098160  1.0  -0.3286
  N  N947  1  0.413250  0.322350  0.047100  1.0  -0.3292
  N  N948  1  0.303030  0.322930  0.210460  1.0  -0.3012
  N  N949  1  0.115960  0.626760  0.011520  1.0  -0.3402
  N  N950  1  0.957360  0.667360  0.009520  1.0  -0.3599
  N  N951  1  0.960710  0.557410  0.819820  1.0  -0.3097
  N  N952  1  0.403540  0.508640  0.602680  1.0  -0.3465
  N  N953  1  0.474040  0.428240  0.559000  1.0  -0.3257
  N  N954  1  0.798670  0.529670  0.719540  1.0  -0.3397
  N  N955  1  0.228620  0.461720  0.557640  1.0  -0.3005
  N  N956  1  0.339070  0.423770  0.600940  1.0  -0.3504
  N  N957  1  0.046920  0.505320  0.713040  1.0  -0.3122
  N  N958  1  0.297490  0.381290  0.515160  1.0  -0.3637
  N  N959  1  0.368270  0.467770  0.516120  1.0  -0.3333
  N  N960  1  0.287140  0.330640  0.325380  1.0  -0.3353
  N  N961  1  0.181230  0.223930  0.221460  1.0  -0.3469
  N  N962  1  0.861590  0.086690  0.066380  1.0  -0.3648
  N  N963  1  0.876350  0.031450  0.109900  1.0  -0.3462
  N  N964  1  0.683870  0.033170  0.024140  1.0  -0.3324
  N  N965  1  0.732330  0.845030  0.730460  1.0  -0.3005
  N  N966  1  0.037740  0.769040  0.623400  1.0  -0.3325
  N  N967  1  0.914840  0.803140  0.579480  1.0  -0.2853
  N  N968  1  0.990060  0.724660  0.537500  1.0  -0.3242
  N  N969  1  0.581010  0.372110  0.093420  1.0  -0.3544
  N  N970  1  0.568870  0.437070  0.058740  1.0  -0.2933
  N  N971  1  0.834570  0.564670  0.233540  1.0  -0.334
  N  N972  1  0.160380  0.679680  0.098160  1.0  -0.3261
  N  N973  1  0.133850  0.724750  0.047100  1.0  -0.3255
  N  N974  1  0.407430  0.887530  0.210460  1.0  -0.2977
  N  N975  1  0.395560  0.384760  0.011520  1.0  -0.3397
  N  N976  1  0.552160  0.342160  0.009520  1.0  -0.3597
  N  N977  1  0.359110  0.262410  0.819820  1.0  -0.31
  N  N978  1  0.699140  0.094040  0.602680  1.0  -0.343
  N  N979  1  0.584960  0.130760  0.559000  1.0  -0.3258
  N  N980  1  0.420870  0.189870  0.719540  1.0  -0.3396
  N  N981  1  0.829020  0.095920  0.557640  1.0  -0.3025
  N  N982  1  0.761870  0.177170  0.600940  1.0  -0.3527
  N  N983  1  0.166120  0.207720  0.713040  1.0  -0.3136
  N  N984  1  0.717670  0.133870  0.515160  1.0  -0.3644
  N  N985  1  0.647850  0.048350  0.516120  1.0  -0.3336
  N  N986  1  0.538240  0.994740  0.325380  1.0  -0.3357
  N  N987  1  0.540230  0.997530  0.221460  1.0  -0.3539
  N  N988  1  0.704790  0.979690  0.066380  1.0  -0.3686
  N  N989  1  0.733550  0.078450  0.109900  1.0  -0.3474
  N  N990  1  0.840270  0.990970  0.024140  1.0  -0.3309
  N  N991  1  0.498130  0.885430  0.730460  1.0  -0.2992
  N  N992  1  0.085660  0.854360  0.623400  1.0  -0.3325
  N  N993  1  0.164640  0.776340  0.579480  1.0  -0.2829
  N  N994  1  0.047440  0.812840  0.537500  1.0  -0.3252
  N  N995  1  0.666560  0.916560  0.833120  1.0  -0.3574
  N  N996  1  0.923670  0.673670  0.347340  1.0  -0.3522
