# generated using pymatgen
data_FeAgH42C58N9
_symmetry_space_group_name_H-M   'P 1'
_cell_length_a   24.60100000
_cell_length_b   16.54600000
_cell_length_c   65.77500000
_cell_angle_alpha   90.00000000
_cell_angle_beta   90.00000000
_cell_angle_gamma   90.00000000
_symmetry_Int_Tables_number   1
_chemical_formula_structural   FeAgH42C58N9
_chemical_formula_sum   'Fe16 Ag16 H672 C928 N144'
_cell_volume   26773.59180315
_cell_formula_units_Z   16
loop_
 _symmetry_equiv_pos_site_id
 _symmetry_equiv_pos_as_xyz
  1  'x, y, z'
loop_
 _atom_site_type_symbol
 _atom_site_label
 _atom_site_symmetry_multiplicity
 _atom_site_fract_x
 _atom_site_fract_y
 _atom_site_fract_z
 _atom_site_occupancy
 _atom_site_charge
  Fe  Fe1  1  0.625000  0.125000  0.996390  1.0  0.1513
  Fe  Fe2  1  0.625000  0.625000  0.496390  1.0  0.1513
  Fe  Fe3  1  0.125000  0.625000  0.996390  1.0  0.1513
  Fe  Fe4  1  0.125000  0.125000  0.496390  1.0  0.1513
  Fe  Fe5  1  0.875000  0.875000  0.246390  1.0  0.1513
  Fe  Fe6  1  0.875000  0.375000  0.746390  1.0  0.1513
  Fe  Fe7  1  0.375000  0.375000  0.246390  1.0  0.1513
  Fe  Fe8  1  0.375000  0.875000  0.746390  1.0  0.1513
  Fe  Fe9  1  0.125000  0.125000  0.753610  1.0  0.1503
  Fe  Fe10  1  0.125000  0.625000  0.253610  1.0  0.1503
  Fe  Fe11  1  0.625000  0.625000  0.753610  1.0  0.1503
  Fe  Fe12  1  0.625000  0.125000  0.253610  1.0  0.1503
  Fe  Fe13  1  0.375000  0.875000  0.003610  1.0  0.1503
  Fe  Fe14  1  0.375000  0.375000  0.503610  1.0  0.1503
  Fe  Fe15  1  0.875000  0.375000  0.003610  1.0  0.1503
  Fe  Fe16  1  0.875000  0.875000  0.503610  1.0  0.1503
  Ag  Ag17  1  0.375000  0.375000  0.095670  1.0  0.194
  Ag  Ag18  1  0.375000  0.875000  0.595670  1.0  0.194
  Ag  Ag19  1  0.875000  0.375000  0.595670  1.0  0.194
  Ag  Ag20  1  0.875000  0.875000  0.095670  1.0  0.194
  Ag  Ag21  1  0.625000  0.625000  0.345670  1.0  0.194
  Ag  Ag22  1  0.625000  0.125000  0.845670  1.0  0.194
  Ag  Ag23  1  0.125000  0.625000  0.845670  1.0  0.194
  Ag  Ag24  1  0.125000  0.125000  0.345670  1.0  0.194
  Ag  Ag25  1  0.375000  0.375000  0.654330  1.0  0.1955
  Ag  Ag26  1  0.375000  0.875000  0.154330  1.0  0.1955
  Ag  Ag27  1  0.875000  0.375000  0.154330  1.0  0.1955
  Ag  Ag28  1  0.875000  0.875000  0.654330  1.0  0.1955
  Ag  Ag29  1  0.625000  0.625000  0.904330  1.0  0.1955
  Ag  Ag30  1  0.625000  0.125000  0.404330  1.0  0.1955
  Ag  Ag31  1  0.125000  0.625000  0.404330  1.0  0.1955
  Ag  Ag32  1  0.125000  0.125000  0.904330  1.0  0.1955
  H  H33  1  0.520800  0.124600  0.969500  1.0  0.0903
  H  H34  1  0.430100  0.180500  0.979800  1.0  0.1295
  H  H35  1  0.442100  0.247600  0.014000  1.0  0.1212
  H  H36  1  0.621300  0.302600  0.059300  1.0  0.1229
  H  H37  1  0.719400  0.285200  0.051700  1.0  0.1052
  H  H38  1  0.726800  0.203400  0.019300  1.0  0.0828
  H  H39  1  0.498600  0.378500  0.031900  1.0  0.1191
  H  H40  1  0.436100  0.422700  0.056200  1.0  0.0726
  H  H41  1  0.422500  0.222500  0.103600  1.0  0.1195
  H  H42  1  0.476400  0.099300  0.110500  1.0  0.1432
  H  H43  1  0.533100  0.056100  0.087000  1.0  0.0726
  H  H44  1  0.556200  0.128600  0.059000  1.0  0.0814
  H  H45  1  0.407100  0.194600  0.241800  1.0  0.0847
  H  H46  1  0.419000  0.116900  0.208900  1.0  0.1162
  H  H47  1  0.401400  0.217700  0.180900  1.0  0.114
  H  H48  1  0.293500  0.360200  0.168100  1.0  0.2147
  H  H49  1  0.297100  0.367800  0.132100  1.0  0.2532
  H  H50  1  0.275800  0.359900  0.114300  1.0  0.1814
  H  H51  1  0.195500  0.346600  0.131500  1.0  0.0863
  H  H52  1  0.190400  0.332600  0.166600  1.0  0.1174
  H  H53  1  0.275200  0.344300  0.185000  1.0  0.1351
  H  H54  1  0.520800  0.624600  0.469500  1.0  0.0903
  H  H55  1  0.430100  0.680500  0.479800  1.0  0.1295
  H  H56  1  0.442100  0.747600  0.514000  1.0  0.1212
  H  H57  1  0.621300  0.802600  0.559300  1.0  0.1229
  H  H58  1  0.719400  0.785200  0.551700  1.0  0.1052
  H  H59  1  0.726800  0.703400  0.519300  1.0  0.0828
  H  H60  1  0.498600  0.878500  0.531900  1.0  0.1191
  H  H61  1  0.436100  0.922700  0.556200  1.0  0.0726
  H  H62  1  0.422500  0.722500  0.603600  1.0  0.1195
  H  H63  1  0.476400  0.599300  0.610500  1.0  0.1432
  H  H64  1  0.533100  0.556100  0.587000  1.0  0.0726
  H  H65  1  0.556200  0.628600  0.559000  1.0  0.0814
  H  H66  1  0.407100  0.694600  0.741800  1.0  0.0847
  H  H67  1  0.419000  0.616900  0.708900  1.0  0.1162
  H  H68  1  0.401400  0.717700  0.680900  1.0  0.114
  H  H69  1  0.293500  0.860200  0.668100  1.0  0.2147
  H  H70  1  0.297100  0.867800  0.632100  1.0  0.2532
  H  H71  1  0.275800  0.859900  0.614300  1.0  0.1814
  H  H72  1  0.195500  0.846600  0.631500  1.0  0.0862
  H  H73  1  0.190400  0.832600  0.666667  1.0  0.1173
  H  H74  1  0.275200  0.844300  0.685000  1.0  0.135
  H  H75  1  0.020800  0.124600  0.469500  1.0  0.0903
  H  H76  1  0.930100  0.180500  0.479800  1.0  0.1295
  H  H77  1  0.942100  0.247600  0.514000  1.0  0.1212
  H  H78  1  0.121300  0.302600  0.559300  1.0  0.1229
  H  H79  1  0.219400  0.285200  0.551700  1.0  0.1052
  H  H80  1  0.226800  0.203400  0.519300  1.0  0.0828
  H  H81  1  0.998600  0.378500  0.531900  1.0  0.1191
  H  H82  1  0.936100  0.422700  0.556200  1.0  0.0726
  H  H83  1  0.922500  0.222500  0.603600  1.0  0.1195
  H  H84  1  0.976400  0.099300  0.610500  1.0  0.1432
  H  H85  1  0.033100  0.056100  0.587000  1.0  0.0726
  H  H86  1  0.056200  0.128600  0.559000  1.0  0.0814
  H  H87  1  0.907100  0.194600  0.741800  1.0  0.0847
  H  H88  1  0.919000  0.116900  0.708900  1.0  0.1162
  H  H89  1  0.901400  0.217700  0.680900  1.0  0.114
  H  H90  1  0.793500  0.360200  0.668100  1.0  0.2147
  H  H91  1  0.797100  0.367800  0.632100  1.0  0.2532
  H  H92  1  0.775800  0.359900  0.614300  1.0  0.1814
  H  H93  1  0.695500  0.346600  0.631500  1.0  0.0862
  H  H94  1  0.690400  0.332600  0.666667  1.0  0.1173
  H  H95  1  0.775200  0.344300  0.685000  1.0  0.135
  H  H96  1  0.020800  0.624600  0.969500  1.0  0.0903
  H  H97  1  0.930100  0.680500  0.979800  1.0  0.1295
  H  H98  1  0.942100  0.747600  0.014000  1.0  0.1212
  H  H99  1  0.121300  0.802600  0.059300  1.0  0.1229
  H  H100  1  0.219400  0.785200  0.051700  1.0  0.1052
  H  H101  1  0.226800  0.703400  0.019300  1.0  0.0828
  H  H102  1  0.998600  0.878500  0.031900  1.0  0.1191
  H  H103  1  0.936100  0.922700  0.056200  1.0  0.0726
  H  H104  1  0.922500  0.722500  0.103600  1.0  0.1195
  H  H105  1  0.976400  0.599300  0.110500  1.0  0.1432
  H  H106  1  0.033100  0.556100  0.087000  1.0  0.0726
  H  H107  1  0.056200  0.628600  0.059000  1.0  0.0814
  H  H108  1  0.907100  0.694600  0.241800  1.0  0.0847
  H  H109  1  0.919000  0.616900  0.208900  1.0  0.1162
  H  H110  1  0.901400  0.717700  0.180900  1.0  0.114
  H  H111  1  0.793500  0.860200  0.168100  1.0  0.2147
  H  H112  1  0.797100  0.867800  0.132100  1.0  0.2532
  H  H113  1  0.775800  0.859900  0.114300  1.0  0.1814
  H  H114  1  0.695500  0.846600  0.131500  1.0  0.0863
  H  H115  1  0.690400  0.832600  0.166600  1.0  0.1174
  H  H116  1  0.775200  0.844300  0.185000  1.0  0.1351
  H  H117  1  0.229200  0.625400  0.969500  1.0  0.0899
  H  H118  1  0.319900  0.569500  0.979800  1.0  0.1297
  H  H119  1  0.307900  0.502400  0.014000  1.0  0.1212
  H  H120  1  0.128700  0.447400  0.059300  1.0  0.1228
  H  H121  1  0.030600  0.464800  0.051700  1.0  0.1055
  H  H122  1  0.023200  0.546600  0.019300  1.0  0.0835
  H  H123  1  0.251400  0.371500  0.031900  1.0  0.1172
  H  H124  1  0.313900  0.327300  0.056200  1.0  0.0713
  H  H125  1  0.327500  0.527500  0.103600  1.0  0.1194
  H  H126  1  0.273600  0.650700  0.110500  1.0  0.1429
  H  H127  1  0.216900  0.693900  0.087000  1.0  0.0745
  H  H128  1  0.193800  0.621400  0.059000  1.0  0.0819
  H  H129  1  0.342900  0.555400  0.241800  1.0  0.0847
  H  H130  1  0.331000  0.633100  0.208900  1.0  0.1152
  H  H131  1  0.348600  0.532300  0.180900  1.0  0.1142
  H  H132  1  0.456500  0.389800  0.168100  1.0  0.212
  H  H133  1  0.452900  0.382200  0.132100  1.0  0.2453
  H  H134  1  0.474200  0.390100  0.114300  1.0  0.1811
  H  H135  1  0.554500  0.403400  0.131500  1.0  0.0881
  H  H136  1  0.559600  0.417400  0.166600  1.0  0.1181
  H  H137  1  0.474800  0.405700  0.185000  1.0  0.1345
  H  H138  1  0.229200  0.125400  0.469500  1.0  0.0899
  H  H139  1  0.319900  0.069500  0.479800  1.0  0.1297
  H  H140  1  0.307900  0.002400  0.514000  1.0  0.1212
  H  H141  1  0.128700  0.947400  0.559300  1.0  0.1228
  H  H142  1  0.030600  0.964800  0.551700  1.0  0.1055
  H  H143  1  0.023200  0.046600  0.519300  1.0  0.0835
  H  H144  1  0.251400  0.871500  0.531900  1.0  0.1172
  H  H145  1  0.313900  0.827300  0.556200  1.0  0.0713
  H  H146  1  0.327500  0.027500  0.603600  1.0  0.1194
  H  H147  1  0.273600  0.150700  0.610500  1.0  0.1429
  H  H148  1  0.216900  0.193900  0.587000  1.0  0.0745
  H  H149  1  0.193800  0.121400  0.559000  1.0  0.0819
  H  H150  1  0.342900  0.055400  0.741800  1.0  0.0847
  H  H151  1  0.331000  0.133100  0.708900  1.0  0.1152
  H  H152  1  0.348600  0.032300  0.680900  1.0  0.1142
  H  H153  1  0.456500  0.889800  0.668100  1.0  0.212
  H  H154  1  0.452900  0.882200  0.632100  1.0  0.2453
  H  H155  1  0.474200  0.890100  0.614300  1.0  0.1811
  H  H156  1  0.554500  0.903400  0.631500  1.0  0.0881
  H  H157  1  0.559600  0.917400  0.666667  1.0  0.1179
  H  H158  1  0.474800  0.905700  0.685000  1.0  0.1345
  H  H159  1  0.729200  0.625400  0.469500  1.0  0.0899
  H  H160  1  0.819900  0.569500  0.479800  1.0  0.1297
  H  H161  1  0.807900  0.502400  0.514000  1.0  0.1212
  H  H162  1  0.628700  0.447400  0.559300  1.0  0.1228
  H  H163  1  0.530600  0.464800  0.551700  1.0  0.1055
  H  H164  1  0.523200  0.546600  0.519300  1.0  0.0835
  H  H165  1  0.751400  0.371500  0.531900  1.0  0.1172
  H  H166  1  0.813900  0.327300  0.556200  1.0  0.0713
  H  H167  1  0.827500  0.527500  0.603600  1.0  0.1194
  H  H168  1  0.773600  0.650700  0.610500  1.0  0.1429
  H  H169  1  0.716900  0.693900  0.587000  1.0  0.0745
  H  H170  1  0.693800  0.621400  0.559000  1.0  0.0819
  H  H171  1  0.842900  0.555400  0.741800  1.0  0.0847
  H  H172  1  0.831000  0.633100  0.708900  1.0  0.1152
  H  H173  1  0.848600  0.532300  0.680900  1.0  0.1142
  H  H174  1  0.956500  0.389800  0.668100  1.0  0.212
  H  H175  1  0.952900  0.382200  0.632100  1.0  0.2453
  H  H176  1  0.974200  0.390100  0.614300  1.0  0.1811
  H  H177  1  0.054500  0.403400  0.631500  1.0  0.0881
  H  H178  1  0.059600  0.417400  0.666667  1.0  0.1179
  H  H179  1  0.974800  0.405700  0.685000  1.0  0.1345
  H  H180  1  0.729200  0.125400  0.969500  1.0  0.0899
  H  H181  1  0.819900  0.069500  0.979800  1.0  0.1297
  H  H182  1  0.807900  0.002400  0.014000  1.0  0.1212
  H  H183  1  0.628700  0.947400  0.059300  1.0  0.1228
  H  H184  1  0.530600  0.964800  0.051700  1.0  0.1055
  H  H185  1  0.523200  0.046600  0.019300  1.0  0.0835
  H  H186  1  0.751400  0.871500  0.031900  1.0  0.1172
  H  H187  1  0.813900  0.827300  0.056200  1.0  0.0713
  H  H188  1  0.827500  0.027500  0.103600  1.0  0.1194
  H  H189  1  0.773600  0.150700  0.110500  1.0  0.1429
  H  H190  1  0.716900  0.193900  0.087000  1.0  0.0745
  H  H191  1  0.693800  0.121400  0.059000  1.0  0.0819
  H  H192  1  0.842900  0.055400  0.241800  1.0  0.0847
  H  H193  1  0.831000  0.133100  0.208900  1.0  0.1152
  H  H194  1  0.848600  0.032300  0.180900  1.0  0.1142
  H  H195  1  0.956500  0.889800  0.168100  1.0  0.212
  H  H196  1  0.952900  0.882200  0.132100  1.0  0.2453
  H  H197  1  0.974200  0.890100  0.114300  1.0  0.1811
  H  H198  1  0.054500  0.903400  0.131500  1.0  0.0881
  H  H199  1  0.059600  0.917400  0.166600  1.0  0.1181
  H  H200  1  0.974800  0.905700  0.185000  1.0  0.1345
  H  H201  1  0.770800  0.875400  0.219500  1.0  0.0899
  H  H202  1  0.680100  0.819500  0.229800  1.0  0.1299
  H  H203  1  0.692100  0.752400  0.264000  1.0  0.121
  H  H204  1  0.871300  0.697400  0.309300  1.0  0.1232
  H  H205  1  0.969400  0.714800  0.301700  1.0  0.106
  H  H206  1  0.976800  0.796600  0.269300  1.0  0.0826
  H  H207  1  0.748600  0.621500  0.281900  1.0  0.1174
  H  H208  1  0.686100  0.577300  0.306200  1.0  0.0718
  H  H209  1  0.672500  0.777500  0.353600  1.0  0.1195
  H  H210  1  0.726400  0.900700  0.360500  1.0  0.1428
  H  H211  1  0.783100  0.943900  0.337000  1.0  0.0719
  H  H212  1  0.806200  0.871400  0.309000  1.0  0.0811
  H  H213  1  0.657100  0.805400  0.491800  1.0  0.085
  H  H214  1  0.669000  0.883100  0.458900  1.0  0.1161
  H  H215  1  0.651400  0.782300  0.430900  1.0  0.1141
  H  H216  1  0.543500  0.639800  0.418100  1.0  0.2154
  H  H217  1  0.547100  0.632200  0.382100  1.0  0.2519
  H  H218  1  0.525800  0.640100  0.364300  1.0  0.1811
  H  H219  1  0.445500  0.653400  0.381500  1.0  0.0863
  H  H220  1  0.440400  0.667400  0.416600  1.0  0.1174
  H  H221  1  0.525200  0.655700  0.435000  1.0  0.1363
  H  H222  1  0.770800  0.375400  0.719500  1.0  0.0899
  H  H223  1  0.680100  0.319500  0.729800  1.0  0.13
  H  H224  1  0.692100  0.252400  0.764000  1.0  0.121
  H  H225  1  0.871300  0.197400  0.809300  1.0  0.1232
  H  H226  1  0.969400  0.214800  0.801700  1.0  0.106
  H  H227  1  0.976800  0.296600  0.769300  1.0  0.0826
  H  H228  1  0.748600  0.121500  0.781900  1.0  0.1174
  H  H229  1  0.686100  0.077300  0.806200  1.0  0.0718
  H  H230  1  0.672500  0.277500  0.853600  1.0  0.1195
  H  H231  1  0.726400  0.400700  0.860500  1.0  0.1428
  H  H232  1  0.783100  0.443900  0.837000  1.0  0.0719
  H  H233  1  0.806200  0.371400  0.809000  1.0  0.0811
  H  H234  1  0.657100  0.305400  0.991800  1.0  0.085
  H  H235  1  0.669000  0.383100  0.958900  1.0  0.1161
  H  H236  1  0.651400  0.282300  0.930900  1.0  0.1141
  H  H237  1  0.543500  0.139800  0.918100  1.0  0.2154
  H  H238  1  0.547100  0.132200  0.882100  1.0  0.2519
  H  H239  1  0.525800  0.140100  0.864300  1.0  0.1811
  H  H240  1  0.445500  0.153400  0.881500  1.0  0.0863
  H  H241  1  0.440400  0.167400  0.916600  1.0  0.1174
  H  H242  1  0.525200  0.155700  0.935000  1.0  0.1363
  H  H243  1  0.270800  0.875400  0.719500  1.0  0.0899
  H  H244  1  0.180100  0.819500  0.729800  1.0  0.13
  H  H245  1  0.192100  0.752400  0.764000  1.0  0.121
  H  H246  1  0.371300  0.697400  0.809300  1.0  0.1232
  H  H247  1  0.469400  0.714800  0.801700  1.0  0.106
  H  H248  1  0.476800  0.796600  0.769300  1.0  0.0826
  H  H249  1  0.248600  0.621500  0.781900  1.0  0.1174
  H  H250  1  0.186100  0.577300  0.806200  1.0  0.0718
  H  H251  1  0.172500  0.777500  0.853600  1.0  0.1195
  H  H252  1  0.226400  0.900700  0.860500  1.0  0.1428
  H  H253  1  0.283100  0.943900  0.837000  1.0  0.0719
  H  H254  1  0.306200  0.871400  0.809000  1.0  0.0811
  H  H255  1  0.157100  0.805400  0.991800  1.0  0.085
  H  H256  1  0.169000  0.883100  0.958900  1.0  0.1161
  H  H257  1  0.151400  0.782300  0.930900  1.0  0.1141
  H  H258  1  0.043500  0.639800  0.918100  1.0  0.2154
  H  H259  1  0.047100  0.632200  0.882100  1.0  0.2519
  H  H260  1  0.025800  0.640100  0.864300  1.0  0.1811
  H  H261  1  0.945500  0.653400  0.881500  1.0  0.0863
  H  H262  1  0.940400  0.667400  0.916600  1.0  0.1174
  H  H263  1  0.025200  0.655700  0.935000  1.0  0.1363
  H  H264  1  0.270800  0.375400  0.219500  1.0  0.0899
  H  H265  1  0.180100  0.319500  0.229800  1.0  0.1299
  H  H266  1  0.192100  0.252400  0.264000  1.0  0.121
  H  H267  1  0.371300  0.197400  0.309300  1.0  0.1232
  H  H268  1  0.469400  0.214800  0.301700  1.0  0.106
  H  H269  1  0.476800  0.296600  0.269300  1.0  0.0826
  H  H270  1  0.248600  0.121500  0.281900  1.0  0.1174
  H  H271  1  0.186100  0.077300  0.306200  1.0  0.0718
  H  H272  1  0.172500  0.277500  0.353600  1.0  0.1195
  H  H273  1  0.226400  0.400700  0.360500  1.0  0.1428
  H  H274  1  0.283100  0.443900  0.337000  1.0  0.0719
  H  H275  1  0.306200  0.371400  0.309000  1.0  0.0811
  H  H276  1  0.157100  0.305400  0.491800  1.0  0.085
  H  H277  1  0.169000  0.383100  0.458900  1.0  0.1161
  H  H278  1  0.151400  0.282300  0.430900  1.0  0.1141
  H  H279  1  0.043500  0.139800  0.418100  1.0  0.2154
  H  H280  1  0.047100  0.132200  0.382100  1.0  0.2519
  H  H281  1  0.025800  0.140100  0.364300  1.0  0.1811
  H  H282  1  0.945500  0.153400  0.381500  1.0  0.0863
  H  H283  1  0.940400  0.167400  0.416600  1.0  0.1174
  H  H284  1  0.025200  0.155700  0.435000  1.0  0.1363
  H  H285  1  0.479200  0.374600  0.219500  1.0  0.0906
  H  H286  1  0.569900  0.430500  0.229800  1.0  0.1293
  H  H287  1  0.557900  0.497600  0.264000  1.0  0.1218
  H  H288  1  0.378700  0.552600  0.309300  1.0  0.1224
  H  H289  1  0.280600  0.535200  0.301700  1.0  0.1051
  H  H290  1  0.273200  0.453400  0.269300  1.0  0.0833
  H  H291  1  0.501400  0.628500  0.281900  1.0  0.1189
  H  H292  1  0.563900  0.672700  0.306200  1.0  0.0721
  H  H293  1  0.577500  0.472500  0.353600  1.0  0.1195
  H  H294  1  0.523600  0.349300  0.360500  1.0  0.1431
  H  H295  1  0.466900  0.306100  0.337000  1.0  0.0746
  H  H296  1  0.443800  0.378600  0.309000  1.0  0.082
  H  H297  1  0.592900  0.444600  0.491800  1.0  0.0842
  H  H298  1  0.581000  0.366900  0.458900  1.0  0.1151
  H  H299  1  0.598600  0.467700  0.430900  1.0  0.1138
  H  H300  1  0.706500  0.610200  0.418100  1.0  0.2107
  H  H301  1  0.702900  0.617800  0.382100  1.0  0.2467
  H  H302  1  0.724200  0.609900  0.364300  1.0  0.1802
  H  H303  1  0.804500  0.596600  0.381500  1.0  0.0881
  H  H304  1  0.809600  0.582600  0.416600  1.0  0.1176
  H  H305  1  0.724800  0.594300  0.435000  1.0  0.135
  H  H306  1  0.479200  0.874600  0.719500  1.0  0.0906
  H  H307  1  0.569900  0.930500  0.729800  1.0  0.1294
  H  H308  1  0.557900  0.997600  0.764000  1.0  0.1218
  H  H309  1  0.378700  0.052600  0.809300  1.0  0.1224
  H  H310  1  0.280600  0.035200  0.801700  1.0  0.1051
  H  H311  1  0.273200  0.953400  0.769300  1.0  0.0833
  H  H312  1  0.501400  0.128500  0.781900  1.0  0.1189
  H  H313  1  0.563900  0.172700  0.806200  1.0  0.0721
  H  H314  1  0.577500  0.972500  0.853600  1.0  0.1195
  H  H315  1  0.523600  0.849300  0.860500  1.0  0.1431
  H  H316  1  0.466900  0.806100  0.837000  1.0  0.0746
  H  H317  1  0.443800  0.878600  0.809000  1.0  0.082
  H  H318  1  0.592900  0.944600  0.991800  1.0  0.0842
  H  H319  1  0.581000  0.866900  0.958900  1.0  0.1151
  H  H320  1  0.598600  0.967700  0.930900  1.0  0.1138
  H  H321  1  0.706500  0.110200  0.918100  1.0  0.2107
  H  H322  1  0.702900  0.117800  0.882100  1.0  0.2467
  H  H323  1  0.724200  0.109900  0.864300  1.0  0.1802
  H  H324  1  0.804500  0.096600  0.881500  1.0  0.0881
  H  H325  1  0.809600  0.082600  0.916600  1.0  0.1176
  H  H326  1  0.724800  0.094300  0.935000  1.0  0.135
  H  H327  1  0.979200  0.374600  0.719500  1.0  0.0906
  H  H328  1  0.069900  0.430500  0.729800  1.0  0.1294
  H  H329  1  0.057900  0.497600  0.764000  1.0  0.1218
  H  H330  1  0.878700  0.552600  0.809300  1.0  0.1224
  H  H331  1  0.780600  0.535200  0.801700  1.0  0.1051
  H  H332  1  0.773200  0.453400  0.769300  1.0  0.0833
  H  H333  1  0.001400  0.628500  0.781900  1.0  0.1189
  H  H334  1  0.063900  0.672700  0.806200  1.0  0.0721
  H  H335  1  0.077500  0.472500  0.853600  1.0  0.1195
  H  H336  1  0.023600  0.349300  0.860500  1.0  0.1431
  H  H337  1  0.966900  0.306100  0.837000  1.0  0.0746
  H  H338  1  0.943800  0.378600  0.809000  1.0  0.082
  H  H339  1  0.092900  0.444600  0.991800  1.0  0.0842
  H  H340  1  0.081000  0.366900  0.958900  1.0  0.1151
  H  H341  1  0.098600  0.467700  0.930900  1.0  0.1138
  H  H342  1  0.206500  0.610200  0.918100  1.0  0.2107
  H  H343  1  0.202900  0.617800  0.882100  1.0  0.2467
  H  H344  1  0.224200  0.609900  0.864300  1.0  0.1802
  H  H345  1  0.304500  0.596600  0.881500  1.0  0.0881
  H  H346  1  0.309600  0.582600  0.916600  1.0  0.1176
  H  H347  1  0.224800  0.594300  0.935000  1.0  0.135
  H  H348  1  0.979200  0.874600  0.219500  1.0  0.0906
  H  H349  1  0.069900  0.930500  0.229800  1.0  0.1293
  H  H350  1  0.057900  0.997600  0.264000  1.0  0.1218
  H  H351  1  0.878700  0.052600  0.309300  1.0  0.1224
  H  H352  1  0.780600  0.035200  0.301700  1.0  0.1051
  H  H353  1  0.773200  0.953400  0.269300  1.0  0.0833
  H  H354  1  0.001400  0.128500  0.281900  1.0  0.1189
  H  H355  1  0.063900  0.172700  0.306200  1.0  0.0721
  H  H356  1  0.077500  0.972500  0.353600  1.0  0.1195
  H  H357  1  0.023600  0.849300  0.360500  1.0  0.1431
  H  H358  1  0.966900  0.806100  0.337000  1.0  0.0746
  H  H359  1  0.943800  0.878600  0.309000  1.0  0.082
  H  H360  1  0.092900  0.944600  0.491800  1.0  0.0842
  H  H361  1  0.081000  0.866900  0.458900  1.0  0.1151
  H  H362  1  0.098600  0.967700  0.430900  1.0  0.1138
  H  H363  1  0.206500  0.110200  0.418100  1.0  0.2107
  H  H364  1  0.202900  0.117800  0.382100  1.0  0.2467
  H  H365  1  0.224200  0.109900  0.364300  1.0  0.1802
  H  H366  1  0.304500  0.096600  0.381500  1.0  0.0881
  H  H367  1  0.309600  0.082600  0.416600  1.0  0.1176
  H  H368  1  0.224800  0.094300  0.435000  1.0  0.135
  H  H369  1  0.229200  0.124600  0.780500  1.0  0.0907
  H  H370  1  0.319900  0.180500  0.770200  1.0  0.1288
  H  H371  1  0.307900  0.247600  0.736000  1.0  0.1219
  H  H372  1  0.128700  0.302600  0.690700  1.0  0.1227
  H  H373  1  0.030600  0.285200  0.698300  1.0  0.1051
  H  H374  1  0.023200  0.203400  0.730700  1.0  0.0836
  H  H375  1  0.251400  0.378500  0.718100  1.0  0.1192
  H  H376  1  0.313900  0.422700  0.693800  1.0  0.0727
  H  H377  1  0.327500  0.222500  0.646400  1.0  0.1199
  H  H378  1  0.273600  0.099300  0.639500  1.0  0.1434
  H  H379  1  0.216900  0.056100  0.663000  1.0  0.0724
  H  H380  1  0.193800  0.128600  0.691000  1.0  0.082
  H  H381  1  0.342900  0.194600  0.508200  1.0  0.0838
  H  H382  1  0.331000  0.116900  0.541100  1.0  0.1151
  H  H383  1  0.348600  0.217700  0.569100  1.0  0.1118
  H  H384  1  0.456500  0.360200  0.581900  1.0  0.2108
  H  H385  1  0.452900  0.367800  0.617900  1.0  0.2472
  H  H386  1  0.474200  0.359900  0.635700  1.0  0.1789
  H  H387  1  0.554500  0.346600  0.618500  1.0  0.0881
  H  H388  1  0.559600  0.332600  0.583400  1.0  0.1151
  H  H389  1  0.474800  0.344300  0.565000  1.0  0.1366
  H  H390  1  0.229200  0.624600  0.280500  1.0  0.0907
  H  H391  1  0.319900  0.680500  0.270200  1.0  0.1288
  H  H392  1  0.307900  0.747600  0.236000  1.0  0.1219
  H  H393  1  0.128700  0.802600  0.190700  1.0  0.1225
  H  H394  1  0.030600  0.785200  0.198300  1.0  0.1055
  H  H395  1  0.023200  0.703400  0.230700  1.0  0.0836
  H  H396  1  0.251400  0.878500  0.218100  1.0  0.1192
  H  H397  1  0.313900  0.922700  0.193800  1.0  0.0727
  H  H398  1  0.327500  0.722500  0.146400  1.0  0.1199
  H  H399  1  0.273600  0.599300  0.139500  1.0  0.1434
  H  H400  1  0.216900  0.556100  0.163000  1.0  0.0724
  H  H401  1  0.193800  0.628600  0.191000  1.0  0.082
  H  H402  1  0.342900  0.694600  0.008200  1.0  0.0838
  H  H403  1  0.331000  0.616900  0.041100  1.0  0.1151
  H  H404  1  0.348600  0.717700  0.069100  1.0  0.1118
  H  H405  1  0.456500  0.860200  0.081900  1.0  0.2108
  H  H406  1  0.452900  0.867800  0.117900  1.0  0.2472
  H  H407  1  0.474200  0.859900  0.135700  1.0  0.1789
  H  H408  1  0.554500  0.846600  0.118500  1.0  0.0881
  H  H409  1  0.559600  0.832600  0.083400  1.0  0.1151
  H  H410  1  0.474800  0.844300  0.065000  1.0  0.1366
  H  H411  1  0.729200  0.124600  0.280500  1.0  0.0907
  H  H412  1  0.819900  0.180500  0.270200  1.0  0.1288
  H  H413  1  0.807900  0.247600  0.236000  1.0  0.1219
  H  H414  1  0.628700  0.302600  0.190700  1.0  0.1225
  H  H415  1  0.530600  0.285200  0.198300  1.0  0.1055
  H  H416  1  0.523200  0.203400  0.230700  1.0  0.0836
  H  H417  1  0.751400  0.378500  0.218100  1.0  0.1192
  H  H418  1  0.813900  0.422700  0.193800  1.0  0.0727
  H  H419  1  0.827500  0.222500  0.146400  1.0  0.1199
  H  H420  1  0.773600  0.099300  0.139500  1.0  0.1434
  H  H421  1  0.716900  0.056100  0.163000  1.0  0.0724
  H  H422  1  0.693800  0.128600  0.191000  1.0  0.082
  H  H423  1  0.842900  0.194600  0.008200  1.0  0.0838
  H  H424  1  0.831000  0.116900  0.041100  1.0  0.1151
  H  H425  1  0.848600  0.217700  0.069100  1.0  0.1118
  H  H426  1  0.956500  0.360200  0.081900  1.0  0.2108
  H  H427  1  0.952900  0.367800  0.117900  1.0  0.2472
  H  H428  1  0.974200  0.359900  0.135700  1.0  0.1789
  H  H429  1  0.054500  0.346600  0.118500  1.0  0.0881
  H  H430  1  0.059600  0.332600  0.083400  1.0  0.1151
  H  H431  1  0.974800  0.344300  0.065000  1.0  0.1366
  H  H432  1  0.729200  0.624600  0.780500  1.0  0.0907
  H  H433  1  0.819900  0.680500  0.770200  1.0  0.1288
  H  H434  1  0.807900  0.747600  0.736000  1.0  0.1219
  H  H435  1  0.628700  0.802600  0.690700  1.0  0.1227
  H  H436  1  0.530600  0.785200  0.698300  1.0  0.1051
  H  H437  1  0.523200  0.703400  0.730700  1.0  0.0836
  H  H438  1  0.751400  0.878500  0.718100  1.0  0.1192
  H  H439  1  0.813900  0.922700  0.693800  1.0  0.0727
  H  H440  1  0.827500  0.722500  0.646400  1.0  0.1199
  H  H441  1  0.773600  0.599300  0.639500  1.0  0.1434
  H  H442  1  0.716900  0.556100  0.663000  1.0  0.0724
  H  H443  1  0.693800  0.628600  0.691000  1.0  0.082
  H  H444  1  0.842900  0.694600  0.508200  1.0  0.0838
  H  H445  1  0.831000  0.616900  0.541100  1.0  0.1151
  H  H446  1  0.848600  0.717700  0.569100  1.0  0.1118
  H  H447  1  0.956500  0.860200  0.581900  1.0  0.2108
  H  H448  1  0.952900  0.867800  0.617900  1.0  0.2472
  H  H449  1  0.974200  0.859900  0.635700  1.0  0.1789
  H  H450  1  0.054500  0.846600  0.618500  1.0  0.0881
  H  H451  1  0.059600  0.832600  0.583400  1.0  0.1151
  H  H452  1  0.974800  0.844300  0.565000  1.0  0.1366
  H  H453  1  0.520800  0.625400  0.780500  1.0  0.0905
  H  H454  1  0.430100  0.569500  0.770200  1.0  0.1312
  H  H455  1  0.442100  0.502400  0.736000  1.0  0.1215
  H  H456  1  0.621300  0.447400  0.690700  1.0  0.1229
  H  H457  1  0.719400  0.464800  0.698300  1.0  0.1058
  H  H458  1  0.726800  0.546600  0.730700  1.0  0.0828
  H  H459  1  0.498600  0.371500  0.718100  1.0  0.1181
  H  H460  1  0.436100  0.327300  0.693800  1.0  0.0725
  H  H461  1  0.422500  0.527500  0.646400  1.0  0.12
  H  H462  1  0.476400  0.650700  0.639500  1.0  0.143
  H  H463  1  0.533100  0.693900  0.663000  1.0  0.0734
  H  H464  1  0.556200  0.621400  0.691000  1.0  0.0816
  H  H465  1  0.407100  0.555400  0.508200  1.0  0.0846
  H  H466  1  0.419000  0.633100  0.541100  1.0  0.1164
  H  H467  1  0.401400  0.532300  0.569100  1.0  0.1132
  H  H468  1  0.293500  0.389800  0.581900  1.0  0.2154
  H  H469  1  0.297100  0.382200  0.617900  1.0  0.2534
  H  H470  1  0.275800  0.390100  0.635700  1.0  0.1817
  H  H471  1  0.195500  0.403400  0.618500  1.0  0.0867
  H  H472  1  0.190400  0.417400  0.583400  1.0  0.1142
  H  H473  1  0.275200  0.405700  0.565000  1.0  0.1368
  H  H474  1  0.520800  0.125400  0.280500  1.0  0.0905
  H  H475  1  0.430100  0.069500  0.270200  1.0  0.1312
  H  H476  1  0.442100  0.002400  0.236000  1.0  0.1215
  H  H477  1  0.621300  0.947400  0.190700  1.0  0.1227
  H  H478  1  0.719400  0.964800  0.198300  1.0  0.1061
  H  H479  1  0.726800  0.046600  0.230700  1.0  0.0828
  H  H480  1  0.498600  0.871500  0.218100  1.0  0.1181
  H  H481  1  0.436100  0.827300  0.193800  1.0  0.0725
  H  H482  1  0.422500  0.027500  0.146400  1.0  0.12
  H  H483  1  0.476400  0.150700  0.139500  1.0  0.143
  H  H484  1  0.533100  0.193900  0.163000  1.0  0.0734
  H  H485  1  0.556200  0.121400  0.191000  1.0  0.0816
  H  H486  1  0.407100  0.055400  0.008200  1.0  0.0846
  H  H487  1  0.419000  0.133100  0.041100  1.0  0.1164
  H  H488  1  0.401400  0.032300  0.069100  1.0  0.1132
  H  H489  1  0.293500  0.889800  0.081900  1.0  0.2154
  H  H490  1  0.297100  0.882200  0.117900  1.0  0.2534
  H  H491  1  0.275800  0.890100  0.135700  1.0  0.1817
  H  H492  1  0.195500  0.903400  0.118500  1.0  0.0867
  H  H493  1  0.190400  0.917400  0.083400  1.0  0.1142
  H  H494  1  0.275200  0.905700  0.065000  1.0  0.1368
  H  H495  1  0.020800  0.625400  0.280500  1.0  0.0905
  H  H496  1  0.930100  0.569500  0.270200  1.0  0.1312
  H  H497  1  0.942100  0.502400  0.236000  1.0  0.1215
  H  H498  1  0.121300  0.447400  0.190700  1.0  0.1227
  H  H499  1  0.219400  0.464800  0.198300  1.0  0.1061
  H  H500  1  0.226800  0.546600  0.230700  1.0  0.0828
  H  H501  1  0.998600  0.371500  0.218100  1.0  0.1181
  H  H502  1  0.936100  0.327300  0.193800  1.0  0.0725
  H  H503  1  0.922500  0.527500  0.146400  1.0  0.12
  H  H504  1  0.976400  0.650700  0.139500  1.0  0.143
  H  H505  1  0.033100  0.693900  0.163000  1.0  0.0734
  H  H506  1  0.056200  0.621400  0.191000  1.0  0.0816
  H  H507  1  0.907100  0.555400  0.008200  1.0  0.0846
  H  H508  1  0.919000  0.633100  0.041100  1.0  0.1164
  H  H509  1  0.901400  0.532300  0.069100  1.0  0.1132
  H  H510  1  0.793500  0.389800  0.081900  1.0  0.2154
  H  H511  1  0.797100  0.382200  0.117900  1.0  0.2534
  H  H512  1  0.775800  0.390100  0.135700  1.0  0.1817
  H  H513  1  0.695500  0.403400  0.118500  1.0  0.0867
  H  H514  1  0.690400  0.417400  0.083400  1.0  0.1142
  H  H515  1  0.775200  0.405700  0.065000  1.0  0.1368
  H  H516  1  0.020800  0.125400  0.780500  1.0  0.0905
  H  H517  1  0.930100  0.069500  0.770200  1.0  0.1312
  H  H518  1  0.942100  0.002400  0.736000  1.0  0.1215
  H  H519  1  0.121300  0.947400  0.690700  1.0  0.1229
  H  H520  1  0.219400  0.964800  0.698300  1.0  0.1058
  H  H521  1  0.226800  0.046600  0.730700  1.0  0.0828
  H  H522  1  0.998600  0.871500  0.718100  1.0  0.1181
  H  H523  1  0.936100  0.827300  0.693800  1.0  0.0725
  H  H524  1  0.922500  0.027500  0.646400  1.0  0.12
  H  H525  1  0.976400  0.150700  0.639500  1.0  0.143
  H  H526  1  0.033100  0.193900  0.663000  1.0  0.0734
  H  H527  1  0.056200  0.121400  0.691000  1.0  0.0816
  H  H528  1  0.907100  0.055400  0.508200  1.0  0.0846
  H  H529  1  0.919000  0.133100  0.541100  1.0  0.1164
  H  H530  1  0.901400  0.032300  0.569100  1.0  0.1132
  H  H531  1  0.793500  0.889800  0.581900  1.0  0.2154
  H  H532  1  0.797100  0.882200  0.617900  1.0  0.2534
  H  H533  1  0.775800  0.890100  0.635700  1.0  0.1817
  H  H534  1  0.695500  0.903400  0.618500  1.0  0.0867
  H  H535  1  0.690400  0.917400  0.583400  1.0  0.1142
  H  H536  1  0.775200  0.905700  0.565000  1.0  0.1368
  H  H537  1  0.479200  0.875400  0.030500  1.0  0.0901
  H  H538  1  0.569900  0.819500  0.020200  1.0  0.1302
  H  H539  1  0.557900  0.752400  0.986000  1.0  0.1216
  H  H540  1  0.378700  0.697400  0.940700  1.0  0.1227
  H  H541  1  0.280600  0.714800  0.948300  1.0  0.1054
  H  H542  1  0.273200  0.796600  0.980700  1.0  0.0836
  H  H543  1  0.501400  0.621500  0.968100  1.0  0.1181
  H  H544  1  0.563900  0.577300  0.943800  1.0  0.0721
  H  H545  1  0.577500  0.777500  0.896400  1.0  0.1199
  H  H546  1  0.523600  0.900700  0.889500  1.0  0.1429
  H  H547  1  0.466900  0.943900  0.913000  1.0  0.0725
  H  H548  1  0.443800  0.871400  0.941000  1.0  0.082
  H  H549  1  0.592900  0.805400  0.758200  1.0  0.0845
  H  H550  1  0.581000  0.883100  0.791100  1.0  0.115
  H  H551  1  0.598600  0.782300  0.819100  1.0  0.1127
  H  H552  1  0.706500  0.639800  0.831900  1.0  0.2121
  H  H553  1  0.702900  0.632200  0.867900  1.0  0.2465
  H  H554  1  0.724200  0.640100  0.885700  1.0  0.1796
  H  H555  1  0.804500  0.653400  0.868500  1.0  0.0884
  H  H556  1  0.809600  0.667400  0.833400  1.0  0.1152
  H  H557  1  0.724800  0.655700  0.815000  1.0  0.1369
  H  H558  1  0.479200  0.375400  0.530500  1.0  0.0901
  H  H559  1  0.569900  0.319500  0.520200  1.0  0.1302
  H  H560  1  0.557900  0.252400  0.486000  1.0  0.1216
  H  H561  1  0.378700  0.197400  0.440700  1.0  0.1227
  H  H562  1  0.280600  0.214800  0.448300  1.0  0.1054
  H  H563  1  0.273200  0.296600  0.480700  1.0  0.0836
  H  H564  1  0.501400  0.121500  0.468100  1.0  0.1181
  H  H565  1  0.563900  0.077300  0.443800  1.0  0.0721
  H  H566  1  0.577500  0.277500  0.396400  1.0  0.1199
  H  H567  1  0.523600  0.400700  0.389500  1.0  0.1429
  H  H568  1  0.466900  0.443900  0.413000  1.0  0.0725
  H  H569  1  0.443800  0.371400  0.441000  1.0  0.082
  H  H570  1  0.592900  0.305400  0.258200  1.0  0.0845
  H  H571  1  0.581000  0.383100  0.291100  1.0  0.115
  H  H572  1  0.598600  0.282300  0.319100  1.0  0.1127
  H  H573  1  0.706500  0.139800  0.331900  1.0  0.2121
  H  H574  1  0.702900  0.132200  0.367900  1.0  0.2465
  H  H575  1  0.724200  0.140100  0.385700  1.0  0.1796
  H  H576  1  0.804500  0.153400  0.368500  1.0  0.0884
  H  H577  1  0.809600  0.167400  0.333400  1.0  0.1152
  H  H578  1  0.724800  0.155700  0.315000  1.0  0.1369
  H  H579  1  0.979200  0.875400  0.530500  1.0  0.0901
  H  H580  1  0.069900  0.819500  0.520200  1.0  0.1302
  H  H581  1  0.057900  0.752400  0.486000  1.0  0.1216
  H  H582  1  0.878700  0.697400  0.440700  1.0  0.1227
  H  H583  1  0.780600  0.714800  0.448300  1.0  0.1054
  H  H584  1  0.773200  0.796600  0.480700  1.0  0.0836
  H  H585  1  0.001400  0.621500  0.468100  1.0  0.1181
  H  H586  1  0.063900  0.577300  0.443800  1.0  0.0721
  H  H587  1  0.077500  0.777500  0.396400  1.0  0.1199
  H  H588  1  0.023600  0.900700  0.389500  1.0  0.1429
  H  H589  1  0.966900  0.943900  0.413000  1.0  0.0725
  H  H590  1  0.943800  0.871400  0.441000  1.0  0.082
  H  H591  1  0.092900  0.805400  0.258200  1.0  0.0845
  H  H592  1  0.081000  0.883100  0.291100  1.0  0.115
  H  H593  1  0.098600  0.782300  0.319100  1.0  0.1127
  H  H594  1  0.206500  0.639800  0.331900  1.0  0.2121
  H  H595  1  0.202900  0.632200  0.367900  1.0  0.2465
  H  H596  1  0.224200  0.640100  0.385700  1.0  0.1796
  H  H597  1  0.304500  0.653400  0.368500  1.0  0.0884
  H  H598  1  0.309600  0.667400  0.333400  1.0  0.1152
  H  H599  1  0.224800  0.655700  0.315000  1.0  0.1369
  H  H600  1  0.979200  0.375400  0.030500  1.0  0.0901
  H  H601  1  0.069900  0.319500  0.020200  1.0  0.1302
  H  H602  1  0.057900  0.252400  0.986000  1.0  0.1216
  H  H603  1  0.878700  0.197400  0.940700  1.0  0.1227
  H  H604  1  0.780600  0.214800  0.948300  1.0  0.1054
  H  H605  1  0.773200  0.296600  0.980700  1.0  0.0836
  H  H606  1  0.001400  0.121500  0.968100  1.0  0.1181
  H  H607  1  0.063900  0.077300  0.943800  1.0  0.0721
  H  H608  1  0.077500  0.277500  0.896400  1.0  0.1199
  H  H609  1  0.023600  0.400700  0.889500  1.0  0.1429
  H  H610  1  0.966900  0.443900  0.913000  1.0  0.0725
  H  H611  1  0.943800  0.371400  0.941000  1.0  0.082
  H  H612  1  0.092900  0.305400  0.758200  1.0  0.0845
  H  H613  1  0.081000  0.383100  0.791100  1.0  0.115
  H  H614  1  0.098600  0.282300  0.819100  1.0  0.1127
  H  H615  1  0.206500  0.139800  0.831900  1.0  0.2121
  H  H616  1  0.202900  0.132200  0.867900  1.0  0.2465
  H  H617  1  0.224200  0.140100  0.885700  1.0  0.1796
  H  H618  1  0.304500  0.153400  0.868500  1.0  0.0884
  H  H619  1  0.309600  0.167400  0.833400  1.0  0.1152
  H  H620  1  0.224800  0.155700  0.815000  1.0  0.1369
  H  H621  1  0.770800  0.374600  0.030500  1.0  0.0905
  H  H622  1  0.680100  0.430500  0.020200  1.0  0.1294
  H  H623  1  0.692100  0.497600  0.986000  1.0  0.1215
  H  H624  1  0.871300  0.552600  0.940700  1.0  0.1228
  H  H625  1  0.969400  0.535200  0.948300  1.0  0.1058
  H  H626  1  0.976800  0.453400  0.980700  1.0  0.083
  H  H627  1  0.748600  0.628500  0.968100  1.0  0.1192
  H  H628  1  0.686100  0.672700  0.943800  1.0  0.0731
  H  H629  1  0.672500  0.472500  0.896400  1.0  0.1197
  H  H630  1  0.726400  0.349300  0.889500  1.0  0.1436
  H  H631  1  0.783100  0.306100  0.913000  1.0  0.0737
  H  H632  1  0.806200  0.378600  0.941000  1.0  0.0818
  H  H633  1  0.657100  0.444600  0.758200  1.0  0.0843
  H  H634  1  0.669000  0.366900  0.791100  1.0  0.1166
  H  H635  1  0.651400  0.467700  0.819100  1.0  0.1125
  H  H636  1  0.543500  0.610200  0.831900  1.0  0.2146
  H  H637  1  0.547100  0.617800  0.867900  1.0  0.254
  H  H638  1  0.525800  0.609900  0.885700  1.0  0.1813
  H  H639  1  0.445500  0.596600  0.868500  1.0  0.0869
  H  H640  1  0.440400  0.582600  0.833400  1.0  0.1142
  H  H641  1  0.525200  0.594300  0.815000  1.0  0.1388
  H  H642  1  0.770800  0.874600  0.530500  1.0  0.0905
  H  H643  1  0.680100  0.930500  0.520200  1.0  0.1294
  H  H644  1  0.692100  0.997600  0.486000  1.0  0.1215
  H  H645  1  0.871300  0.052600  0.440700  1.0  0.1228
  H  H646  1  0.969400  0.035200  0.448300  1.0  0.1058
  H  H647  1  0.976800  0.953400  0.480700  1.0  0.083
  H  H648  1  0.748600  0.128500  0.468100  1.0  0.1192
  H  H649  1  0.686100  0.172700  0.443800  1.0  0.0731
  H  H650  1  0.672500  0.972500  0.396400  1.0  0.1197
  H  H651  1  0.726400  0.849300  0.389500  1.0  0.1436
  H  H652  1  0.783100  0.806100  0.413000  1.0  0.0737
  H  H653  1  0.806200  0.878600  0.441000  1.0  0.0818
  H  H654  1  0.657100  0.944600  0.258200  1.0  0.0843
  H  H655  1  0.669000  0.866900  0.291100  1.0  0.1166
  H  H656  1  0.651400  0.967700  0.319100  1.0  0.1125
  H  H657  1  0.543500  0.110200  0.331900  1.0  0.2146
  H  H658  1  0.547100  0.117800  0.367900  1.0  0.254
  H  H659  1  0.525800  0.109900  0.385700  1.0  0.1813
  H  H660  1  0.445500  0.096600  0.368500  1.0  0.0869
  H  H661  1  0.440400  0.082600  0.333400  1.0  0.1142
  H  H662  1  0.525200  0.094300  0.315000  1.0  0.1388
  H  H663  1  0.270800  0.374600  0.530500  1.0  0.0905
  H  H664  1  0.180100  0.430500  0.520200  1.0  0.1294
  H  H665  1  0.192100  0.497600  0.486000  1.0  0.1215
  H  H666  1  0.371300  0.552600  0.440700  1.0  0.1228
  H  H667  1  0.469400  0.535200  0.448300  1.0  0.1058
  H  H668  1  0.476800  0.453400  0.480700  1.0  0.083
  H  H669  1  0.248600  0.628500  0.468100  1.0  0.1192
  H  H670  1  0.186100  0.672700  0.443800  1.0  0.0731
  H  H671  1  0.172500  0.472500  0.396400  1.0  0.1197
  H  H672  1  0.226400  0.349300  0.389500  1.0  0.1436
  H  H673  1  0.283100  0.306100  0.413000  1.0  0.0737
  H  H674  1  0.306200  0.378600  0.441000  1.0  0.0818
  H  H675  1  0.157100  0.444600  0.258200  1.0  0.0843
  H  H676  1  0.169000  0.366900  0.291100  1.0  0.1166
  H  H677  1  0.151400  0.467700  0.319100  1.0  0.1125
  H  H678  1  0.043500  0.610200  0.331900  1.0  0.2146
  H  H679  1  0.047100  0.617800  0.367900  1.0  0.254
  H  H680  1  0.025800  0.609900  0.385700  1.0  0.1813
  H  H681  1  0.945500  0.596600  0.368500  1.0  0.0869
  H  H682  1  0.940400  0.582600  0.333400  1.0  0.1142
  H  H683  1  0.025200  0.594300  0.315000  1.0  0.1388
  H  H684  1  0.270800  0.874600  0.030500  1.0  0.0905
  H  H685  1  0.180100  0.930500  0.020200  1.0  0.1294
  H  H686  1  0.192100  0.997600  0.986000  1.0  0.1215
  H  H687  1  0.371300  0.052600  0.940700  1.0  0.1228
  H  H688  1  0.469400  0.035200  0.948300  1.0  0.1058
  H  H689  1  0.476800  0.953400  0.980700  1.0  0.083
  H  H690  1  0.248600  0.128500  0.968100  1.0  0.1192
  H  H691  1  0.186100  0.172700  0.943800  1.0  0.0731
  H  H692  1  0.172500  0.972500  0.896400  1.0  0.1197
  H  H693  1  0.226400  0.849300  0.889500  1.0  0.1436
  H  H694  1  0.283100  0.806100  0.913000  1.0  0.0737
  H  H695  1  0.306200  0.878600  0.941000  1.0  0.0818
  H  H696  1  0.157100  0.944600  0.758200  1.0  0.0843
  H  H697  1  0.169000  0.866900  0.791100  1.0  0.1166
  H  H698  1  0.151400  0.967700  0.819100  1.0  0.1125
  H  H699  1  0.043500  0.110200  0.831900  1.0  0.2146
  H  H700  1  0.047100  0.117800  0.867900  1.0  0.254
  H  H701  1  0.025800  0.109900  0.885700  1.0  0.1813
  H  H702  1  0.945500  0.096600  0.868500  1.0  0.0869
  H  H703  1  0.940400  0.082600  0.833400  1.0  0.1142
  H  H704  1  0.025200  0.094300  0.815000  1.0  0.1388
  C  C705  1  0.513650  0.152100  0.981900  1.0  -0.0013
  C  C706  1  0.462710  0.183600  0.987430  1.0  -0.0957
  C  C707  1  0.469270  0.220400  0.006380  1.0  -0.115
  C  C708  1  0.523970  0.209100  0.011850  1.0  0.1563
  C  C709  1  0.551700  0.238200  0.029070  1.0  -0.0721
  C  C710  1  0.607240  0.237100  0.032150  1.0  0.1577
  C  C711  1  0.636340  0.275200  0.047970  1.0  -0.1828
  C  C712  1  0.689800  0.265100  0.043860  1.0  -0.149
  C  C713  1  0.693660  0.218900  0.025620  1.0  -0.0139
  C  C714  1  0.515640  0.273100  0.045400  1.0  0.024
  C  C715  1  0.490800  0.345500  0.043340  1.0  -0.1518
  C  C716  1  0.453400  0.372000  0.058070  1.0  0.1324
  C  C717  1  0.465100  0.256600  0.076890  1.0  0.0363
  C  C718  1  0.450900  0.206500  0.094660  1.0  -0.078
  C  C719  1  0.481900  0.129900  0.098410  1.0  -0.1527
  C  C720  1  0.515900  0.106800  0.085020  1.0  -0.1305
  C  C721  1  0.529400  0.150200  0.067890  1.0  -0.1459
  C  C722  1  0.504300  0.229000  0.062590  1.0  -0.0779
  C  C723  1  0.403430  0.217700  0.228630  1.0  0.0521
  C  C724  1  0.410000  0.172500  0.210310  1.0  -0.1541
  C  C725  1  0.400170  0.228200  0.195080  1.0  -0.0707
  C  C726  1  0.388130  0.302100  0.204010  1.0  0.1486
  C  C727  1  0.327100  0.367200  0.161200  1.0  -0.0977
  C  C728  1  0.330200  0.369900  0.139500  1.0  0.0301
  C  C729  1  0.276500  0.359400  0.128800  1.0  0.0323
  C  C730  1  0.228100  0.349000  0.139300  1.0  -0.1321
  C  C731  1  0.224000  0.342100  0.159800  1.0  -0.0973
  C  C732  1  0.275700  0.350400  0.170700  1.0  0.0463
  C  C733  1  0.513650  0.652100  0.481900  1.0  -0.0013
  C  C734  1  0.462710  0.683600  0.487430  1.0  -0.0957
  C  C735  1  0.469270  0.720400  0.506380  1.0  -0.115
  C  C736  1  0.523970  0.709100  0.511850  1.0  0.1563
  C  C737  1  0.551700  0.738200  0.529070  1.0  -0.0721
  C  C738  1  0.607240  0.737100  0.532150  1.0  0.1577
  C  C739  1  0.636340  0.775200  0.547970  1.0  -0.1828
  C  C740  1  0.689800  0.765100  0.543860  1.0  -0.149
  C  C741  1  0.693660  0.718900  0.525620  1.0  -0.0139
  C  C742  1  0.515640  0.773100  0.545400  1.0  0.024
  C  C743  1  0.490800  0.845500  0.543340  1.0  -0.1518
  C  C744  1  0.453400  0.872000  0.558070  1.0  0.1324
  C  C745  1  0.465100  0.756600  0.576890  1.0  0.0363
  C  C746  1  0.450900  0.706500  0.594660  1.0  -0.078
  C  C747  1  0.481900  0.629900  0.598410  1.0  -0.1527
  C  C748  1  0.515900  0.606800  0.585020  1.0  -0.1305
  C  C749  1  0.529400  0.650200  0.567890  1.0  -0.1459
  C  C750  1  0.504300  0.729000  0.562590  1.0  -0.0779
  C  C751  1  0.403430  0.717700  0.728630  1.0  0.0521
  C  C752  1  0.410000  0.672500  0.710310  1.0  -0.1541
  C  C753  1  0.400170  0.728200  0.695080  1.0  -0.0707
  C  C754  1  0.388130  0.802100  0.704010  1.0  0.1486
  C  C755  1  0.327100  0.867200  0.661200  1.0  -0.0977
  C  C756  1  0.330200  0.869900  0.639500  1.0  0.0301
  C  C757  1  0.276500  0.859400  0.628800  1.0  0.0323
  C  C758  1  0.228100  0.849000  0.639300  1.0  -0.13
  C  C759  1  0.224000  0.842100  0.659800  1.0  -0.1007
  C  C760  1  0.275700  0.850400  0.670700  1.0  0.0462
  C  C761  1  0.013650  0.152100  0.481900  1.0  -0.0013
  C  C762  1  0.962710  0.183600  0.487430  1.0  -0.0957
  C  C763  1  0.969270  0.220400  0.506380  1.0  -0.115
  C  C764  1  0.023970  0.209100  0.511850  1.0  0.1563
  C  C765  1  0.051700  0.238200  0.529070  1.0  -0.0721
  C  C766  1  0.107240  0.237100  0.532150  1.0  0.1577
  C  C767  1  0.136340  0.275200  0.547970  1.0  -0.1828
  C  C768  1  0.189800  0.265100  0.543860  1.0  -0.149
  C  C769  1  0.193660  0.218900  0.525620  1.0  -0.0139
  C  C770  1  0.015640  0.273100  0.545400  1.0  0.024
  C  C771  1  0.990800  0.345500  0.543340  1.0  -0.1518
  C  C772  1  0.953400  0.372000  0.558070  1.0  0.1324
  C  C773  1  0.965100  0.256600  0.576890  1.0  0.0363
  C  C774  1  0.950900  0.206500  0.594660  1.0  -0.078
  C  C775  1  0.981900  0.129900  0.598410  1.0  -0.1527
  C  C776  1  0.015900  0.106800  0.585020  1.0  -0.1305
  C  C777  1  0.029400  0.150200  0.567890  1.0  -0.1459
  C  C778  1  0.004300  0.229000  0.562590  1.0  -0.0779
  C  C779  1  0.903430  0.217700  0.728630  1.0  0.0521
  C  C780  1  0.910000  0.172500  0.710310  1.0  -0.1541
  C  C781  1  0.900170  0.228200  0.695080  1.0  -0.0707
  C  C782  1  0.888130  0.302100  0.704010  1.0  0.1486
  C  C783  1  0.827100  0.367200  0.661200  1.0  -0.0977
  C  C784  1  0.830200  0.369900  0.639500  1.0  0.0301
  C  C785  1  0.776500  0.359400  0.628800  1.0  0.0323
  C  C786  1  0.728100  0.349000  0.639300  1.0  -0.13
  C  C787  1  0.724000  0.342100  0.659800  1.0  -0.1007
  C  C788  1  0.775700  0.350400  0.670700  1.0  0.0462
  C  C789  1  0.013650  0.652100  0.981900  1.0  -0.0013
  C  C790  1  0.962710  0.683600  0.987430  1.0  -0.0957
  C  C791  1  0.969270  0.720400  0.006380  1.0  -0.115
  C  C792  1  0.023970  0.709100  0.011850  1.0  0.1563
  C  C793  1  0.051700  0.738200  0.029070  1.0  -0.0721
  C  C794  1  0.107240  0.737100  0.032150  1.0  0.1577
  C  C795  1  0.136340  0.775200  0.047970  1.0  -0.1828
  C  C796  1  0.189800  0.765100  0.043860  1.0  -0.149
  C  C797  1  0.193660  0.718900  0.025620  1.0  -0.0139
  C  C798  1  0.015640  0.773100  0.045400  1.0  0.024
  C  C799  1  0.990800  0.845500  0.043340  1.0  -0.1518
  C  C800  1  0.953400  0.872000  0.058070  1.0  0.1324
  C  C801  1  0.965100  0.756600  0.076890  1.0  0.0363
  C  C802  1  0.950900  0.706500  0.094660  1.0  -0.078
  C  C803  1  0.981900  0.629900  0.098410  1.0  -0.1527
  C  C804  1  0.015900  0.606800  0.085020  1.0  -0.1305
  C  C805  1  0.029400  0.650200  0.067890  1.0  -0.1459
  C  C806  1  0.004300  0.729000  0.062590  1.0  -0.0779
  C  C807  1  0.903430  0.717700  0.228630  1.0  0.0521
  C  C808  1  0.910000  0.672500  0.210310  1.0  -0.1541
  C  C809  1  0.900170  0.728200  0.195080  1.0  -0.0707
  C  C810  1  0.888130  0.802100  0.204010  1.0  0.1486
  C  C811  1  0.827100  0.867200  0.161200  1.0  -0.0977
  C  C812  1  0.830200  0.869900  0.139500  1.0  0.0301
  C  C813  1  0.776500  0.859400  0.128800  1.0  0.0323
  C  C814  1  0.728100  0.849000  0.139300  1.0  -0.1321
  C  C815  1  0.724000  0.842100  0.159800  1.0  -0.0973
  C  C816  1  0.775700  0.850400  0.170700  1.0  0.0463
  C  C817  1  0.236350  0.597900  0.981900  1.0  -0.0003
  C  C818  1  0.287290  0.566400  0.987430  1.0  -0.0933
  C  C819  1  0.280730  0.529600  0.006380  1.0  -0.1163
  C  C820  1  0.226030  0.540900  0.011850  1.0  0.1544
  C  C821  1  0.198300  0.511800  0.029070  1.0  -0.0736
  C  C822  1  0.142760  0.512900  0.032150  1.0  0.1584
  C  C823  1  0.113660  0.474800  0.047970  1.0  -0.1808
  C  C824  1  0.060200  0.484900  0.043860  1.0  -0.1488
  C  C825  1  0.056340  0.531100  0.025620  1.0  -0.0141
  C  C826  1  0.234360  0.476900  0.045400  1.0  0.0247
  C  C827  1  0.259200  0.404500  0.043340  1.0  -0.1549
  C  C828  1  0.296600  0.378000  0.058070  1.0  0.1322
  C  C829  1  0.284900  0.493400  0.076890  1.0  0.0365
  C  C830  1  0.299100  0.543500  0.094660  1.0  -0.076
  C  C831  1  0.268100  0.620100  0.098410  1.0  -0.1519
  C  C832  1  0.234100  0.643200  0.085020  1.0  -0.1309
  C  C833  1  0.220600  0.599800  0.067890  1.0  -0.1452
  C  C834  1  0.245700  0.521000  0.062590  1.0  -0.0787
  C  C835  1  0.346570  0.532300  0.228630  1.0  0.0491
  C  C836  1  0.340000  0.577500  0.210310  1.0  -0.1504
  C  C837  1  0.349830  0.521800  0.195080  1.0  -0.0716
  C  C838  1  0.361870  0.447900  0.204010  1.0  0.1489
  C  C839  1  0.422900  0.382800  0.161200  1.0  -0.0959
  C  C840  1  0.419800  0.380100  0.139500  1.0  0.0397
  C  C841  1  0.473500  0.390600  0.128800  1.0  0.0337
  C  C842  1  0.521900  0.401000  0.139300  1.0  -0.1284
  C  C843  1  0.526000  0.407900  0.159800  1.0  -0.1016
  C  C844  1  0.474300  0.399600  0.170700  1.0  0.0452
  C  C845  1  0.236350  0.097900  0.481900  1.0  -0.0003
  C  C846  1  0.287290  0.066400  0.487430  1.0  -0.0933
  C  C847  1  0.280730  0.029600  0.506380  1.0  -0.1163
  C  C848  1  0.226030  0.040900  0.511850  1.0  0.1544
  C  C849  1  0.198300  0.011800  0.529070  1.0  -0.0736
  C  C850  1  0.142760  0.012900  0.532150  1.0  0.1584
  C  C851  1  0.113660  0.974800  0.547970  1.0  -0.1808
  C  C852  1  0.060200  0.984900  0.543860  1.0  -0.1488
  C  C853  1  0.056340  0.031100  0.525620  1.0  -0.0141
  C  C854  1  0.234360  0.976900  0.545400  1.0  0.0247
  C  C855  1  0.259200  0.904500  0.543340  1.0  -0.1549
  C  C856  1  0.296600  0.878000  0.558070  1.0  0.1322
  C  C857  1  0.284900  0.993400  0.576890  1.0  0.0365
  C  C858  1  0.299100  0.043500  0.594660  1.0  -0.076
  C  C859  1  0.268100  0.120100  0.598410  1.0  -0.1519
  C  C860  1  0.234100  0.143200  0.585020  1.0  -0.1309
  C  C861  1  0.220600  0.099800  0.567890  1.0  -0.1452
  C  C862  1  0.245700  0.021000  0.562590  1.0  -0.0787
  C  C863  1  0.346570  0.032300  0.728630  1.0  0.0491
  C  C864  1  0.340000  0.077500  0.710310  1.0  -0.1504
  C  C865  1  0.349830  0.021800  0.695080  1.0  -0.0716
  C  C866  1  0.361870  0.947900  0.704010  1.0  0.1489
  C  C867  1  0.422900  0.882800  0.661200  1.0  -0.0959
  C  C868  1  0.419800  0.880100  0.639500  1.0  0.0397
  C  C869  1  0.473500  0.890600  0.628800  1.0  0.0337
  C  C870  1  0.521900  0.901000  0.639300  1.0  -0.1267
  C  C871  1  0.526000  0.907900  0.659800  1.0  -0.1054
  C  C872  1  0.474300  0.899600  0.670700  1.0  0.0451
  C  C873  1  0.736350  0.597900  0.481900  1.0  -0.0003
  C  C874  1  0.787290  0.566400  0.487430  1.0  -0.0933
  C  C875  1  0.780730  0.529600  0.506380  1.0  -0.1163
  C  C876  1  0.726030  0.540900  0.511850  1.0  0.1544
  C  C877  1  0.698300  0.511800  0.529070  1.0  -0.0736
  C  C878  1  0.642760  0.512900  0.532150  1.0  0.1584
  C  C879  1  0.613660  0.474800  0.547970  1.0  -0.1808
  C  C880  1  0.560200  0.484900  0.543860  1.0  -0.1488
  C  C881  1  0.556340  0.531100  0.525620  1.0  -0.0141
  C  C882  1  0.734360  0.476900  0.545400  1.0  0.0247
  C  C883  1  0.759200  0.404500  0.543340  1.0  -0.1549
  C  C884  1  0.796600  0.378000  0.558070  1.0  0.1322
  C  C885  1  0.784900  0.493400  0.576890  1.0  0.0365
  C  C886  1  0.799100  0.543500  0.594660  1.0  -0.076
  C  C887  1  0.768100  0.620100  0.598410  1.0  -0.1519
  C  C888  1  0.734100  0.643200  0.585020  1.0  -0.1309
  C  C889  1  0.720600  0.599800  0.567890  1.0  -0.1452
  C  C890  1  0.745700  0.521000  0.562590  1.0  -0.0787
  C  C891  1  0.846570  0.532300  0.728630  1.0  0.0491
  C  C892  1  0.840000  0.577500  0.710310  1.0  -0.1504
  C  C893  1  0.849830  0.521800  0.695080  1.0  -0.0716
  C  C894  1  0.861870  0.447900  0.704010  1.0  0.1489
  C  C895  1  0.922900  0.382800  0.661200  1.0  -0.0959
  C  C896  1  0.919800  0.380100  0.639500  1.0  0.0397
  C  C897  1  0.973500  0.390600  0.628800  1.0  0.0337
  C  C898  1  0.021900  0.401000  0.639300  1.0  -0.1267
  C  C899  1  0.026000  0.407900  0.659800  1.0  -0.1054
  C  C900  1  0.974300  0.399600  0.670700  1.0  0.0451
  C  C901  1  0.736350  0.097900  0.981900  1.0  -0.0003
  C  C902  1  0.787290  0.066400  0.987430  1.0  -0.0933
  C  C903  1  0.780730  0.029600  0.006380  1.0  -0.1163
  C  C904  1  0.726030  0.040900  0.011850  1.0  0.1544
  C  C905  1  0.698300  0.011800  0.029070  1.0  -0.0736
  C  C906  1  0.642760  0.012900  0.032150  1.0  0.1584
  C  C907  1  0.613660  0.974800  0.047970  1.0  -0.1808
  C  C908  1  0.560200  0.984900  0.043860  1.0  -0.1488
  C  C909  1  0.556340  0.031100  0.025620  1.0  -0.0141
  C  C910  1  0.734360  0.976900  0.045400  1.0  0.0247
  C  C911  1  0.759200  0.904500  0.043340  1.0  -0.1549
  C  C912  1  0.796600  0.878000  0.058070  1.0  0.1322
  C  C913  1  0.784900  0.993400  0.076890  1.0  0.0365
  C  C914  1  0.799100  0.043500  0.094660  1.0  -0.076
  C  C915  1  0.768100  0.120100  0.098410  1.0  -0.1519
  C  C916  1  0.734100  0.143200  0.085020  1.0  -0.1309
  C  C917  1  0.720600  0.099800  0.067890  1.0  -0.1452
  C  C918  1  0.745700  0.021000  0.062590  1.0  -0.0787
  C  C919  1  0.846570  0.032300  0.228630  1.0  0.0491
  C  C920  1  0.840000  0.077500  0.210310  1.0  -0.1504
  C  C921  1  0.849830  0.021800  0.195080  1.0  -0.0716
  C  C922  1  0.861870  0.947900  0.204010  1.0  0.1489
  C  C923  1  0.922900  0.882800  0.161200  1.0  -0.0959
  C  C924  1  0.919800  0.880100  0.139500  1.0  0.0397
  C  C925  1  0.973500  0.890600  0.128800  1.0  0.0337
  C  C926  1  0.021900  0.901000  0.139300  1.0  -0.1284
  C  C927  1  0.026000  0.907900  0.159800  1.0  -0.1016
  C  C928  1  0.974300  0.899600  0.170700  1.0  0.0452
  C  C929  1  0.763650  0.847900  0.231900  1.0  0.0002
  C  C930  1  0.712710  0.816400  0.237430  1.0  -0.0941
  C  C931  1  0.719270  0.779600  0.256380  1.0  -0.1165
  C  C932  1  0.773970  0.790900  0.261850  1.0  0.1551
  C  C933  1  0.801700  0.761800  0.279070  1.0  -0.0745
  C  C934  1  0.857240  0.762900  0.282150  1.0  0.1578
  C  C935  1  0.886340  0.724800  0.297970  1.0  -0.1803
  C  C936  1  0.939800  0.734900  0.293860  1.0  -0.1493
  C  C937  1  0.943660  0.781100  0.275620  1.0  -0.0141
  C  C938  1  0.765640  0.726900  0.295400  1.0  0.0246
  C  C939  1  0.740800  0.654500  0.293340  1.0  -0.1537
  C  C940  1  0.703400  0.628000  0.308070  1.0  0.1319
  C  C941  1  0.715100  0.743400  0.326890  1.0  0.0364
  C  C942  1  0.700900  0.793500  0.344660  1.0  -0.0777
  C  C943  1  0.731900  0.870100  0.348410  1.0  -0.1529
  C  C944  1  0.765900  0.893200  0.335020  1.0  -0.1292
  C  C945  1  0.779400  0.849800  0.317890  1.0  -0.1457
  C  C946  1  0.754300  0.771000  0.312590  1.0  -0.0779
  C  C947  1  0.653430  0.782300  0.478630  1.0  0.049
  C  C948  1  0.660000  0.827500  0.460310  1.0  -0.1518
  C  C949  1  0.650170  0.771800  0.445080  1.0  -0.0711
  C  C950  1  0.638130  0.697900  0.454010  1.0  0.1489
  C  C951  1  0.577100  0.632800  0.411200  1.0  -0.0991
  C  C952  1  0.580200  0.630100  0.389500  1.0  0.0304
  C  C953  1  0.526500  0.640600  0.378800  1.0  0.0337
  C  C954  1  0.478100  0.651000  0.389300  1.0  -0.132
  C  C955  1  0.474000  0.657900  0.409800  1.0  -0.0976
  C  C956  1  0.525700  0.649600  0.420700  1.0  0.0452
  C  C957  1  0.763650  0.347900  0.731900  1.0  0.0002
  C  C958  1  0.712710  0.316400  0.737430  1.0  -0.0941
  C  C959  1  0.719270  0.279600  0.756380  1.0  -0.1165
  C  C960  1  0.773970  0.290900  0.761850  1.0  0.1551
  C  C961  1  0.801700  0.261800  0.779070  1.0  -0.0745
  C  C962  1  0.857240  0.262900  0.782150  1.0  0.1578
  C  C963  1  0.886340  0.224800  0.797970  1.0  -0.1803
  C  C964  1  0.939800  0.234900  0.793860  1.0  -0.1493
  C  C965  1  0.943660  0.281100  0.775620  1.0  -0.0141
  C  C966  1  0.765640  0.226900  0.795400  1.0  0.0246
  C  C967  1  0.740800  0.154500  0.793340  1.0  -0.1537
  C  C968  1  0.703400  0.128000  0.808070  1.0  0.1319
  C  C969  1  0.715100  0.243400  0.826890  1.0  0.0364
  C  C970  1  0.700900  0.293500  0.844660  1.0  -0.0777
  C  C971  1  0.731900  0.370100  0.848410  1.0  -0.1529
  C  C972  1  0.765900  0.393200  0.835020  1.0  -0.1292
  C  C973  1  0.779400  0.349800  0.817890  1.0  -0.1457
  C  C974  1  0.754300  0.271000  0.812590  1.0  -0.0779
  C  C975  1  0.653430  0.282300  0.978630  1.0  0.049
  C  C976  1  0.660000  0.327500  0.960310  1.0  -0.1518
  C  C977  1  0.650170  0.271800  0.945080  1.0  -0.0711
  C  C978  1  0.638130  0.197900  0.954010  1.0  0.1489
  C  C979  1  0.577100  0.132800  0.911200  1.0  -0.0991
  C  C980  1  0.580200  0.130100  0.889500  1.0  0.0304
  C  C981  1  0.526500  0.140600  0.878800  1.0  0.0337
  C  C982  1  0.478100  0.151000  0.889300  1.0  -0.132
  C  C983  1  0.474000  0.157900  0.909800  1.0  -0.0976
  C  C984  1  0.525700  0.149600  0.920700  1.0  0.0452
  C  C985  1  0.263650  0.847900  0.731900  1.0  0.0002
  C  C986  1  0.212710  0.816400  0.737430  1.0  -0.0941
  C  C987  1  0.219270  0.779600  0.756380  1.0  -0.1165
  C  C988  1  0.273970  0.790900  0.761850  1.0  0.1551
  C  C989  1  0.301700  0.761800  0.779070  1.0  -0.0745
  C  C990  1  0.357240  0.762900  0.782150  1.0  0.1578
  C  C991  1  0.386340  0.724800  0.797970  1.0  -0.1803
  C  C992  1  0.439800  0.734900  0.793860  1.0  -0.1493
  C  C993  1  0.443660  0.781100  0.775620  1.0  -0.0141
  C  C994  1  0.265640  0.726900  0.795400  1.0  0.0246
  C  C995  1  0.240800  0.654500  0.793340  1.0  -0.1537
  C  C996  1  0.203400  0.628000  0.808070  1.0  0.1319
  C  C997  1  0.215100  0.743400  0.826890  1.0  0.0364
  C  C998  1  0.200900  0.793500  0.844660  1.0  -0.0777
  C  C999  1  0.231900  0.870100  0.848410  1.0  -0.1529
  C  C1000  1  0.265900  0.893200  0.835020  1.0  -0.1292
  C  C1001  1  0.279400  0.849800  0.817890  1.0  -0.1457
  C  C1002  1  0.254300  0.771000  0.812590  1.0  -0.0779
  C  C1003  1  0.153430  0.782300  0.978630  1.0  0.049
  C  C1004  1  0.160000  0.827500  0.960310  1.0  -0.1518
  C  C1005  1  0.150170  0.771800  0.945080  1.0  -0.0711
  C  C1006  1  0.138130  0.697900  0.954010  1.0  0.1489
  C  C1007  1  0.077100  0.632800  0.911200  1.0  -0.0991
  C  C1008  1  0.080200  0.630100  0.889500  1.0  0.0304
  C  C1009  1  0.026500  0.640600  0.878800  1.0  0.0337
  C  C1010  1  0.978100  0.651000  0.889300  1.0  -0.132
  C  C1011  1  0.974000  0.657900  0.909800  1.0  -0.0976
  C  C1012  1  0.025700  0.649600  0.920700  1.0  0.0452
  C  C1013  1  0.263650  0.347900  0.231900  1.0  0.0002
  C  C1014  1  0.212710  0.316400  0.237430  1.0  -0.0941
  C  C1015  1  0.219270  0.279600  0.256380  1.0  -0.1165
  C  C1016  1  0.273970  0.290900  0.261850  1.0  0.1551
  C  C1017  1  0.301700  0.261800  0.279070  1.0  -0.0745
  C  C1018  1  0.357240  0.262900  0.282150  1.0  0.1578
  C  C1019  1  0.386340  0.224800  0.297970  1.0  -0.1803
  C  C1020  1  0.439800  0.234900  0.293860  1.0  -0.1493
  C  C1021  1  0.443660  0.281100  0.275620  1.0  -0.0141
  C  C1022  1  0.265640  0.226900  0.295400  1.0  0.0246
  C  C1023  1  0.240800  0.154500  0.293340  1.0  -0.1537
  C  C1024  1  0.203400  0.128000  0.308070  1.0  0.1319
  C  C1025  1  0.215100  0.243400  0.326890  1.0  0.0364
  C  C1026  1  0.200900  0.293500  0.344660  1.0  -0.0777
  C  C1027  1  0.231900  0.370100  0.348410  1.0  -0.1529
  C  C1028  1  0.265900  0.393200  0.335020  1.0  -0.1292
  C  C1029  1  0.279400  0.349800  0.317890  1.0  -0.1457
  C  C1030  1  0.254300  0.271000  0.312590  1.0  -0.0779
  C  C1031  1  0.153430  0.282300  0.478630  1.0  0.049
  C  C1032  1  0.160000  0.327500  0.460310  1.0  -0.1518
  C  C1033  1  0.150170  0.271800  0.445080  1.0  -0.0711
  C  C1034  1  0.138130  0.197900  0.454010  1.0  0.1489
  C  C1035  1  0.077100  0.132800  0.411200  1.0  -0.0991
  C  C1036  1  0.080200  0.130100  0.389500  1.0  0.0304
  C  C1037  1  0.026500  0.140600  0.378800  1.0  0.0337
  C  C1038  1  0.978100  0.151000  0.389300  1.0  -0.132
  C  C1039  1  0.974000  0.157900  0.409800  1.0  -0.0976
  C  C1040  1  0.025700  0.149600  0.420700  1.0  0.0452
  C  C1041  1  0.486350  0.402100  0.231900  1.0  -0.0018
  C  C1042  1  0.537290  0.433600  0.237430  1.0  -0.0948
  C  C1043  1  0.530730  0.470400  0.256380  1.0  -0.1146
  C  C1044  1  0.476030  0.459100  0.261850  1.0  0.1556
  C  C1045  1  0.448300  0.488200  0.279070  1.0  -0.0713
  C  C1046  1  0.392760  0.487100  0.282150  1.0  0.1585
  C  C1047  1  0.363660  0.525200  0.297970  1.0  -0.1815
  C  C1048  1  0.310200  0.515100  0.293860  1.0  -0.1488
  C  C1049  1  0.306340  0.468900  0.275620  1.0  -0.0135
  C  C1050  1  0.484360  0.523100  0.295400  1.0  0.0244
  C  C1051  1  0.509200  0.595500  0.293340  1.0  -0.1529
  C  C1052  1  0.546600  0.622000  0.308070  1.0  0.1328
  C  C1053  1  0.534900  0.506600  0.326890  1.0  0.0364
  C  C1054  1  0.549100  0.456500  0.344660  1.0  -0.0764
  C  C1055  1  0.518100  0.379900  0.348410  1.0  -0.1516
  C  C1056  1  0.484100  0.356800  0.335020  1.0  -0.1314
  C  C1057  1  0.470600  0.400200  0.317890  1.0  -0.1455
  C  C1058  1  0.495700  0.479000  0.312590  1.0  -0.0781
  C  C1059  1  0.596570  0.467700  0.478630  1.0  0.0516
  C  C1060  1  0.590000  0.422500  0.460310  1.0  -0.1525
  C  C1061  1  0.599830  0.478200  0.445080  1.0  -0.0719
  C  C1062  1  0.611870  0.552100  0.454010  1.0  0.1488
  C  C1063  1  0.672900  0.617200  0.411200  1.0  -0.095
  C  C1064  1  0.669800  0.619900  0.389500  1.0  0.0395
  C  C1065  1  0.723500  0.609400  0.378800  1.0  0.0334
  C  C1066  1  0.771900  0.599000  0.389300  1.0  -0.127
  C  C1067  1  0.776000  0.592100  0.409800  1.0  -0.1009
  C  C1068  1  0.724300  0.600400  0.420700  1.0  0.0455
  C  C1069  1  0.486350  0.902100  0.731900  1.0  -0.0018
  C  C1070  1  0.537290  0.933600  0.737430  1.0  -0.0948
  C  C1071  1  0.530730  0.970400  0.756380  1.0  -0.1146
  C  C1072  1  0.476030  0.959100  0.761850  1.0  0.1556
  C  C1073  1  0.448300  0.988200  0.779070  1.0  -0.0713
  C  C1074  1  0.392760  0.987100  0.782150  1.0  0.1585
  C  C1075  1  0.363660  0.025200  0.797970  1.0  -0.1815
  C  C1076  1  0.310200  0.015100  0.793860  1.0  -0.1488
  C  C1077  1  0.306340  0.968900  0.775620  1.0  -0.0135
  C  C1078  1  0.484360  0.023100  0.795400  1.0  0.0244
  C  C1079  1  0.509200  0.095500  0.793340  1.0  -0.1529
  C  C1080  1  0.546600  0.122000  0.808070  1.0  0.1328
  C  C1081  1  0.534900  0.006600  0.826890  1.0  0.0364
  C  C1082  1  0.549100  0.956500  0.844660  1.0  -0.0764
  C  C1083  1  0.518100  0.879900  0.848410  1.0  -0.1516
  C  C1084  1  0.484100  0.856800  0.835020  1.0  -0.1314
  C  C1085  1  0.470600  0.900200  0.817890  1.0  -0.1455
  C  C1086  1  0.495700  0.979000  0.812590  1.0  -0.0781
  C  C1087  1  0.596570  0.967700  0.978630  1.0  0.0516
  C  C1088  1  0.590000  0.922500  0.960310  1.0  -0.1525
  C  C1089  1  0.599830  0.978200  0.945080  1.0  -0.0719
  C  C1090  1  0.611870  0.052100  0.954010  1.0  0.1488
  C  C1091  1  0.672900  0.117200  0.911200  1.0  -0.095
  C  C1092  1  0.669800  0.119900  0.889500  1.0  0.0395
  C  C1093  1  0.723500  0.109400  0.878800  1.0  0.0334
  C  C1094  1  0.771900  0.099000  0.889300  1.0  -0.127
  C  C1095  1  0.776000  0.092100  0.909800  1.0  -0.1009
  C  C1096  1  0.724300  0.100400  0.920700  1.0  0.0455
  C  C1097  1  0.986350  0.402100  0.731900  1.0  -0.0018
  C  C1098  1  0.037290  0.433600  0.737430  1.0  -0.0948
  C  C1099  1  0.030730  0.470400  0.756380  1.0  -0.1146
  C  C1100  1  0.976030  0.459100  0.761850  1.0  0.1556
  C  C1101  1  0.948300  0.488200  0.779070  1.0  -0.0713
  C  C1102  1  0.892760  0.487100  0.782150  1.0  0.1585
  C  C1103  1  0.863660  0.525200  0.797970  1.0  -0.1815
  C  C1104  1  0.810200  0.515100  0.793860  1.0  -0.1488
  C  C1105  1  0.806340  0.468900  0.775620  1.0  -0.0135
  C  C1106  1  0.984360  0.523100  0.795400  1.0  0.0244
  C  C1107  1  0.009200  0.595500  0.793340  1.0  -0.1529
  C  C1108  1  0.046600  0.622000  0.808070  1.0  0.1328
  C  C1109  1  0.034900  0.506600  0.826890  1.0  0.0364
  C  C1110  1  0.049100  0.456500  0.844660  1.0  -0.0764
  C  C1111  1  0.018100  0.379900  0.848410  1.0  -0.1516
  C  C1112  1  0.984100  0.356800  0.835020  1.0  -0.1314
  C  C1113  1  0.970600  0.400200  0.817890  1.0  -0.1455
  C  C1114  1  0.995700  0.479000  0.812590  1.0  -0.0781
  C  C1115  1  0.096570  0.467700  0.978630  1.0  0.0516
  C  C1116  1  0.090000  0.422500  0.960310  1.0  -0.1525
  C  C1117  1  0.099830  0.478200  0.945080  1.0  -0.0719
  C  C1118  1  0.111870  0.552100  0.954010  1.0  0.1488
  C  C1119  1  0.172900  0.617200  0.911200  1.0  -0.095
  C  C1120  1  0.169800  0.619900  0.889500  1.0  0.0395
  C  C1121  1  0.223500  0.609400  0.878800  1.0  0.0334
  C  C1122  1  0.271900  0.599000  0.889300  1.0  -0.127
  C  C1123  1  0.276000  0.592100  0.909800  1.0  -0.1009
  C  C1124  1  0.224300  0.600400  0.920700  1.0  0.0455
  C  C1125  1  0.986350  0.902100  0.231900  1.0  -0.0018
  C  C1126  1  0.037290  0.933600  0.237430  1.0  -0.0948
  C  C1127  1  0.030730  0.970400  0.256380  1.0  -0.1146
  C  C1128  1  0.976030  0.959100  0.261850  1.0  0.1556
  C  C1129  1  0.948300  0.988200  0.279070  1.0  -0.0713
  C  C1130  1  0.892760  0.987100  0.282150  1.0  0.1585
  C  C1131  1  0.863660  0.025200  0.297970  1.0  -0.1815
  C  C1132  1  0.810200  0.015100  0.293860  1.0  -0.1488
  C  C1133  1  0.806340  0.968900  0.275620  1.0  -0.0135
  C  C1134  1  0.984360  0.023100  0.295400  1.0  0.0244
  C  C1135  1  0.009200  0.095500  0.293340  1.0  -0.1529
  C  C1136  1  0.046600  0.122000  0.308070  1.0  0.1328
  C  C1137  1  0.034900  0.006600  0.326890  1.0  0.0364
  C  C1138  1  0.049100  0.956500  0.344660  1.0  -0.0764
  C  C1139  1  0.018100  0.879900  0.348410  1.0  -0.1516
  C  C1140  1  0.984100  0.856800  0.335020  1.0  -0.1314
  C  C1141  1  0.970600  0.900200  0.317890  1.0  -0.1455
  C  C1142  1  0.995700  0.979000  0.312590  1.0  -0.0781
  C  C1143  1  0.096570  0.967700  0.478630  1.0  0.0516
  C  C1144  1  0.090000  0.922500  0.460310  1.0  -0.1525
  C  C1145  1  0.099830  0.978200  0.445080  1.0  -0.0719
  C  C1146  1  0.111870  0.052100  0.454010  1.0  0.1488
  C  C1147  1  0.172900  0.117200  0.411200  1.0  -0.095
  C  C1148  1  0.169800  0.119900  0.389500  1.0  0.0395
  C  C1149  1  0.223500  0.109400  0.378800  1.0  0.0334
  C  C1150  1  0.271900  0.099000  0.389300  1.0  -0.127
  C  C1151  1  0.276000  0.092100  0.409800  1.0  -0.1009
  C  C1152  1  0.224300  0.100400  0.420700  1.0  0.0455
  C  C1153  1  0.375000  0.375000  0.194770  1.0  -0.0571
  C  C1154  1  0.375000  0.375000  0.171530  1.0  -0.0209
  C  C1155  1  0.375000  0.875000  0.694770  1.0  -0.0571
  C  C1156  1  0.375000  0.875000  0.671530  1.0  -0.0209
  C  C1157  1  0.875000  0.375000  0.694770  1.0  -0.0571
  C  C1158  1  0.875000  0.375000  0.671530  1.0  -0.0209
  C  C1159  1  0.875000  0.875000  0.194770  1.0  -0.0571
  C  C1160  1  0.875000  0.875000  0.171530  1.0  -0.0209
  C  C1161  1  0.625000  0.625000  0.444770  1.0  -0.0571
  C  C1162  1  0.625000  0.625000  0.421530  1.0  -0.0209
  C  C1163  1  0.625000  0.125000  0.944770  1.0  -0.0571
  C  C1164  1  0.625000  0.125000  0.921530  1.0  -0.0209
  C  C1165  1  0.125000  0.625000  0.944770  1.0  -0.0571
  C  C1166  1  0.125000  0.625000  0.921530  1.0  -0.0209
  C  C1167  1  0.125000  0.125000  0.444770  1.0  -0.0571
  C  C1168  1  0.125000  0.125000  0.421530  1.0  -0.0209
  C  C1169  1  0.236350  0.152100  0.768100  1.0  -0.0012
  C  C1170  1  0.287290  0.183600  0.762570  1.0  -0.0954
  C  C1171  1  0.280730  0.220400  0.743620  1.0  -0.1148
  C  C1172  1  0.226030  0.209100  0.738150  1.0  0.1557
  C  C1173  1  0.198300  0.238200  0.720930  1.0  -0.0714
  C  C1174  1  0.142760  0.237100  0.717850  1.0  0.1587
  C  C1175  1  0.113660  0.275200  0.702030  1.0  -0.1827
  C  C1176  1  0.060200  0.265100  0.706140  1.0  -0.1485
  C  C1177  1  0.056340  0.218900  0.724380  1.0  -0.0142
  C  C1178  1  0.234360  0.273100  0.704600  1.0  0.025
  C  C1179  1  0.259200  0.345500  0.706660  1.0  -0.1534
  C  C1180  1  0.296600  0.372000  0.691930  1.0  0.1329
  C  C1181  1  0.284900  0.256600  0.673110  1.0  0.0367
  C  C1182  1  0.299100  0.206500  0.655340  1.0  -0.0771
  C  C1183  1  0.268100  0.129900  0.651590  1.0  -0.151
  C  C1184  1  0.234100  0.106800  0.664980  1.0  -0.1326
  C  C1185  1  0.220600  0.150200  0.682110  1.0  -0.1445
  C  C1186  1  0.245700  0.229000  0.687410  1.0  -0.077
  C  C1187  1  0.346570  0.217700  0.521370  1.0  0.0495
  C  C1188  1  0.340000  0.172500  0.539690  1.0  -0.1516
  C  C1189  1  0.349830  0.228200  0.554920  1.0  -0.0693
  C  C1190  1  0.361870  0.302100  0.545990  1.0  0.1486
  C  C1191  1  0.422900  0.367200  0.588800  1.0  -0.0957
  C  C1192  1  0.419800  0.369900  0.610500  1.0  0.0318
  C  C1193  1  0.473500  0.359400  0.621200  1.0  0.0342
  C  C1194  1  0.521900  0.349000  0.610700  1.0  -0.1247
  C  C1195  1  0.526000  0.342100  0.590200  1.0  -0.1004
  C  C1196  1  0.474300  0.350400  0.579300  1.0  0.046
  C  C1197  1  0.236350  0.652100  0.268100  1.0  -0.0012
  C  C1198  1  0.287290  0.683600  0.262570  1.0  -0.0954
  C  C1199  1  0.280730  0.720400  0.243620  1.0  -0.1148
  C  C1200  1  0.226030  0.709100  0.238150  1.0  0.1557
  C  C1201  1  0.198300  0.738200  0.220930  1.0  -0.0714
  C  C1202  1  0.142760  0.737100  0.217850  1.0  0.1587
  C  C1203  1  0.113660  0.775200  0.202030  1.0  -0.1827
  C  C1204  1  0.060200  0.765100  0.206140  1.0  -0.1485
  C  C1205  1  0.056340  0.718900  0.224380  1.0  -0.0142
  C  C1206  1  0.234360  0.773100  0.204600  1.0  0.025
  C  C1207  1  0.259200  0.845500  0.206660  1.0  -0.1535
  C  C1208  1  0.296600  0.872000  0.191930  1.0  0.1329
  C  C1209  1  0.284900  0.756600  0.173110  1.0  0.0367
  C  C1210  1  0.299100  0.706500  0.155340  1.0  -0.0771
  C  C1211  1  0.268100  0.629900  0.151590  1.0  -0.151
  C  C1212  1  0.234100  0.606800  0.164980  1.0  -0.1326
  C  C1213  1  0.220600  0.650200  0.182110  1.0  -0.1445
  C  C1214  1  0.245700  0.729000  0.187410  1.0  -0.077
  C  C1215  1  0.346570  0.717700  0.021370  1.0  0.0495
  C  C1216  1  0.340000  0.672500  0.039690  1.0  -0.1516
  C  C1217  1  0.349830  0.728200  0.054920  1.0  -0.0693
  C  C1218  1  0.361870  0.802100  0.045990  1.0  0.1486
  C  C1219  1  0.422900  0.867200  0.088800  1.0  -0.0957
  C  C1220  1  0.419800  0.869900  0.110500  1.0  0.0318
  C  C1221  1  0.473500  0.859400  0.121200  1.0  0.0342
  C  C1222  1  0.521900  0.849000  0.110700  1.0  -0.1247
  C  C1223  1  0.526000  0.842100  0.090200  1.0  -0.1004
  C  C1224  1  0.474300  0.850400  0.079300  1.0  0.046
  C  C1225  1  0.736350  0.152100  0.268100  1.0  -0.0012
  C  C1226  1  0.787290  0.183600  0.262570  1.0  -0.0954
  C  C1227  1  0.780730  0.220400  0.243620  1.0  -0.1148
  C  C1228  1  0.726030  0.209100  0.238150  1.0  0.1557
  C  C1229  1  0.698300  0.238200  0.220930  1.0  -0.0714
  C  C1230  1  0.642760  0.237100  0.217850  1.0  0.1587
  C  C1231  1  0.613660  0.275200  0.202030  1.0  -0.1827
  C  C1232  1  0.560200  0.265100  0.206140  1.0  -0.1485
  C  C1233  1  0.556340  0.218900  0.224380  1.0  -0.0142
  C  C1234  1  0.734360  0.273100  0.204600  1.0  0.025
  C  C1235  1  0.759200  0.345500  0.206660  1.0  -0.1535
  C  C1236  1  0.796600  0.372000  0.191930  1.0  0.1329
  C  C1237  1  0.784900  0.256600  0.173110  1.0  0.0367
  C  C1238  1  0.799100  0.206500  0.155340  1.0  -0.0771
  C  C1239  1  0.768100  0.129900  0.151590  1.0  -0.151
  C  C1240  1  0.734100  0.106800  0.164980  1.0  -0.1326
  C  C1241  1  0.720600  0.150200  0.182110  1.0  -0.1445
  C  C1242  1  0.745700  0.229000  0.187410  1.0  -0.077
  C  C1243  1  0.846570  0.217700  0.021370  1.0  0.0495
  C  C1244  1  0.840000  0.172500  0.039690  1.0  -0.1516
  C  C1245  1  0.849830  0.228200  0.054920  1.0  -0.0693
  C  C1246  1  0.861870  0.302100  0.045990  1.0  0.1486
  C  C1247  1  0.922900  0.367200  0.088800  1.0  -0.0957
  C  C1248  1  0.919800  0.369900  0.110500  1.0  0.0318
  C  C1249  1  0.973500  0.359400  0.121200  1.0  0.0342
  C  C1250  1  0.021900  0.349000  0.110700  1.0  -0.1247
  C  C1251  1  0.026000  0.342100  0.090200  1.0  -0.1004
  C  C1252  1  0.974300  0.350400  0.079300  1.0  0.046
  C  C1253  1  0.736350  0.652100  0.768100  1.0  -0.0012
  C  C1254  1  0.787290  0.683600  0.762570  1.0  -0.0954
  C  C1255  1  0.780730  0.720400  0.743620  1.0  -0.1148
  C  C1256  1  0.726030  0.709100  0.738150  1.0  0.1557
  C  C1257  1  0.698300  0.738200  0.720930  1.0  -0.0714
  C  C1258  1  0.642760  0.737100  0.717850  1.0  0.1587
  C  C1259  1  0.613660  0.775200  0.702030  1.0  -0.1827
  C  C1260  1  0.560200  0.765100  0.706140  1.0  -0.1485
  C  C1261  1  0.556340  0.718900  0.724380  1.0  -0.0142
  C  C1262  1  0.734360  0.773100  0.704600  1.0  0.025
  C  C1263  1  0.759200  0.845500  0.706660  1.0  -0.1534
  C  C1264  1  0.796600  0.872000  0.691930  1.0  0.1329
  C  C1265  1  0.784900  0.756600  0.673110  1.0  0.0367
  C  C1266  1  0.799100  0.706500  0.655340  1.0  -0.0771
  C  C1267  1  0.768100  0.629900  0.651590  1.0  -0.151
  C  C1268  1  0.734100  0.606800  0.664980  1.0  -0.1326
  C  C1269  1  0.720600  0.650200  0.682110  1.0  -0.1445
  C  C1270  1  0.745700  0.729000  0.687410  1.0  -0.077
  C  C1271  1  0.846570  0.717700  0.521370  1.0  0.0495
  C  C1272  1  0.840000  0.672500  0.539690  1.0  -0.1516
  C  C1273  1  0.849830  0.728200  0.554920  1.0  -0.0693
  C  C1274  1  0.861870  0.802100  0.545990  1.0  0.1486
  C  C1275  1  0.922900  0.867200  0.588800  1.0  -0.0957
  C  C1276  1  0.919800  0.869900  0.610500  1.0  0.0318
  C  C1277  1  0.973500  0.859400  0.621200  1.0  0.0342
  C  C1278  1  0.021900  0.849000  0.610700  1.0  -0.1247
  C  C1279  1  0.026000  0.842100  0.590200  1.0  -0.1004
  C  C1280  1  0.974300  0.850400  0.579300  1.0  0.046
  C  C1281  1  0.513650  0.597900  0.768100  1.0  0.0005
  C  C1282  1  0.462710  0.566400  0.762570  1.0  -0.0957
  C  C1283  1  0.469270  0.529600  0.743620  1.0  -0.1156
  C  C1284  1  0.523970  0.540900  0.738150  1.0  0.1558
  C  C1285  1  0.551700  0.511800  0.720930  1.0  -0.0744
  C  C1286  1  0.607240  0.512900  0.717850  1.0  0.158
  C  C1287  1  0.636340  0.474800  0.702030  1.0  -0.1814
  C  C1288  1  0.689800  0.484900  0.706140  1.0  -0.15
  C  C1289  1  0.693660  0.531100  0.724380  1.0  -0.0147
  C  C1290  1  0.515640  0.476900  0.704600  1.0  0.0249
  C  C1291  1  0.490800  0.404500  0.706660  1.0  -0.1532
  C  C1292  1  0.453400  0.378000  0.691930  1.0  0.1322
  C  C1293  1  0.465100  0.493400  0.673110  1.0  0.0364
  C  C1294  1  0.450900  0.543500  0.655340  1.0  -0.0782
  C  C1295  1  0.481900  0.620100  0.651590  1.0  -0.1532
  C  C1296  1  0.515900  0.643200  0.664980  1.0  -0.1315
  C  C1297  1  0.529400  0.599800  0.682110  1.0  -0.1464
  C  C1298  1  0.504300  0.521000  0.687410  1.0  -0.077
  C  C1299  1  0.403430  0.532300  0.521370  1.0  0.0481
  C  C1300  1  0.410000  0.577500  0.539690  1.0  -0.151
  C  C1301  1  0.400170  0.521800  0.554920  1.0  -0.0694
  C  C1302  1  0.388130  0.447900  0.545990  1.0  0.1493
  C  C1303  1  0.327100  0.382800  0.588800  1.0  -0.0973
  C  C1304  1  0.330200  0.380100  0.610500  1.0  0.0392
  C  C1305  1  0.276500  0.390600  0.621200  1.0  0.0329
  C  C1306  1  0.228100  0.401000  0.610700  1.0  -0.1343
  C  C1307  1  0.224000  0.407900  0.590200  1.0  -0.0965
  C  C1308  1  0.275700  0.399600  0.579300  1.0  0.0459
  C  C1309  1  0.513650  0.097900  0.268100  1.0  0.0005
  C  C1310  1  0.462710  0.066400  0.262570  1.0  -0.0957
  C  C1311  1  0.469270  0.029600  0.243620  1.0  -0.1156
  C  C1312  1  0.523970  0.040900  0.238150  1.0  0.1558
  C  C1313  1  0.551700  0.011800  0.220930  1.0  -0.0744
  C  C1314  1  0.607240  0.012900  0.217850  1.0  0.158
  C  C1315  1  0.636340  0.974800  0.202030  1.0  -0.1814
  C  C1316  1  0.689800  0.984900  0.206140  1.0  -0.15
  C  C1317  1  0.693660  0.031100  0.224380  1.0  -0.0147
  C  C1318  1  0.515640  0.976900  0.204600  1.0  0.0248
  C  C1319  1  0.490800  0.904500  0.206660  1.0  -0.1533
  C  C1320  1  0.453400  0.878000  0.191930  1.0  0.1322
  C  C1321  1  0.465100  0.993400  0.173110  1.0  0.0364
  C  C1322  1  0.450900  0.043500  0.155340  1.0  -0.0782
  C  C1323  1  0.481900  0.120100  0.151590  1.0  -0.1532
  C  C1324  1  0.515900  0.143200  0.164980  1.0  -0.1315
  C  C1325  1  0.529400  0.099800  0.182110  1.0  -0.1464
  C  C1326  1  0.504300  0.021000  0.187410  1.0  -0.077
  C  C1327  1  0.403430  0.032300  0.021370  1.0  0.0481
  C  C1328  1  0.410000  0.077500  0.039690  1.0  -0.151
  C  C1329  1  0.400170  0.021800  0.054920  1.0  -0.0694
  C  C1330  1  0.388130  0.947900  0.045990  1.0  0.1493
  C  C1331  1  0.327100  0.882800  0.088800  1.0  -0.0973
  C  C1332  1  0.330200  0.880100  0.110500  1.0  0.0392
  C  C1333  1  0.276500  0.890600  0.121200  1.0  0.0329
  C  C1334  1  0.228100  0.901000  0.110700  1.0  -0.1343
  C  C1335  1  0.224000  0.907900  0.090200  1.0  -0.0965
  C  C1336  1  0.275700  0.899600  0.079300  1.0  0.0459
  C  C1337  1  0.013650  0.597900  0.268100  1.0  0.0005
  C  C1338  1  0.962710  0.566400  0.262570  1.0  -0.0957
  C  C1339  1  0.969270  0.529600  0.243620  1.0  -0.1156
  C  C1340  1  0.023970  0.540900  0.238150  1.0  0.1558
  C  C1341  1  0.051700  0.511800  0.220930  1.0  -0.0744
  C  C1342  1  0.107240  0.512900  0.217850  1.0  0.158
  C  C1343  1  0.136340  0.474800  0.202030  1.0  -0.1814
  C  C1344  1  0.189800  0.484900  0.206140  1.0  -0.15
  C  C1345  1  0.193660  0.531100  0.224380  1.0  -0.0147
  C  C1346  1  0.015640  0.476900  0.204600  1.0  0.0248
  C  C1347  1  0.990800  0.404500  0.206660  1.0  -0.1533
  C  C1348  1  0.953400  0.378000  0.191930  1.0  0.1322
  C  C1349  1  0.965100  0.493400  0.173110  1.0  0.0364
  C  C1350  1  0.950900  0.543500  0.155340  1.0  -0.0782
  C  C1351  1  0.981900  0.620100  0.151590  1.0  -0.1532
  C  C1352  1  0.015900  0.643200  0.164980  1.0  -0.1315
  C  C1353  1  0.029400  0.599800  0.182110  1.0  -0.1464
  C  C1354  1  0.004300  0.521000  0.187410  1.0  -0.077
  C  C1355  1  0.903430  0.532300  0.021370  1.0  0.0481
  C  C1356  1  0.910000  0.577500  0.039690  1.0  -0.151
  C  C1357  1  0.900170  0.521800  0.054920  1.0  -0.0694
  C  C1358  1  0.888130  0.447900  0.045990  1.0  0.1493
  C  C1359  1  0.827100  0.382800  0.088800  1.0  -0.0973
  C  C1360  1  0.830200  0.380100  0.110500  1.0  0.0392
  C  C1361  1  0.776500  0.390600  0.121200  1.0  0.0329
  C  C1362  1  0.728100  0.401000  0.110700  1.0  -0.1343
  C  C1363  1  0.724000  0.407900  0.090200  1.0  -0.0965
  C  C1364  1  0.775700  0.399600  0.079300  1.0  0.0459
  C  C1365  1  0.013650  0.097900  0.768100  1.0  0.0005
  C  C1366  1  0.962710  0.066400  0.762570  1.0  -0.0957
  C  C1367  1  0.969270  0.029600  0.743620  1.0  -0.1156
  C  C1368  1  0.023970  0.040900  0.738150  1.0  0.1558
  C  C1369  1  0.051700  0.011800  0.720930  1.0  -0.0744
  C  C1370  1  0.107240  0.012900  0.717850  1.0  0.158
  C  C1371  1  0.136340  0.974800  0.702030  1.0  -0.1814
  C  C1372  1  0.189800  0.984900  0.706140  1.0  -0.15
  C  C1373  1  0.193660  0.031100  0.724380  1.0  -0.0147
  C  C1374  1  0.015640  0.976900  0.704600  1.0  0.0249
  C  C1375  1  0.990800  0.904500  0.706660  1.0  -0.1532
  C  C1376  1  0.953400  0.878000  0.691930  1.0  0.1322
  C  C1377  1  0.965100  0.993400  0.673110  1.0  0.0364
  C  C1378  1  0.950900  0.043500  0.655340  1.0  -0.0782
  C  C1379  1  0.981900  0.120100  0.651590  1.0  -0.1532
  C  C1380  1  0.015900  0.143200  0.664980  1.0  -0.1315
  C  C1381  1  0.029400  0.099800  0.682110  1.0  -0.1464
  C  C1382  1  0.004300  0.021000  0.687410  1.0  -0.077
  C  C1383  1  0.903430  0.032300  0.521370  1.0  0.0481
  C  C1384  1  0.910000  0.077500  0.539690  1.0  -0.151
  C  C1385  1  0.900170  0.021800  0.554920  1.0  -0.0694
  C  C1386  1  0.888130  0.947900  0.545990  1.0  0.1493
  C  C1387  1  0.827100  0.882800  0.588800  1.0  -0.0973
  C  C1388  1  0.830200  0.880100  0.610500  1.0  0.0392
  C  C1389  1  0.776500  0.890600  0.621200  1.0  0.0329
  C  C1390  1  0.728100  0.901000  0.610700  1.0  -0.1343
  C  C1391  1  0.724000  0.907900  0.590200  1.0  -0.0965
  C  C1392  1  0.775700  0.899600  0.579300  1.0  0.0459
  C  C1393  1  0.486350  0.847900  0.018100  1.0  0.0005
  C  C1394  1  0.537290  0.816400  0.012570  1.0  -0.0947
  C  C1395  1  0.530730  0.779600  0.993620  1.0  -0.1154
  C  C1396  1  0.476030  0.790900  0.988150  1.0  0.1555
  C  C1397  1  0.448300  0.761800  0.970930  1.0  -0.0734
  C  C1398  1  0.392760  0.762900  0.967850  1.0  0.1585
  C  C1399  1  0.363660  0.724800  0.952030  1.0  -0.1826
  C  C1400  1  0.310200  0.734900  0.956140  1.0  -0.1492
  C  C1401  1  0.306340  0.781100  0.974380  1.0  -0.0148
  C  C1402  1  0.484360  0.726900  0.954600  1.0  0.0249
  C  C1403  1  0.509200  0.654500  0.956660  1.0  -0.1545
  C  C1404  1  0.546600  0.628000  0.941930  1.0  0.1325
  C  C1405  1  0.534900  0.743400  0.923110  1.0  0.0366
  C  C1406  1  0.549100  0.793500  0.905340  1.0  -0.0768
  C  C1407  1  0.518100  0.870100  0.901590  1.0  -0.1519
  C  C1408  1  0.484100  0.893200  0.914980  1.0  -0.1321
  C  C1409  1  0.470600  0.849800  0.932110  1.0  -0.1449
  C  C1410  1  0.495700  0.771000  0.937410  1.0  -0.0777
  C  C1411  1  0.596570  0.782300  0.771370  1.0  0.0482
  C  C1412  1  0.590000  0.827500  0.789690  1.0  -0.1497
  C  C1413  1  0.599830  0.771800  0.804920  1.0  -0.0693
  C  C1414  1  0.611870  0.697900  0.795990  1.0  0.1488
  C  C1415  1  0.672900  0.632800  0.838800  1.0  -0.0966
  C  C1416  1  0.669800  0.630100  0.860500  1.0  0.0327
  C  C1417  1  0.723500  0.640600  0.871200  1.0  0.0328
  C  C1418  1  0.771900  0.651000  0.860700  1.0  -0.1263
  C  C1419  1  0.776000  0.657900  0.840200  1.0  -0.1013
  C  C1420  1  0.724300  0.649600  0.829300  1.0  0.0456
  C  C1421  1  0.486350  0.347900  0.518100  1.0  0.0005
  C  C1422  1  0.537290  0.316400  0.512570  1.0  -0.0947
  C  C1423  1  0.530730  0.279600  0.493620  1.0  -0.1154
  C  C1424  1  0.476030  0.290900  0.488150  1.0  0.1555
  C  C1425  1  0.448300  0.261800  0.470930  1.0  -0.0734
  C  C1426  1  0.392760  0.262900  0.467850  1.0  0.1585
  C  C1427  1  0.363660  0.224800  0.452030  1.0  -0.1826
  C  C1428  1  0.310200  0.234900  0.456140  1.0  -0.1492
  C  C1429  1  0.306340  0.281100  0.474380  1.0  -0.0148
  C  C1430  1  0.484360  0.226900  0.454600  1.0  0.0249
  C  C1431  1  0.509200  0.154500  0.456660  1.0  -0.1545
  C  C1432  1  0.546600  0.128000  0.441930  1.0  0.1325
  C  C1433  1  0.534900  0.243400  0.423110  1.0  0.0366
  C  C1434  1  0.549100  0.293500  0.405340  1.0  -0.0768
  C  C1435  1  0.518100  0.370100  0.401590  1.0  -0.1519
  C  C1436  1  0.484100  0.393200  0.414980  1.0  -0.1321
  C  C1437  1  0.470600  0.349800  0.432110  1.0  -0.1449
  C  C1438  1  0.495700  0.271000  0.437410  1.0  -0.0777
  C  C1439  1  0.596570  0.282300  0.271370  1.0  0.0482
  C  C1440  1  0.590000  0.327500  0.289690  1.0  -0.1497
  C  C1441  1  0.599830  0.271800  0.304920  1.0  -0.0693
  C  C1442  1  0.611870  0.197900  0.295990  1.0  0.1488
  C  C1443  1  0.672900  0.132800  0.338800  1.0  -0.0966
  C  C1444  1  0.669800  0.130100  0.360500  1.0  0.0327
  C  C1445  1  0.723500  0.140600  0.371200  1.0  0.0328
  C  C1446  1  0.771900  0.151000  0.360700  1.0  -0.1263
  C  C1447  1  0.776000  0.157900  0.340200  1.0  -0.1013
  C  C1448  1  0.724300  0.149600  0.329300  1.0  0.0456
  C  C1449  1  0.986350  0.847900  0.518100  1.0  0.0005
  C  C1450  1  0.037290  0.816400  0.512570  1.0  -0.0947
  C  C1451  1  0.030730  0.779600  0.493620  1.0  -0.1154
  C  C1452  1  0.976030  0.790900  0.488150  1.0  0.1555
  C  C1453  1  0.948300  0.761800  0.470930  1.0  -0.0734
  C  C1454  1  0.892760  0.762900  0.467850  1.0  0.1585
  C  C1455  1  0.863660  0.724800  0.452030  1.0  -0.1826
  C  C1456  1  0.810200  0.734900  0.456140  1.0  -0.1492
  C  C1457  1  0.806340  0.781100  0.474380  1.0  -0.0148
  C  C1458  1  0.984360  0.726900  0.454600  1.0  0.0249
  C  C1459  1  0.009200  0.654500  0.456660  1.0  -0.1545
  C  C1460  1  0.046600  0.628000  0.441930  1.0  0.1325
  C  C1461  1  0.034900  0.743400  0.423110  1.0  0.0366
  C  C1462  1  0.049100  0.793500  0.405340  1.0  -0.0768
  C  C1463  1  0.018100  0.870100  0.401590  1.0  -0.1519
  C  C1464  1  0.984100  0.893200  0.414980  1.0  -0.1321
  C  C1465  1  0.970600  0.849800  0.432110  1.0  -0.1449
  C  C1466  1  0.995700  0.771000  0.437410  1.0  -0.0777
  C  C1467  1  0.096570  0.782300  0.271370  1.0  0.0482
  C  C1468  1  0.090000  0.827500  0.289690  1.0  -0.1497
  C  C1469  1  0.099830  0.771800  0.304920  1.0  -0.0693
  C  C1470  1  0.111870  0.697900  0.295990  1.0  0.1488
  C  C1471  1  0.172900  0.632800  0.338800  1.0  -0.0966
  C  C1472  1  0.169800  0.630100  0.360500  1.0  0.0327
  C  C1473  1  0.223500  0.640600  0.371200  1.0  0.0328
  C  C1474  1  0.271900  0.651000  0.360700  1.0  -0.1263
  C  C1475  1  0.276000  0.657900  0.340200  1.0  -0.1013
  C  C1476  1  0.224300  0.649600  0.329300  1.0  0.0456
  C  C1477  1  0.986350  0.347900  0.018100  1.0  0.0005
  C  C1478  1  0.037290  0.316400  0.012570  1.0  -0.0947
  C  C1479  1  0.030730  0.279600  0.993620  1.0  -0.1154
  C  C1480  1  0.976030  0.290900  0.988150  1.0  0.1555
  C  C1481  1  0.948300  0.261800  0.970930  1.0  -0.0734
  C  C1482  1  0.892760  0.262900  0.967850  1.0  0.1585
  C  C1483  1  0.863660  0.224800  0.952030  1.0  -0.1826
  C  C1484  1  0.810200  0.234900  0.956140  1.0  -0.1492
  C  C1485  1  0.806340  0.281100  0.974380  1.0  -0.0148
  C  C1486  1  0.984360  0.226900  0.954600  1.0  0.0249
  C  C1487  1  0.009200  0.154500  0.956660  1.0  -0.1545
  C  C1488  1  0.046600  0.128000  0.941930  1.0  0.1325
  C  C1489  1  0.034900  0.243400  0.923110  1.0  0.0366
  C  C1490  1  0.049100  0.293500  0.905340  1.0  -0.0768
  C  C1491  1  0.018100  0.370100  0.901590  1.0  -0.1519
  C  C1492  1  0.984100  0.393200  0.914980  1.0  -0.1321
  C  C1493  1  0.970600  0.349800  0.932110  1.0  -0.1449
  C  C1494  1  0.995700  0.271000  0.937410  1.0  -0.0777
  C  C1495  1  0.096570  0.282300  0.771370  1.0  0.0482
  C  C1496  1  0.090000  0.327500  0.789690  1.0  -0.1497
  C  C1497  1  0.099830  0.271800  0.804920  1.0  -0.0693
  C  C1498  1  0.111870  0.197900  0.795990  1.0  0.1488
  C  C1499  1  0.172900  0.132800  0.838800  1.0  -0.0966
  C  C1500  1  0.169800  0.130100  0.860500  1.0  0.0327
  C  C1501  1  0.223500  0.140600  0.871200  1.0  0.0328
  C  C1502  1  0.271900  0.151000  0.860700  1.0  -0.1263
  C  C1503  1  0.276000  0.157900  0.840200  1.0  -0.1013
  C  C1504  1  0.224300  0.149600  0.829300  1.0  0.0456
  C  C1505  1  0.763650  0.402100  0.018100  1.0  -0.0013
  C  C1506  1  0.712710  0.433600  0.012570  1.0  -0.0966
  C  C1507  1  0.719270  0.470400  0.993620  1.0  -0.1147
  C  C1508  1  0.773970  0.459100  0.988150  1.0  0.1559
  C  C1509  1  0.801700  0.488200  0.970930  1.0  -0.0721
  C  C1510  1  0.857240  0.487100  0.967850  1.0  0.158
  C  C1511  1  0.886340  0.525200  0.952030  1.0  -0.1824
  C  C1512  1  0.939800  0.515100  0.956140  1.0  -0.1489
  C  C1513  1  0.943660  0.468900  0.974380  1.0  -0.0145
  C  C1514  1  0.765640  0.523100  0.954600  1.0  0.0246
  C  C1515  1  0.740800  0.595500  0.956660  1.0  -0.1523
  C  C1516  1  0.703400  0.622000  0.941930  1.0  0.1324
  C  C1517  1  0.715100  0.506600  0.923110  1.0  0.0365
  C  C1518  1  0.700900  0.456500  0.905340  1.0  -0.0784
  C  C1519  1  0.731900  0.379900  0.901590  1.0  -0.1522
  C  C1520  1  0.765900  0.356800  0.914980  1.0  -0.1321
  C  C1521  1  0.779400  0.400200  0.932110  1.0  -0.1458
  C  C1522  1  0.754300  0.479000  0.937410  1.0  -0.0768
  C  C1523  1  0.653430  0.467700  0.771370  1.0  0.0499
  C  C1524  1  0.660000  0.422500  0.789690  1.0  -0.1533
  C  C1525  1  0.650170  0.478200  0.804920  1.0  -0.0683
  C  C1526  1  0.638130  0.552100  0.795990  1.0  0.149
  C  C1527  1  0.577100  0.617200  0.838800  1.0  -0.0962
  C  C1528  1  0.580200  0.619900  0.860500  1.0  0.0389
  C  C1529  1  0.526500  0.609400  0.871200  1.0  0.0335
  C  C1530  1  0.478100  0.599000  0.860700  1.0  -0.134
  C  C1531  1  0.474000  0.592100  0.840200  1.0  -0.0973
  C  C1532  1  0.525700  0.600400  0.829300  1.0  0.0465
  C  C1533  1  0.763650  0.902100  0.518100  1.0  -0.0013
  C  C1534  1  0.712710  0.933600  0.512570  1.0  -0.0966
  C  C1535  1  0.719270  0.970400  0.493620  1.0  -0.1147
  C  C1536  1  0.773970  0.959100  0.488150  1.0  0.1559
  C  C1537  1  0.801700  0.988200  0.470930  1.0  -0.0721
  C  C1538  1  0.857240  0.987100  0.467850  1.0  0.158
  C  C1539  1  0.886340  0.025200  0.452030  1.0  -0.1824
  C  C1540  1  0.939800  0.015100  0.456140  1.0  -0.1489
  C  C1541  1  0.943660  0.968900  0.474380  1.0  -0.0145
  C  C1542  1  0.765640  0.023100  0.454600  1.0  0.0246
  C  C1543  1  0.740800  0.095500  0.456660  1.0  -0.1523
  C  C1544  1  0.703400  0.122000  0.441930  1.0  0.1324
  C  C1545  1  0.715100  0.006600  0.423110  1.0  0.0365
  C  C1546  1  0.700900  0.956500  0.405340  1.0  -0.0784
  C  C1547  1  0.731900  0.879900  0.401590  1.0  -0.1522
  C  C1548  1  0.765900  0.856800  0.414980  1.0  -0.1321
  C  C1549  1  0.779400  0.900200  0.432110  1.0  -0.1458
  C  C1550  1  0.754300  0.979000  0.437410  1.0  -0.0768
  C  C1551  1  0.653430  0.967700  0.271370  1.0  0.0499
  C  C1552  1  0.660000  0.922500  0.289690  1.0  -0.1533
  C  C1553  1  0.650170  0.978200  0.304920  1.0  -0.0683
  C  C1554  1  0.638130  0.052100  0.295990  1.0  0.149
  C  C1555  1  0.577100  0.117200  0.338800  1.0  -0.0962
  C  C1556  1  0.580200  0.119900  0.360500  1.0  0.0389
  C  C1557  1  0.526500  0.109400  0.371200  1.0  0.0335
  C  C1558  1  0.478100  0.099000  0.360700  1.0  -0.134
  C  C1559  1  0.474000  0.092100  0.340200  1.0  -0.0973
  C  C1560  1  0.525700  0.100400  0.329300  1.0  0.0465
  C  C1561  1  0.263650  0.402100  0.518100  1.0  -0.0013
  C  C1562  1  0.212710  0.433600  0.512570  1.0  -0.0966
  C  C1563  1  0.219270  0.470400  0.493620  1.0  -0.1147
  C  C1564  1  0.273970  0.459100  0.488150  1.0  0.1559
  C  C1565  1  0.301700  0.488200  0.470930  1.0  -0.0721
  C  C1566  1  0.357240  0.487100  0.467850  1.0  0.158
  C  C1567  1  0.386340  0.525200  0.452030  1.0  -0.1824
  C  C1568  1  0.439800  0.515100  0.456140  1.0  -0.1489
  C  C1569  1  0.443660  0.468900  0.474380  1.0  -0.0145
  C  C1570  1  0.265640  0.523100  0.454600  1.0  0.0246
  C  C1571  1  0.240800  0.595500  0.456660  1.0  -0.1523
  C  C1572  1  0.203400  0.622000  0.441930  1.0  0.1324
  C  C1573  1  0.215100  0.506600  0.423110  1.0  0.0365
  C  C1574  1  0.200900  0.456500  0.405340  1.0  -0.0784
  C  C1575  1  0.231900  0.379900  0.401590  1.0  -0.1522
  C  C1576  1  0.265900  0.356800  0.414980  1.0  -0.1321
  C  C1577  1  0.279400  0.400200  0.432110  1.0  -0.1458
  C  C1578  1  0.254300  0.479000  0.437410  1.0  -0.0768
  C  C1579  1  0.153430  0.467700  0.271370  1.0  0.0499
  C  C1580  1  0.160000  0.422500  0.289690  1.0  -0.1533
  C  C1581  1  0.150170  0.478200  0.304920  1.0  -0.0683
  C  C1582  1  0.138130  0.552100  0.295990  1.0  0.149
  C  C1583  1  0.077100  0.617200  0.338800  1.0  -0.0962
  C  C1584  1  0.080200  0.619900  0.360500  1.0  0.0389
  C  C1585  1  0.026500  0.609400  0.371200  1.0  0.0335
  C  C1586  1  0.978100  0.599000  0.360700  1.0  -0.134
  C  C1587  1  0.974000  0.592100  0.340200  1.0  -0.0973
  C  C1588  1  0.025700  0.600400  0.329300  1.0  0.0465
  C  C1589  1  0.263650  0.902100  0.018100  1.0  -0.0013
  C  C1590  1  0.212710  0.933600  0.012570  1.0  -0.0966
  C  C1591  1  0.219270  0.970400  0.993620  1.0  -0.1147
  C  C1592  1  0.273970  0.959100  0.988150  1.0  0.1559
  C  C1593  1  0.301700  0.988200  0.970930  1.0  -0.0721
  C  C1594  1  0.357240  0.987100  0.967850  1.0  0.158
  C  C1595  1  0.386340  0.025200  0.952030  1.0  -0.1824
  C  C1596  1  0.439800  0.015100  0.956140  1.0  -0.1489
  C  C1597  1  0.443660  0.968900  0.974380  1.0  -0.0145
  C  C1598  1  0.265640  0.023100  0.954600  1.0  0.0246
  C  C1599  1  0.240800  0.095500  0.956660  1.0  -0.1523
  C  C1600  1  0.203400  0.122000  0.941930  1.0  0.1324
  C  C1601  1  0.215100  0.006600  0.923110  1.0  0.0365
  C  C1602  1  0.200900  0.956500  0.905340  1.0  -0.0784
  C  C1603  1  0.231900  0.879900  0.901590  1.0  -0.1522
  C  C1604  1  0.265900  0.856800  0.914980  1.0  -0.1321
  C  C1605  1  0.279400  0.900200  0.932110  1.0  -0.1458
  C  C1606  1  0.254300  0.979000  0.937410  1.0  -0.0768
  C  C1607  1  0.153430  0.967700  0.771370  1.0  0.0499
  C  C1608  1  0.160000  0.922500  0.789690  1.0  -0.1533
  C  C1609  1  0.150170  0.978200  0.804920  1.0  -0.0683
  C  C1610  1  0.138130  0.052100  0.795990  1.0  0.149
  C  C1611  1  0.077100  0.117200  0.838800  1.0  -0.0962
  C  C1612  1  0.080200  0.119900  0.860500  1.0  0.0389
  C  C1613  1  0.026500  0.109400  0.871200  1.0  0.0335
  C  C1614  1  0.978100  0.099000  0.860700  1.0  -0.134
  C  C1615  1  0.974000  0.092100  0.840200  1.0  -0.0973
  C  C1616  1  0.025700  0.100400  0.829300  1.0  0.0465
  C  C1617  1  0.375000  0.375000  0.555230  1.0  -0.0571
  C  C1618  1  0.375000  0.375000  0.578470  1.0  -0.0209
  C  C1619  1  0.375000  0.875000  0.055230  1.0  -0.0571
  C  C1620  1  0.375000  0.875000  0.078470  1.0  -0.0209
  C  C1621  1  0.875000  0.375000  0.055230  1.0  -0.0571
  C  C1622  1  0.875000  0.375000  0.078470  1.0  -0.0209
  C  C1623  1  0.875000  0.875000  0.555230  1.0  -0.0571
  C  C1624  1  0.875000  0.875000  0.578470  1.0  -0.0209
  C  C1625  1  0.625000  0.625000  0.805230  1.0  -0.0571
  C  C1626  1  0.625000  0.625000  0.828470  1.0  -0.0209
  C  C1627  1  0.625000  0.125000  0.305230  1.0  -0.0571
  C  C1628  1  0.625000  0.125000  0.328470  1.0  -0.0209
  C  C1629  1  0.125000  0.625000  0.305230  1.0  -0.0571
  C  C1630  1  0.125000  0.625000  0.328470  1.0  -0.0209
  C  C1631  1  0.125000  0.125000  0.805230  1.0  -0.0571
  C  C1632  1  0.125000  0.125000  0.828470  1.0  -0.0209
  N  N1633  1  0.550800  0.165900  0.996390  1.0  -0.3761
  N  N1634  1  0.643820  0.200200  0.018530  1.0  -0.3517
  N  N1635  1  0.441640  0.330400  0.074100  1.0  -0.3386
  N  N1636  1  0.391880  0.294000  0.225600  1.0  -0.3962
  N  N1637  1  0.550800  0.665900  0.496390  1.0  -0.3761
  N  N1638  1  0.643820  0.700200  0.518530  1.0  -0.3517
  N  N1639  1  0.441640  0.830400  0.574100  1.0  -0.3386
  N  N1640  1  0.391880  0.794000  0.725600  1.0  -0.3962
  N  N1641  1  0.050800  0.165900  0.496390  1.0  -0.3761
  N  N1642  1  0.143820  0.200200  0.518530  1.0  -0.3517
  N  N1643  1  0.941640  0.330400  0.574100  1.0  -0.3386
  N  N1644  1  0.891880  0.294000  0.725600  1.0  -0.3962
  N  N1645  1  0.050800  0.665900  0.996390  1.0  -0.3761
  N  N1646  1  0.143820  0.700200  0.018530  1.0  -0.3517
  N  N1647  1  0.941640  0.830400  0.074100  1.0  -0.3386
  N  N1648  1  0.891880  0.794000  0.225600  1.0  -0.3962
  N  N1649  1  0.199200  0.584100  0.996390  1.0  -0.376
  N  N1650  1  0.106180  0.549800  0.018530  1.0  -0.3509
  N  N1651  1  0.308360  0.419600  0.074100  1.0  -0.3382
  N  N1652  1  0.358120  0.456000  0.225600  1.0  -0.3953
  N  N1653  1  0.199200  0.084100  0.496390  1.0  -0.376
  N  N1654  1  0.106180  0.049800  0.518530  1.0  -0.3509
  N  N1655  1  0.308360  0.919600  0.574100  1.0  -0.3382
  N  N1656  1  0.358120  0.956000  0.725600  1.0  -0.3953
  N  N1657  1  0.699200  0.584100  0.496390  1.0  -0.376
  N  N1658  1  0.606180  0.549800  0.518530  1.0  -0.3509
  N  N1659  1  0.808360  0.419600  0.574100  1.0  -0.3382
  N  N1660  1  0.858120  0.456000  0.725600  1.0  -0.3953
  N  N1661  1  0.699200  0.084100  0.996390  1.0  -0.376
  N  N1662  1  0.606180  0.049800  0.018530  1.0  -0.3509
  N  N1663  1  0.808360  0.919600  0.074100  1.0  -0.3382
  N  N1664  1  0.858120  0.956000  0.225600  1.0  -0.3953
  N  N1665  1  0.800800  0.834100  0.246390  1.0  -0.3772
  N  N1666  1  0.893820  0.799800  0.268530  1.0  -0.352
  N  N1667  1  0.691640  0.669600  0.324100  1.0  -0.3391
  N  N1668  1  0.641880  0.706000  0.475600  1.0  -0.3958
  N  N1669  1  0.800800  0.334100  0.746390  1.0  -0.3772
  N  N1670  1  0.893820  0.299800  0.768530  1.0  -0.352
  N  N1671  1  0.691640  0.169600  0.824100  1.0  -0.3391
  N  N1672  1  0.641880  0.206000  0.975600  1.0  -0.3958
  N  N1673  1  0.300800  0.834100  0.746390  1.0  -0.3772
  N  N1674  1  0.393820  0.799800  0.768530  1.0  -0.352
  N  N1675  1  0.191640  0.669600  0.824100  1.0  -0.3391
  N  N1676  1  0.141880  0.706000  0.975600  1.0  -0.3958
  N  N1677  1  0.300800  0.334100  0.246390  1.0  -0.3772
  N  N1678  1  0.393820  0.299800  0.268530  1.0  -0.352
  N  N1679  1  0.191640  0.169600  0.324100  1.0  -0.3391
  N  N1680  1  0.141880  0.206000  0.475600  1.0  -0.3958
  N  N1681  1  0.449200  0.415900  0.246390  1.0  -0.3752
  N  N1682  1  0.356180  0.450200  0.268530  1.0  -0.351
  N  N1683  1  0.558360  0.580400  0.324100  1.0  -0.3381
  N  N1684  1  0.608120  0.544000  0.475600  1.0  -0.3955
  N  N1685  1  0.449200  0.915900  0.746390  1.0  -0.3752
  N  N1686  1  0.356180  0.950200  0.768530  1.0  -0.351
  N  N1687  1  0.558360  0.080400  0.824100  1.0  -0.3381
  N  N1688  1  0.608120  0.044000  0.975600  1.0  -0.3955
  N  N1689  1  0.949200  0.415900  0.746390  1.0  -0.3752
  N  N1690  1  0.856180  0.450200  0.768530  1.0  -0.351
  N  N1691  1  0.058360  0.580400  0.824100  1.0  -0.3381
  N  N1692  1  0.108120  0.544000  0.975600  1.0  -0.3955
  N  N1693  1  0.949200  0.915900  0.246390  1.0  -0.3752
  N  N1694  1  0.856180  0.950200  0.268530  1.0  -0.351
  N  N1695  1  0.058360  0.080400  0.324100  1.0  -0.3381
  N  N1696  1  0.108120  0.044000  0.475600  1.0  -0.3955
  N  N1697  1  0.375000  0.375000  0.129340  1.0  -0.2688
  N  N1698  1  0.375000  0.875000  0.629340  1.0  -0.2688
  N  N1699  1  0.875000  0.375000  0.629340  1.0  -0.2688
  N  N1700  1  0.875000  0.875000  0.129340  1.0  -0.2688
  N  N1701  1  0.625000  0.625000  0.379340  1.0  -0.2688
  N  N1702  1  0.625000  0.125000  0.879340  1.0  -0.2688
  N  N1703  1  0.125000  0.625000  0.879340  1.0  -0.2688
  N  N1704  1  0.125000  0.125000  0.379340  1.0  -0.2688
  N  N1705  1  0.199200  0.165900  0.753610  1.0  -0.3748
  N  N1706  1  0.106180  0.200200  0.731470  1.0  -0.3524
  N  N1707  1  0.308360  0.330400  0.675900  1.0  -0.3421
  N  N1708  1  0.358120  0.294000  0.524400  1.0  -0.3956
  N  N1709  1  0.199200  0.665900  0.253610  1.0  -0.3748
  N  N1710  1  0.106180  0.700200  0.231470  1.0  -0.3524
  N  N1711  1  0.308360  0.830400  0.175900  1.0  -0.3421
  N  N1712  1  0.358120  0.794000  0.024400  1.0  -0.3956
  N  N1713  1  0.699200  0.165900  0.253610  1.0  -0.3748
  N  N1714  1  0.606180  0.200200  0.231470  1.0  -0.3524
  N  N1715  1  0.808360  0.330400  0.175900  1.0  -0.3421
  N  N1716  1  0.858120  0.294000  0.024400  1.0  -0.3956
  N  N1717  1  0.699200  0.665900  0.753610  1.0  -0.3748
  N  N1718  1  0.606180  0.700200  0.731470  1.0  -0.3524
  N  N1719  1  0.808360  0.830400  0.675900  1.0  -0.3421
  N  N1720  1  0.858120  0.794000  0.524400  1.0  -0.3956
  N  N1721  1  0.550800  0.584100  0.753610  1.0  -0.3768
  N  N1722  1  0.643820  0.549800  0.731470  1.0  -0.3531
  N  N1723  1  0.441640  0.419600  0.675900  1.0  -0.3417
  N  N1724  1  0.391880  0.456000  0.524400  1.0  -0.3955
  N  N1725  1  0.550800  0.084100  0.253610  1.0  -0.3768
  N  N1726  1  0.643820  0.049800  0.231470  1.0  -0.3531
  N  N1727  1  0.441640  0.919600  0.175900  1.0  -0.3417
  N  N1728  1  0.391880  0.956000  0.024400  1.0  -0.3955
  N  N1729  1  0.050800  0.584100  0.253610  1.0  -0.3768
  N  N1730  1  0.143820  0.549800  0.231470  1.0  -0.3531
  N  N1731  1  0.941640  0.419600  0.175900  1.0  -0.3417
  N  N1732  1  0.891880  0.456000  0.024400  1.0  -0.3955
  N  N1733  1  0.050800  0.084100  0.753610  1.0  -0.3768
  N  N1734  1  0.143820  0.049800  0.731470  1.0  -0.3531
  N  N1735  1  0.941640  0.919600  0.675900  1.0  -0.3417
  N  N1736  1  0.891880  0.956000  0.524400  1.0  -0.3955
  N  N1737  1  0.449200  0.834100  0.003610  1.0  -0.3757
  N  N1738  1  0.356180  0.799800  0.981470  1.0  -0.3519
  N  N1739  1  0.558360  0.669600  0.925900  1.0  -0.3412
  N  N1740  1  0.608120  0.706000  0.774400  1.0  -0.3951
  N  N1741  1  0.449200  0.334100  0.503610  1.0  -0.3757
  N  N1742  1  0.356180  0.299800  0.481470  1.0  -0.3519
  N  N1743  1  0.558360  0.169600  0.425900  1.0  -0.3412
  N  N1744  1  0.608120  0.206000  0.274400  1.0  -0.3951
  N  N1745  1  0.949200  0.834100  0.503610  1.0  -0.3757
  N  N1746  1  0.856180  0.799800  0.481470  1.0  -0.3519
  N  N1747  1  0.058360  0.669600  0.425900  1.0  -0.3412
  N  N1748  1  0.108120  0.706000  0.274400  1.0  -0.3951
  N  N1749  1  0.949200  0.334100  0.003610  1.0  -0.3757
  N  N1750  1  0.856180  0.299800  0.981470  1.0  -0.3519
  N  N1751  1  0.058360  0.169600  0.925900  1.0  -0.3412
  N  N1752  1  0.108120  0.206000  0.774400  1.0  -0.3951
  N  N1753  1  0.800800  0.415900  0.003610  1.0  -0.3756
  N  N1754  1  0.893820  0.450200  0.981470  1.0  -0.3533
  N  N1755  1  0.691640  0.580400  0.925900  1.0  -0.342
  N  N1756  1  0.641880  0.544000  0.774400  1.0  -0.3962
  N  N1757  1  0.800800  0.915900  0.503610  1.0  -0.3756
  N  N1758  1  0.893820  0.950200  0.481470  1.0  -0.3533
  N  N1759  1  0.691640  0.080400  0.425900  1.0  -0.342
  N  N1760  1  0.641880  0.044000  0.274400  1.0  -0.3962
  N  N1761  1  0.300800  0.415900  0.503610  1.0  -0.3756
  N  N1762  1  0.393820  0.450200  0.481470  1.0  -0.3533
  N  N1763  1  0.191640  0.580400  0.425900  1.0  -0.342
  N  N1764  1  0.141880  0.544000  0.274400  1.0  -0.3962
  N  N1765  1  0.300800  0.915900  0.003610  1.0  -0.3756
  N  N1766  1  0.393820  0.950200  0.981470  1.0  -0.3533
  N  N1767  1  0.191640  0.080400  0.925900  1.0  -0.342
  N  N1768  1  0.141880  0.044000  0.774400  1.0  -0.3962
  N  N1769  1  0.375000  0.375000  0.620660  1.0  -0.2685
  N  N1770  1  0.375000  0.875000  0.120660  1.0  -0.2685
  N  N1771  1  0.875000  0.375000  0.120660  1.0  -0.2685
  N  N1772  1  0.875000  0.875000  0.620660  1.0  -0.2685
  N  N1773  1  0.625000  0.625000  0.870660  1.0  -0.2685
  N  N1774  1  0.625000  0.125000  0.370660  1.0  -0.2685
  N  N1775  1  0.125000  0.625000  0.370660  1.0  -0.2685
  N  N1776  1  0.125000  0.125000  0.870660  1.0  -0.2685
