# generated using pymatgen
data_CoAgBH30C42N9F4
_symmetry_space_group_name_H-M   'P 1'
_cell_length_a   12.32700000
_cell_length_b   26.91400000
_cell_length_c   33.37500000
_cell_angle_alpha   90.00000000
_cell_angle_beta   90.00000000
_cell_angle_gamma   90.00000000
_symmetry_Int_Tables_number   1
_chemical_formula_structural   CoAgBH30C42N9F4
_chemical_formula_sum   'Co8 Ag8 B8 H240 C336 N72 F32'
_cell_volume   11072.78630325
_cell_formula_units_Z   8
loop_
 _symmetry_equiv_pos_site_id
 _symmetry_equiv_pos_as_xyz
  1  'x, y, z'
loop_
 _atom_site_type_symbol
 _atom_site_label
 _atom_site_symmetry_multiplicity
 _atom_site_fract_x
 _atom_site_fract_y
 _atom_site_fract_z
 _atom_site_occupancy
 _atom_site_charge
  Co  Co1  1  0.523360  0.568580  0.613670  1.0  0.3588
  Co  Co2  1  0.976640  0.068580  0.386330  1.0  0.3589
  Co  Co3  1  0.023360  0.068580  0.886330  1.0  0.3597
  Co  Co4  1  0.476640  0.568580  0.113670  1.0  0.3582
  Co  Co5  1  0.976640  0.931420  0.113670  1.0  0.3589
  Co  Co6  1  0.523360  0.431420  0.886330  1.0  0.3599
  Co  Co7  1  0.476640  0.431420  0.386330  1.0  0.3593
  Co  Co8  1  0.023360  0.931420  0.613670  1.0  0.3593
  Ag  Ag9  1  0.739200  0.221190  0.640010  1.0  0.3526
  Ag  Ag10  1  0.760800  0.721190  0.359990  1.0  0.3524
  Ag  Ag11  1  0.239200  0.721190  0.859990  1.0  0.3527
  Ag  Ag12  1  0.260800  0.221190  0.140010  1.0  0.3523
  Ag  Ag13  1  0.760800  0.278810  0.140010  1.0  0.3523
  Ag  Ag14  1  0.739200  0.778810  0.859990  1.0  0.3524
  Ag  Ag15  1  0.260800  0.778810  0.359990  1.0  0.3523
  Ag  Ag16  1  0.239200  0.278810  0.640010  1.0  0.3524
  B  B17  1  0.486000  0.166100  0.630200  1.0  0.9483
  B  B18  1  0.014000  0.333900  0.130200  1.0  0.9489
  B  B19  1  0.486000  0.833900  0.869800  1.0  0.9458
  B  B20  1  0.014000  0.666100  0.369800  1.0  0.9471
  B  B21  1  0.514000  0.833900  0.369800  1.0  0.9471
  B  B22  1  0.986000  0.666100  0.869800  1.0  0.946
  B  B23  1  0.514000  0.166100  0.130200  1.0  0.9489
  B  B24  1  0.986000  0.333900  0.630200  1.0  0.9482
  H  H25  1  0.287600  0.539100  0.643100  1.0  0.0898
  H  H26  1  0.236100  0.455900  0.669500  1.0  0.1109
  H  H27  1  0.397200  0.401900  0.660600  1.0  0.1047
  H  H28  1  0.792900  0.428600  0.597600  1.0  0.1164
  H  H29  1  0.884100  0.504200  0.570500  1.0  0.1107
  H  H30  1  0.754500  0.573600  0.574700  1.0  0.0873
  H  H31  1  0.722400  0.404400  0.676200  1.0  0.1105
  H  H32  1  0.759200  0.325000  0.685100  1.0  0.055
  H  H33  1  0.542400  0.281700  0.606800  1.0  0.0829
  H  H34  1  0.498600  0.363500  0.592300  1.0  0.1093
  H  H35  1  0.221800  0.035900  0.833200  1.0  0.0826
  H  H36  1  0.228600  0.042800  0.759700  1.0  0.0912
  H  H37  1  0.068400  0.090800  0.736400  1.0  0.1191
  H  H38  1  0.750600  0.180600  0.822100  1.0  0.1139
  H  H39  1  0.705800  0.181800  0.895000  1.0  0.114
  H  H40  1  0.836700  0.124200  0.928900  1.0  0.0872
  H  H41  1  0.008400  0.186400  0.753100  1.0  0.1349
  H  H42  1  0.929900  0.221500  0.695100  1.0  0.0672
  H  H43  1  0.669300  0.141100  0.706800  1.0  0.074
  H  H44  1  0.738500  0.098100  0.763000  1.0  0.1211
  H  H45  1  0.847700  0.152300  0.345800  1.0  0.0902
  H  H46  1  0.750200  0.222300  0.381000  1.0  0.114
  H  H47  1  0.775000  0.207200  0.454500  1.0  0.109
  H  H48  1  0.031500  0.078500  0.534700  1.0  0.1155
  H  H49  1  0.167500  0.014100  0.511000  1.0  0.1203
  H  H50  1  0.139300  0.006600  0.437300  1.0  0.0916
  H  H51  1  0.798200  0.085600  0.532000  1.0  0.1171
  H  H52  1  0.728000  0.123300  0.589300  1.0  0.0698
  H  H53  1  0.884600  0.246700  0.564800  1.0  0.0801
  H  H54  1  0.945400  0.217900  0.504800  1.0  0.1152
  H  H55  1  0.212400  0.039100  0.356900  1.0  0.0888
  H  H56  1  0.263900  0.955900  0.330500  1.0  0.112
  H  H57  1  0.102800  0.901900  0.339400  1.0  0.1041
  H  H58  1  0.707100  0.928600  0.402400  1.0  0.1171
  H  H59  1  0.615900  0.004200  0.429500  1.0  0.11
  H  H60  1  0.745500  0.073600  0.425300  1.0  0.0863
  H  H61  1  0.777600  0.904400  0.323800  1.0  0.111
  H  H62  1  0.740800  0.825000  0.314900  1.0  0.0542
  H  H63  1  0.957600  0.781700  0.393200  1.0  0.0829
  H  H64  1  0.001400  0.863500  0.407700  1.0  0.1102
  H  H65  1  0.278200  0.535900  0.166800  1.0  0.0823
  H  H66  1  0.271400  0.542800  0.240300  1.0  0.092
  H  H67  1  0.431600  0.590800  0.263600  1.0  0.1187
  H  H68  1  0.749400  0.680600  0.177900  1.0  0.1136
  H  H69  1  0.794200  0.681800  0.105000  1.0  0.1145
  H  H70  1  0.663300  0.624200  0.071100  1.0  0.0879
  H  H71  1  0.491600  0.686400  0.246900  1.0  0.1355
  H  H72  1  0.570100  0.721500  0.304900  1.0  0.0671
  H  H73  1  0.830700  0.641100  0.293200  1.0  0.0731
  H  H74  1  0.761500  0.598100  0.237000  1.0  0.1216
  H  H75  1  0.652300  0.652300  0.654200  1.0  0.0903
  H  H76  1  0.749800  0.722300  0.619000  1.0  0.1133
  H  H77  1  0.725000  0.707200  0.545500  1.0  0.1087
  H  H78  1  0.468500  0.578500  0.465300  1.0  0.115
  H  H79  1  0.332500  0.514100  0.489000  1.0  0.1207
  H  H80  1  0.360700  0.506600  0.562700  1.0  0.092
  H  H81  1  0.701800  0.585600  0.468000  1.0  0.1174
  H  H82  1  0.772000  0.623300  0.410700  1.0  0.0693
  H  H83  1  0.615400  0.746700  0.435200  1.0  0.0805
  H  H84  1  0.554600  0.717900  0.495200  1.0  0.1155
  H  H85  1  0.787600  0.039100  0.856900  1.0  0.0896
  H  H86  1  0.736100  0.955900  0.830500  1.0  0.111
  H  H87  1  0.897200  0.901900  0.839400  1.0  0.1042
  H  H88  1  0.292900  0.928600  0.902400  1.0  0.1167
  H  H89  1  0.384100  0.004200  0.929500  1.0  0.1104
  H  H90  1  0.254500  0.073600  0.925300  1.0  0.0867
  H  H91  1  0.222400  0.904400  0.823800  1.0  0.1113
  H  H92  1  0.259200  0.825000  0.814900  1.0  0.0543
  H  H93  1  0.042400  0.781700  0.893200  1.0  0.0829
  H  H94  1  0.998600  0.863500  0.907700  1.0  0.1097
  H  H95  1  0.721800  0.535900  0.666800  1.0  0.0823
  H  H96  1  0.728600  0.542800  0.740300  1.0  0.0914
  H  H97  1  0.568400  0.590800  0.763600  1.0  0.1188
  H  H98  1  0.250600  0.680600  0.677900  1.0  0.1142
  H  H99  1  0.205800  0.681800  0.605000  1.0  0.1135
  H  H100  1  0.336700  0.624200  0.571100  1.0  0.0875
  H  H101  1  0.508400  0.686400  0.746900  1.0  0.1349
  H  H102  1  0.429900  0.721500  0.804900  1.0  0.0671
  H  H103  1  0.169300  0.641100  0.793200  1.0  0.0732
  H  H104  1  0.238500  0.598100  0.737000  1.0  0.1209
  H  H105  1  0.347700  0.652300  0.154200  1.0  0.0904
  H  H106  1  0.250200  0.722300  0.119000  1.0  0.1144
  H  H107  1  0.275000  0.707200  0.045500  1.0  0.1091
  H  H108  1  0.531500  0.578500  0.965300  1.0  0.1153
  H  H109  1  0.667500  0.514100  0.989000  1.0  0.1202
  H  H110  1  0.639300  0.506600  0.062700  1.0  0.0919
  H  H111  1  0.298200  0.585600  0.968000  1.0  0.1171
  H  H112  1  0.228000  0.623300  0.910700  1.0  0.0698
  H  H113  1  0.384600  0.746700  0.935200  1.0  0.0799
  H  H114  1  0.445400  0.717900  0.995200  1.0  0.1149
  H  H115  1  0.712400  0.539100  0.143100  1.0  0.0888
  H  H116  1  0.763900  0.455900  0.169500  1.0  0.1116
  H  H117  1  0.602800  0.401900  0.160600  1.0  0.1045
  H  H118  1  0.207100  0.428600  0.097600  1.0  0.1166
  H  H119  1  0.115900  0.504200  0.070500  1.0  0.1094
  H  H120  1  0.245500  0.573600  0.074700  1.0  0.0868
  H  H121  1  0.277600  0.404400  0.176200  1.0  0.1104
  H  H122  1  0.240800  0.325000  0.185100  1.0  0.0551
  H  H123  1  0.457600  0.281700  0.106800  1.0  0.0829
  H  H124  1  0.501400  0.363500  0.092300  1.0  0.1099
  H  H125  1  0.778200  0.035900  0.333200  1.0  0.0823
  H  H126  1  0.771400  0.042800  0.259700  1.0  0.0917
  H  H127  1  0.931600  0.090800  0.236400  1.0  0.1188
  H  H128  1  0.249400  0.180600  0.322100  1.0  0.1139
  H  H129  1  0.294200  0.181800  0.395000  1.0  0.1148
  H  H130  1  0.163300  0.124200  0.428900  1.0  0.0867
  H  H131  1  0.991600  0.186400  0.253100  1.0  0.1354
  H  H132  1  0.070100  0.221500  0.195100  1.0  0.0673
  H  H133  1  0.330700  0.141100  0.206800  1.0  0.074
  H  H134  1  0.261500  0.098100  0.263000  1.0  0.1216
  H  H135  1  0.152300  0.152300  0.845800  1.0  0.0903
  H  H136  1  0.249800  0.222300  0.881000  1.0  0.1134
  H  H137  1  0.225000  0.207200  0.954500  1.0  0.1081
  H  H138  1  0.968500  0.078500  0.034700  1.0  0.1155
  H  H139  1  0.832500  0.014100  0.011000  1.0  0.1209
  H  H140  1  0.860700  0.006600  0.937300  1.0  0.0918
  H  H141  1  0.201800  0.085600  0.032000  1.0  0.1176
  H  H142  1  0.272000  0.123300  0.089300  1.0  0.0693
  H  H143  1  0.115400  0.246700  0.064800  1.0  0.0806
  H  H144  1  0.054600  0.217900  0.004800  1.0  0.1158
  H  H145  1  0.212400  0.960900  0.143100  1.0  0.0904
  H  H146  1  0.263900  0.044100  0.169500  1.0  0.1119
  H  H147  1  0.102800  0.098100  0.160600  1.0  0.1043
  H  H148  1  0.707100  0.071400  0.097600  1.0  0.1173
  H  H149  1  0.615900  0.995800  0.070500  1.0  0.1094
  H  H150  1  0.745500  0.926400  0.074700  1.0  0.0855
  H  H151  1  0.777600  0.095600  0.176200  1.0  0.1109
  H  H152  1  0.740800  0.175000  0.185100  1.0  0.0546
  H  H153  1  0.957600  0.218300  0.106800  1.0  0.0821
  H  H154  1  0.001400  0.136500  0.092300  1.0  0.11
  H  H155  1  0.278200  0.464100  0.333200  1.0  0.0823
  H  H156  1  0.271400  0.457200  0.259700  1.0  0.0919
  H  H157  1  0.431600  0.409200  0.236400  1.0  0.1189
  H  H158  1  0.749400  0.319400  0.322100  1.0  0.1136
  H  H159  1  0.794200  0.318200  0.395000  1.0  0.1144
  H  H160  1  0.663300  0.375800  0.428900  1.0  0.0866
  H  H161  1  0.491600  0.313600  0.253100  1.0  0.1353
  H  H162  1  0.570100  0.278500  0.195100  1.0  0.0674
  H  H163  1  0.830700  0.358900  0.206800  1.0  0.0738
  H  H164  1  0.761500  0.401900  0.263000  1.0  0.1215
  H  H165  1  0.652300  0.347700  0.845800  1.0  0.0903
  H  H166  1  0.749800  0.277700  0.881000  1.0  0.1126
  H  H167  1  0.725000  0.292800  0.954500  1.0  0.1072
  H  H168  1  0.468500  0.421500  0.034700  1.0  0.1157
  H  H169  1  0.332500  0.485900  0.011000  1.0  0.1205
  H  H170  1  0.360700  0.493400  0.937300  1.0  0.0916
  H  H171  1  0.701800  0.414400  0.032000  1.0  0.118
  H  H172  1  0.772000  0.376700  0.089300  1.0  0.0695
  H  H173  1  0.615400  0.253300  0.064800  1.0  0.079
  H  H174  1  0.554600  0.282100  0.004800  1.0  0.115
  H  H175  1  0.287600  0.460900  0.856900  1.0  0.0882
  H  H176  1  0.236100  0.544100  0.830500  1.0  0.1106
  H  H177  1  0.397200  0.598100  0.839400  1.0  0.1046
  H  H178  1  0.792900  0.571400  0.902400  1.0  0.1163
  H  H179  1  0.884100  0.495800  0.929500  1.0  0.1106
  H  H180  1  0.754500  0.426400  0.925300  1.0  0.0863
  H  H181  1  0.722400  0.595600  0.823800  1.0  0.1109
  H  H182  1  0.759200  0.675000  0.814900  1.0  0.0542
  H  H183  1  0.542400  0.718300  0.893200  1.0  0.0823
  H  H184  1  0.498600  0.636500  0.907700  1.0  0.1094
  H  H185  1  0.221800  0.964100  0.666800  1.0  0.0819
  H  H186  1  0.228600  0.957200  0.740300  1.0  0.0916
  H  H187  1  0.068400  0.909200  0.763600  1.0  0.1191
  H  H188  1  0.750600  0.819400  0.677900  1.0  0.1139
  H  H189  1  0.705800  0.818200  0.605000  1.0  0.113
  H  H190  1  0.836700  0.875800  0.571100  1.0  0.0874
  H  H191  1  0.008400  0.813600  0.746900  1.0  0.1344
  H  H192  1  0.929900  0.778500  0.804900  1.0  0.0673
  H  H193  1  0.669300  0.858900  0.793200  1.0  0.0727
  H  H194  1  0.738500  0.901900  0.737000  1.0  0.1215
  H  H195  1  0.847700  0.847700  0.154200  1.0  0.0904
  H  H196  1  0.750200  0.777700  0.119000  1.0  0.1142
  H  H197  1  0.775000  0.792800  0.045500  1.0  0.1081
  H  H198  1  0.031500  0.921500  0.965300  1.0  0.1149
  H  H199  1  0.167500  0.985900  0.989000  1.0  0.1196
  H  H200  1  0.139300  0.993400  0.062700  1.0  0.0919
  H  H201  1  0.798200  0.914400  0.968000  1.0  0.1175
  H  H202  1  0.728000  0.876700  0.910700  1.0  0.0704
  H  H203  1  0.884600  0.753300  0.935200  1.0  0.0787
  H  H204  1  0.945400  0.782100  0.995200  1.0  0.1152
  H  H205  1  0.712400  0.460900  0.356900  1.0  0.0904
  H  H206  1  0.763900  0.544100  0.330500  1.0  0.1118
  H  H207  1  0.602800  0.598100  0.339400  1.0  0.1044
  H  H208  1  0.207100  0.571400  0.402400  1.0  0.1172
  H  H209  1  0.115900  0.495800  0.429500  1.0  0.1101
  H  H210  1  0.245500  0.426400  0.425300  1.0  0.0861
  H  H211  1  0.277600  0.595600  0.323800  1.0  0.1105
  H  H212  1  0.240800  0.675000  0.314900  1.0  0.0544
  H  H213  1  0.457600  0.718300  0.393200  1.0  0.0821
  H  H214  1  0.501400  0.636500  0.407700  1.0  0.1099
  H  H215  1  0.778200  0.964100  0.166800  1.0  0.0823
  H  H216  1  0.771400  0.957200  0.240300  1.0  0.0919
  H  H217  1  0.931600  0.909200  0.263600  1.0  0.1191
  H  H218  1  0.249400  0.819400  0.177900  1.0  0.1134
  H  H219  1  0.294200  0.818200  0.105000  1.0  0.1138
  H  H220  1  0.163300  0.875800  0.071100  1.0  0.088
  H  H221  1  0.991600  0.813600  0.246900  1.0  0.1351
  H  H222  1  0.070100  0.778500  0.304900  1.0  0.0671
  H  H223  1  0.330700  0.858900  0.293200  1.0  0.0729
  H  H224  1  0.261500  0.901900  0.237000  1.0  0.1217
  H  H225  1  0.152300  0.847700  0.654200  1.0  0.0903
  H  H226  1  0.249800  0.777700  0.619000  1.0  0.1129
  H  H227  1  0.225000  0.792800  0.545500  1.0  0.1076
  H  H228  1  0.968500  0.921500  0.465300  1.0  0.115
  H  H229  1  0.832500  0.985900  0.489000  1.0  0.1203
  H  H230  1  0.860700  0.993400  0.562700  1.0  0.0916
  H  H231  1  0.201800  0.914400  0.468000  1.0  0.1177
  H  H232  1  0.272000  0.876700  0.410700  1.0  0.0699
  H  H233  1  0.115400  0.753300  0.435200  1.0  0.079
  H  H234  1  0.054600  0.782100  0.495200  1.0  0.1155
  H  H235  1  0.787600  0.960900  0.643100  1.0  0.0885
  H  H236  1  0.736100  0.044100  0.669500  1.0  0.1108
  H  H237  1  0.897200  0.098100  0.660600  1.0  0.1047
  H  H238  1  0.292900  0.071400  0.597600  1.0  0.1165
  H  H239  1  0.384100  0.995800  0.570500  1.0  0.1107
  H  H240  1  0.254500  0.926400  0.574700  1.0  0.0858
  H  H241  1  0.222400  0.095600  0.676200  1.0  0.1111
  H  H242  1  0.259200  0.175000  0.685100  1.0  0.0543
  H  H243  1  0.042400  0.218300  0.606800  1.0  0.0824
  H  H244  1  0.998600  0.136500  0.592300  1.0  0.1094
  H  H245  1  0.721800  0.464100  0.833200  1.0  0.0823
  H  H246  1  0.728600  0.457200  0.759700  1.0  0.0914
  H  H247  1  0.568400  0.409200  0.736400  1.0  0.1193
  H  H248  1  0.250600  0.319400  0.822100  1.0  0.1135
  H  H249  1  0.205800  0.318200  0.895000  1.0  0.1139
  H  H250  1  0.336700  0.375800  0.928900  1.0  0.087
  H  H251  1  0.508400  0.313600  0.753100  1.0  0.1346
  H  H252  1  0.429900  0.278500  0.695100  1.0  0.0674
  H  H253  1  0.169300  0.358900  0.706800  1.0  0.0735
  H  H254  1  0.238500  0.401900  0.763000  1.0  0.1214
  H  H255  1  0.347700  0.347700  0.345800  1.0  0.0902
  H  H256  1  0.250200  0.277700  0.381000  1.0  0.1132
  H  H257  1  0.275000  0.292800  0.454500  1.0  0.1084
  H  H258  1  0.531500  0.421500  0.534700  1.0  0.1153
  H  H259  1  0.667500  0.485900  0.511000  1.0  0.1198
  H  H260  1  0.639300  0.493400  0.437300  1.0  0.0915
  H  H261  1  0.298200  0.414400  0.532000  1.0  0.1176
  H  H262  1  0.228000  0.376700  0.589300  1.0  0.0698
  H  H263  1  0.384600  0.253300  0.564800  1.0  0.0788
  H  H264  1  0.445400  0.282100  0.504800  1.0  0.1149
  C  C265  1  0.334300  0.511000  0.643800  1.0  0.0048
  C  C266  1  0.304200  0.465100  0.658400  1.0  -0.1174
  C  C267  1  0.392500  0.436100  0.653600  1.0  -0.0751
  C  C268  1  0.472600  0.463200  0.637300  1.0  0.1933
  C  C269  1  0.578100  0.448100  0.625800  1.0  0.0004
  C  C270  1  0.655900  0.476100  0.608300  1.0  0.2011
  C  C271  1  0.762800  0.461000  0.595800  1.0  -0.196
  C  C272  1  0.812400  0.502300  0.580800  1.0  -0.1118
  C  C273  1  0.739500  0.540800  0.583600  1.0  0.0281
  C  C274  1  0.607100  0.394400  0.633300  1.0  0.0839
  C  C275  1  0.685400  0.380200  0.660600  1.0  -0.1851
  C  C276  1  0.707800  0.333100  0.664900  1.0  0.1722
  C  C277  1  0.582100  0.307700  0.619200  1.0  0.1528
  C  C278  1  0.553000  0.355900  0.611500  1.0  -0.206
  C  C279  1  0.167500  0.051700  0.817500  1.0  0.048
  C  C280  1  0.172500  0.055800  0.776200  1.0  -0.104
  C  C281  1  0.084400  0.081200  0.763100  1.0  -0.1674
  C  C282  1  0.019200  0.090800  0.798900  1.0  0.0458
  C  C283  1  0.926500  0.117000  0.801800  1.0  -0.0619
  C  C284  1  0.874600  0.128300  0.837600  1.0  0.1801
  C  C285  1  0.785800  0.162200  0.842700  1.0  -0.1972
  C  C286  1  0.761600  0.163200  0.882400  1.0  -0.1237
  C  C287  1  0.835500  0.131200  0.901000  1.0  0.0334
  C  C288  1  0.878100  0.140200  0.764600  1.0  0.0239
  C  C289  1  0.938800  0.176100  0.744000  1.0  -0.1756
  C  C290  1  0.890900  0.196300  0.709000  1.0  0.1547
  C  C291  1  0.740400  0.148800  0.715900  1.0  0.1485
  C  C292  1  0.778300  0.124000  0.750400  1.0  -0.1972
  C  C293  1  0.846200  0.157200  0.373900  1.0  0.0149
  C  C294  1  0.789900  0.196100  0.393200  1.0  -0.1609
  C  C295  1  0.804900  0.188100  0.433300  1.0  -0.2
  C  C296  1  0.873000  0.146200  0.437400  1.0  0.2578
  C  C297  1  0.913100  0.126900  0.471900  1.0  0.0084
  C  C298  1  0.993600  0.085800  0.474400  1.0  0.1245
  C  C299  1  0.044000  0.068200  0.507800  1.0  -0.0713
  C  C300  1  0.117300  0.032300  0.495100  1.0  -0.0957
  C  C301  1  0.100900  0.028900  0.454300  1.0  0.0177
  C  C302  1  0.881400  0.147000  0.510800  1.0  0.0435
  C  C303  1  0.814700  0.119400  0.537500  1.0  -0.1491
  C  C304  1  0.773300  0.142200  0.572100  1.0  0.1492
  C  C305  1  0.863400  0.214200  0.556800  1.0  0.1357
  C  C306  1  0.903500  0.197000  0.521700  1.0  -0.2144
  C  C307  1  0.165700  0.011000  0.356200  1.0  0.0087
  C  C308  1  0.195800  0.965100  0.341600  1.0  -0.1162
  C  C309  1  0.107500  0.936100  0.346400  1.0  -0.0746
  C  C310  1  0.027400  0.963200  0.362700  1.0  0.1917
  C  C311  1  0.921900  0.948100  0.374200  1.0  -0.0005
  C  C312  1  0.844100  0.976100  0.391700  1.0  0.2008
  C  C313  1  0.737200  0.961000  0.404200  1.0  -0.1979
  C  C314  1  0.687600  0.002300  0.419200  1.0  -0.1107
  C  C315  1  0.760500  0.040800  0.416400  1.0  0.0265
  C  C316  1  0.892900  0.894400  0.366700  1.0  0.0832
  C  C317  1  0.814600  0.880200  0.339400  1.0  -0.1865
  C  C318  1  0.792200  0.833100  0.335100  1.0  0.1727
  C  C319  1  0.917900  0.807700  0.380800  1.0  0.1535
  C  C320  1  0.947000  0.855900  0.388500  1.0  -0.2055
  C  C321  1  0.332500  0.551700  0.182500  1.0  0.0426
  C  C322  1  0.327500  0.555800  0.223800  1.0  -0.1056
  C  C323  1  0.415600  0.581200  0.236900  1.0  -0.1658
  C  C324  1  0.480800  0.590800  0.201100  1.0  0.046
  C  C325  1  0.573500  0.617000  0.198200  1.0  -0.0621
  C  C326  1  0.625400  0.628300  0.162400  1.0  0.1805
  C  C327  1  0.714200  0.662200  0.157300  1.0  -0.1949
  C  C328  1  0.738400  0.663200  0.117600  1.0  -0.1228
  C  C329  1  0.664500  0.631200  0.099000  1.0  0.0341
  C  C330  1  0.621900  0.640200  0.235400  1.0  0.025
  C  C331  1  0.561200  0.676100  0.256000  1.0  -0.1748
  C  C332  1  0.609100  0.696300  0.291000  1.0  0.1534
  C  C333  1  0.759600  0.648800  0.284100  1.0  0.1505
  C  C334  1  0.721700  0.624000  0.249600  1.0  -0.1951
  C  C335  1  0.653800  0.657200  0.626100  1.0  0.0158
  C  C336  1  0.710100  0.696100  0.606800  1.0  -0.1596
  C  C337  1  0.695100  0.688100  0.566700  1.0  -0.2004
  C  C338  1  0.627000  0.646200  0.562600  1.0  0.2582
  C  C339  1  0.586900  0.626900  0.528100  1.0  0.0084
  C  C340  1  0.506400  0.585800  0.525600  1.0  0.1254
  C  C341  1  0.456000  0.568200  0.492200  1.0  -0.0711
  C  C342  1  0.382700  0.532300  0.504900  1.0  -0.0968
  C  C343  1  0.399100  0.528900  0.545700  1.0  0.0177
  C  C344  1  0.618600  0.647000  0.489200  1.0  0.0437
  C  C345  1  0.685300  0.619400  0.462500  1.0  -0.1494
  C  C346  1  0.726700  0.642200  0.427900  1.0  0.1469
  C  C347  1  0.636600  0.714200  0.443200  1.0  0.1357
  C  C348  1  0.596500  0.697000  0.478300  1.0  -0.2144
  C  C349  1  0.834300  0.011000  0.856200  1.0  0.0046
  C  C350  1  0.804200  0.965100  0.841600  1.0  -0.116
  C  C351  1  0.892500  0.936100  0.846400  1.0  -0.0752
  C  C352  1  0.972600  0.963200  0.862700  1.0  0.192
  C  C353  1  0.078100  0.948100  0.874200  1.0  0.0005
  C  C354  1  0.155900  0.976100  0.891700  1.0  0.201
  C  C355  1  0.262800  0.961000  0.904200  1.0  -0.1959
  C  C356  1  0.312400  0.002300  0.919200  1.0  -0.1113
  C  C357  1  0.239500  0.040800  0.916400  1.0  0.028
  C  C358  1  0.107100  0.894400  0.866700  1.0  0.0838
  C  C359  1  0.185400  0.880200  0.839400  1.0  -0.1852
  C  C360  1  0.207800  0.833100  0.835100  1.0  0.1716
  C  C361  1  0.082100  0.807700  0.880800  1.0  0.1533
  C  C362  1  0.053000  0.855900  0.888500  1.0  -0.2047
  C  C363  1  0.667500  0.551700  0.682500  1.0  0.0437
  C  C364  1  0.672500  0.555800  0.723800  1.0  -0.1036
  C  C365  1  0.584400  0.581200  0.736900  1.0  -0.1658
  C  C366  1  0.519200  0.590800  0.701100  1.0  0.0457
  C  C367  1  0.426500  0.617000  0.698200  1.0  -0.0624
  C  C368  1  0.374600  0.628300  0.662400  1.0  0.1801
  C  C369  1  0.285800  0.662200  0.657300  1.0  -0.1974
  C  C370  1  0.261600  0.663200  0.617600  1.0  -0.1236
  C  C371  1  0.335500  0.631200  0.599000  1.0  0.0335
  C  C372  1  0.378100  0.640200  0.735400  1.0  0.0238
  C  C373  1  0.438800  0.676100  0.756000  1.0  -0.176
  C  C374  1  0.390900  0.696300  0.791000  1.0  0.1537
  C  C375  1  0.240400  0.648800  0.784100  1.0  0.1481
  C  C376  1  0.278300  0.624000  0.749600  1.0  -0.1968
  C  C377  1  0.346200  0.657200  0.126100  1.0  0.0142
  C  C378  1  0.289900  0.696100  0.106800  1.0  -0.1616
  C  C379  1  0.304900  0.688100  0.066700  1.0  -0.1988
  C  C380  1  0.373000  0.646200  0.062600  1.0  0.2579
  C  C381  1  0.413100  0.626900  0.028100  1.0  0.0085
  C  C382  1  0.493600  0.585800  0.025600  1.0  0.1247
  C  C383  1  0.544000  0.568200  0.992200  1.0  -0.0721
  C  C384  1  0.617300  0.532300  0.004900  1.0  -0.096
  C  C385  1  0.600900  0.528900  0.045700  1.0  0.0178
  C  C386  1  0.381400  0.647000  0.989200  1.0  0.0432
  C  C387  1  0.314700  0.619400  0.962500  1.0  -0.1489
  C  C388  1  0.273300  0.642200  0.927900  1.0  0.1485
  C  C389  1  0.363400  0.714200  0.943200  1.0  0.136
  C  C390  1  0.403500  0.697000  0.978300  1.0  -0.2143
  C  C391  1  0.665700  0.511000  0.143800  1.0  0.009
  C  C392  1  0.695800  0.465100  0.158400  1.0  -0.1173
  C  C393  1  0.607500  0.436100  0.153600  1.0  -0.0741
  C  C394  1  0.527400  0.463200  0.137300  1.0  0.1929
  C  C395  1  0.421900  0.448100  0.125800  1.0  -0.0004
  C  C396  1  0.344100  0.476100  0.108300  1.0  0.201
  C  C397  1  0.237200  0.461000  0.095800  1.0  -0.1981
  C  C398  1  0.187600  0.502300  0.080800  1.0  -0.1108
  C  C399  1  0.260500  0.540800  0.083600  1.0  0.0267
  C  C400  1  0.392900  0.394400  0.133300  1.0  0.0832
  C  C401  1  0.314600  0.380200  0.160600  1.0  -0.1863
  C  C402  1  0.292200  0.333100  0.164900  1.0  0.1724
  C  C403  1  0.417900  0.307700  0.119200  1.0  0.1528
  C  C404  1  0.447000  0.355900  0.111500  1.0  -0.2068
  C  C405  1  0.832500  0.051700  0.317500  1.0  0.0465
  C  C406  1  0.827500  0.055800  0.276200  1.0  -0.1057
  C  C407  1  0.915600  0.081200  0.263100  1.0  -0.1671
  C  C408  1  0.980800  0.090800  0.298900  1.0  0.0458
  C  C409  1  0.073500  0.117000  0.301800  1.0  -0.0615
  C  C410  1  0.125400  0.128300  0.337600  1.0  0.1812
  C  C411  1  0.214200  0.162200  0.342700  1.0  -0.1958
  C  C412  1  0.238400  0.163200  0.382400  1.0  -0.1216
  C  C413  1  0.164500  0.131200  0.401000  1.0  0.0359
  C  C414  1  0.121900  0.140200  0.264600  1.0  0.0248
  C  C415  1  0.061200  0.176100  0.244000  1.0  -0.1741
  C  C416  1  0.109100  0.196300  0.209000  1.0  0.1541
  C  C417  1  0.259600  0.148800  0.215900  1.0  0.1499
  C  C418  1  0.221700  0.124000  0.250400  1.0  -0.1947
  C  C419  1  0.153800  0.157200  0.873900  1.0  0.0154
  C  C420  1  0.210100  0.196100  0.893200  1.0  -0.1592
  C  C421  1  0.195100  0.188100  0.933300  1.0  -0.2008
  C  C422  1  0.127000  0.146200  0.937400  1.0  0.258
  C  C423  1  0.086900  0.126900  0.971900  1.0  0.0083
  C  C424  1  0.006400  0.085800  0.974400  1.0  0.1248
  C  C425  1  0.956000  0.068200  0.007800  1.0  -0.0706
  C  C426  1  0.882700  0.032300  0.995100  1.0  -0.0971
  C  C427  1  0.899100  0.028900  0.954300  1.0  0.0178
  C  C428  1  0.118600  0.147000  0.010800  1.0  0.0439
  C  C429  1  0.185300  0.119400  0.037500  1.0  -0.1493
  C  C430  1  0.226700  0.142200  0.072100  1.0  0.1474
  C  C431  1  0.136600  0.214200  0.056800  1.0  0.1356
  C  C432  1  0.096500  0.197000  0.021700  1.0  -0.2142
  C  C433  1  0.165700  0.989000  0.143800  1.0  0.0082
  C  C434  1  0.195800  0.034900  0.158400  1.0  -0.1171
  C  C435  1  0.107500  0.063900  0.153600  1.0  -0.0729
  C  C436  1  0.027400  0.036800  0.137300  1.0  0.1928
  C  C437  1  0.921900  0.051900  0.125800  1.0  -0.0007
  C  C438  1  0.844100  0.023900  0.108300  1.0  0.2011
  C  C439  1  0.737200  0.039000  0.095800  1.0  -0.1979
  C  C440  1  0.687600  0.997700  0.080800  1.0  -0.1107
  C  C441  1  0.760500  0.959200  0.083600  1.0  0.0268
  C  C442  1  0.892900  0.105600  0.133300  1.0  0.0824
  C  C443  1  0.814600  0.119800  0.160600  1.0  -0.1876
  C  C444  1  0.792200  0.166900  0.164900  1.0  0.1703
  C  C445  1  0.917900  0.192300  0.119200  1.0  0.1538
  C  C446  1  0.947000  0.144100  0.111500  1.0  -0.206
  C  C447  1  0.332500  0.448300  0.317500  1.0  0.0455
  C  C448  1  0.327500  0.444200  0.276200  1.0  -0.1061
  C  C449  1  0.415600  0.418800  0.263100  1.0  -0.1671
  C  C450  1  0.480800  0.409200  0.298900  1.0  0.0461
  C  C451  1  0.573500  0.383000  0.301800  1.0  -0.0616
  C  C452  1  0.625400  0.371700  0.337600  1.0  0.1814
  C  C453  1  0.714200  0.337800  0.342700  1.0  -0.1961
  C  C454  1  0.738400  0.336800  0.382400  1.0  -0.1216
  C  C455  1  0.664500  0.368800  0.401000  1.0  0.0351
  C  C456  1  0.621900  0.359800  0.264600  1.0  0.0256
  C  C457  1  0.561200  0.323900  0.244000  1.0  -0.1727
  C  C458  1  0.609100  0.303700  0.209000  1.0  0.1531
  C  C459  1  0.759600  0.351200  0.215900  1.0  0.1494
  C  C460  1  0.721700  0.376000  0.250400  1.0  -0.1965
  C  C461  1  0.653800  0.342800  0.873900  1.0  0.0153
  C  C462  1  0.710100  0.303900  0.893200  1.0  -0.1618
  C  C463  1  0.695100  0.311900  0.933300  1.0  -0.1992
  C  C464  1  0.627000  0.353800  0.937400  1.0  0.2579
  C  C465  1  0.586900  0.373100  0.971900  1.0  0.0065
  C  C466  1  0.506400  0.414200  0.974400  1.0  0.1247
  C  C467  1  0.456000  0.431800  0.007800  1.0  -0.0711
  C  C468  1  0.382700  0.467700  0.995100  1.0  -0.0969
  C  C469  1  0.399100  0.471100  0.954300  1.0  0.0183
  C  C470  1  0.618600  0.353000  0.010800  1.0  0.0434
  C  C471  1  0.685300  0.380600  0.037500  1.0  -0.1512
  C  C472  1  0.726700  0.357800  0.072100  1.0  0.1471
  C  C473  1  0.636600  0.285800  0.056800  1.0  0.1359
  C  C474  1  0.596500  0.303000  0.021700  1.0  -0.2115
  C  C475  1  0.334300  0.489000  0.856200  1.0  0.0043
  C  C476  1  0.304200  0.534900  0.841600  1.0  -0.1159
  C  C477  1  0.392500  0.563900  0.846400  1.0  -0.0745
  C  C478  1  0.472600  0.536800  0.862700  1.0  0.1919
  C  C479  1  0.578100  0.551900  0.874200  1.0  0.0003
  C  C480  1  0.655900  0.523900  0.891700  1.0  0.2013
  C  C481  1  0.762800  0.539000  0.904200  1.0  -0.1965
  C  C482  1  0.812400  0.497700  0.919200  1.0  -0.1112
  C  C483  1  0.739500  0.459200  0.916400  1.0  0.0277
  C  C484  1  0.607100  0.605600  0.866700  1.0  0.0829
  C  C485  1  0.685400  0.619800  0.839400  1.0  -0.1859
  C  C486  1  0.707800  0.666900  0.835100  1.0  0.1712
  C  C487  1  0.582100  0.692300  0.880800  1.0  0.1531
  C  C488  1  0.553000  0.644100  0.888500  1.0  -0.2047
  C  C489  1  0.167500  0.948300  0.682500  1.0  0.0446
  C  C490  1  0.172500  0.944200  0.723800  1.0  -0.1038
  C  C491  1  0.084400  0.918800  0.736900  1.0  -0.1655
  C  C492  1  0.019200  0.909200  0.701100  1.0  0.0462
  C  C493  1  0.926500  0.883000  0.698200  1.0  -0.0623
  C  C494  1  0.874600  0.871700  0.662400  1.0  0.1802
  C  C495  1  0.785800  0.837800  0.657300  1.0  -0.1967
  C  C496  1  0.761600  0.836800  0.617600  1.0  -0.1239
  C  C497  1  0.835500  0.868800  0.599000  1.0  0.0328
  C  C498  1  0.878100  0.859800  0.735400  1.0  0.0247
  C  C499  1  0.938800  0.823900  0.756000  1.0  -0.1767
  C  C500  1  0.890900  0.803700  0.791000  1.0  0.1532
  C  C501  1  0.740400  0.851200  0.784100  1.0  0.1484
  C  C502  1  0.778300  0.876000  0.749600  1.0  -0.1981
  C  C503  1  0.846200  0.842800  0.126100  1.0  0.0145
  C  C504  1  0.789900  0.803900  0.106800  1.0  -0.1631
  C  C505  1  0.804900  0.811900  0.066700  1.0  -0.1984
  C  C506  1  0.873000  0.853800  0.062600  1.0  0.2574
  C  C507  1  0.913100  0.873100  0.028100  1.0  0.0069
  C  C508  1  0.993600  0.914200  0.025600  1.0  0.124
  C  C509  1  0.044000  0.931800  0.992200  1.0  -0.0724
  C  C510  1  0.117300  0.967700  0.004900  1.0  -0.0959
  C  C511  1  0.100900  0.971100  0.045700  1.0  0.0184
  C  C512  1  0.881400  0.853000  0.989200  1.0  0.043
  C  C513  1  0.814700  0.880600  0.962500  1.0  -0.1511
  C  C514  1  0.773300  0.857800  0.927900  1.0  0.1489
  C  C515  1  0.863400  0.785800  0.943200  1.0  0.1369
  C  C516  1  0.903500  0.803000  0.978300  1.0  -0.2119
  C  C517  1  0.665700  0.489000  0.356200  1.0  0.0081
  C  C518  1  0.695800  0.534900  0.341600  1.0  -0.116
  C  C519  1  0.607500  0.563900  0.346400  1.0  -0.0736
  C  C520  1  0.527400  0.536800  0.362700  1.0  0.1918
  C  C521  1  0.421900  0.551900  0.374200  1.0  -0.0006
  C  C522  1  0.344100  0.523900  0.391700  1.0  0.2009
  C  C523  1  0.237200  0.539000  0.404200  1.0  -0.1979
  C  C524  1  0.187600  0.497700  0.419200  1.0  -0.1106
  C  C525  1  0.260500  0.459200  0.416400  1.0  0.0273
  C  C526  1  0.392900  0.605600  0.366700  1.0  0.0823
  C  C527  1  0.314600  0.619800  0.339400  1.0  -0.1881
  C  C528  1  0.292200  0.666900  0.335100  1.0  0.1719
  C  C529  1  0.417900  0.692300  0.380800  1.0  0.1533
  C  C530  1  0.447000  0.644100  0.388500  1.0  -0.205
  C  C531  1  0.832500  0.948300  0.182500  1.0  0.0434
  C  C532  1  0.827500  0.944200  0.223800  1.0  -0.1062
  C  C533  1  0.915600  0.918800  0.236900  1.0  -0.1657
  C  C534  1  0.980800  0.909200  0.201100  1.0  0.0468
  C  C535  1  0.073500  0.883000  0.198200  1.0  -0.0621
  C  C536  1  0.125400  0.871700  0.162400  1.0  0.1806
  C  C537  1  0.214200  0.837800  0.157300  1.0  -0.1941
  C  C538  1  0.238400  0.836800  0.117600  1.0  -0.1231
  C  C539  1  0.164500  0.868800  0.099000  1.0  0.0333
  C  C540  1  0.121900  0.859800  0.235400  1.0  0.0259
  C  C541  1  0.061200  0.823900  0.256000  1.0  -0.1739
  C  C542  1  0.109100  0.803700  0.291000  1.0  0.1525
  C  C543  1  0.259600  0.851200  0.284100  1.0  0.15
  C  C544  1  0.221700  0.876000  0.249600  1.0  -0.1966
  C  C545  1  0.153800  0.842800  0.626100  1.0  0.0151
  C  C546  1  0.210100  0.803900  0.606800  1.0  -0.1624
  C  C547  1  0.195100  0.811900  0.566700  1.0  -0.1992
  C  C548  1  0.127000  0.853800  0.562600  1.0  0.2577
  C  C549  1  0.086900  0.873100  0.528100  1.0  0.0067
  C  C550  1  0.006400  0.914200  0.525600  1.0  0.1248
  C  C551  1  0.956000  0.931800  0.492200  1.0  -0.0719
  C  C552  1  0.882700  0.967700  0.504900  1.0  -0.097
  C  C553  1  0.899100  0.971100  0.545700  1.0  0.018
  C  C554  1  0.118600  0.853000  0.489200  1.0  0.0433
  C  C555  1  0.185300  0.880600  0.462500  1.0  -0.1511
  C  C556  1  0.226700  0.857800  0.427900  1.0  0.1467
  C  C557  1  0.136600  0.785800  0.443200  1.0  0.137
  C  C558  1  0.096500  0.803000  0.478300  1.0  -0.211
  C  C559  1  0.834300  0.989000  0.643800  1.0  0.0044
  C  C560  1  0.804200  0.034900  0.658400  1.0  -0.1172
  C  C561  1  0.892500  0.063900  0.653600  1.0  -0.0741
  C  C562  1  0.972600  0.036800  0.637300  1.0  0.193
  C  C563  1  0.078100  0.051900  0.625800  1.0  -0.0
  C  C564  1  0.155900  0.023900  0.608300  1.0  0.2014
  C  C565  1  0.262800  0.039000  0.595800  1.0  -0.1967
  C  C566  1  0.312400  0.997700  0.580800  1.0  -0.1117
  C  C567  1  0.239500  0.959200  0.583600  1.0  0.0273
  C  C568  1  0.107100  0.105600  0.633300  1.0  0.083
  C  C569  1  0.185400  0.119800  0.660600  1.0  -0.1857
  C  C570  1  0.207800  0.166900  0.664900  1.0  0.1706
  C  C571  1  0.082100  0.192300  0.619200  1.0  0.1538
  C  C572  1  0.053000  0.144100  0.611500  1.0  -0.2056
  C  C573  1  0.667500  0.448300  0.817500  1.0  0.0473
  C  C574  1  0.672500  0.444200  0.776200  1.0  -0.1041
  C  C575  1  0.584400  0.418800  0.763100  1.0  -0.1672
  C  C576  1  0.519200  0.409200  0.798900  1.0  0.0458
  C  C577  1  0.426500  0.383000  0.801800  1.0  -0.062
  C  C578  1  0.374600  0.371700  0.837600  1.0  0.18
  C  C579  1  0.285800  0.337800  0.842700  1.0  -0.1974
  C  C580  1  0.261600  0.336800  0.882400  1.0  -0.1233
  C  C581  1  0.335500  0.368800  0.901000  1.0  0.0333
  C  C582  1  0.378100  0.359800  0.764600  1.0  0.0246
  C  C583  1  0.438800  0.323900  0.744000  1.0  -0.1755
  C  C584  1  0.390900  0.303700  0.709000  1.0  0.1536
  C  C585  1  0.240400  0.351200  0.715900  1.0  0.1485
  C  C586  1  0.278300  0.376000  0.750400  1.0  -0.1985
  C  C587  1  0.346200  0.342800  0.373900  1.0  0.0148
  C  C588  1  0.289900  0.303900  0.393200  1.0  -0.1624
  C  C589  1  0.304900  0.311900  0.433300  1.0  -0.1991
  C  C590  1  0.373000  0.353800  0.437400  1.0  0.2578
  C  C591  1  0.413100  0.373100  0.471900  1.0  0.0069
  C  C592  1  0.493600  0.414200  0.474400  1.0  0.1245
  C  C593  1  0.544000  0.431800  0.507800  1.0  -0.0716
  C  C594  1  0.617300  0.467700  0.495100  1.0  -0.0956
  C  C595  1  0.600900  0.471100  0.454300  1.0  0.0185
  C  C596  1  0.381400  0.353000  0.510800  1.0  0.0431
  C  C597  1  0.314700  0.380600  0.537500  1.0  -0.1512
  C  C598  1  0.273300  0.357800  0.572100  1.0  0.1493
  C  C599  1  0.363400  0.285800  0.556800  1.0  0.1358
  C  C600  1  0.403500  0.303000  0.521700  1.0  -0.2127
  N  N601  1  0.436800  0.511500  0.630700  1.0  -0.3749
  N  N602  1  0.642600  0.526800  0.600600  1.0  -0.3666
  N  N603  1  0.667300  0.295600  0.644400  1.0  -0.3661
  N  N604  1  0.082200  0.071300  0.832100  1.0  -0.3136
  N  N605  1  0.903100  0.112100  0.874800  1.0  -0.2312
  N  N606  1  0.797600  0.183000  0.694500  1.0  -0.3298
  N  N607  1  0.896400  0.128400  0.400200  1.0  -0.2891
  N  N608  1  0.024200  0.060900  0.441000  1.0  -0.3654
  N  N609  1  0.794200  0.188600  0.581800  1.0  -0.356
  N  N610  1  0.063200  0.011500  0.369300  1.0  -0.372
  N  N611  1  0.857400  0.026800  0.399400  1.0  -0.3701
  N  N612  1  0.832700  0.795600  0.355600  1.0  -0.3682
  N  N613  1  0.417800  0.571300  0.167900  1.0  -0.3152
  N  N614  1  0.596900  0.612100  0.125200  1.0  -0.2308
  N  N615  1  0.702400  0.683000  0.305500  1.0  -0.33
  N  N616  1  0.603600  0.628400  0.599800  1.0  -0.2909
  N  N617  1  0.475800  0.560900  0.559000  1.0  -0.366
  N  N618  1  0.705800  0.688600  0.418200  1.0  -0.3556
  N  N619  1  0.936800  0.011500  0.869300  1.0  -0.3745
  N  N620  1  0.142600  0.026800  0.899400  1.0  -0.3666
  N  N621  1  0.167300  0.795600  0.855600  1.0  -0.3665
  N  N622  1  0.582200  0.571300  0.667900  1.0  -0.3146
  N  N623  1  0.403100  0.612100  0.625200  1.0  -0.2315
  N  N624  1  0.297600  0.683000  0.805500  1.0  -0.3315
  N  N625  1  0.396400  0.628400  0.099800  1.0  -0.2893
  N  N626  1  0.524200  0.560900  0.059000  1.0  -0.3657
  N  N627  1  0.294200  0.688600  0.918200  1.0  -0.355
  N  N628  1  0.563200  0.511500  0.130700  1.0  -0.3722
  N  N629  1  0.357400  0.526800  0.100600  1.0  -0.3698
  N  N630  1  0.332700  0.295600  0.144400  1.0  -0.3678
  N  N631  1  0.917800  0.071300  0.332100  1.0  -0.3143
  N  N632  1  0.096900  0.112100  0.374800  1.0  -0.2309
  N  N633  1  0.202400  0.183000  0.194500  1.0  -0.3303
  N  N634  1  0.103600  0.128400  0.900200  1.0  -0.2907
  N  N635  1  0.975800  0.060900  0.941000  1.0  -0.3658
  N  N636  1  0.205800  0.188600  0.081800  1.0  -0.3557
  N  N637  1  0.063200  0.988500  0.130700  1.0  -0.3724
  N  N638  1  0.857400  0.973200  0.100600  1.0  -0.3694
  N  N639  1  0.832700  0.204400  0.144400  1.0  -0.3659
  N  N640  1  0.417800  0.428700  0.332100  1.0  -0.3136
  N  N641  1  0.596900  0.387900  0.374800  1.0  -0.2316
  N  N642  1  0.702400  0.317000  0.194500  1.0  -0.3301
  N  N643  1  0.603600  0.371600  0.900200  1.0  -0.2913
  N  N644  1  0.475800  0.439100  0.941000  1.0  -0.3662
  N  N645  1  0.705800  0.311400  0.081800  1.0  -0.3567
  N  N646  1  0.436800  0.488500  0.869300  1.0  -0.3746
  N  N647  1  0.642600  0.473200  0.899400  1.0  -0.3663
  N  N648  1  0.667300  0.704400  0.855600  1.0  -0.3661
  N  N649  1  0.082200  0.928700  0.667900  1.0  -0.314
  N  N650  1  0.903100  0.887900  0.625200  1.0  -0.2325
  N  N651  1  0.797600  0.817000  0.805500  1.0  -0.3323
  N  N652  1  0.896400  0.871600  0.099800  1.0  -0.2897
  N  N653  1  0.024200  0.939100  0.059000  1.0  -0.3657
  N  N654  1  0.794200  0.811400  0.918200  1.0  -0.3577
  N  N655  1  0.563200  0.488500  0.369300  1.0  -0.372
  N  N656  1  0.357400  0.473200  0.399400  1.0  -0.3697
  N  N657  1  0.332700  0.704400  0.355600  1.0  -0.3662
  N  N658  1  0.917800  0.928700  0.167900  1.0  -0.3145
  N  N659  1  0.096900  0.887900  0.125200  1.0  -0.2317
  N  N660  1  0.202400  0.817000  0.305500  1.0  -0.3296
  N  N661  1  0.103600  0.871600  0.599800  1.0  -0.2911
  N  N662  1  0.975800  0.939100  0.559000  1.0  -0.3659
  N  N663  1  0.205800  0.811400  0.418200  1.0  -0.3571
  N  N664  1  0.936800  0.988500  0.630700  1.0  -0.3752
  N  N665  1  0.142600  0.973200  0.600600  1.0  -0.3662
  N  N666  1  0.167300  0.204400  0.644400  1.0  -0.366
  N  N667  1  0.582200  0.428700  0.832100  1.0  -0.3129
  N  N668  1  0.403100  0.387900  0.874800  1.0  -0.232
  N  N669  1  0.297600  0.317000  0.694500  1.0  -0.3314
  N  N670  1  0.396400  0.371600  0.400200  1.0  -0.29
  N  N671  1  0.524200  0.439100  0.441000  1.0  -0.3656
  N  N672  1  0.294200  0.311400  0.581800  1.0  -0.3584
  F  F673  1  0.446900  0.210200  0.647200  1.0  -0.2463
  F  F674  1  0.584600  0.152000  0.631700  1.0  -0.2737
  F  F675  1  0.400500  0.153600  0.606400  1.0  -0.1833
  F  F676  1  0.449800  0.134900  0.669100  1.0  -0.3746
  F  F677  1  0.053100  0.289800  0.147200  1.0  -0.2471
  F  F678  1  0.915400  0.348000  0.131700  1.0  -0.2711
  F  F679  1  0.099500  0.346400  0.106400  1.0  -0.1814
  F  F680  1  0.050200  0.365100  0.169100  1.0  -0.3768
  F  F681  1  0.446900  0.789800  0.852800  1.0  -0.2457
  F  F682  1  0.584600  0.848000  0.868300  1.0  -0.2736
  F  F683  1  0.400500  0.846400  0.893600  1.0  -0.1842
  F  F684  1  0.449800  0.865100  0.830900  1.0  -0.3741
  F  F685  1  0.053100  0.710200  0.352800  1.0  -0.2454
  F  F686  1  0.915400  0.652000  0.368300  1.0  -0.271
  F  F687  1  0.099500  0.653600  0.393600  1.0  -0.1828
  F  F688  1  0.050200  0.634900  0.330900  1.0  -0.3744
  F  F689  1  0.553100  0.789800  0.352800  1.0  -0.2458
  F  F690  1  0.415400  0.848000  0.368300  1.0  -0.2708
  F  F691  1  0.599500  0.846400  0.393600  1.0  -0.1829
  F  F692  1  0.550200  0.865100  0.330900  1.0  -0.375
  F  F693  1  0.946900  0.710200  0.852800  1.0  -0.2455
  F  F694  1  0.084600  0.652000  0.868300  1.0  -0.2733
  F  F695  1  0.900500  0.653600  0.893600  1.0  -0.1843
  F  F696  1  0.949800  0.634900  0.830900  1.0  -0.3732
  F  F697  1  0.553100  0.210200  0.147200  1.0  -0.2463
  F  F698  1  0.415400  0.152000  0.131700  1.0  -0.2714
  F  F699  1  0.599500  0.153600  0.106400  1.0  -0.1811
  F  F700  1  0.550200  0.134900  0.169100  1.0  -0.3762
  F  F701  1  0.946900  0.289800  0.647200  1.0  -0.2468
  F  F702  1  0.084600  0.348000  0.631700  1.0  -0.2737
  F  F703  1  0.900500  0.346400  0.606400  1.0  -0.1834
  F  F704  1  0.949800  0.365100  0.669100  1.0  -0.3752
