# generated using pymatgen
data_ZnH32(C19N8)2
_symmetry_space_group_name_H-M   'P 1'
_cell_length_a   27.28950000
_cell_length_b   27.28920000
_cell_length_c   27.28920000
_cell_angle_alpha   109.47100000
_cell_angle_beta   109.47100000
_cell_angle_gamma   109.47100000
_symmetry_Int_Tables_number   1
_chemical_formula_structural   ZnH32(C19N8)2
_chemical_formula_sum   'Zn12 H384 C456 N192'
_cell_volume   15644.39756245
_cell_formula_units_Z   12
loop_
 _symmetry_equiv_pos_site_id
 _symmetry_equiv_pos_as_xyz
  1  'x, y, z'
loop_
 _atom_site_type_symbol
 _atom_site_label
 _atom_site_symmetry_multiplicity
 _atom_site_fract_x
 _atom_site_fract_y
 _atom_site_fract_z
 _atom_site_occupancy
 _atom_site_charge
  Zn  Zn1  1  0.250000  0.375000  0.125000  1.0  0.7584
  Zn  Zn2  1  0.375000  0.625000  0.750000  1.0  0.7588
  Zn  Zn3  1  0.750000  0.125000  0.375000  1.0  0.7584
  Zn  Zn4  1  0.625000  0.375000  0.250000  1.0  0.7582
  Zn  Zn5  1  0.125000  0.875000  0.250000  1.0  0.7582
  Zn  Zn6  1  0.875000  0.125000  0.750000  1.0  0.7587
  Zn  Zn7  1  0.375000  0.750000  0.125000  1.0  0.7586
  Zn  Zn8  1  0.625000  0.250000  0.875000  1.0  0.7584
  Zn  Zn9  1  0.125000  0.250000  0.375000  1.0  0.7584
  Zn  Zn10  1  0.250000  0.875000  0.625000  1.0  0.7585
  Zn  Zn11  1  0.875000  0.750000  0.625000  1.0  0.7586
  Zn  Zn12  1  0.750000  0.625000  0.875000  1.0  0.7585
  H  H13  1  0.856200  0.813700  0.732500  1.0  0.1004
  H  H14  1  0.220300  0.087700  0.951400  1.0  0.0958
  H  H15  1  0.108300  0.706900  0.205800  1.0  0.1159
  H  H16  1  0.912300  0.548600  0.279700  1.0  0.0933
  H  H17  1  0.614400  0.594900  0.224500  1.0  0.1103
  H  H18  1  0.186300  0.767500  0.643800  1.0  0.1002
  H  H19  1  0.480500  0.885600  0.610100  1.0  0.1121
  H  H20  1  0.957500  0.081200  0.813700  1.0  0.0963
  H  H21  1  0.129600  0.519500  0.905100  1.0  0.1116
  H  H22  1  0.268600  0.916000  0.146000  1.0  0.1068
  H  H23  1  0.339000  0.070000  0.038400  1.0  0.0924
  H  H24  1  0.901400  0.293100  0.498900  1.0  0.1163
  H  H25  1  0.963200  0.215100  0.163700  1.0  0.1119
  H  H26  1  0.186300  0.418800  0.042500  1.0  0.0984
  H  H27  1  0.108300  0.401400  0.402500  1.0  0.1158
  H  H28  1  0.370400  0.094900  0.480500  1.0  0.1084
  H  H29  1  0.163700  0.448600  0.700500  1.0  0.1102
  H  H30  1  0.724500  0.110100  0.129600  1.0  0.109
  H  H31  1  0.889900  0.519500  0.614400  1.0  0.1134
  H  H32  1  0.661000  0.731000  0.199400  1.0  0.0939
  H  H33  1  0.731000  0.699400  0.161000  1.0  0.0938
  H  H34  1  0.769700  0.203900  0.635600  1.0  0.1223
  H  H35  1  0.313700  0.356200  0.232500  1.0  0.1006
  H  H36  1  0.391700  0.794200  0.293100  1.0  0.1166
  H  H37  1  0.231000  0.070000  0.031600  1.0  0.0919
  H  H38  1  0.339000  0.269000  0.800600  1.0  0.0929
  H  H39  1  0.934200  0.730300  0.865900  1.0  0.1259
  H  H40  1  0.775500  0.905100  0.385600  1.0  0.109
  H  H41  1  0.769000  0.930000  0.968400  1.0  0.0926
  H  H42  1  0.206900  0.608300  0.705800  1.0  0.1141
  H  H43  1  0.364400  0.068300  0.634100  1.0  0.1217
  H  H44  1  0.918800  0.686300  0.542500  1.0  0.0978
  H  H45  1  0.498900  0.705800  0.097500  1.0  0.1158
  H  H46  1  0.703900  0.269700  0.135600  1.0  0.1264
  H  H47  1  0.199400  0.231000  0.661000  1.0  0.0956
  H  H48  1  0.336300  0.036800  0.284900  1.0  0.1116
  H  H49  1  0.905100  0.019500  0.129600  1.0  0.1097
  H  H50  1  0.632600  0.720300  0.268900  1.0  0.0961
  H  H51  1  0.430000  0.161000  0.461600  1.0  0.0943
  H  H52  1  0.587700  0.720300  0.451400  1.0  0.0955
  H  H53  1  0.732500  0.313700  0.856200  1.0  0.0975
  H  H54  1  0.402500  0.901400  0.108300  1.0  0.1153
  H  H55  1  0.581200  0.123700  0.767500  1.0  0.0987
  H  H56  1  0.365900  0.934200  0.230300  1.0  0.123
  H  H57  1  0.536800  0.836300  0.784900  1.0  0.1108
  H  H58  1  0.203900  0.068300  0.434200  1.0  0.1235
  H  H59  1  0.779700  0.912300  0.048600  1.0  0.0964
  H  H60  1  0.870400  0.480500  0.094900  1.0  0.1113
  H  H61  1  0.293100  0.294200  0.391700  1.0  0.1162
  H  H62  1  0.865900  0.635600  0.431700  1.0  0.1213
  H  H63  1  0.813700  0.581200  0.957500  1.0  0.0978
  H  H64  1  0.205800  0.206900  0.108300  1.0  0.116
  H  H65  1  0.048600  0.412300  0.779700  1.0  0.0943
  H  H66  1  0.370400  0.275500  0.389900  1.0  0.1091
  H  H67  1  0.705800  0.108300  0.206900  1.0  0.1156
  H  H68  1  0.269000  0.300600  0.839000  1.0  0.0923
  H  H69  1  0.836300  0.551400  0.299500  1.0  0.1115
  H  H70  1  0.587700  0.867400  0.636300  1.0  0.0951
  H  H71  1  0.354000  0.731400  0.584000  1.0  0.1066
  H  H72  1  0.451400  0.231100  0.363700  1.0  0.0955
  H  H73  1  0.299500  0.248100  0.963200  1.0  0.1115
  H  H74  1  0.731400  0.084000  0.854000  1.0  0.1073
  H  H75  1  0.418800  0.876300  0.232500  1.0  0.0976
  H  H76  1  0.800600  0.769000  0.339000  1.0  0.0945
  H  H77  1  0.300600  0.339000  0.769000  1.0  0.0941
  H  H78  1  0.623700  0.542500  0.856200  1.0  0.0969
  H  H79  1  0.767500  0.143800  0.686300  1.0  0.0977
  H  H80  1  0.931700  0.065800  0.296100  1.0  0.1233
  H  H81  1  0.377400  0.147400  0.731400  1.0  0.106
  H  H82  1  0.715100  0.463200  0.663700  1.0  0.1122
  H  H83  1  0.376300  0.918800  0.732500  1.0  0.0958
  H  H84  1  0.538400  0.339000  0.570000  1.0  0.0965
  H  H85  1  0.294200  0.891700  0.793100  1.0  0.1154
  H  H86  1  0.232500  0.376300  0.418800  1.0  0.0969
  H  H87  1  0.961600  0.531600  0.800600  1.0  0.0937
  H  H88  1  0.839000  0.800600  0.269000  1.0  0.0929
  H  H89  1  0.551400  0.751900  0.715100  1.0  0.1117
  H  H90  1  0.902500  0.108300  0.901400  1.0  0.1154
  H  H91  1  0.129600  0.610100  0.724500  1.0  0.11
  H  H92  1  0.538400  0.199400  0.468400  1.0  0.0944
  H  H93  1  0.800600  0.031600  0.961600  1.0  0.0953
  H  H94  1  0.401400  0.902500  0.608300  1.0  0.1142
  H  H95  1  0.376300  0.457500  0.143800  1.0  0.0978
  H  H96  1  0.098600  0.706900  0.501100  1.0  0.1159
  H  H97  1  0.036800  0.784900  0.836300  1.0  0.1121
  H  H98  1  0.405100  0.129600  0.019500  1.0  0.108
  H  H99  1  0.231100  0.863700  0.951400  1.0  0.0951
  H  H100  1  0.269000  0.968400  0.930000  1.0  0.0939
  H  H101  1  0.448600  0.248100  0.284900  1.0  0.1113
  H  H102  1  0.031600  0.461600  0.300600  1.0  0.0931
  H  H103  1  0.048600  0.636300  0.768900  1.0  0.0951
  H  H104  1  0.146000  0.416000  0.268600  1.0  0.1091
  H  H105  1  0.251900  0.051400  0.215100  1.0  0.1121
  H  H106  1  0.623700  0.081200  0.267500  1.0  0.0969
  H  H107  1  0.968400  0.538400  0.699400  1.0  0.0935
  H  H108  1  0.770000  0.416000  0.147400  1.0  0.1092
  H  H109  1  0.794200  0.001100  0.402500  1.0  0.1149
  H  H110  1  0.463200  0.163700  0.215100  1.0  0.1113
  H  H111  1  0.751900  0.215100  0.051400  1.0  0.1118
  H  H112  1  0.715100  0.251900  0.551400  1.0  0.1116
  H  H113  1  0.854000  0.270000  0.622600  1.0  0.1084
  H  H114  1  0.402500  0.501100  0.794200  1.0  0.1156
  H  H115  1  0.770000  0.354000  0.122600  1.0  0.0989
  H  H116  1  0.568300  0.703900  0.934200  1.0  0.1237
  H  H117  1  0.232500  0.856200  0.313700  1.0  0.0971
  H  H118  1  0.731000  0.031600  0.070000  1.0  0.0918
  H  H119  1  0.363700  0.731100  0.451400  1.0  0.0953
  H  H120  1  0.608300  0.402500  0.401400  1.0  0.1153
  H  H121  1  0.097500  0.205800  0.498900  1.0  0.1167
  H  H122  1  0.768600  0.146000  0.916000  1.0  0.1075
  H  H123  1  0.720300  0.768900  0.132600  1.0  0.0939
  H  H124  1  0.143800  0.186300  0.267500  1.0  0.0995
  H  H125  1  0.215100  0.663700  0.463200  1.0  0.1122
  H  H126  1  0.230300  0.796100  0.364400  1.0  0.1233
  H  H127  1  0.779700  0.867400  0.231100  1.0  0.0946
  H  H128  1  0.636300  0.367400  0.587700  1.0  0.0955
  H  H129  1  0.703900  0.434200  0.068300  1.0  0.1264
  H  H130  1  0.748100  0.948600  0.784900  1.0  0.1115
  H  H131  1  0.084000  0.730000  0.352600  1.0  0.1088
  H  H132  1  0.434200  0.568300  0.203900  1.0  0.1229
  H  H133  1  0.377400  0.230000  0.146000  1.0  0.1083
  H  H134  1  0.412300  0.132600  0.363700  1.0  0.0939
  H  H135  1  0.865900  0.230300  0.934200  1.0  0.1238
  H  H136  1  0.123700  0.267500  0.081200  1.0  0.0981
  H  H137  1  0.267500  0.686300  0.143800  1.0  0.0979
  H  H138  1  0.784900  0.336300  0.536800  1.0  0.1114
  H  H139  1  0.769700  0.565800  0.634100  1.0  0.1257
  H  H140  1  0.267500  0.581200  0.623700  1.0  0.0983
  H  H141  1  0.356200  0.623700  0.042500  1.0  0.0976
  H  H142  1  0.948600  0.663700  0.200500  1.0  0.1116
  H  H143  1  0.110100  0.629600  0.224500  1.0  0.1129
  H  H144  1  0.751900  0.536800  0.200500  1.0  0.112
  H  H145  1  0.706900  0.001100  0.598600  1.0  0.1147
  H  H146  1  0.769000  0.839000  0.300600  1.0  0.0922
  H  H147  1  0.385600  0.405100  0.775500  1.0  0.1109
  H  H148  1  0.610100  0.385600  0.480500  1.0  0.1125
  H  H149  1  0.730000  0.852600  0.584000  1.0  0.106
  H  H150  1  0.206900  0.598600  0.001100  1.0  0.1165
  H  H151  1  0.251900  0.200500  0.536800  1.0  0.1125
  H  H152  1  0.594900  0.724500  0.114400  1.0  0.1073
  H  H153  1  0.632600  0.912300  0.863700  1.0  0.094
  H  H154  1  0.385600  0.980500  0.110100  1.0  0.1106
  H  H155  1  0.205800  0.998900  0.597500  1.0  0.1146
  H  H156  1  0.918800  0.232500  0.876300  1.0  0.0994
  H  H157  1  0.634100  0.065800  0.769700  1.0  0.1232
  H  H158  1  0.147400  0.231400  0.877400  1.0  0.1061
  H  H159  1  0.230300  0.434200  0.365900  1.0  0.1247
  H  H160  1  0.877400  0.731400  0.147400  1.0  0.1069
  H  H161  1  0.136300  0.587700  0.367400  1.0  0.0928
  H  H162  1  0.836300  0.284900  0.036800  1.0  0.1121
  H  H163  1  0.215100  0.551400  0.251900  1.0  0.111
  H  H164  1  0.300600  0.961600  0.031600  1.0  0.0946
  H  H165  1  0.336300  0.299500  0.551400  1.0  0.1113
  H  H166  1  0.998900  0.901400  0.793100  1.0  0.1154
  H  H167  1  0.891700  0.598600  0.597500  1.0  0.1154
  H  H168  1  0.963200  0.748100  0.299500  1.0  0.1119
  H  H169  1  0.199400  0.968400  0.038400  1.0  0.0941
  H  H170  1  0.268900  0.048600  0.136300  1.0  0.0942
  H  H171  1  0.794200  0.793100  0.891700  1.0  0.1163
  H  H172  1  0.663700  0.963200  0.715100  1.0  0.1121
  H  H173  1  0.876300  0.732500  0.918800  1.0  0.0976
  H  H174  1  0.661000  0.930000  0.961600  1.0  0.0923
  H  H175  1  0.097500  0.891700  0.098600  1.0  0.1151
  H  H176  1  0.036800  0.251900  0.700500  1.0  0.1113
  H  H177  1  0.412300  0.279700  0.548600  1.0  0.0943
  H  H178  1  0.686300  0.042500  0.418800  1.0  0.1002
  H  H179  1  0.980500  0.610100  0.885600  1.0  0.1105
  H  H180  1  0.720300  0.951400  0.087700  1.0  0.0938
  H  H181  1  0.635600  0.703900  0.769700  1.0  0.1228
  H  H182  1  0.784900  0.448600  0.748100  1.0  0.1109
  H  H183  1  0.279700  0.048600  0.912300  1.0  0.0942
  H  H184  1  0.084000  0.354000  0.231400  1.0  0.1039
  H  H185  1  0.389900  0.614400  0.519500  1.0  0.1134
  H  H186  1  0.891700  0.293100  0.794200  1.0  0.116
  H  H187  1  0.461600  0.800600  0.531600  1.0  0.0953
  H  H188  1  0.296100  0.565800  0.931700  1.0  0.1254
  H  H189  1  0.629600  0.905100  0.519500  1.0  0.1087
  H  H190  1  0.038400  0.570000  0.339000  1.0  0.0958
  H  H191  1  0.643800  0.267500  0.186300  1.0  0.098
  H  H192  1  0.270000  0.147400  0.416000  1.0  0.1077
  H  H193  1  0.136300  0.548600  0.268900  1.0  0.0955
  H  H194  1  0.864400  0.634100  0.068300  1.0  0.1238
  H  H195  1  0.608300  0.205800  0.706900  1.0  0.1158
  H  H196  1  0.293100  0.998900  0.401400  1.0  0.115
  H  H197  1  0.799500  0.836300  0.051400  1.0  0.1112
  H  H198  1  0.231400  0.854000  0.084000  1.0  0.1071
  H  H199  1  0.581200  0.457500  0.313700  1.0  0.097
  H  H200  1  0.275500  0.889900  0.870400  1.0  0.1095
  H  H201  1  0.646000  0.377400  0.730000  1.0  0.1071
  H  H202  1  0.354000  0.622600  0.270000  1.0  0.1062
  H  H203  1  0.094900  0.114400  0.724500  1.0  0.1115
  H  H204  1  0.732500  0.418800  0.376300  1.0  0.0971
  H  H205  1  0.019500  0.389900  0.114400  1.0  0.1104
  H  H206  1  0.796100  0.931700  0.565800  1.0  0.1217
  H  H207  1  0.634100  0.568300  0.364400  1.0  0.1235
  H  H208  1  0.796100  0.864400  0.730300  1.0  0.124
  H  H209  1  0.065800  0.269700  0.134100  1.0  0.1265
  H  H210  1  0.870400  0.389900  0.275500  1.0  0.1114
  H  H211  1  0.793100  0.401400  0.998900  1.0  0.1157
  H  H212  1  0.646000  0.268600  0.416000  1.0  0.1071
  H  H213  1  0.161000  0.961600  0.930000  1.0  0.0925
  H  H214  1  0.536800  0.700500  0.251900  1.0  0.1111
  H  H215  1  0.584000  0.352600  0.730000  1.0  0.1087
  H  H216  1  0.885600  0.775500  0.405100  1.0  0.1108
  H  H217  1  0.498900  0.793100  0.901400  1.0  0.1161
  H  H218  1  0.864400  0.230300  0.296100  1.0  0.124
  H  H219  1  0.957500  0.876300  0.643800  1.0  0.0983
  H  H220  1  0.570000  0.731000  0.531600  1.0  0.0951
  H  H221  1  0.901400  0.608300  0.902500  1.0  0.1136
  H  H222  1  0.501100  0.294200  0.902500  1.0  0.1157
  H  H223  1  0.299500  0.051400  0.836300  1.0  0.1125
  H  H224  1  0.296100  0.730300  0.864400  1.0  0.128
  H  H225  1  0.270000  0.122600  0.354000  1.0  0.107
  H  H226  1  0.548600  0.768900  0.636300  1.0  0.0933
  H  H227  1  0.070000  0.531600  0.731000  1.0  0.0946
  H  H228  1  0.132600  0.268900  0.720300  1.0  0.0954
  H  H229  1  0.663700  0.700500  0.448600  1.0  0.1112
  H  H230  1  0.731400  0.647400  0.377400  1.0  0.1083
  H  H231  1  0.877400  0.146000  0.230000  1.0  0.106
  H  H232  1  0.597500  0.498900  0.205800  1.0  0.115
  H  H233  1  0.248100  0.463200  0.799500  1.0  0.1122
  H  H234  1  0.284900  0.748100  0.448600  1.0  0.1111
  H  H235  1  0.867400  0.136300  0.087700  1.0  0.0938
  H  H236  1  0.042500  0.123700  0.356200  1.0  0.0982
  H  H237  1  0.542500  0.186300  0.918800  1.0  0.1004
  H  H238  1  0.730300  0.364400  0.796100  1.0  0.1215
  H  H239  1  0.610100  0.224500  0.629600  1.0  0.1101
  H  H240  1  0.231400  0.377400  0.647400  1.0  0.1075
  H  H241  1  0.042500  0.918800  0.186300  1.0  0.097
  H  H242  1  0.568300  0.864400  0.134100  1.0  0.1234
  H  H243  1  0.364400  0.296100  0.230300  1.0  0.1235
  H  H244  1  0.230000  0.584000  0.852600  1.0  0.1067
  H  H245  1  0.405100  0.275500  0.885600  1.0  0.109
  H  H246  1  0.647400  0.770000  0.916000  1.0  0.1084
  H  H247  1  0.087700  0.636300  0.867400  1.0  0.0934
  H  H248  1  0.143800  0.957500  0.376300  1.0  0.1006
  H  H249  1  0.768900  0.136300  0.048600  1.0  0.094
  H  H250  1  0.594900  0.870400  0.980500  1.0  0.1069
  H  H251  1  0.731100  0.951400  0.863700  1.0  0.0935
  H  H252  1  0.930000  0.461600  0.161000  1.0  0.0941
  H  H253  1  0.885600  0.110100  0.980500  1.0  0.1094
  H  H254  1  0.098600  0.391700  0.097500  1.0  0.114
  H  H255  1  0.905100  0.885600  0.275500  1.0  0.1123
  H  H256  1  0.268600  0.352600  0.622600  1.0  0.109
  H  H257  1  0.268900  0.220300  0.632600  1.0  0.0953
  H  H258  1  0.418800  0.542500  0.686300  1.0  0.0973
  H  H259  1  0.852600  0.084000  0.230000  1.0  0.1051
  H  H260  1  0.699400  0.038400  0.968400  1.0  0.094
  H  H261  1  0.352600  0.122600  0.768600  1.0  0.1089
  H  H262  1  0.531600  0.231000  0.570000  1.0  0.0933
  H  H263  1  0.147400  0.916000  0.770000  1.0  0.1076
  H  H264  1  0.876300  0.143800  0.457500  1.0  0.0974
  H  H265  1  0.070000  0.538400  0.839000  1.0  0.0939
  H  H266  1  0.146000  0.730000  0.377400  1.0  0.1076
  H  H267  1  0.706900  0.705800  0.608300  1.0  0.1164
  H  H268  1  0.135600  0.769700  0.703900  1.0  0.1239
  H  H269  1  0.132600  0.863700  0.912300  1.0  0.0937
  H  H270  1  0.001100  0.902500  0.294200  1.0  0.115
  H  H271  1  0.367400  0.087700  0.136300  1.0  0.0966
  H  H272  1  0.275500  0.385600  0.905100  1.0  0.1106
  H  H273  1  0.856200  0.042500  0.623700  1.0  0.0986
  H  H274  1  0.224500  0.094900  0.614400  1.0  0.1093
  H  H275  1  0.647400  0.877400  0.231400  1.0  0.1071
  H  H276  1  0.431700  0.135600  0.865900  1.0  0.124
  H  H277  1  0.768600  0.622600  0.352600  1.0  0.1059
  H  H278  1  0.775500  0.870400  0.889900  1.0  0.1088
  H  H279  1  0.730300  0.365900  0.434200  1.0  0.1238
  H  H280  1  0.231000  0.161000  0.699400  1.0  0.0928
  H  H281  1  0.961600  0.430000  0.661000  1.0  0.0964
  H  H282  1  0.463200  0.299500  0.748100  1.0  0.1112
  H  H283  1  0.163700  0.715100  0.963200  1.0  0.1115
  H  H284  1  0.542500  0.356200  0.123700  1.0  0.0997
  H  H285  1  0.224500  0.129600  0.110100  1.0  0.109
  H  H286  1  0.230000  0.646000  0.877400  1.0  0.103
  H  H287  1  0.200500  0.163700  0.948600  1.0  0.1109
  H  H288  1  0.531600  0.300600  0.461600  1.0  0.0942
  H  H289  1  0.951400  0.587700  0.220300  1.0  0.0932
  H  H290  1  0.457500  0.643800  0.876300  1.0  0.1009
  H  H291  1  0.200500  0.036800  0.751900  1.0  0.1119
  H  H292  1  0.565800  0.431700  0.796100  1.0  0.1233
  H  H293  1  0.068300  0.934200  0.703900  1.0  0.1237
  H  H294  1  0.570000  0.839000  0.538400  1.0  0.0944
  H  H295  1  0.519500  0.405100  0.629600  1.0  0.1083
  H  H296  1  0.352600  0.230000  0.084000  1.0  0.1073
  H  H297  1  0.068300  0.134100  0.864400  1.0  0.1247
  H  H298  1  0.468400  0.769000  0.430000  1.0  0.0942
  H  H299  1  0.114400  0.224500  0.594900  1.0  0.1081
  H  H300  1  0.614400  0.019500  0.889900  1.0  0.111
  H  H301  1  0.001100  0.098600  0.206900  1.0  0.1156
  H  H302  1  0.863700  0.451400  0.731100  1.0  0.0946
  H  H303  1  0.389900  0.775500  0.370400  1.0  0.1076
  H  H304  1  0.700500  0.751900  0.036800  1.0  0.1116
  H  H305  1  0.813700  0.232500  0.356200  1.0  0.1005
  H  H306  1  0.365900  0.431700  0.635600  1.0  0.123
  H  H307  1  0.863700  0.412300  0.632600  1.0  0.0949
  H  H308  1  0.731100  0.779700  0.367400  1.0  0.0959
  H  H309  1  0.565800  0.134100  0.269700  1.0  0.1247
  H  H310  1  0.220300  0.132600  0.768900  1.0  0.0965
  H  H311  1  0.468400  0.699400  0.538400  1.0  0.0931
  H  H312  1  0.122600  0.268600  0.852600  1.0  0.1067
  H  H313  1  0.356200  0.732500  0.813700  1.0  0.0976
  H  H314  1  0.622600  0.770000  0.854000  1.0  0.1066
  H  H315  1  0.584000  0.231400  0.354000  1.0  0.108
  H  H316  1  0.094900  0.980500  0.870400  1.0  0.1122
  H  H317  1  0.448600  0.200500  0.663700  1.0  0.1118
  H  H318  1  0.916000  0.270000  0.647400  1.0  0.1088
  H  H319  1  0.912300  0.363700  0.132600  1.0  0.095
  H  H320  1  0.768900  0.632600  0.220300  1.0  0.0932
  H  H321  1  0.705800  0.597500  0.998900  1.0  0.1153
  H  H322  1  0.135600  0.365900  0.931700  1.0  0.1238
  H  H323  1  0.686300  0.643800  0.767500  1.0  0.1
  H  H324  1  0.854000  0.584000  0.731400  1.0  0.1062
  H  H325  1  0.501100  0.206900  0.098600  1.0  0.1158
  H  H326  1  0.643800  0.376300  0.957500  1.0  0.0971
  H  H327  1  0.629600  0.724500  0.610100  1.0  0.109
  H  H328  1  0.081200  0.313700  0.457500  1.0  0.0981
  H  H329  1  0.081200  0.767500  0.123700  1.0  0.1008
  H  H330  1  0.598600  0.501100  0.706900  1.0  0.1154
  H  H331  1  0.038400  0.468400  0.199400  1.0  0.0941
  H  H332  1  0.597500  0.098600  0.891700  1.0  0.1154
  H  H333  1  0.930000  0.468400  0.269000  1.0  0.0944
  H  H334  1  0.401400  0.498900  0.293100  1.0  0.1156
  H  H335  1  0.799500  0.963200  0.248100  1.0  0.1116
  H  H336  1  0.519500  0.114400  0.389900  1.0  0.1116
  H  H337  1  0.434200  0.865900  0.730300  1.0  0.1247
  H  H338  1  0.313700  0.957500  0.581200  1.0  0.0988
  H  H339  1  0.065800  0.796100  0.431700  1.0  0.1222
  H  H340  1  0.430000  0.269000  0.468400  1.0  0.0958
  H  H341  1  0.391700  0.597500  0.598600  1.0  0.1151
  H  H342  1  0.480500  0.594900  0.370400  1.0  0.1095
  H  H343  1  0.902500  0.794200  0.501100  1.0  0.1157
  H  H344  1  0.931700  0.865900  0.135600  1.0  0.1256
  H  H345  1  0.161000  0.199400  0.731000  1.0  0.0938
  H  H346  1  0.087700  0.451400  0.720300  1.0  0.0934
  H  H347  1  0.767500  0.623700  0.581200  1.0  0.0977
  H  H348  1  0.457500  0.813700  0.081200  1.0  0.0997
  H  H349  1  0.123700  0.856200  0.542500  1.0  0.0973
  H  H350  1  0.231100  0.367400  0.779700  1.0  0.0941
  H  H351  1  0.916000  0.646000  0.768600  1.0  0.0991
  H  H352  1  0.019500  0.629600  0.405100  1.0  0.1098
  H  H353  1  0.363700  0.632600  0.412300  1.0  0.0939
  H  H354  1  0.294200  0.402500  0.001100  1.0  0.1147
  H  H355  1  0.839000  0.038400  0.070000  1.0  0.0925
  H  H356  1  0.635600  0.931700  0.365900  1.0  0.1236
  H  H357  1  0.248100  0.784900  0.948600  1.0  0.1115
  H  H358  1  0.548600  0.779700  0.412300  1.0  0.0955
  H  H359  1  0.622600  0.852600  0.268600  1.0  0.1092
  H  H360  1  0.269700  0.635600  0.203900  1.0  0.1225
  H  H361  1  0.051400  0.715100  0.751900  1.0  0.1121
  H  H362  1  0.051400  0.336300  0.799500  1.0  0.1118
  H  H363  1  0.699400  0.661000  0.231000  1.0  0.0948
  H  H364  1  0.114400  0.889900  0.019500  1.0  0.1095
  H  H365  1  0.461600  0.661000  0.430000  1.0  0.0966
  H  H366  1  0.998900  0.097500  0.705800  1.0  0.1146
  H  H367  1  0.122600  0.854000  0.770000  1.0  0.1072
  H  H368  1  0.948600  0.284900  0.248100  1.0  0.1115
  H  H369  1  0.134100  0.769700  0.065800  1.0  0.1231
  H  H370  1  0.968400  0.430000  0.769000  1.0  0.0933
  H  H371  1  0.416000  0.768600  0.646000  1.0  0.1062
  H  H372  1  0.980500  0.370400  0.594900  1.0  0.1113
  H  H373  1  0.700500  0.948600  0.163700  1.0  0.1114
  H  H374  1  0.431700  0.296100  0.065800  1.0  0.1229
  H  H375  1  0.951400  0.363700  0.231100  1.0  0.095
  H  H376  1  0.284900  0.536800  0.336300  1.0  0.1121
  H  H377  1  0.867400  0.731100  0.279700  1.0  0.0957
  H  H378  1  0.416000  0.647400  0.270000  1.0  0.1073
  H  H379  1  0.203900  0.135600  0.269700  1.0  0.123
  H  H380  1  0.134100  0.364400  0.568300  1.0  0.1224
  H  H381  1  0.793100  0.391700  0.294200  1.0  0.1139
  H  H382  1  0.110100  0.480500  0.385600  1.0  0.1129
  H  H383  1  0.031600  0.570000  0.231000  1.0  0.0932
  H  H384  1  0.730000  0.877400  0.646000  1.0  0.1093
  H  H385  1  0.451400  0.220300  0.587700  1.0  0.0955
  H  H386  1  0.636300  0.268900  0.548600  1.0  0.096
  H  H387  1  0.852600  0.768600  0.122600  1.0  0.1078
  H  H388  1  0.279700  0.231100  0.867400  1.0  0.0951
  H  H389  1  0.367400  0.279700  0.731100  1.0  0.0957
  H  H390  1  0.934200  0.203900  0.568300  1.0  0.1234
  H  H391  1  0.889900  0.370400  0.775500  1.0  0.1111
  H  H392  1  0.748100  0.799500  0.463200  1.0  0.112
  H  H393  1  0.724500  0.614400  0.094900  1.0  0.1115
  H  H394  1  0.598600  0.097500  0.391700  1.0  0.1146
  H  H395  1  0.551400  0.799500  0.336300  1.0  0.1127
  H  H396  1  0.269700  0.634100  0.565800  1.0  0.1228
  C  C397  1  0.172950  0.972020  0.163810  1.0  0.2143
  C  C398  1  0.628030  0.250000  0.371970  1.0  0.0042
  C  C399  1  0.548610  0.705370  0.224040  1.0  -0.1034
  C  C400  1  0.622130  0.723630  0.192600  1.0  -0.1141
  C  C401  1  0.839790  0.822210  0.701820  1.0  0.0099
  C  C402  1  0.137970  0.298180  0.120390  1.0  0.0098
  C  C403  1  0.429530  0.807400  0.531030  1.0  -0.1162
  C  C404  1  0.327050  0.490860  0.799070  1.0  0.225
  C  C405  1  0.206770  0.328760  0.510990  1.0  0.2658
  C  C406  1  0.637970  0.120390  0.298180  1.0  0.0072
  C  C407  1  0.862030  0.701820  0.879610  1.0  0.0091
  C  C408  1  0.132120  0.208370  0.526070  1.0  -0.1449
  C  C409  1  0.733890  0.128790  0.017020  1.0  -0.1132
  C  C410  1  0.531030  0.307400  0.429530  1.0  -0.1131
  C  C411  1  0.990860  0.163810  0.191790  1.0  0.2164
  C  C412  1  0.224040  0.205370  0.548610  1.0  -0.0922
  C  C413  1  0.377870  0.101500  0.070470  1.0  -0.1121
  C  C414  1  0.894150  0.193020  0.543170  1.0  -0.1182
  C  C415  1  0.863400  0.440790  0.083010  1.0  -0.1177
  C  C416  1  0.605100  0.716870  0.233890  1.0  -0.1105
  C  C417  1  0.527980  0.200930  0.691790  1.0  0.2183
  C  C418  1  0.677790  0.017580  0.379610  1.0  0.0099
  C  C419  1  0.693020  0.298870  0.149850  1.0  -0.1193
  C  C420  1  0.606050  0.473930  0.682300  1.0  -0.1439
  C  C421  1  0.233890  0.216870  0.605100  1.0  -0.1122
  C  C422  1  0.791630  0.817700  0.923750  1.0  -0.1429
  C  C423  1  0.675430  0.451390  0.656760  1.0  -0.0898
  C  C424  1  0.121990  0.304220  0.293230  1.0  0.2672
  C  C425  1  0.893950  0.317700  0.526070  1.0  -0.1415
  C  C426  1  0.350150  0.306980  0.201130  1.0  -0.1175
  C  C427  1  0.307400  0.377870  0.776370  1.0  -0.1158
  C  C428  1  0.322210  0.982420  0.620390  1.0  0.012
  C  C429  1  0.701130  0.350150  0.806980  1.0  -0.1176
  C  C430  1  0.195780  0.817770  0.489010  1.0  0.2679
  C  C431  1  0.388230  0.105100  0.371210  1.0  -0.1119
  C  C432  1  0.871970  0.243940  0.621970  1.0  0.007
  C  C433  1  0.982420  0.862030  0.660210  1.0  0.0096
  C  C434  1  0.518670  0.724040  0.675430  1.0  -0.0916
  C  C435  1  0.649020  0.543170  0.350150  1.0  -0.1218
  C  C436  1  0.423750  0.632120  0.606050  1.0  -0.1443
  C  C437  1  0.808210  0.336190  0.009140  1.0  0.2183
  C  C438  1  0.973930  0.106050  0.182300  1.0  -0.1411
  C  C439  1  0.611770  0.716870  0.482980  1.0  -0.1099
  C  C440  1  0.863400  0.422610  0.280390  1.0  -0.108
  C  C441  1  0.280390  0.922610  0.863400  1.0  -0.1089
  C  C442  1  0.017580  0.879610  0.177790  1.0  0.0074
  C  C443  1  0.416990  0.136600  0.059210  1.0  -0.11
  C  C444  1  0.700930  0.672950  0.009140  1.0  0.225
  C  C445  1  0.628030  0.378030  0.756060  1.0  0.0055
  C  C446  1  0.628790  0.233890  0.517020  1.0  -0.1127
  C  C447  1  0.304220  0.793230  0.621990  1.0  0.2674
  C  C448  1  0.692600  0.070470  0.968970  1.0  -0.1157
  C  C449  1  0.451390  0.156760  0.175430  1.0  -0.1023
  C  C450  1  0.070470  0.468970  0.192600  1.0  -0.1153
  C  C451  1  0.804220  0.182230  0.510990  1.0  0.2674
  C  C452  1  0.705370  0.724040  0.048610  1.0  -0.0965
  C  C453  1  0.989010  0.195780  0.317770  1.0  0.2685
  C  C454  1  0.201820  0.839790  0.322210  1.0  0.0096
  C  C455  1  0.708370  0.632120  0.026070  1.0  -0.1424
  C  C456  1  0.822210  0.201820  0.339790  1.0  0.0083
  C  C457  1  0.205370  0.048610  0.724040  1.0  -0.0982
  C  C458  1  0.791630  0.973930  0.367880  1.0  -0.1411
  C  C459  1  0.724040  0.548610  0.205370  1.0  -0.0901
  C  C460  1  0.620390  0.137970  0.798180  1.0  0.0097
  C  C461  1  0.473930  0.291630  0.867880  1.0  -0.1444
  C  C462  1  0.059210  0.422610  0.142220  1.0  -0.1134
  C  C463  1  0.827050  0.799070  0.490860  1.0  0.2245
  C  C464  1  0.621990  0.328760  0.817770  1.0  0.266
  C  C465  1  0.621970  0.878030  0.250000  1.0  0.0077
  C  C466  1  0.422610  0.642220  0.559210  1.0  -0.1106
  C  C467  1  0.775960  0.981330  0.824570  1.0  -0.0913
  C  C468  1  0.776370  0.898500  0.968970  1.0  -0.1126
  C  C469  1  0.700930  0.027980  0.191790  1.0  0.2148
  C  C470  1  0.807400  0.031030  0.929530  1.0  -0.1125
  C  C471  1  0.106050  0.682300  0.473930  1.0  -0.1391
  C  C472  1  0.233890  0.017020  0.128790  1.0  -0.113
  C  C473  1  0.622130  0.898500  0.929530  1.0  -0.1131
  C  C474  1  0.756060  0.878030  0.628030  1.0  0.0047
  C  C475  1  0.177790  0.798180  0.660210  1.0  0.0103
  C  C476  1  0.871970  0.628030  0.750000  1.0  0.0044
  C  C477  1  0.324570  0.548610  0.343240  1.0  -0.0977
  C  C478  1  0.871210  0.482980  0.766110  1.0  -0.1101
  C  C479  1  0.076250  0.393950  0.367880  1.0  -0.1418
  C  C480  1  0.723630  0.692600  0.122130  1.0  -0.1137
  C  C481  1  0.216870  0.105100  0.733890  1.0  -0.1117
  C  C482  1  0.807400  0.776370  0.377870  1.0  -0.1119
  C  C483  1  0.128790  0.611770  0.394900  1.0  -0.1058
  C  C484  1  0.120390  0.322210  0.482420  1.0  0.0097
  C  C485  1  0.077390  0.636600  0.219610  1.0  -0.1123
  C  C486  1  0.017020  0.388230  0.783130  1.0  -0.1085
  C  C487  1  0.601500  0.877870  0.570470  1.0  -0.1156
  C  C488  1  0.077390  0.440790  0.357780  1.0  -0.1167
  C  C489  1  0.343240  0.294630  0.518670  1.0  -0.1036
  C  C490  1  0.923750  0.606050  0.632120  1.0  -0.1393
  C  C491  1  0.149850  0.798870  0.693020  1.0  -0.1173
  C  C492  1  0.750000  0.621970  0.378030  1.0  0.0065
  C  C493  1  0.672950  0.163810  0.972020  1.0  0.2163
  C  C494  1  0.219610  0.083010  0.642220  1.0  -0.1025
  C  C495  1  0.076250  0.682300  0.208370  1.0  -0.1406
  C  C496  1  0.122130  0.192600  0.723630  1.0  -0.1158
  C  C497  1  0.105850  0.298870  0.149020  1.0  -0.12
  C  C498  1  0.371970  0.750000  0.628030  1.0  0.0061
  C  C499  1  0.378010  0.706770  0.695780  1.0  0.2638
  C  C500  1  0.570470  0.192600  0.468970  1.0  -0.1158
  C  C501  1  0.706770  0.195780  0.878010  1.0  0.2664
  C  C502  1  0.724040  0.175430  0.018670  1.0  -0.088
  C  C503  1  0.482980  0.216870  0.611770  1.0  -0.1098
  C  C504  1  0.378010  0.671240  0.182230  1.0  0.2659
  C  C505  1  0.878030  0.750000  0.121970  1.0  0.0073
  C  C506  1  0.682300  0.973930  0.606050  1.0  -0.1407
  C  C507  1  0.105100  0.233890  0.716870  1.0  -0.113
  C  C508  1  0.951390  0.175430  0.156760  1.0  -0.0921
  C  C509  1  0.649850  0.956830  0.350980  1.0  -0.1183
  C  C510  1  0.982980  0.611770  0.216870  1.0  -0.1117
  C  C511  1  0.378030  0.256060  0.128030  1.0  0.0059
  C  C512  1  0.893950  0.576250  0.867880  1.0  -0.1359
  C  C513  1  0.879610  0.677790  0.517580  1.0  0.0103
  C  C514  1  0.328760  0.317770  0.121990  1.0  0.2673
  C  C515  1  0.559210  0.416990  0.636600  1.0  -0.1141
  C  C516  1  0.940790  0.363400  0.583010  1.0  -0.1142
  C  C517  1  0.981330  0.324570  0.275960  1.0  -0.1018
  C  C518  1  0.636600  0.719610  0.577390  1.0  -0.1114
  C  C519  1  0.798180  0.637970  0.620390  1.0  0.0085
  C  C520  1  0.663810  0.172950  0.472020  1.0  0.2196
  C  C521  1  0.577390  0.357780  0.440790  1.0  -0.1124
  C  C522  1  0.293230  0.804220  0.121990  1.0  0.2689
  C  C523  1  0.632120  0.106050  0.923750  1.0  -0.1424
  C  C524  1  0.671240  0.682230  0.878010  1.0  0.2647
  C  C525  1  0.121970  0.250000  0.878030  1.0  0.0054
  C  C526  1  0.440790  0.583010  0.363400  1.0  -0.1101
  C  C527  1  0.128030  0.371970  0.250000  1.0  0.0056
  C  C528  1  0.783130  0.894900  0.266110  1.0  -0.1111
  C  C529  1  0.649020  0.105850  0.798870  1.0  -0.1209
  C  C530  1  0.468970  0.776370  0.398500  1.0  -0.1135
  C  C531  1  0.317700  0.291630  0.423750  1.0  -0.142
  C  C532  1  0.362030  0.482420  0.160210  1.0  0.0098
  C  C533  1  0.367880  0.473930  0.791630  1.0  -0.1418
  C  C534  1  0.371210  0.766110  0.482980  1.0  -0.1118
  C  C535  1  0.009140  0.836190  0.808210  1.0  0.2156
  C  C536  1  0.208370  0.026070  0.632120  1.0  -0.1388
  C  C537  1  0.017580  0.137970  0.339790  1.0  0.0099
  C  C538  1  0.621970  0.743940  0.871970  1.0  0.0072
  C  C539  1  0.317770  0.621990  0.828760  1.0  0.2661
  C  C540  1  0.743940  0.371970  0.121970  1.0  0.0057
  C  C541  1  0.898500  0.429530  0.122130  1.0  -0.1138
  C  C542  1  0.160210  0.982420  0.362030  1.0  0.0096
  C  C543  1  0.339790  0.637970  0.017580  1.0  0.01
  C  C544  1  0.780390  0.916990  0.357780  1.0  -0.1033
  C  C545  1  0.149020  0.798870  0.105850  1.0  -0.1172
  C  C546  1  0.283130  0.017020  0.888230  1.0  -0.1117
  C  C547  1  0.083010  0.940790  0.863400  1.0  -0.114
  C  C548  1  0.877870  0.070470  0.101500  1.0  -0.1123
  C  C549  1  0.111770  0.482980  0.716870  1.0  -0.1123
  C  C550  1  0.828760  0.121990  0.317770  1.0  0.2649
  C  C551  1  0.394150  0.543170  0.193020  1.0  -0.1192
  C  C552  1  0.322210  0.339790  0.201820  1.0  0.007
  C  C553  1  0.043170  0.894150  0.693020  1.0  -0.1206
  C  C554  1  0.026070  0.893950  0.817700  1.0  -0.1417
  C  C555  1  0.672950  0.509140  0.200930  1.0  0.2162
  C  C556  1  0.968970  0.398500  0.776370  1.0  -0.1123
  C  C557  1  0.929530  0.398500  0.622130  1.0  -0.1135
  C  C558  1  0.275960  0.451390  0.794630  1.0  -0.0904
  C  C559  1  0.111770  0.628790  0.894900  1.0  -0.1099
  C  C560  1  0.250000  0.871970  0.128030  1.0  0.0072
  C  C561  1  0.775960  0.794630  0.451390  1.0  -0.0967
  C  C562  1  0.200930  0.009140  0.672950  1.0  0.2163
  C  C563  1  0.357780  0.416990  0.780390  1.0  -0.1109
  C  C564  1  0.440790  0.857780  0.577390  1.0  -0.1071
  C  C565  1  0.219610  0.136600  0.077390  1.0  -0.1078
  C  C566  1  0.293230  0.489010  0.671240  1.0  0.2638
  C  C567  1  0.922610  0.363400  0.780390  1.0  -0.1147
  C  C568  1  0.637970  0.517580  0.839790  1.0  0.0086
  C  C569  1  0.175430  0.656760  0.451390  1.0  -0.0936
  C  C570  1  0.799070  0.990860  0.327050  1.0  0.2171
  C  C571  1  0.350980  0.456830  0.649850  1.0  -0.1202
  C  C572  1  0.706770  0.510990  0.328760  1.0  0.2677
  C  C573  1  0.223630  0.122130  0.692600  1.0  -0.1161
  C  C574  1  0.398500  0.122130  0.429530  1.0  -0.1143
  C  C575  1  0.456830  0.149850  0.850980  1.0  -0.1191
  C  C576  1  0.489010  0.171240  0.793230  1.0  0.2633
  C  C577  1  0.888230  0.517020  0.283130  1.0  -0.1088
  C  C578  1  0.636600  0.916990  0.559210  1.0  -0.1089
  C  C579  1  0.336190  0.827050  0.527980  1.0  0.2183
  C  C580  1  0.576250  0.208370  0.682300  1.0  -0.1421
  C  C581  1  0.517020  0.733890  0.628790  1.0  -0.1109
  C  C582  1  0.628790  0.394900  0.611770  1.0  -0.112
  C  C583  1  0.509140  0.808210  0.836190  1.0  0.2157
  C  C584  1  0.798180  0.160210  0.677790  1.0  0.0083
  C  C585  1  0.468970  0.692600  0.570470  1.0  -0.112
  C  C586  1  0.701130  0.350980  0.394150  1.0  -0.121
  C  C587  1  0.898500  0.468970  0.276370  1.0  -0.1145
  C  C588  1  0.191790  0.663810  0.990860  1.0  0.2189
  C  C589  1  0.827050  0.027980  0.836190  1.0  0.216
  C  C590  1  0.182230  0.171240  0.378010  1.0  0.2646
  C  C591  1  0.182300  0.576250  0.708370  1.0  -0.1391
  C  C592  1  0.378030  0.121970  0.750000  1.0  0.0052
  C  C593  1  0.379610  0.862030  0.201820  1.0  0.0093
  C  C594  1  0.922610  0.559210  0.642220  1.0  -0.1119
  C  C595  1  0.193020  0.043170  0.394150  1.0  -0.1179
  C  C596  1  0.867880  0.791630  0.473930  1.0  -0.1411
  C  C597  1  0.482420  0.822210  0.120390  1.0  0.0126
  C  C598  1  0.843240  0.324570  0.048610  1.0  -0.1011
  C  C599  1  0.299070  0.972020  0.808210  1.0  0.215
  C  C600  1  0.195780  0.378010  0.206770  1.0  0.2663
  C  C601  1  0.304220  0.510990  0.182230  1.0  0.264
  C  C602  1  0.048610  0.824570  0.843240  1.0  -0.0905
  C  C603  1  0.526070  0.708370  0.132120  1.0  -0.145
  C  C604  1  0.923750  0.317700  0.791630  1.0  -0.1419
  C  C605  1  0.509140  0.700930  0.172950  1.0  0.2192
  C  C606  1  0.473930  0.182300  0.106050  1.0  -0.1418
  C  C607  1  0.824570  0.343240  0.548610  1.0  -0.1046
  C  C608  1  0.294630  0.018670  0.843240  1.0  -0.0947
  C  C609  1  0.423750  0.791630  0.317700  1.0  -0.1455
  C  C610  1  0.606050  0.132120  0.423750  1.0  -0.144
  C  C611  1  0.043170  0.149020  0.850150  1.0  -0.1203
  C  C612  1  0.719610  0.077390  0.136600  1.0  -0.1088
  C  C613  1  0.701820  0.322210  0.839790  1.0  0.0102
  C  C614  1  0.611770  0.894900  0.628790  1.0  -0.1128
  C  C615  1  0.857780  0.077390  0.940790  1.0  -0.1145
  C  C616  1  0.106050  0.423750  0.132120  1.0  -0.1372
  C  C617  1  0.733890  0.605100  0.216870  1.0  -0.1091
  C  C618  1  0.517020  0.783130  0.388230  1.0  -0.1124
  C  C619  1  0.780390  0.863400  0.922610  1.0  -0.1093
  C  C620  1  0.324570  0.775960  0.481330  1.0  -0.0933
  C  C621  1  0.981330  0.656760  0.205370  1.0  -0.094
  C  C622  1  0.793230  0.671240  0.489010  1.0  0.2665
  C  C623  1  0.682300  0.708370  0.576250  1.0  -0.1493
  C  C624  1  0.472020  0.799070  0.308210  1.0  0.219
  C  C625  1  0.142220  0.922610  0.059210  1.0  -0.1113
  C  C626  1  0.128790  0.517020  0.233890  1.0  -0.1111
  C  C627  1  0.916990  0.857780  0.280390  1.0  -0.1129
  C  C628  1  0.276370  0.968970  0.898500  1.0  -0.1121
  C  C629  1  0.982420  0.120390  0.822210  1.0  0.0082
  C  C630  1  0.822210  0.620390  0.982420  1.0  0.0076
  C  C631  1  0.951390  0.775960  0.294630  1.0  -0.0882
  C  C632  1  0.836190  0.308210  0.509140  1.0  0.2196
  C  C633  1  0.705370  0.981330  0.156760  1.0  -0.0959
  C  C634  1  0.250000  0.378030  0.621970  1.0  0.0043
  C  C635  1  0.850150  0.649020  0.043170  1.0  -0.1207
  C  C636  1  0.456830  0.306980  0.105850  1.0  -0.1194
  C  C637  1  0.394150  0.850980  0.701130  1.0  -0.1204
  C  C638  1  0.177790  0.379610  0.017580  1.0  0.0058
  C  C639  1  0.804220  0.621990  0.793230  1.0  0.2646
  C  C640  1  0.343240  0.048610  0.324570  1.0  -0.0992
  C  C641  1  0.010990  0.804220  0.682230  1.0  0.2671
  C  C642  1  0.192600  0.223630  0.622130  1.0  -0.1132
  C  C643  1  0.973930  0.867880  0.291630  1.0  -0.1425
  C  C644  1  0.956830  0.850980  0.149850  1.0  -0.1223
  C  C645  1  0.206770  0.878010  0.195780  1.0  0.2641
  C  C646  1  0.489010  0.317770  0.195780  1.0  0.2649
  C  C647  1  0.798870  0.193020  0.649850  1.0  -0.1202
  C  C648  1  0.798870  0.605850  0.649020  1.0  -0.1244
  C  C649  1  0.857780  0.780390  0.416990  1.0  -0.1072
  C  C650  1  0.656760  0.705370  0.481330  1.0  -0.0947
  C  C651  1  0.682230  0.304220  0.010990  1.0  0.2648
  C  C652  1  0.817770  0.989010  0.695780  1.0  0.2644
  C  C653  1  0.308210  0.299070  0.472020  1.0  0.2263
  C  C654  1  0.481330  0.205370  0.656760  1.0  -0.0927
  C  C655  1  0.121990  0.817770  0.328760  1.0  0.2672
  C  C656  1  0.548610  0.843240  0.824570  1.0  -0.1034
  C  C657  1  0.808210  0.472020  0.299070  1.0  0.2162
  C  C658  1  0.517580  0.339790  0.137970  1.0  0.011
  C  C659  1  0.719610  0.642220  0.083010  1.0  -0.1122
  C  C660  1  0.105850  0.806980  0.456830  1.0  -0.1205
  C  C661  1  0.794630  0.951390  0.275960  1.0  -0.0944
  C  C662  1  0.723630  0.031030  0.101500  1.0  -0.1132
  C  C663  1  0.393950  0.526070  0.317700  1.0  -0.1423
  C  C664  1  0.693020  0.394150  0.043170  1.0  -0.124
  C  C665  1  0.656760  0.951390  0.675430  1.0  -0.0898
  C  C666  1  0.201130  0.806980  0.350150  1.0  -0.1185
  C  C667  1  0.172950  0.200930  0.509140  1.0  0.2185
  C  C668  1  0.266110  0.394900  0.783130  1.0  -0.112
  C  C669  1  0.691790  0.990860  0.663810  1.0  0.2194
  C  C670  1  0.817770  0.828760  0.621990  1.0  0.2655
  C  C671  1  0.888230  0.371210  0.105100  1.0  -0.1109
  C  C672  1  0.306980  0.701130  0.850150  1.0  -0.1205
  C  C673  1  0.894900  0.766110  0.283130  1.0  -0.1137
  C  C674  1  0.490860  0.299070  0.827050  1.0  0.2188
  C  C675  1  0.956830  0.105850  0.306980  1.0  -0.1196
  C  C676  1  0.531030  0.223630  0.601500  1.0  -0.1114
  C  C677  1  0.605100  0.888230  0.871210  1.0  -0.1104
  C  C678  1  0.839790  0.017580  0.637970  1.0  0.0125
  C  C679  1  0.339790  0.701820  0.822210  1.0  0.0092
  C  C680  1  0.806980  0.850150  0.701130  1.0  -0.1205
  C  C681  1  0.583010  0.719610  0.142220  1.0  -0.1091
  C  C682  1  0.175430  0.518670  0.224040  1.0  -0.1024
  C  C683  1  0.817700  0.393950  0.026070  1.0  -0.1416
  C  C684  1  0.660210  0.362030  0.982420  1.0  0.009
  C  C685  1  0.583010  0.863400  0.940790  1.0  -0.1102
  C  C686  1  0.208370  0.182300  0.076250  1.0  -0.1431
  C  C687  1  0.806980  0.956830  0.605850  1.0  -0.1192
  C  C688  1  0.518670  0.794630  0.343240  1.0  -0.093
  C  C689  1  0.894900  0.128790  0.111770  1.0  -0.1139
  C  C690  1  0.142220  0.219610  0.583010  1.0  -0.1123
  C  C691  1  0.121970  0.871970  0.743940  1.0  0.0082
  C  C692  1  0.120390  0.798180  0.137970  1.0  0.0103
  C  C693  1  0.570470  0.377870  0.601500  1.0  -0.1155
  C  C694  1  0.363400  0.280390  0.422610  1.0  -0.1082
  C  C695  1  0.871210  0.388230  0.605100  1.0  -0.1111
  C  C696  1  0.362030  0.879610  0.701820  1.0  0.0073
  C  C697  1  0.576250  0.367880  0.393950  1.0  -0.1437
  C  C698  1  0.149020  0.350150  0.543170  1.0  -0.1199
  C  C699  1  0.128030  0.756060  0.378030  1.0  0.0063
  C  C700  1  0.708370  0.076250  0.182300  1.0  -0.1447
  C  C701  1  0.577390  0.219610  0.636600  1.0  -0.1068
  C  C702  1  0.182300  0.606050  0.973930  1.0  -0.1405
  C  C703  1  0.716870  0.733890  0.105100  1.0  -0.1082
  C  C704  1  0.156760  0.481330  0.705370  1.0  -0.1035
  C  C705  1  0.105100  0.871210  0.888230  1.0  -0.1115
  C  C706  1  0.377870  0.276370  0.807400  1.0  -0.1147
  C  C707  1  0.367880  0.893950  0.076250  1.0  -0.1419
  C  C708  1  0.526070  0.817700  0.893950  1.0  -0.1423
  C  C709  1  0.182230  0.010990  0.304220  1.0  0.2635
  C  C710  1  0.010990  0.206770  0.828760  1.0  0.268
  C  C711  1  0.317770  0.695780  0.989010  1.0  0.2671
  C  C712  1  0.018670  0.675430  0.724040  1.0  -0.0964
  C  C713  1  0.216870  0.111770  0.982980  1.0  -0.109
  C  C714  1  0.294630  0.275960  0.951390  1.0  -0.0996
  C  C715  1  0.750000  0.128030  0.871970  1.0  0.0042
  C  C716  1  0.894150  0.701130  0.850980  1.0  -0.1183
  C  C717  1  0.682230  0.378010  0.171240  1.0  0.2627
  C  C718  1  0.989010  0.793230  0.171240  1.0  0.2668
  C  C719  1  0.276370  0.307400  0.877870  1.0  -0.1116
  C  C720  1  0.307400  0.929530  0.031030  1.0  -0.112
  C  C721  1  0.675430  0.224040  0.518670  1.0  -0.0893
  C  C722  1  0.972020  0.308210  0.799070  1.0  0.2196
  C  C723  1  0.201820  0.362030  0.379610  1.0  0.0099
  C  C724  1  0.205370  0.156760  0.981330  1.0  -0.0969
  C  C725  1  0.327050  0.836190  0.027980  1.0  0.215
  C  C726  1  0.363400  0.083010  0.440790  1.0  -0.1068
  C  C727  1  0.357780  0.940790  0.077390  1.0  -0.1158
  C  C728  1  0.701820  0.379610  0.362030  1.0  0.0079
  C  C729  1  0.828760  0.706770  0.010990  1.0  0.2657
  C  C730  1  0.275960  0.824570  0.981330  1.0  -0.096
  C  C731  1  0.298180  0.620390  0.637970  1.0  0.0059
  C  C732  1  0.695780  0.206770  0.378010  1.0  0.2657
  C  C733  1  0.510990  0.682230  0.804220  1.0  0.2651
  C  C734  1  0.059210  0.636600  0.416990  1.0  -0.1133
  C  C735  1  0.101500  0.531030  0.723630  1.0  -0.1153
  C  C736  1  0.660210  0.298180  0.177790  1.0  0.0097
  C  C737  1  0.559210  0.142220  0.422610  1.0  -0.1116
  C  C738  1  0.160210  0.177790  0.298180  1.0  0.0125
  C  C739  1  0.878010  0.182230  0.671240  1.0  0.2677
  C  C740  1  0.620390  0.482420  0.322210  1.0  0.008
  C  C741  1  0.862030  0.160210  0.482420  1.0  0.0091
  C  C742  1  0.632120  0.526070  0.208370  1.0  -0.1406
  C  C743  1  0.929530  0.531030  0.807400  1.0  -0.1136
  C  C744  1  0.716870  0.982980  0.111770  1.0  -0.1139
  C  C745  1  0.794630  0.843240  0.018670  1.0  -0.1018
  C  C746  1  0.224040  0.018670  0.175430  1.0  -0.0996
  C  C747  1  0.793230  0.121990  0.804220  1.0  0.2652
  C  C748  1  0.877870  0.807400  0.276370  1.0  -0.1151
  C  C749  1  0.394900  0.111770  0.128790  1.0  -0.1128
  C  C750  1  0.843240  0.518670  0.294630  1.0  -0.0959
  C  C751  1  0.256060  0.628030  0.878030  1.0  0.0046
  C  C752  1  0.416990  0.280390  0.857780  1.0  -0.1106
  C  C753  1  0.192600  0.968970  0.070470  1.0  -0.12
  C  C754  1  0.543170  0.850150  0.149020  1.0  -0.1191
  C  C755  1  0.191790  0.527980  0.700930  1.0  0.2179
  C  C756  1  0.429530  0.622130  0.398500  1.0  -0.1157
  C  C757  1  0.878010  0.695780  0.706770  1.0  0.2663
  C  C758  1  0.398500  0.276370  0.468970  1.0  -0.1149
  C  C759  1  0.298870  0.649850  0.193020  1.0  -0.1197
  C  C760  1  0.163810  0.691790  0.490860  1.0  0.2198
  C  C761  1  0.031030  0.429530  0.307400  1.0  -0.114
  C  C762  1  0.799070  0.808210  0.972020  1.0  0.2153
  C  C763  1  0.163810  0.472020  0.172950  1.0  0.2172
  C  C764  1  0.878030  0.128030  0.256060  1.0  0.0061
  C  C765  1  0.083010  0.142220  0.719610  1.0  -0.1116
  C  C766  1  0.132120  0.923750  0.106050  1.0  -0.1415
  C  C767  1  0.336190  0.509140  0.308210  1.0  0.2174
  C  C768  1  0.916990  0.059210  0.136600  1.0  -0.1112
  C  C769  1  0.972020  0.663810  0.672950  1.0  0.219
  C  C770  1  0.328760  0.010990  0.706770  1.0  0.2656
  C  C771  1  0.472020  0.672950  0.663810  1.0  0.2224
  C  C772  1  0.283130  0.266110  0.894900  1.0  -0.1113
  C  C773  1  0.824570  0.481330  0.775960  1.0  -0.102
  C  C774  1  0.850980  0.649850  0.456830  1.0  -0.118
  C  C775  1  0.027980  0.336190  0.327050  1.0  0.2182
  C  C776  1  0.171240  0.293230  0.989010  1.0  0.2628
  C  C777  1  0.393950  0.867880  0.576250  1.0  -0.1449
  C  C778  1  0.101500  0.570470  0.877870  1.0  -0.1145
  C  C779  1  0.306980  0.605850  0.956830  1.0  -0.1222
  C  C780  1  0.193020  0.149850  0.298870  1.0  -0.1194
  C  C781  1  0.695780  0.489010  0.817770  1.0  0.2676
  C  C782  1  0.149850  0.350980  0.956830  1.0  -0.1223
  C  C783  1  0.422610  0.780390  0.363400  1.0  -0.1138
  C  C784  1  0.663810  0.490860  0.691790  1.0  0.2261
  C  C785  1  0.243940  0.121970  0.371970  1.0  0.0061
  C  C786  1  0.070470  0.601500  0.377870  1.0  -0.1122
  C  C787  1  0.517580  0.177790  0.879610  1.0  0.0107
  C  C788  1  0.388230  0.283130  0.517020  1.0  -0.11
  C  C789  1  0.940790  0.577390  0.857780  1.0  -0.112
  C  C790  1  0.156760  0.675430  0.951390  1.0  -0.0966
  C  C791  1  0.850150  0.201130  0.306980  1.0  -0.1169
  C  C792  1  0.048610  0.224040  0.705370  1.0  -0.0983
  C  C793  1  0.671240  0.989010  0.293230  1.0  0.2644
  C  C794  1  0.766110  0.783130  0.394900  1.0  -0.1123
  C  C795  1  0.136600  0.577390  0.719610  1.0  -0.1129
  C  C796  1  0.371210  0.605100  0.388230  1.0  -0.111
  C  C797  1  0.291630  0.923750  0.817700  1.0  -0.1444
  C  C798  1  0.026070  0.132120  0.708370  1.0  -0.1459
  C  C799  1  0.836190  0.527980  0.827050  1.0  0.217
  C  C800  1  0.017020  0.628790  0.733890  1.0  -0.1105
  C  C801  1  0.136600  0.559210  0.916990  1.0  -0.1161
  C  C802  1  0.482980  0.266110  0.371210  1.0  -0.1118
  C  C803  1  0.642220  0.583010  0.219610  1.0  -0.1131
  C  C804  1  0.867880  0.076250  0.893950  1.0  -0.1438
  C  C805  1  0.266110  0.871210  0.982980  1.0  -0.114
  C  C806  1  0.200930  0.191790  0.027980  1.0  0.2152
  C  C807  1  0.490860  0.191790  0.163810  1.0  0.2146
  C  C808  1  0.298870  0.649020  0.605850  1.0  -0.1222
  C  C809  1  0.605850  0.456830  0.806980  1.0  -0.1224
  C  C810  1  0.451390  0.294630  0.775960  1.0  -0.104
  C  C811  1  0.379610  0.517580  0.677790  1.0  0.0104
  C  C812  1  0.482420  0.660210  0.862030  1.0  0.0079
  C  C813  1  0.968970  0.570470  0.692600  1.0  -0.1132
  C  C814  1  0.850980  0.201130  0.894150  1.0  -0.1169
  C  C815  1  0.350980  0.894150  0.201130  1.0  -0.1201
  C  C816  1  0.018670  0.343240  0.794630  1.0  -0.102
  C  C817  1  0.031030  0.601500  0.223630  1.0  -0.113
  C  C818  1  0.137970  0.839790  0.517580  1.0  0.008
  C  C819  1  0.817700  0.423750  0.291630  1.0  -0.1374
  C  C820  1  0.543170  0.693020  0.894150  1.0  -0.1169
  C  C821  1  0.783130  0.888230  0.017020  1.0  -0.1112
  C  C822  1  0.317700  0.026070  0.393950  1.0  -0.1401
  C  C823  1  0.527980  0.327050  0.336190  1.0  0.2172
  C  C824  1  0.982980  0.371210  0.266110  1.0  -0.1107
  C  C825  1  0.299070  0.327050  0.990860  1.0  0.216
  C  C826  1  0.766110  0.982980  0.871210  1.0  -0.1138
  C  C827  1  0.371970  0.621970  0.243940  1.0  0.0054
  C  C828  1  0.308210  0.009140  0.336190  1.0  0.2153
  C  C829  1  0.677790  0.660210  0.798180  1.0  0.0108
  C  C830  1  0.298180  0.677790  0.160210  1.0  0.0097
  C  C831  1  0.601500  0.723630  0.531030  1.0  -0.1144
  C  C832  1  0.605850  0.149020  0.298870  1.0  -0.1224
  C  C833  1  0.350150  0.043170  0.649020  1.0  -0.1184
  C  C834  1  0.394900  0.283130  0.766110  1.0  -0.1116
  C  C835  1  0.649850  0.693020  0.798870  1.0  -0.1197
  C  C836  1  0.692600  0.622130  0.223630  1.0  -0.116
  C  C837  1  0.510990  0.828760  0.206770  1.0  0.2643
  C  C838  1  0.223630  0.101500  0.031030  1.0  -0.1133
  C  C839  1  0.642220  0.059210  0.922610  1.0  -0.1104
  C  C840  1  0.280390  0.357780  0.916990  1.0  -0.1103
  C  C841  1  0.621990  0.293230  0.304220  1.0  0.2661
  C  C842  1  0.201130  0.394150  0.350980  1.0  -0.1221
  C  C843  1  0.481330  0.275960  0.324570  1.0  -0.1003
  C  C844  1  0.122130  0.929530  0.898500  1.0  -0.1142
  C  C845  1  0.879610  0.201820  0.862030  1.0  0.01
  C  C846  1  0.691790  0.700930  0.527980  1.0  0.2181
  C  C847  1  0.009140  0.172950  0.700930  1.0  0.2164
  C  C848  1  0.171240  0.878010  0.682230  1.0  0.2647
  C  C849  1  0.291630  0.367880  0.973930  1.0  -0.1447
  C  C850  1  0.990860  0.827050  0.299070  1.0  0.2173
  C  C851  1  0.027980  0.691790  0.200930  1.0  0.2187
  C  C852  1  0.776370  0.877870  0.307400  1.0  -0.1144
  N  N853  1  0.468340  0.808560  0.259220  1.0  -0.2668
  N  N854  1  0.290880  0.840220  0.531660  1.0  -0.2654
  N  N855  1  0.646320  0.938940  0.295940  1.0  0.0617
  N  N856  1  0.659780  0.450660  0.191440  1.0  -0.263
  N  N857  1  0.307990  0.346010  0.151900  1.0  -0.4227
  N  N858  1  0.350380  0.704060  0.643000  1.0  0.0599
  N  N859  1  0.659780  0.209120  0.968340  1.0  -0.2625
  N  N860  1  0.350380  0.646320  0.207380  1.0  0.0602
  N  N861  1  0.850380  0.643000  0.704060  1.0  0.0609
  N  N862  1  0.759220  0.468340  0.308560  1.0  -0.2615
  N  N863  1  0.353680  0.292620  0.149620  1.0  0.0614
  N  N864  1  0.204060  0.353680  0.561060  1.0  0.0599
  N  N865  1  0.740840  0.482880  0.807780  1.0  -0.2199
  N  N866  1  0.643000  0.438940  0.792620  1.0  0.0601
  N  N867  1  0.759220  0.290880  0.950660  1.0  -0.2613
  N  N868  1  0.143000  0.792620  0.438940  1.0  0.0604
  N  N869  1  0.807990  0.151900  0.346010  1.0  -0.4233
  N  N870  1  0.066940  0.807780  0.324900  1.0  -0.2204
  N  N871  1  0.843910  0.151900  0.805890  1.0  -0.4232
  N  N872  1  0.146320  0.850380  0.707380  1.0  0.0605
  N  N873  1  0.531660  0.191440  0.740780  1.0  -0.2629
  N  N874  1  0.549340  0.308560  0.840220  1.0  -0.2663
  N  N875  1  0.017120  0.759160  0.692220  1.0  -0.2204
  N  N876  1  0.968340  0.259220  0.808560  1.0  -0.2653
  N  N877  1  0.482880  0.307780  0.240840  1.0  -0.2192
  N  N878  1  0.656090  0.461980  0.307990  1.0  -0.4231
  N  N879  1  0.968340  0.709120  0.659780  1.0  -0.2615
  N  N880  1  0.742040  0.675100  0.482880  1.0  -0.223
  N  N881  1  0.649620  0.353680  0.792620  1.0  0.0604
  N  N882  1  0.257960  0.324900  0.517120  1.0  -0.2232
  N  N883  1  0.242040  0.759160  0.066940  1.0  -0.2207
  N  N884  1  0.259160  0.517120  0.192220  1.0  -0.22
  N  N885  1  0.468340  0.659780  0.709120  1.0  -0.2626
  N  N886  1  0.853680  0.149620  0.292620  1.0  0.0598
  N  N887  1  0.538020  0.192010  0.843910  1.0  -0.4203
  N  N888  1  0.242040  0.482880  0.675100  1.0  -0.2197
  N  N889  1  0.066940  0.259160  0.242040  1.0  -0.2208
  N  N890  1  0.857000  0.207380  0.561060  1.0  0.0603
  N  N891  1  0.343910  0.805890  0.151900  1.0  -0.4216
  N  N892  1  0.240840  0.433060  0.257960  1.0  -0.22
  N  N893  1  0.348100  0.656090  0.694110  1.0  -0.4204
  N  N894  1  0.740780  0.049340  0.709120  1.0  -0.2615
  N  N895  1  0.295940  0.438940  0.646320  1.0  0.0612
  N  N896  1  0.207380  0.146320  0.350380  1.0  0.0601
  N  N897  1  0.692010  0.038020  0.343910  1.0  -0.4237
  N  N898  1  0.049340  0.840220  0.308560  1.0  -0.265
  N  N899  1  0.348100  0.692010  0.153990  1.0  -0.4211
  N  N900  1  0.292620  0.649620  0.853680  1.0  0.0606
  N  N901  1  0.295940  0.857000  0.149620  1.0  0.061
  N  N902  1  0.566940  0.242040  0.259160  1.0  -0.2231
  N  N903  1  0.438940  0.146320  0.795940  1.0  0.062
  N  N904  1  0.240780  0.531660  0.691440  1.0  -0.2614
  N  N905  1  0.151900  0.305890  0.343910  1.0  -0.4218
  N  N906  1  0.848100  0.153990  0.692010  1.0  -0.4253
  N  N907  1  0.146320  0.295940  0.938940  1.0  0.0598
  N  N908  1  0.704060  0.561060  0.353680  1.0  0.0594
  N  N909  1  0.646320  0.707380  0.850380  1.0  0.0617
  N  N910  1  0.805890  0.153990  0.461980  1.0  -0.4237
  N  N911  1  0.257960  0.933060  0.240840  1.0  -0.2219
  N  N912  1  0.566940  0.324900  0.807780  1.0  -0.2221
  N  N913  1  0.808560  0.759220  0.968340  1.0  -0.2625
  N  N914  1  0.840220  0.808560  0.549340  1.0  -0.2639
  N  N915  1  0.740840  0.257960  0.433060  1.0  -0.2216
  N  N916  1  0.307780  0.566940  0.824900  1.0  -0.2195
  N  N917  1  0.194110  0.348100  0.156090  1.0  -0.4241
  N  N918  1  0.209120  0.740780  0.549340  1.0  -0.2652
  N  N919  1  0.653990  0.348100  0.192010  1.0  -0.4243
  N  N920  1  0.450660  0.691440  0.159780  1.0  -0.2642
  N  N921  1  0.675100  0.982880  0.242040  1.0  -0.219
  N  N922  1  0.292620  0.643000  0.938940  1.0  0.0594
  N  N923  1  0.194110  0.846010  0.538020  1.0  -0.4242
  N  N924  1  0.153990  0.961980  0.305890  1.0  -0.423
  N  N925  1  0.846010  0.038020  0.694110  1.0  -0.4234
  N  N926  1  0.290880  0.450660  0.259220  1.0  -0.2593
  N  N927  1  0.159780  0.191440  0.450660  1.0  -0.265
  N  N928  1  0.759160  0.192220  0.517120  1.0  -0.2206
  N  N929  1  0.938940  0.143000  0.292620  1.0  0.0616
  N  N930  1  0.143000  0.350380  0.204060  1.0  0.06
  N  N931  1  0.149620  0.357000  0.295940  1.0  0.0598
  N  N932  1  0.151900  0.846010  0.307990  1.0  -0.4252
  N  N933  1  0.192010  0.848100  0.653990  1.0  -0.4227
  N  N934  1  0.643000  0.204060  0.350380  1.0  0.0604
  N  N935  1  0.795940  0.646320  0.438940  1.0  0.0599
  N  N936  1  0.207380  0.061060  0.357000  1.0  0.0603
  N  N937  1  0.938940  0.795940  0.146320  1.0  0.0613
  N  N938  1  0.950660  0.159780  0.691440  1.0  -0.2645
  N  N939  1  0.807780  0.982880  0.740840  1.0  -0.2188
  N  N940  1  0.656090  0.194110  0.848100  1.0  -0.4232
  N  N941  1  0.175100  0.242040  0.982880  1.0  -0.2235
  N  N942  1  0.651900  0.307990  0.846010  1.0  -0.421
  N  N943  1  0.204060  0.850380  0.143000  1.0  0.0599
  N  N944  1  0.153990  0.192010  0.348100  1.0  -0.4227
  N  N945  1  0.692010  0.653990  0.848100  1.0  -0.4226
  N  N946  1  0.757960  0.240840  0.933060  1.0  -0.2199
  N  N947  1  0.061060  0.857000  0.707380  1.0  0.0594
  N  N948  1  0.209120  0.468340  0.159780  1.0  -0.2612
  N  N949  1  0.808560  0.049340  0.340220  1.0  -0.2613
  N  N950  1  0.438940  0.292620  0.143000  1.0  0.0614
  N  N951  1  0.961980  0.805890  0.653990  1.0  -0.4242
  N  N952  1  0.305890  0.461980  0.153990  1.0  -0.4248
  N  N953  1  0.982880  0.742040  0.175100  1.0  -0.2217
  N  N954  1  0.192220  0.175100  0.433060  1.0  -0.2221
  N  N955  1  0.531660  0.340220  0.290880  1.0  -0.264
  N  N956  1  0.843910  0.692010  0.538020  1.0  -0.4201
  N  N957  1  0.517120  0.692220  0.759160  1.0  -0.219
  N  N958  1  0.707380  0.350380  0.146320  1.0  0.0601
  N  N959  1  0.324900  0.307780  0.066940  1.0  -0.2189
  N  N960  1  0.692220  0.433060  0.175100  1.0  -0.2204
  N  N961  1  0.191440  0.240780  0.031660  1.0  -0.264
  N  N962  1  0.450660  0.759220  0.790880  1.0  -0.2639
  N  N963  1  0.709120  0.159780  0.468340  1.0  -0.2642
  N  N964  1  0.517120  0.824900  0.257960  1.0  -0.2222
  N  N965  1  0.305890  0.843910  0.651900  1.0  -0.4198
  N  N966  1  0.538020  0.346010  0.194110  1.0  -0.4236
  N  N967  1  0.742040  0.066940  0.759160  1.0  -0.2204
  N  N968  1  0.049340  0.209120  0.240780  1.0  -0.2599
  N  N969  1  0.807990  0.656090  0.961980  1.0  -0.422
  N  N970  1  0.709120  0.549340  0.740780  1.0  -0.2636
  N  N971  1  0.950660  0.790880  0.759220  1.0  -0.2627
  N  N972  1  0.675100  0.692220  0.933060  1.0  -0.2193
  N  N973  1  0.308560  0.340220  0.049340  1.0  -0.2628
  N  N974  1  0.259220  0.950660  0.290880  1.0  -0.2601
  N  N975  1  0.707380  0.357000  0.061060  1.0  0.0597
  N  N976  1  0.307990  0.961980  0.656090  1.0  -0.4243
  N  N977  1  0.175100  0.933060  0.692220  1.0  -0.2205
  N  N978  1  0.343910  0.538020  0.692010  1.0  -0.4238
  N  N979  1  0.694110  0.538020  0.846010  1.0  -0.4235
  N  N980  1  0.848100  0.694110  0.656090  1.0  -0.4225
  N  N981  1  0.857000  0.649620  0.795940  1.0  0.0597
  N  N982  1  0.792620  0.938940  0.643000  1.0  0.0614
  N  N983  1  0.192010  0.343910  0.038020  1.0  -0.4215
  N  N984  1  0.692220  0.259160  0.017120  1.0  -0.2208
  N  N985  1  0.846010  0.807990  0.651900  1.0  -0.4226
  N  N986  1  0.790880  0.259220  0.450660  1.0  -0.2625
  N  N987  1  0.461980  0.807990  0.156090  1.0  -0.4251
  N  N988  1  0.156090  0.848100  0.194110  1.0  -0.4217
  N  N989  1  0.740780  0.691440  0.531660  1.0  -0.2648
  N  N990  1  0.038020  0.843910  0.192010  1.0  -0.4221
  N  N991  1  0.433060  0.757960  0.740840  1.0  -0.2231
  N  N992  1  0.757960  0.517120  0.324900  1.0  -0.2202
  N  N993  1  0.031660  0.740780  0.191440  1.0  -0.2626
  N  N994  1  0.340220  0.790880  0.031660  1.0  -0.2605
  N  N995  1  0.840220  0.031660  0.790880  1.0  -0.2611
  N  N996  1  0.694110  0.156090  0.348100  1.0  -0.4213
  N  N997  1  0.192220  0.017120  0.259160  1.0  -0.2188
  N  N998  1  0.324900  0.017120  0.757960  1.0  -0.2194
  N  N999  1  0.691440  0.659780  0.950660  1.0  -0.2627
  N  N1000  1  0.853680  0.704060  0.061060  1.0  0.0606
  N  N1001  1  0.259160  0.742040  0.566940  1.0  -0.2222
  N  N1002  1  0.933060  0.192220  0.675100  1.0  -0.2202
  N  N1003  1  0.805890  0.651900  0.843910  1.0  -0.4266
  N  N1004  1  0.061060  0.204060  0.853680  1.0  0.0603
  N  N1005  1  0.824900  0.757960  0.017120  1.0  -0.2236
  N  N1006  1  0.982880  0.240840  0.307780  1.0  -0.2201
  N  N1007  1  0.561060  0.853680  0.204060  1.0  0.0615
  N  N1008  1  0.308560  0.968340  0.759220  1.0  -0.2607
  N  N1009  1  0.961980  0.156090  0.807990  1.0  -0.4205
  N  N1010  1  0.353680  0.061060  0.704060  1.0  0.0613
  N  N1011  1  0.156090  0.307990  0.461980  1.0  -0.4207
  N  N1012  1  0.651900  0.343910  0.305890  1.0  -0.4206
  N  N1013  1  0.031660  0.290880  0.340220  1.0  -0.2625
  N  N1014  1  0.259220  0.308560  0.468340  1.0  -0.2652
  N  N1015  1  0.346010  0.651900  0.807990  1.0  -0.4244
  N  N1016  1  0.850380  0.207380  0.646320  1.0  0.06
  N  N1017  1  0.307780  0.740840  0.982880  1.0  -0.2203
  N  N1018  1  0.346010  0.694110  0.038020  1.0  -0.422
  N  N1019  1  0.759160  0.566940  0.742040  1.0  -0.221
  N  N1020  1  0.038020  0.194110  0.346010  1.0  -0.4211
  N  N1021  1  0.933060  0.740840  0.757960  1.0  -0.2205
  N  N1022  1  0.790880  0.531660  0.840220  1.0  -0.2621
  N  N1023  1  0.824900  0.066940  0.307780  1.0  -0.2217
  N  N1024  1  0.017120  0.257960  0.824900  1.0  -0.2227
  N  N1025  1  0.792620  0.853680  0.649620  1.0  0.0616
  N  N1026  1  0.649620  0.295940  0.357000  1.0  0.0598
  N  N1027  1  0.159780  0.968340  0.209120  1.0  -0.2609
  N  N1028  1  0.149620  0.792620  0.353680  1.0  0.0606
  N  N1029  1  0.795940  0.149620  0.857000  1.0  0.0611
  N  N1030  1  0.357000  0.795940  0.649620  1.0  0.0623
  N  N1031  1  0.482880  0.175100  0.742040  1.0  -0.222
  N  N1032  1  0.461980  0.653990  0.805890  1.0  -0.4224
  N  N1033  1  0.653990  0.305890  0.961980  1.0  -0.4215
  N  N1034  1  0.340220  0.549340  0.808560  1.0  -0.261
  N  N1035  1  0.240780  0.709120  0.049340  1.0  -0.2609
  N  N1036  1  0.704060  0.143000  0.850380  1.0  0.0597
  N  N1037  1  0.561060  0.707380  0.857000  1.0  0.0617
  N  N1038  1  0.807780  0.824900  0.566940  1.0  -0.2212
  N  N1039  1  0.549340  0.240780  0.209120  1.0  -0.2619
  N  N1040  1  0.357000  0.561060  0.207380  1.0  0.0604
  N  N1041  1  0.691440  0.031660  0.240780  1.0  -0.2608
  N  N1042  1  0.433060  0.675100  0.192220  1.0  -0.2224
  N  N1043  1  0.240840  0.807780  0.482880  1.0  -0.2203
  N  N1044  1  0.191440  0.950660  0.659780  1.0  -0.2608
