# generated using pymatgen
data_ZnH32(C19N8)2
_symmetry_space_group_name_H-M   'P 1'
_cell_length_a   27.13010000
_cell_length_b   27.12980000
_cell_length_c   27.12980000
_cell_angle_alpha   109.47100000
_cell_angle_beta   109.47100000
_cell_angle_gamma   109.47100000
_symmetry_Int_Tables_number   1
_chemical_formula_structural   ZnH32(C19N8)2
_chemical_formula_sum   'Zn12 H384 C456 N192'
_cell_volume   15371.85346211
_cell_formula_units_Z   12
loop_
 _symmetry_equiv_pos_site_id
 _symmetry_equiv_pos_as_xyz
  1  'x, y, z'
loop_
 _atom_site_type_symbol
 _atom_site_label
 _atom_site_symmetry_multiplicity
 _atom_site_fract_x
 _atom_site_fract_y
 _atom_site_fract_z
 _atom_site_occupancy
 _atom_site_charge
  Zn  Zn1  1  0.250000  0.375000  0.125000  1.0  0.7515
  Zn  Zn2  1  0.625000  0.375000  0.250000  1.0  0.7513
  Zn  Zn3  1  0.875000  0.125000  0.750000  1.0  0.7518
  Zn  Zn4  1  0.375000  0.625000  0.750000  1.0  0.752
  Zn  Zn5  1  0.625000  0.250000  0.875000  1.0  0.7516
  Zn  Zn6  1  0.125000  0.875000  0.250000  1.0  0.7514
  Zn  Zn7  1  0.875000  0.750000  0.625000  1.0  0.7519
  Zn  Zn8  1  0.750000  0.625000  0.875000  1.0  0.7516
  Zn  Zn9  1  0.375000  0.750000  0.125000  1.0  0.7519
  Zn  Zn10  1  0.125000  0.250000  0.375000  1.0  0.7516
  Zn  Zn11  1  0.250000  0.875000  0.625000  1.0  0.7518
  Zn  Zn12  1  0.750000  0.125000  0.375000  1.0  0.7515
  H  H13  1  0.205600  0.206600  0.108600  1.0  0.1119
  H  H14  1  0.798400  0.767500  0.337100  1.0  0.0862
  H  H15  1  0.001000  0.098000  0.206600  1.0  0.1107
  H  H16  1  0.582800  0.231700  0.354700  1.0  0.1071
  H  H17  1  0.463200  0.162100  0.215500  1.0  0.1084
  H  H18  1  0.629800  0.903400  0.519000  1.0  0.0964
  H  H19  1  0.030900  0.461300  0.298400  1.0  0.0875
  H  H20  1  0.536800  0.837900  0.784500  1.0  0.1082
  H  H21  1  0.598000  0.097000  0.391400  1.0  0.1103
  H  H22  1  0.728100  0.851100  0.582800  1.0  0.1059
  H  H23  1  0.268900  0.632700  0.563800  1.0  0.1137
  H  H24  1  0.550700  0.782100  0.415000  1.0  0.0874
  H  H25  1  0.082800  0.728100  0.351100  1.0  0.1085
  H  H26  1  0.784500  0.337900  0.536800  1.0  0.1098
  H  H27  1  0.877900  0.144700  0.457400  1.0  0.0877
  H  H28  1  0.644700  0.266800  0.187300  1.0  0.0884
  H  H29  1  0.085000  0.635700  0.867100  1.0  0.085
  H  H30  1  0.148900  0.917200  0.771900  1.0  0.1063
  H  H31  1  0.728100  0.877000  0.645300  1.0  0.1079
  H  H32  1  0.597000  0.499000  0.205600  1.0  0.1107
  H  H33  1  0.228100  0.582800  0.851100  1.0  0.106
  H  H34  1  0.550700  0.768600  0.635700  1.0  0.0876
  H  H35  1  0.370200  0.096600  0.481000  1.0  0.0962
  H  H36  1  0.863800  0.632700  0.068900  1.0  0.1146
  H  H37  1  0.215500  0.553400  0.252300  1.0  0.1083
  H  H38  1  0.812700  0.579500  0.957400  1.0  0.0876
  H  H39  1  0.145300  0.728100  0.377000  1.0  0.108
  H  H40  1  0.415000  0.132900  0.364300  1.0  0.0873
  H  H41  1  0.469100  0.701600  0.538700  1.0  0.0876
  H  H42  1  0.662100  0.963200  0.715500  1.0  0.109
  H  H43  1  0.050700  0.635700  0.768600  1.0  0.0848
  H  H44  1  0.436200  0.867300  0.731100  1.0  0.1162
  H  H45  1  0.771900  0.354700  0.123000  1.0  0.104
  H  H46  1  0.391400  0.597000  0.598000  1.0  0.1109
  H  H47  1  0.715500  0.252300  0.553400  1.0  0.1083
  H  H48  1  0.867300  0.636200  0.431100  1.0  0.1129
  H  H49  1  0.903400  0.884400  0.273600  1.0  0.0986
  H  H50  1  0.355300  0.622100  0.042600  1.0  0.088
  H  H51  1  0.903400  0.019000  0.129800  1.0  0.0964
  H  H52  1  0.268600  0.050700  0.135700  1.0  0.087
  H  H53  1  0.298400  0.337100  0.767500  1.0  0.0861
  H  H54  1  0.837100  0.038700  0.069600  1.0  0.086
  H  H55  1  0.449300  0.231400  0.364300  1.0  0.0848
  H  H56  1  0.632700  0.568900  0.363800  1.0  0.1145
  H  H57  1  0.585000  0.717900  0.449300  1.0  0.0856
  H  H58  1  0.705100  0.436200  0.068900  1.0  0.1178
  H  H59  1  0.538700  0.337100  0.569600  1.0  0.0874
  H  H60  1  0.284500  0.747700  0.446600  1.0  0.1076
  H  H61  1  0.198900  0.036800  0.752300  1.0  0.1089
  H  H62  1  0.122100  0.855300  0.542600  1.0  0.0873
  H  H63  1  0.231100  0.794900  0.363800  1.0  0.1144
  H  H64  1  0.108600  0.402000  0.403000  1.0  0.111
  H  H65  1  0.232500  0.069600  0.030900  1.0  0.0863
  H  H66  1  0.698900  0.752300  0.036800  1.0  0.108
  H  H67  1  0.644700  0.377900  0.957400  1.0  0.088
  H  H68  1  0.747700  0.801100  0.463200  1.0  0.1087
  H  H69  1  0.889200  0.519000  0.615600  1.0  0.0975
  H  H70  1  0.217900  0.085000  0.949300  1.0  0.087
  H  H71  1  0.282100  0.231400  0.867100  1.0  0.0853
  H  H72  1  0.930400  0.461300  0.162900  1.0  0.087
  H  H73  1  0.768300  0.623000  0.351100  1.0  0.1056
  H  H74  1  0.768900  0.205100  0.636200  1.0  0.1134
  H  H75  1  0.622100  0.079500  0.266800  1.0  0.0868
  H  H76  1  0.019000  0.389200  0.115600  1.0  0.0984
  H  H77  1  0.446600  0.198900  0.662100  1.0  0.1084
  H  H78  1  0.123000  0.854700  0.771900  1.0  0.1051
  H  H79  1  0.969100  0.538700  0.701600  1.0  0.0874
  H  H80  1  0.636200  0.931100  0.367300  1.0  0.1147
  H  H81  1  0.144700  0.187300  0.266800  1.0  0.0902
  H  H82  1  0.268300  0.917200  0.145300  1.0  0.105
  H  H83  1  0.351100  0.228100  0.082800  1.0  0.1055
  H  H84  1  0.205100  0.136200  0.268900  1.0  0.1147
  H  H85  1  0.726400  0.110800  0.129800  1.0  0.0958
  H  H86  1  0.773600  0.870200  0.889200  1.0  0.0964
  H  H87  1  0.136200  0.768900  0.705100  1.0  0.115
  H  H88  1  0.069600  0.538700  0.837100  1.0  0.0869
  H  H89  1  0.870200  0.389200  0.273600  1.0  0.0977
  H  H90  1  0.132700  0.768900  0.063800  1.0  0.1142
  H  H91  1  0.293400  0.999000  0.402000  1.0  0.1106
  H  H92  1  0.615600  0.596600  0.226400  1.0  0.0959
  H  H93  1  0.867300  0.231100  0.936200  1.0  0.1151
  H  H94  1  0.798400  0.030900  0.961300  1.0  0.0876
  H  H95  1  0.226400  0.129800  0.110800  1.0  0.0958
  H  H96  1  0.501000  0.206600  0.098000  1.0  0.1119
  H  H97  1  0.430400  0.162900  0.461300  1.0  0.0876
  H  H98  1  0.226400  0.096600  0.615600  1.0  0.0964
  H  H99  1  0.747700  0.946600  0.784500  1.0  0.1083
  H  H100  1  0.877000  0.731700  0.148900  1.0  0.1051
  H  H101  1  0.949300  0.585000  0.217900  1.0  0.0851
  H  H102  1  0.870200  0.481000  0.096600  1.0  0.0979
  H  H103  1  0.079500  0.766800  0.122100  1.0  0.0908
  H  H104  1  0.001000  0.903000  0.294400  1.0  0.1103
  H  H105  1  0.132900  0.864300  0.915000  1.0  0.0851
  H  H106  1  0.629800  0.726400  0.610800  1.0  0.0963
  H  H107  1  0.579500  0.122100  0.766800  1.0  0.0891
  H  H108  1  0.050700  0.415000  0.782100  1.0  0.0864
  H  H109  1  0.457400  0.812700  0.079500  1.0  0.0902
  H  H110  1  0.036800  0.784500  0.837900  1.0  0.1088
  H  H111  1  0.530900  0.298400  0.461300  1.0  0.0881
  H  H112  1  0.645300  0.377000  0.728100  1.0  0.1054
  H  H113  1  0.623000  0.851100  0.268300  1.0  0.1069
  H  H114  1  0.267500  0.298400  0.837100  1.0  0.0867
  H  H115  1  0.855300  0.812700  0.733200  1.0  0.0907
  H  H116  1  0.266800  0.579500  0.622100  1.0  0.0885
  H  H117  1  0.247700  0.784500  0.946600  1.0  0.1084
  H  H118  1  0.294900  0.731100  0.863800  1.0  0.1192
  H  H119  1  0.499000  0.793400  0.902000  1.0  0.1118
  H  H120  1  0.794400  0.793400  0.891400  1.0  0.112
  H  H121  1  0.267500  0.969100  0.930400  1.0  0.088
  H  H122  1  0.268300  0.351100  0.623000  1.0  0.1086
  H  H123  1  0.268900  0.636200  0.205100  1.0  0.1136
  H  H124  1  0.794900  0.931100  0.563800  1.0  0.1139
  H  H125  1  0.851100  0.082800  0.228100  1.0  0.1059
  H  H126  1  0.231400  0.367100  0.782100  1.0  0.0873
  H  H127  1  0.915000  0.364300  0.132900  1.0  0.0868
  H  H128  1  0.891400  0.293400  0.794400  1.0  0.1111
  H  H129  1  0.231100  0.436200  0.367300  1.0  0.1162
  H  H130  1  0.963200  0.747700  0.301100  1.0  0.1088
  H  H131  1  0.301100  0.053400  0.837900  1.0  0.109
  H  H132  1  0.030900  0.569600  0.232500  1.0  0.0875
  H  H133  1  0.082800  0.354700  0.231700  1.0  0.1066
  H  H134  1  0.068900  0.132700  0.863800  1.0  0.1159
  H  H135  1  0.273600  0.384400  0.903400  1.0  0.0977
  H  H136  1  0.884400  0.773600  0.403400  1.0  0.0946
  H  H137  1  0.053400  0.715500  0.752300  1.0  0.1085
  H  H138  1  0.301100  0.247700  0.963200  1.0  0.1079
  H  H139  1  0.981000  0.610800  0.884400  1.0  0.0978
  H  H140  1  0.232500  0.162900  0.701600  1.0  0.0869
  H  H141  1  0.608600  0.403000  0.402000  1.0  0.111
  H  H142  1  0.233200  0.855300  0.312700  1.0  0.0876
  H  H143  1  0.384400  0.981000  0.110800  1.0  0.0948
  H  H144  1  0.553400  0.801100  0.337900  1.0  0.109
  H  H145  1  0.732500  0.030900  0.069600  1.0  0.0868
  H  H146  1  0.752300  0.215500  0.053400  1.0  0.1085
  H  H147  1  0.915000  0.550700  0.282100  1.0  0.0845
  H  H148  1  0.793400  0.402000  0.999000  1.0  0.1116
  H  H149  1  0.596600  0.726400  0.115600  1.0  0.0965
  H  H150  1  0.162100  0.715500  0.963200  1.0  0.1083
  H  H151  1  0.367300  0.936200  0.231100  1.0  0.1142
  H  H152  1  0.417200  0.768300  0.645300  1.0  0.1059
  H  H153  1  0.585000  0.867100  0.635700  1.0  0.0858
  H  H154  1  0.354700  0.731700  0.582800  1.0  0.1046
  H  H155  1  0.377900  0.457400  0.144700  1.0  0.0884
  H  H156  1  0.784500  0.446600  0.747700  1.0  0.108
  H  H157  1  0.635700  0.367100  0.585000  1.0  0.0872
  H  H158  1  0.252300  0.053400  0.215500  1.0  0.1087
  H  H159  1  0.837900  0.553400  0.301100  1.0  0.1086
  H  H160  1  0.936200  0.731100  0.867300  1.0  0.1174
  H  H161  1  0.717900  0.768600  0.132900  1.0  0.0873
  H  H162  1  0.499000  0.705600  0.097000  1.0  0.1121
  H  H163  1  0.469100  0.767500  0.430400  1.0  0.0884
  H  H164  1  0.312700  0.957400  0.579500  1.0  0.0892
  H  H165  1  0.902000  0.608600  0.903000  1.0  0.1089
  H  H166  1  0.635700  0.268600  0.550700  1.0  0.0854
  H  H167  1  0.698900  0.946600  0.162100  1.0  0.1083
  H  H168  1  0.377900  0.920500  0.733200  1.0  0.0867
  H  H169  1  0.731400  0.949300  0.864300  1.0  0.087
  H  H170  1  0.461300  0.798400  0.530900  1.0  0.088
  H  H171  1  0.403000  0.501000  0.794400  1.0  0.1106
  H  H172  1  0.705100  0.268900  0.136200  1.0  0.1177
  H  H173  1  0.403400  0.129800  0.019000  1.0  0.0966
  H  H174  1  0.768300  0.145300  0.917200  1.0  0.1054
  H  H175  1  0.782100  0.915000  0.050700  1.0  0.0875
  H  H176  1  0.123000  0.268300  0.851100  1.0  0.106
  H  H177  1  0.936200  0.205100  0.568900  1.0  0.1146
  H  H178  1  0.706600  0.001000  0.598000  1.0  0.1113
  H  H179  1  0.364300  0.632900  0.415000  1.0  0.0866
  H  H180  1  0.715500  0.463200  0.662100  1.0  0.1087
  H  H181  1  0.132700  0.363800  0.568900  1.0  0.1135
  H  H182  1  0.687300  0.644700  0.766800  1.0  0.09
  H  H183  1  0.108600  0.706600  0.205600  1.0  0.1117
  H  H184  1  0.201600  0.232500  0.662900  1.0  0.0875
  H  H185  1  0.068900  0.936200  0.705100  1.0  0.1149
  H  H186  1  0.733200  0.420500  0.377900  1.0  0.0877
  H  H187  1  0.999000  0.902000  0.793400  1.0  0.1105
  H  H188  1  0.446600  0.247700  0.284500  1.0  0.1079
  H  H189  1  0.877900  0.733200  0.920500  1.0  0.0889
  H  H190  1  0.436200  0.568900  0.205100  1.0  0.1146
  H  H191  1  0.946600  0.284500  0.247700  1.0  0.1082
  H  H192  1  0.420500  0.542600  0.687300  1.0  0.088
  H  H193  1  0.867100  0.731400  0.282100  1.0  0.0871
  H  H194  1  0.687300  0.042600  0.420500  1.0  0.0904
  H  H195  1  0.038700  0.569600  0.337100  1.0  0.0869
  H  H196  1  0.312700  0.355300  0.233200  1.0  0.0909
  H  H197  1  0.110800  0.481000  0.384400  1.0  0.0974
  H  H198  1  0.135700  0.550700  0.268600  1.0  0.0851
  H  H199  1  0.767500  0.837100  0.298400  1.0  0.0867
  H  H200  1  0.812700  0.233200  0.355300  1.0  0.0914
  H  H201  1  0.389200  0.615600  0.519000  1.0  0.0964
  H  H202  1  0.596600  0.870200  0.981000  1.0  0.0965
  H  H203  1  0.187300  0.420500  0.042600  1.0  0.0889
  H  H204  1  0.337900  0.036800  0.284500  1.0  0.109
  H  H205  1  0.403000  0.902000  0.108600  1.0  0.1107
  H  H206  1  0.096600  0.115600  0.726400  1.0  0.0987
  H  H207  1  0.294400  0.403000  0.001000  1.0  0.1106
  H  H208  1  0.733200  0.312700  0.855300  1.0  0.0876
  H  H209  1  0.854700  0.582800  0.731700  1.0  0.1054
  H  H210  1  0.851100  0.768300  0.123000  1.0  0.1079
  H  H211  1  0.920500  0.687300  0.542600  1.0  0.0879
  H  H212  1  0.268600  0.217900  0.632900  1.0  0.0876
  H  H213  1  0.889200  0.370200  0.773600  1.0  0.0958
  H  H214  1  0.731700  0.648900  0.377000  1.0  0.1076
  H  H215  1  0.201600  0.969100  0.038700  1.0  0.086
  H  H216  1  0.463200  0.301100  0.747700  1.0  0.1087
  H  H217  1  0.481000  0.884400  0.610800  1.0  0.0985
  H  H218  1  0.420500  0.877900  0.233200  1.0  0.0888
  H  H219  1  0.519000  0.403400  0.629800  1.0  0.097
  H  H220  1  0.481000  0.596600  0.370200  1.0  0.0961
  H  H221  1  0.042600  0.122100  0.355300  1.0  0.0889
  H  H222  1  0.632700  0.063800  0.768900  1.0  0.1144
  H  H223  1  0.863800  0.231100  0.294900  1.0  0.1154
  H  H224  1  0.217900  0.132900  0.768600  1.0  0.0857
  H  H225  1  0.247700  0.463200  0.801100  1.0  0.1083
  H  H226  1  0.931100  0.867300  0.136200  1.0  0.1166
  H  H227  1  0.598000  0.501000  0.706600  1.0  0.1112
  H  H228  1  0.999000  0.097000  0.705600  1.0  0.1104
  H  H229  1  0.701600  0.038700  0.969100  1.0  0.086
  H  H230  1  0.273600  0.889200  0.870200  1.0  0.0952
  H  H231  1  0.864300  0.415000  0.632900  1.0  0.0866
  H  H232  1  0.957400  0.079500  0.812700  1.0  0.0864
  H  H233  1  0.069600  0.530900  0.732500  1.0  0.087
  H  H234  1  0.623000  0.771900  0.854700  1.0  0.1077
  H  H235  1  0.946600  0.662100  0.198900  1.0  0.1099
  H  H236  1  0.115600  0.226400  0.596600  1.0  0.0947
  H  H237  1  0.731100  0.367300  0.436200  1.0  0.115
  H  H238  1  0.402000  0.903000  0.608600  1.0  0.1101
  H  H239  1  0.294900  0.563800  0.931100  1.0  0.1166
  H  H240  1  0.355300  0.733200  0.812700  1.0  0.0886
  H  H241  1  0.271900  0.148900  0.417200  1.0  0.1081
  H  H242  1  0.519000  0.115600  0.389200  1.0  0.0982
  H  H243  1  0.648900  0.877000  0.231700  1.0  0.1059
  H  H244  1  0.337100  0.267500  0.798400  1.0  0.0867
  H  H245  1  0.282100  0.050700  0.915000  1.0  0.0853
  H  H246  1  0.530900  0.232500  0.569600  1.0  0.0876
  H  H247  1  0.370200  0.273600  0.389200  1.0  0.0959
  H  H248  1  0.542600  0.187300  0.920500  1.0  0.0909
  H  H249  1  0.206600  0.608600  0.705600  1.0  0.11
  H  H250  1  0.864300  0.449300  0.731400  1.0  0.0863
  H  H251  1  0.961300  0.530900  0.798400  1.0  0.0867
  H  H252  1  0.403400  0.273600  0.884400  1.0  0.0968
  H  H253  1  0.538700  0.201600  0.469100  1.0  0.0875
  H  H254  1  0.768900  0.563800  0.632700  1.0  0.1167
  H  H255  1  0.766800  0.144700  0.687300  1.0  0.0874
  H  H256  1  0.036800  0.252300  0.698900  1.0  0.108
  H  H257  1  0.920500  0.233200  0.877900  1.0  0.0902
  H  H258  1  0.198900  0.162100  0.946600  1.0  0.1081
  H  H259  1  0.252300  0.198900  0.536800  1.0  0.1088
  H  H260  1  0.231400  0.864300  0.949300  1.0  0.0849
  H  H261  1  0.430400  0.267500  0.469100  1.0  0.0875
  H  H262  1  0.449300  0.217900  0.585000  1.0  0.0855
  H  H263  1  0.205600  0.999000  0.597000  1.0  0.1111
  H  H264  1  0.417200  0.648900  0.271900  1.0  0.107
  H  H265  1  0.949300  0.364300  0.231400  1.0  0.0865
  H  H266  1  0.431100  0.136200  0.867300  1.0  0.1152
  H  H267  1  0.801100  0.963200  0.247700  1.0  0.1089
  H  H268  1  0.867100  0.135700  0.085000  1.0  0.0874
  H  H269  1  0.284500  0.536800  0.337900  1.0  0.1083
  H  H270  1  0.569600  0.732500  0.530900  1.0  0.0874
  H  H271  1  0.957400  0.877900  0.644700  1.0  0.0891
  H  H272  1  0.903000  0.794400  0.501000  1.0  0.1107
  H  H273  1  0.645300  0.268300  0.417200  1.0  0.1062
  H  H274  1  0.162900  0.201600  0.732500  1.0  0.0869
  H  H275  1  0.097000  0.205600  0.499000  1.0  0.112
  H  H276  1  0.731400  0.782100  0.367100  1.0  0.0875
  H  H277  1  0.110800  0.629800  0.226400  1.0  0.096
  H  H278  1  0.615600  0.019000  0.889200  1.0  0.0958
  H  H279  1  0.726400  0.615600  0.096600  1.0  0.0975
  H  H280  1  0.837900  0.284500  0.036800  1.0  0.1087
  H  H281  1  0.079500  0.312700  0.457400  1.0  0.088
  H  H282  1  0.367100  0.085000  0.135700  1.0  0.0857
  H  H283  1  0.648900  0.771900  0.917200  1.0  0.107
  H  H284  1  0.903000  0.108600  0.902000  1.0  0.1106
  H  H285  1  0.294400  0.891400  0.793400  1.0  0.1107
  H  H286  1  0.266800  0.687300  0.144700  1.0  0.0879
  H  H287  1  0.884400  0.110800  0.981000  1.0  0.0941
  H  H288  1  0.662100  0.698900  0.446600  1.0  0.1087
  H  H289  1  0.766800  0.622100  0.579500  1.0  0.0878
  H  H290  1  0.771900  0.417200  0.148900  1.0  0.1072
  H  H291  1  0.501000  0.294400  0.903000  1.0  0.1121
  H  H292  1  0.569600  0.837100  0.538700  1.0  0.0874
  H  H293  1  0.969100  0.430400  0.767500  1.0  0.0877
  H  H294  1  0.610800  0.226400  0.629800  1.0  0.0944
  H  H295  1  0.461300  0.662900  0.430400  1.0  0.0872
  H  H296  1  0.097000  0.891400  0.098000  1.0  0.1106
  H  H297  1  0.233200  0.377900  0.420500  1.0  0.0878
  H  H298  1  0.981000  0.370200  0.596600  1.0  0.0979
  H  H299  1  0.917200  0.271900  0.648900  1.0  0.1072
  H  H300  1  0.096600  0.981000  0.870200  1.0  0.0969
  H  H301  1  0.608600  0.205600  0.706600  1.0  0.1109
  H  H302  1  0.917200  0.645300  0.768300  1.0  0.1042
  H  H303  1  0.144700  0.957400  0.377900  1.0  0.0907
  H  H304  1  0.098000  0.391400  0.097000  1.0  0.1096
  H  H305  1  0.731100  0.363800  0.794900  1.0  0.1131
  H  H306  1  0.782100  0.867100  0.231400  1.0  0.0877
  H  H307  1  0.389200  0.773600  0.370200  1.0  0.095
  H  H308  1  0.132900  0.268600  0.717900  1.0  0.0853
  H  H309  1  0.773600  0.903400  0.384400  1.0  0.0962
  H  H310  1  0.837100  0.798400  0.267500  1.0  0.0867
  H  H311  1  0.363800  0.068900  0.632700  1.0  0.1139
  H  H312  1  0.377000  0.148900  0.731700  1.0  0.1058
  H  H313  1  0.231700  0.377000  0.648900  1.0  0.1067
  H  H314  1  0.902000  0.293400  0.499000  1.0  0.1118
  H  H315  1  0.855300  0.042600  0.622100  1.0  0.0892
  H  H316  1  0.122100  0.266800  0.079500  1.0  0.088
  H  H317  1  0.768600  0.135700  0.050700  1.0  0.0871
  H  H318  1  0.293400  0.294400  0.391400  1.0  0.1124
  H  H319  1  0.148900  0.231700  0.877000  1.0  0.1058
  H  H320  1  0.768600  0.632900  0.217900  1.0  0.0848
  H  H321  1  0.162900  0.961300  0.930400  1.0  0.0861
  H  H322  1  0.019000  0.629800  0.403400  1.0  0.0968
  H  H323  1  0.363800  0.294900  0.231100  1.0  0.1144
  H  H324  1  0.271900  0.123000  0.354700  1.0  0.106
  H  H325  1  0.298400  0.961300  0.030900  1.0  0.0863
  H  H326  1  0.732500  0.701600  0.162900  1.0  0.0877
  H  H327  1  0.963200  0.215500  0.162100  1.0  0.1086
  H  H328  1  0.563800  0.132700  0.268900  1.0  0.1156
  H  H329  1  0.367300  0.431100  0.636200  1.0  0.1144
  H  H330  1  0.563800  0.431100  0.794900  1.0  0.1141
  H  H331  1  0.706600  0.705600  0.608600  1.0  0.1128
  H  H332  1  0.767500  0.930400  0.969100  1.0  0.0868
  H  H333  1  0.877000  0.145300  0.228100  1.0  0.1069
  H  H334  1  0.402000  0.499000  0.293400  1.0  0.1107
  H  H335  1  0.752300  0.536800  0.198900  1.0  0.1085
  H  H336  1  0.205100  0.068900  0.436200  1.0  0.115
  H  H337  1  0.215500  0.662100  0.463200  1.0  0.1095
  H  H338  1  0.187300  0.766800  0.644700  1.0  0.09
  H  H339  1  0.228100  0.645300  0.877000  1.0  0.107
  H  H340  1  0.568900  0.705100  0.936200  1.0  0.1148
  H  H341  1  0.701600  0.662900  0.232500  1.0  0.0867
  H  H342  1  0.364300  0.731400  0.449300  1.0  0.0849
  H  H343  1  0.063800  0.794900  0.431100  1.0  0.1132
  H  H344  1  0.136200  0.367300  0.931100  1.0  0.1148
  H  H345  1  0.162100  0.446600  0.698900  1.0  0.108
  H  H346  1  0.542600  0.355300  0.122100  1.0  0.0898
  H  H347  1  0.632900  0.915000  0.864300  1.0  0.0852
  H  H348  1  0.367100  0.282100  0.731400  1.0  0.0856
  H  H349  1  0.793400  0.391400  0.294400  1.0  0.109
  H  H350  1  0.415000  0.282100  0.550700  1.0  0.0855
  H  H351  1  0.582800  0.351100  0.728100  1.0  0.1081
  H  H352  1  0.457400  0.644700  0.877900  1.0  0.0909
  H  H353  1  0.801100  0.837900  0.053400  1.0  0.1082
  H  H354  1  0.597000  0.098000  0.891400  1.0  0.1104
  H  H355  1  0.705600  0.108600  0.206600  1.0  0.1113
  H  H356  1  0.354700  0.623000  0.271900  1.0  0.1056
  H  H357  1  0.145300  0.417200  0.268300  1.0  0.1065
  H  H358  1  0.391400  0.794400  0.293400  1.0  0.1117
  H  H359  1  0.854700  0.271900  0.623000  1.0  0.108
  H  H360  1  0.536800  0.698900  0.252300  1.0  0.1079
  H  H361  1  0.731700  0.082800  0.854700  1.0  0.1059
  H  H362  1  0.931100  0.063800  0.294900  1.0  0.1145
  H  H363  1  0.794400  0.001000  0.403000  1.0  0.1106
  H  H364  1  0.717900  0.949300  0.085000  1.0  0.0866
  H  H365  1  0.053400  0.337900  0.801100  1.0  0.1096
  H  H366  1  0.705600  0.597000  0.999000  1.0  0.111
  H  H367  1  0.085000  0.449300  0.717900  1.0  0.0866
  H  H368  1  0.351100  0.123000  0.768300  1.0  0.1067
  H  H369  1  0.384400  0.403400  0.773600  1.0  0.0953
  H  H370  1  0.622100  0.542600  0.855300  1.0  0.0876
  H  H371  1  0.042600  0.920500  0.187300  1.0  0.0874
  H  H372  1  0.662900  0.930400  0.961300  1.0  0.0858
  H  H373  1  0.135700  0.585000  0.367100  1.0  0.0865
  H  H374  1  0.337900  0.301100  0.553400  1.0  0.1081
  H  H375  1  0.662900  0.732500  0.201600  1.0  0.0867
  H  H376  1  0.553400  0.752300  0.715500  1.0  0.1081
  H  H377  1  0.632900  0.717900  0.268600  1.0  0.0872
  H  H378  1  0.115600  0.889200  0.019000  1.0  0.0946
  H  H379  1  0.206600  0.598000  0.001000  1.0  0.1118
  H  H380  1  0.129800  0.610800  0.726400  1.0  0.0975
  H  H381  1  0.098000  0.706600  0.501000  1.0  0.1112
  H  H382  1  0.930400  0.469100  0.267500  1.0  0.0867
  H  H383  1  0.231700  0.854700  0.082800  1.0  0.1066
  H  H384  1  0.129800  0.519000  0.903400  1.0  0.0983
  H  H385  1  0.337100  0.069600  0.038700  1.0  0.0857
  H  H386  1  0.568900  0.863800  0.132700  1.0  0.1149
  H  H387  1  0.891400  0.598000  0.597000  1.0  0.1112
  H  H388  1  0.610800  0.384400  0.481000  1.0  0.0965
  H  H389  1  0.794900  0.863800  0.731100  1.0  0.1151
  H  H390  1  0.431100  0.294900  0.063800  1.0  0.1144
  H  H391  1  0.961300  0.430400  0.662900  1.0  0.0871
  H  H392  1  0.579500  0.457400  0.312700  1.0  0.0877
  H  H393  1  0.063800  0.268900  0.132700  1.0  0.1177
  H  H394  1  0.377000  0.228100  0.145300  1.0  0.1079
  H  H395  1  0.038700  0.469100  0.201600  1.0  0.087
  H  H396  1  0.636200  0.705100  0.768900  1.0  0.1144
  C  C397  1  0.793650  0.122170  0.804740  1.0  0.3043
  C  C398  1  0.720480  0.077500  0.136400  1.0  -0.1168
  C  C399  1  0.799930  0.991080  0.327430  1.0  0.1912
  C  C400  1  0.805860  0.956300  0.604120  1.0  -0.1102
  C  C401  1  0.376600  0.100730  0.070650  1.0  -0.1056
  C  C402  1  0.357020  0.415920  0.779520  1.0  -0.1167
  C  C403  1  0.715690  0.733990  0.105660  1.0  -0.1024
  C  C404  1  0.473730  0.181980  0.105650  1.0  -0.1402
  C  C405  1  0.339210  0.636600  0.017510  1.0  -0.0009
  C  C406  1  0.110030  0.481700  0.715690  1.0  -0.1016
  C  C407  1  0.208250  0.026270  0.631920  1.0  -0.1382
  C  C408  1  0.150440  0.352180  0.956300  1.0  -0.1141
  C  C409  1  0.708250  0.631920  0.026270  1.0  -0.1413
  C  C410  1  0.671480  0.988910  0.293650  1.0  0.3027
  C  C411  1  0.824430  0.479760  0.775670  1.0  -0.0695
  C  C412  1  0.297390  0.678300  0.160790  1.0  -0.0022
  C  C413  1  0.543700  0.849560  0.147820  1.0  -0.1102
  C  C414  1  0.775670  0.795910  0.451240  1.0  -0.0715
  C  C415  1  0.298260  0.647820  0.604120  1.0  -0.1146
  C  C416  1  0.779520  0.863600  0.922500  1.0  -0.1116
  C  C417  1  0.304740  0.511090  0.182570  1.0  0.3036
  C  C418  1  0.423670  0.791750  0.318020  1.0  -0.1448
  C  C419  1  0.791750  0.818020  0.923670  1.0  -0.1392
  C  C420  1  0.895880  0.194140  0.543700  1.0  -0.1107
  C  C421  1  0.469920  0.694050  0.570650  1.0  -0.0997
  C  C422  1  0.479760  0.204090  0.655330  1.0  -0.0659
  C  C423  1  0.889970  0.518300  0.284310  1.0  -0.0999
  C  C424  1  0.191150  0.527500  0.700070  1.0  0.1914
  C  C425  1  0.600730  0.876600  0.570650  1.0  -0.11
  C  C426  1  0.415920  0.136400  0.058900  1.0  -0.1118
  C  C427  1  0.327430  0.491080  0.799930  1.0  0.1907
  C  C428  1  0.293650  0.488910  0.671480  1.0  0.3035
  C  C429  1  0.058900  0.636400  0.415920  1.0  -0.1147
  C  C430  1  0.105660  0.871670  0.889970  1.0  -0.1035
  C  C431  1  0.389970  0.105660  0.371670  1.0  -0.1029
  C  C432  1  0.336350  0.508920  0.308850  1.0  0.1922
  C  C433  1  0.349560  0.305860  0.201740  1.0  -0.1108
  C  C434  1  0.415920  0.279520  0.857020  1.0  -0.1155
  C  C435  1  0.275870  0.969920  0.899270  1.0  -0.1017
  C  C436  1  0.844670  0.520240  0.295910  1.0  -0.0694
  C  C437  1  0.363400  0.880910  0.702610  1.0  -0.0042
  C  C438  1  0.215690  0.110030  0.981700  1.0  -0.1011
  C  C439  1  0.923670  0.318020  0.791750  1.0  -0.1387
  C  C440  1  0.220480  0.136400  0.077500  1.0  -0.1133
  C  C441  1  0.605650  0.473730  0.681980  1.0  -0.1411
  C  C442  1  0.818020  0.423670  0.291750  1.0  -0.1367
  C  C443  1  0.548760  0.844670  0.824430  1.0  -0.0699
  C  C444  1  0.672570  0.163650  0.972500  1.0  0.19
  C  C445  1  0.880910  0.202610  0.863400  1.0  -0.0025
  C  C446  1  0.724330  0.548760  0.204090  1.0  -0.0658
  C  C447  1  0.456300  0.305860  0.104120  1.0  -0.111
  C  C448  1  0.695260  0.488910  0.817430  1.0  0.3036
  C  C449  1  0.150440  0.798260  0.694140  1.0  -0.1098
  C  C450  1  0.250000  0.872800  0.127200  1.0  -0.0082
  C  C451  1  0.100730  0.530080  0.724130  1.0  -0.1079
  C  C452  1  0.795910  0.844670  0.020240  1.0  -0.0679
  C  C453  1  0.982490  0.863400  0.660790  1.0  -0.0009
  C  C454  1  0.889970  0.371670  0.105660  1.0  -0.1
  C  C455  1  0.508920  0.808850  0.836350  1.0  0.1906
  C  C456  1  0.798260  0.194140  0.650440  1.0  -0.1113
  C  C457  1  0.479760  0.275670  0.324430  1.0  -0.066
  C  C458  1  0.610030  0.715690  0.481700  1.0  -0.1002
  C  C459  1  0.863400  0.702610  0.880910  1.0  -0.002
  C  C460  1  0.766010  0.784310  0.394340  1.0  -0.1032
  C  C461  1  0.160790  0.982490  0.363400  1.0  -0.0015
  C  C462  1  0.877200  0.127200  0.254400  1.0  -0.0092
  C  C463  1  0.972500  0.663650  0.672570  1.0  0.193
  C  C464  1  0.324430  0.548760  0.344670  1.0  -0.0622
  C  C465  1  0.682570  0.377830  0.171480  1.0  0.3015
  C  C466  1  0.048760  0.824430  0.844670  1.0  -0.064
  C  C467  1  0.429350  0.623400  0.399270  1.0  -0.1097
  C  C468  1  0.584080  0.720480  0.142980  1.0  -0.1111
  C  C469  1  0.131920  0.208250  0.526270  1.0  -0.1445
  C  C470  1  0.175570  0.520240  0.224330  1.0  -0.0709
  C  C471  1  0.527500  0.327430  0.336350  1.0  0.191
  C  C472  1  0.208250  0.181980  0.076330  1.0  -0.1369
  C  C473  1  0.894340  0.128330  0.110030  1.0  -0.104
  C  C474  1  0.899270  0.469920  0.275870  1.0  -0.1084
  C  C475  1  0.491080  0.191150  0.163650  1.0  0.1884
  C  C476  1  0.026270  0.131920  0.708250  1.0  -0.1418
  C  C477  1  0.020240  0.675570  0.724330  1.0  -0.0647
  C  C478  1  0.299930  0.972500  0.808850  1.0  0.1887
  C  C479  1  0.482490  0.821700  0.119090  1.0  0.002
  C  C480  1  0.254400  0.627200  0.877200  1.0  -0.0098
  C  C481  1  0.295910  0.275670  0.951240  1.0  -0.0655
  C  C482  1  0.394350  0.868080  0.576330  1.0  -0.1429
  C  C483  1  0.027500  0.691150  0.200070  1.0  0.1995
  C  C484  1  0.701740  0.349560  0.805860  1.0  -0.1103
  C  C485  1  0.808850  0.336350  0.008920  1.0  0.1922
  C  C486  1  0.481700  0.266010  0.371670  1.0  -0.1016
  C  C487  1  0.357020  0.941100  0.077500  1.0  -0.1135
  C  C488  1  0.530080  0.305950  0.429350  1.0  -0.1017
  C  C489  1  0.622800  0.877200  0.250000  1.0  -0.0104
  C  C490  1  0.206350  0.877830  0.195260  1.0  0.3021
  C  C491  1  0.619090  0.136600  0.797390  1.0  -0.001
  C  C492  1  0.076330  0.394350  0.368080  1.0  -0.1407
  C  C493  1  0.799930  0.808850  0.972500  1.0  0.188
  C  C494  1  0.017510  0.880910  0.178300  1.0  -0.003
  C  C495  1  0.929350  0.399270  0.623400  1.0  -0.1039
  C  C496  1  0.922500  0.558900  0.642980  1.0  -0.1189
  C  C497  1  0.131920  0.923670  0.105650  1.0  -0.139
  C  C498  1  0.245600  0.122800  0.372800  1.0  -0.0094
  C  C499  1  0.979760  0.324430  0.275670  1.0  -0.0711
  C  C500  1  0.750000  0.622800  0.377200  1.0  -0.005
  C  C501  1  0.577500  0.357020  0.441100  1.0  -0.1161
  C  C502  1  0.250000  0.377200  0.622800  1.0  -0.0107
  C  C503  1  0.043700  0.895880  0.694140  1.0  -0.1126
  C  C504  1  0.852180  0.650440  0.456300  1.0  -0.1105
  C  C505  1  0.839210  0.821700  0.702610  1.0  -0.0013
  C  C506  1  0.647820  0.543700  0.349560  1.0  -0.1115
  C  C507  1  0.352180  0.456300  0.650440  1.0  -0.1117
  C  C508  1  0.233990  0.018300  0.128330  1.0  -0.1023
  C  C509  1  0.694050  0.623400  0.224130  1.0  -0.1077
  C  C510  1  0.628330  0.394340  0.610030  1.0  -0.1029
  C  C511  1  0.702610  0.380910  0.363400  1.0  -0.0042
  C  C512  1  0.923670  0.605650  0.631920  1.0  -0.1415
  C  C513  1  0.899270  0.429350  0.123400  1.0  -0.106
  C  C514  1  0.395880  0.543700  0.194140  1.0  -0.1107
  C  C515  1  0.817430  0.988910  0.695260  1.0  0.3041
  C  C516  1  0.691150  0.991080  0.663650  1.0  0.1923
  C  C517  1  0.202610  0.839210  0.321700  1.0  -0.0014
  C  C518  1  0.623400  0.724130  0.194050  1.0  -0.1042
  C  C519  1  0.136600  0.297390  0.119090  1.0  -0.0008
  C  C520  1  0.070650  0.469920  0.194050  1.0  -0.107
  C  C521  1  0.058900  0.422500  0.142980  1.0  -0.1149
  C  C522  1  0.766010  0.981700  0.871670  1.0  -0.1106
  C  C523  1  0.297390  0.619090  0.636600  1.0  -0.0049
  C  C524  1  0.371670  0.605660  0.389970  1.0  -0.1024
  C  C525  1  0.469920  0.775870  0.399270  1.0  -0.1007
  C  C526  1  0.973730  0.105650  0.181980  1.0  -0.1383
  C  C527  1  0.704090  0.979760  0.155330  1.0  -0.0702
  C  C528  1  0.194050  0.224130  0.623400  1.0  -0.104
  C  C529  1  0.077500  0.441100  0.357020  1.0  -0.1172
  C  C530  1  0.805950  0.030080  0.929350  1.0  -0.1046
  C  C531  1  0.682570  0.304740  0.011090  1.0  0.3043
  C  C532  1  0.127200  0.372800  0.250000  1.0  -0.0056
  C  C533  1  0.775870  0.876600  0.305950  1.0  -0.1022
  C  C534  1  0.155330  0.675570  0.951240  1.0  -0.0658
  C  C535  1  0.105660  0.233990  0.715690  1.0  -0.1022
  C  C536  1  0.844670  0.324430  0.048760  1.0  -0.0656
  C  C537  1  0.663650  0.172570  0.472500  1.0  0.1928
  C  C538  1  0.872800  0.627200  0.750000  1.0  -0.0105
  C  C539  1  0.363400  0.482490  0.160790  1.0  -0.0012
  C  C540  1  0.836350  0.527500  0.827430  1.0  0.1916
  C  C541  1  0.147820  0.798260  0.104120  1.0  -0.1103
  C  C542  1  0.929350  0.530080  0.805950  1.0  -0.1068
  C  C543  1  0.182570  0.011090  0.304740  1.0  0.3039
  C  C544  1  0.570650  0.194050  0.469920  1.0  -0.1097
  C  C545  1  0.894350  0.318020  0.526270  1.0  -0.1409
  C  C546  1  0.852180  0.201740  0.895880  1.0  -0.111
  C  C547  1  0.488910  0.317430  0.195260  1.0  0.3029
  C  C548  1  0.577500  0.220480  0.636400  1.0  -0.1111
  C  C549  1  0.339210  0.702610  0.821700  1.0  -0.0022
  C  C550  1  0.172570  0.972500  0.163650  1.0  0.1889
  C  C551  1  0.451240  0.295910  0.775670  1.0  -0.0739
  C  C552  1  0.472500  0.672570  0.663650  1.0  0.1885
  C  C553  1  0.518300  0.784310  0.389970  1.0  -0.1036
  C  C554  1  0.172570  0.200070  0.508920  1.0  0.1924
  C  C555  1  0.622170  0.293650  0.304740  1.0  0.3036
  C  C556  1  0.988910  0.195260  0.317430  1.0  0.303
  C  C557  1  0.700070  0.027500  0.191150  1.0  0.1888
  C  C558  1  0.817430  0.828520  0.622170  1.0  0.3016
  C  C559  1  0.104120  0.805860  0.456300  1.0  -0.1118
  C  C560  1  0.110030  0.628330  0.894340  1.0  -0.1021
  C  C561  1  0.526270  0.818020  0.894350  1.0  -0.1404
  C  C562  1  0.631920  0.526270  0.208250  1.0  -0.1423
  C  C563  1  0.576330  0.368080  0.394350  1.0  -0.142
  C  C564  1  0.344670  0.295910  0.520240  1.0  -0.0694
  C  C565  1  0.631920  0.105650  0.923670  1.0  -0.1421
  C  C566  1  0.871670  0.389970  0.605660  1.0  -0.1074
  C  C567  1  0.171480  0.293650  0.988910  1.0  0.3028
  C  C568  1  0.517510  0.178300  0.880910  1.0  -0.0007
  C  C569  1  0.642980  0.584080  0.220480  1.0  -0.1167
  C  C570  1  0.706350  0.195260  0.877830  1.0  0.3038
  C  C571  1  0.526270  0.708250  0.131920  1.0  -0.1429
  C  C572  1  0.123400  0.929350  0.899270  1.0  -0.1075
  C  C573  1  0.694140  0.298260  0.150440  1.0  -0.112
  C  C574  1  0.956300  0.104120  0.305860  1.0  -0.1118
  C  C575  1  0.394350  0.526270  0.318020  1.0  -0.1421
  C  C576  1  0.084080  0.941100  0.863600  1.0  -0.1156
  C  C577  1  0.636400  0.915920  0.558900  1.0  -0.1099
  C  C578  1  0.691150  0.700070  0.527500  1.0  0.1914
  C  C579  1  0.863600  0.441100  0.084080  1.0  -0.1181
  C  C580  1  0.655330  0.951240  0.675570  1.0  -0.0661
  C  C581  1  0.017510  0.136600  0.339210  1.0  -0.001
  C  C582  1  0.849560  0.201740  0.305860  1.0  -0.1115
  C  C583  1  0.070650  0.600730  0.376600  1.0  -0.1057
  C  C584  1  0.119090  0.797390  0.136600  1.0  -0.0008
  C  C585  1  0.200070  0.008920  0.672570  1.0  0.1908
  C  C586  1  0.076330  0.681980  0.208250  1.0  -0.1401
  C  C587  1  0.194140  0.150440  0.298260  1.0  -0.1102
  C  C588  1  0.951240  0.175570  0.155330  1.0  -0.0643
  C  C589  1  0.991080  0.827430  0.299930  1.0  0.1915
  C  C590  1  0.922500  0.363600  0.779520  1.0  -0.113
  C  C591  1  0.627200  0.377200  0.754400  1.0  -0.0092
  C  C592  1  0.804740  0.622170  0.793650  1.0  0.3048
  C  C593  1  0.284310  0.266010  0.894340  1.0  -0.0986
  C  C594  1  0.828520  0.706350  0.011090  1.0  0.3037
  C  C595  1  0.636600  0.517510  0.839210  1.0  -0.0027
  C  C596  1  0.750000  0.127200  0.872800  1.0  -0.011
  C  C597  1  0.147820  0.349560  0.543700  1.0  -0.1114
  C  C598  1  0.876600  0.805950  0.275870  1.0  -0.1072
  C  C599  1  0.517510  0.339210  0.136600  1.0  0.0007
  C  C600  1  0.376600  0.275870  0.805950  1.0  -0.1058
  C  C601  1  0.380910  0.517510  0.678300  1.0  -0.0009
  C  C602  1  0.377830  0.671480  0.182570  1.0  0.3037
  C  C603  1  0.941100  0.577500  0.857020  1.0  -0.1154
  C  C604  1  0.894350  0.576330  0.868080  1.0  -0.1377
  C  C605  1  0.724330  0.175570  0.020240  1.0  -0.0612
  C  C606  1  0.368080  0.473730  0.791750  1.0  -0.1403
  C  C607  1  0.681980  0.973730  0.605650  1.0  -0.139
  C  C608  1  0.558900  0.142980  0.422500  1.0  -0.1122
  C  C609  1  0.178300  0.380910  0.017510  1.0  -0.0055
  C  C610  1  0.308850  0.299930  0.472500  1.0  0.1941
  C  C611  1  0.204090  0.155330  0.979760  1.0  -0.0688
  C  C612  1  0.868080  0.791750  0.473730  1.0  -0.1401
  C  C613  1  0.451240  0.155330  0.175570  1.0  -0.0694
  C  C614  1  0.363600  0.084080  0.441100  1.0  -0.1128
  C  C615  1  0.202610  0.363400  0.380910  1.0  -0.0009
  C  C616  1  0.527500  0.200070  0.691150  1.0  0.1925
  C  C617  1  0.317430  0.622170  0.828520  1.0  0.3025
  C  C618  1  0.422500  0.779520  0.363600  1.0  -0.1134
  C  C619  1  0.720480  0.642980  0.084080  1.0  -0.1197
  C  C620  1  0.576330  0.208250  0.681980  1.0  -0.1412
  C  C621  1  0.295910  0.020240  0.844670  1.0  -0.0697
  C  C622  1  0.793650  0.671480  0.488910  1.0  0.3031
  C  C623  1  0.048760  0.224330  0.704090  1.0  -0.0662
  C  C624  1  0.321700  0.339210  0.202610  1.0  -0.004
  C  C625  1  0.745600  0.372800  0.122800  1.0  -0.0093
  C  C626  1  0.871670  0.481700  0.766010  1.0  -0.1001
  C  C627  1  0.422500  0.642980  0.558900  1.0  -0.1156
  C  C628  1  0.797390  0.636600  0.619090  1.0  -0.0024
  C  C629  1  0.399270  0.123400  0.429350  1.0  -0.109
  C  C630  1  0.941100  0.363600  0.584080  1.0  -0.114
  C  C631  1  0.795910  0.951240  0.275670  1.0  -0.0697
  C  C632  1  0.305860  0.604120  0.956300  1.0  -0.1143
  C  C633  1  0.026270  0.894350  0.818020  1.0  -0.1404
  C  C634  1  0.305950  0.929350  0.030080  1.0  -0.1041
  C  C635  1  0.380910  0.863400  0.202610  1.0  -0.0021
  C  C636  1  0.877200  0.750000  0.122800  1.0  -0.0109
  C  C637  1  0.084080  0.142980  0.720480  1.0  -0.1146
  C  C638  1  0.488910  0.171480  0.793650  1.0  0.3022
  C  C639  1  0.328520  0.317430  0.122170  1.0  0.3031
  C  C640  1  0.600730  0.724130  0.530080  1.0  -0.1081
  C  C641  1  0.836350  0.308850  0.508920  1.0  0.1933
  C  C642  1  0.827430  0.799930  0.491080  1.0  0.1922
  C  C643  1  0.011090  0.804740  0.682570  1.0  0.3049
  C  C644  1  0.570650  0.376600  0.600730  1.0  -0.108
  C  C645  1  0.619090  0.482490  0.321700  1.0  -0.003
  C  C646  1  0.797390  0.160790  0.678300  1.0  -0.0024
  C  C647  1  0.195260  0.817430  0.488910  1.0  0.3047
  C  C648  1  0.880910  0.678300  0.517510  1.0  -1e-04
  C  C649  1  0.868080  0.076330  0.894350  1.0  -0.1417
  C  C650  1  0.558900  0.415920  0.636400  1.0  -0.115
  C  C651  1  0.702610  0.321700  0.839210  1.0  -0.0002
  C  C652  1  0.798260  0.604120  0.647820  1.0  -0.1163
  C  C653  1  0.979760  0.655330  0.204090  1.0  -0.0653
  C  C654  1  0.352180  0.895880  0.201740  1.0  -0.1119
  C  C655  1  0.163650  0.691150  0.491080  1.0  0.1931
  C  C656  1  0.849560  0.647820  0.043700  1.0  -0.1125
  C  C657  1  0.894340  0.766010  0.284310  1.0  -0.103
  C  C658  1  0.804740  0.182570  0.511090  1.0  0.3043
  C  C659  1  0.647820  0.104120  0.798260  1.0  -0.1128
  C  C660  1  0.956300  0.852180  0.150440  1.0  -0.1129
  C  C661  1  0.011090  0.206350  0.828520  1.0  0.3031
  C  C662  1  0.275670  0.824430  0.979760  1.0  -0.066
  C  C663  1  0.655330  0.704090  0.479760  1.0  -0.0695
  C  C664  1  0.200070  0.191150  0.027500  1.0  0.1893
  C  C665  1  0.695260  0.206350  0.377830  1.0  0.304
  C  C666  1  0.305950  0.376600  0.775870  1.0  -0.1064
  C  C667  1  0.328520  0.011090  0.706350  1.0  0.3037
  C  C668  1  0.368080  0.894350  0.076330  1.0  -0.1383
  C  C669  1  0.857020  0.779520  0.415920  1.0  -0.1146
  C  C670  1  0.543700  0.694140  0.895880  1.0  -0.1105
  C  C671  1  0.136600  0.839210  0.517510  1.0  -0.0031
  C  C672  1  0.604120  0.456300  0.805860  1.0  -0.1124
  C  C673  1  0.824430  0.344670  0.548760  1.0  -0.072
  C  C674  1  0.951240  0.775670  0.295910  1.0  -0.0652
  C  C675  1  0.018300  0.628330  0.733990  1.0  -0.1131
  C  C676  1  0.733990  0.605660  0.215690  1.0  -0.1026
  C  C677  1  0.318020  0.026270  0.394350  1.0  -0.1402
  C  C678  1  0.441100  0.584080  0.363600  1.0  -0.112
  C  C679  1  0.675570  0.224330  0.520240  1.0  -0.066
  C  C680  1  0.136400  0.577500  0.720480  1.0  -0.1134
  C  C681  1  0.299930  0.327430  0.991080  1.0  0.1905
  C  C682  1  0.895880  0.701740  0.852180  1.0  -0.1128
  C  C683  1  0.308850  0.008920  0.336350  1.0  0.1901
  C  C684  1  0.171480  0.877830  0.682570  1.0  0.303
  C  C685  1  0.275870  0.305950  0.876600  1.0  -0.0992
  C  C686  1  0.660790  0.297390  0.178300  1.0  -0.0015
  C  C687  1  0.827430  0.027500  0.836350  1.0  0.1887
  C  C688  1  0.220480  0.084080  0.642980  1.0  -0.1119
  C  C689  1  0.105650  0.423670  0.131920  1.0  -0.138
  C  C690  1  0.423670  0.631920  0.605650  1.0  -0.1423
  C  C691  1  0.372800  0.750000  0.627200  1.0  -0.0065
  C  C692  1  0.201740  0.395880  0.352180  1.0  -0.1144
  C  C693  1  0.969920  0.570650  0.694050  1.0  -0.1014
  C  C694  1  0.671480  0.682570  0.877830  1.0  0.304
  C  C695  1  0.224130  0.100730  0.030080  1.0  -0.1061
  C  C696  1  0.636400  0.720480  0.577500  1.0  -0.1123
  C  C697  1  0.030080  0.429350  0.305950  1.0  -0.1022
  C  C698  1  0.394340  0.110030  0.128330  1.0  -0.1072
  C  C699  1  0.077500  0.636400  0.220480  1.0  -0.1145
  C  C700  1  0.104120  0.298260  0.147820  1.0  -0.1117
  C  C701  1  0.142980  0.220480  0.584080  1.0  -0.1165
  C  C702  1  0.128330  0.518300  0.233990  1.0  -0.1007
  C  C703  1  0.122800  0.872800  0.745600  1.0  -0.0064
  C  C704  1  0.863400  0.160790  0.482490  1.0  -0.0013
  C  C705  1  0.872800  0.245600  0.622800  1.0  -0.0051
  C  C706  1  0.784310  0.894340  0.266010  1.0  -0.1006
  C  C707  1  0.715690  0.981700  0.110030  1.0  -0.1032
  C  C708  1  0.122170  0.304740  0.293650  1.0  0.3049
  C  C709  1  0.828520  0.122170  0.317430  1.0  0.3024
  C  C710  1  0.821700  0.619090  0.982490  1.0  -0.0043
  C  C711  1  0.518300  0.733990  0.628330  1.0  -0.1008
  C  C712  1  0.982490  0.119090  0.821700  1.0  -0.0029
  C  C713  1  0.672570  0.508920  0.200070  1.0  0.1968
  C  C714  1  0.650440  0.694140  0.798260  1.0  -0.111
  C  C715  1  0.304740  0.793650  0.622170  1.0  0.3053
  C  C716  1  0.877830  0.182570  0.671480  1.0  0.3035
  C  C717  1  0.194140  0.043700  0.395880  1.0  -0.1107
  C  C718  1  0.394340  0.284310  0.766010  1.0  -0.1051
  C  C719  1  0.821700  0.202610  0.339210  1.0  -0.0033
  C  C720  1  0.482490  0.660790  0.863400  1.0  -0.0024
  C  C721  1  0.973730  0.868080  0.291750  1.0  -0.1426
  C  C722  1  0.660790  0.363400  0.982490  1.0  -0.0022
  C  C723  1  0.784310  0.889970  0.018300  1.0  -0.1014
  C  C724  1  0.123400  0.194050  0.724130  1.0  -0.1057
  C  C725  1  0.604120  0.147820  0.298260  1.0  -0.1128
  C  C726  1  0.779520  0.915920  0.357020  1.0  -0.1164
  C  C727  1  0.622800  0.745600  0.872800  1.0  -0.0053
  C  C728  1  0.127200  0.754400  0.377200  1.0  -0.0063
  C  C729  1  0.511090  0.682570  0.804740  1.0  0.3029
  C  C730  1  0.678300  0.660790  0.797390  1.0  0.0005
  C  C731  1  0.317430  0.695260  0.988910  1.0  0.3037
  C  C732  1  0.363600  0.279520  0.422500  1.0  -0.1124
  C  C733  1  0.915920  0.857020  0.279520  1.0  -0.1136
  C  C734  1  0.043700  0.147820  0.849560  1.0  -0.1124
  C  C735  1  0.293650  0.804740  0.122170  1.0  0.3028
  C  C736  1  0.584080  0.863600  0.941100  1.0  -0.1128
  C  C737  1  0.224130  0.123400  0.694050  1.0  -0.1041
  C  C738  1  0.204090  0.048760  0.724330  1.0  -0.0663
  C  C739  1  0.182570  0.171480  0.377830  1.0  0.3038
  C  C740  1  0.623400  0.899270  0.929350  1.0  -0.1063
  C  C741  1  0.650440  0.956300  0.352180  1.0  -0.1111
  C  C742  1  0.724130  0.030080  0.100730  1.0  -0.1066
  C  C743  1  0.195260  0.377830  0.206350  1.0  0.3035
  C  C744  1  0.605650  0.131920  0.423670  1.0  -0.1413
  C  C745  1  0.349560  0.043700  0.647820  1.0  -0.1091
  C  C746  1  0.754400  0.877200  0.627200  1.0  -0.0097
  C  C747  1  0.395880  0.852180  0.701740  1.0  -0.1123
  C  C748  1  0.018300  0.389970  0.784310  1.0  -0.1014
  C  C749  1  0.377200  0.122800  0.750000  1.0  -0.0089
  C  C750  1  0.284310  0.018300  0.889970  1.0  -0.1029
  C  C751  1  0.008920  0.836350  0.808850  1.0  0.1904
  C  C752  1  0.344670  0.048760  0.324430  1.0  -0.0682
  C  C753  1  0.704090  0.724330  0.048760  1.0  -0.0713
  C  C754  1  0.119090  0.321700  0.482490  1.0  -0.0023
  C  C755  1  0.857020  0.077500  0.941100  1.0  -0.116
  C  C756  1  0.206350  0.328520  0.511090  1.0  0.3036
  C  C757  1  0.201740  0.805860  0.349560  1.0  -0.1107
  C  C758  1  0.178300  0.797390  0.660790  1.0  -0.0019
  C  C759  1  0.818020  0.394350  0.026270  1.0  -0.1415
  C  C760  1  0.215690  0.105660  0.733990  1.0  -0.1028
  C  C761  1  0.275670  0.451240  0.795910  1.0  -0.0628
  C  C762  1  0.100730  0.570650  0.876600  1.0  -0.1082
  C  C763  1  0.700070  0.672570  0.008920  1.0  0.1904
  C  C764  1  0.681980  0.708250  0.576330  1.0  -0.1461
  C  C765  1  0.266010  0.871670  0.981700  1.0  -0.1083
  C  C766  1  0.175570  0.655330  0.451240  1.0  -0.0699
  C  C767  1  0.305860  0.701740  0.849560  1.0  -0.1136
  C  C768  1  0.429350  0.805950  0.530080  1.0  -0.1086
  C  C769  1  0.194050  0.969920  0.070650  1.0  -0.1048
  C  C770  1  0.020240  0.344670  0.795910  1.0  -0.0665
  C  C771  1  0.805860  0.849560  0.701740  1.0  -0.1131
  C  C772  1  0.027500  0.336350  0.327430  1.0  0.1918
  C  C773  1  0.128330  0.610030  0.394340  1.0  -0.1052
  C  C774  1  0.628330  0.233990  0.518300  1.0  -0.1034
  C  C775  1  0.181980  0.576330  0.708250  1.0  -0.1363
  C  C776  1  0.508920  0.700070  0.172570  1.0  0.1923
  C  C777  1  0.324430  0.775670  0.479760  1.0  -0.0665
  C  C778  1  0.389970  0.284310  0.518300  1.0  -0.099
  C  C779  1  0.122170  0.817430  0.328520  1.0  0.3045
  C  C780  1  0.724130  0.694050  0.123400  1.0  -0.1002
  C  C781  1  0.511090  0.828520  0.206350  1.0  0.3047
  C  C782  1  0.266010  0.394340  0.784310  1.0  -0.1033
  C  C783  1  0.456300  0.150440  0.852180  1.0  -0.1116
  C  C784  1  0.972500  0.308850  0.799930  1.0  0.1941
  C  C785  1  0.491080  0.299930  0.827430  1.0  0.1922
  C  C786  1  0.136400  0.558900  0.915920  1.0  -0.1159
  C  C787  1  0.877830  0.695260  0.706350  1.0  0.3021
  C  C788  1  0.399270  0.275870  0.469920  1.0  -0.1084
  C  C789  1  0.142980  0.922500  0.058900  1.0  -0.1154
  C  C790  1  0.839210  0.017510  0.636600  1.0  0.0018
  C  C791  1  0.520240  0.724330  0.675570  1.0  -0.0667
  C  C792  1  0.863600  0.422500  0.279520  1.0  -0.1128
  C  C793  1  0.191150  0.663650  0.991080  1.0  0.1917
  C  C794  1  0.371670  0.766010  0.481700  1.0  -0.1014
  C  C795  1  0.706350  0.511090  0.328520  1.0  0.305
  C  C796  1  0.605660  0.715690  0.233990  1.0  -0.1053
  C  C797  1  0.163650  0.472500  0.172570  1.0  0.1927
  C  C798  1  0.642980  0.058900  0.922500  1.0  -0.1105
  C  C799  1  0.969920  0.399270  0.775870  1.0  -0.1006
  C  C800  1  0.318020  0.291750  0.423670  1.0  -0.143
  C  C801  1  0.605660  0.889970  0.871670  1.0  -0.1006
  C  C802  1  0.981700  0.610030  0.215690  1.0  -0.1013
  C  C803  1  0.224330  0.020240  0.175570  1.0  -0.066
  C  C804  1  0.441100  0.857020  0.577500  1.0  -0.1135
  C  C805  1  0.988910  0.793650  0.171480  1.0  0.3052
  C  C806  1  0.224330  0.204090  0.548760  1.0  -0.0687
  C  C807  1  0.622170  0.328520  0.817430  1.0  0.3031
  C  C808  1  0.481700  0.215690  0.610030  1.0  -0.1024
  C  C809  1  0.694140  0.395880  0.043700  1.0  -0.1155
  C  C810  1  0.291750  0.368080  0.973730  1.0  -0.1425
  C  C811  1  0.233990  0.215690  0.605660  1.0  -0.1045
  C  C812  1  0.122800  0.250000  0.877200  1.0  -0.0096
  C  C813  1  0.530080  0.224130  0.600730  1.0  -0.1006
  C  C814  1  0.472500  0.799930  0.308850  1.0  0.1921
  C  C815  1  0.105650  0.681980  0.473730  1.0  -0.139
  C  C816  1  0.008920  0.172570  0.700070  1.0  0.193
  C  C817  1  0.708250  0.076330  0.181980  1.0  -0.1385
  C  C818  1  0.610030  0.894340  0.628330  1.0  -0.1048
  C  C819  1  0.694050  0.070650  0.969920  1.0  -0.1067
  C  C820  1  0.627200  0.250000  0.372800  1.0  -0.0108
  C  C821  1  0.160790  0.178300  0.297390  1.0  0.0015
  C  C822  1  0.791750  0.973730  0.368080  1.0  -0.1398
  C  C823  1  0.473730  0.291750  0.868080  1.0  -0.142
  C  C824  1  0.775670  0.979760  0.824430  1.0  -0.0697
  C  C825  1  0.876600  0.070650  0.100730  1.0  -0.1051
  C  C826  1  0.981700  0.371670  0.266010  1.0  -0.1019
  C  C827  1  0.701740  0.352180  0.395880  1.0  -0.1124
  C  C828  1  0.991080  0.163650  0.191150  1.0  0.1908
  C  C829  1  0.377200  0.254400  0.127200  1.0  -0.0061
  C  C830  1  0.279520  0.922500  0.863600  1.0  -0.1167
  C  C831  1  0.372800  0.622800  0.245600  1.0  -0.01
  C  C832  1  0.678300  0.017510  0.380910  1.0  -0.0015
  C  C833  1  0.181980  0.605650  0.973730  1.0  -0.1424
  C  C834  1  0.805950  0.775870  0.376600  1.0  -0.1039
  C  C835  1  0.336350  0.827430  0.527500  1.0  0.1946
  C  C836  1  0.663650  0.491080  0.691150  1.0  0.1928
  C  C837  1  0.636600  0.119090  0.297390  1.0  -0.0033
  C  C838  1  0.733990  0.128330  0.018300  1.0  -0.1031
  C  C839  1  0.520240  0.795910  0.344670  1.0  -0.0672
  C  C840  1  0.291750  0.923670  0.818020  1.0  -0.141
  C  C841  1  0.675570  0.451240  0.655330  1.0  -0.0627
  C  C842  1  0.155330  0.479760  0.704090  1.0  -0.0692
  C  C843  1  0.808850  0.472500  0.299930  1.0  0.1916
  C  C844  1  0.915920  0.058900  0.136400  1.0  -0.116
  C  C845  1  0.377830  0.706350  0.695260  1.0  0.3022
  C  C846  1  0.775870  0.899270  0.969920  1.0  -0.1019
  C  C847  1  0.321700  0.982490  0.619090  1.0  0.0014
  C  C848  1  0.327430  0.836350  0.027500  1.0  0.1885
  C  C849  1  0.548760  0.704090  0.224330  1.0  -0.0718
  C  C850  1  0.298260  0.650440  0.194140  1.0  -0.1108
  C  C851  1  0.279520  0.357020  0.915920  1.0  -0.1175
  C  C852  1  0.030080  0.600730  0.224130  1.0  -0.0994
  N  N853  1  0.808500  0.655500  0.962140  1.0  -0.3988
  N  N854  1  0.846360  0.037860  0.693360  1.0  -0.4005
  N  N855  1  0.258020  0.325440  0.517360  1.0  -0.2207
  N  N856  1  0.796660  0.646990  0.438230  1.0  0.0283
  N  N857  1  0.344500  0.806640  0.153000  1.0  -0.4007
  N  N858  1  0.847000  0.693360  0.655500  1.0  -0.3988
  N  N859  1  0.462140  0.808500  0.155500  1.0  -0.4025
  N  N860  1  0.790510  0.259130  0.450340  1.0  -0.2443
  N  N861  1  0.432580  0.674560  0.191920  1.0  -0.2191
  N  N862  1  0.646990  0.938230  0.296660  1.0  0.03
  N  N863  1  0.259130  0.308790  0.468620  1.0  -0.2464
  N  N864  1  0.561770  0.708760  0.858430  1.0  0.0295
  N  N865  1  0.149670  0.791240  0.353010  1.0  0.0299
  N  N866  1  0.517360  0.825440  0.258020  1.0  -0.2207
  N  N867  1  0.193360  0.846360  0.537860  1.0  -0.4017
  N  N868  1  0.703340  0.561770  0.353010  1.0  0.0286
  N  N869  1  0.858430  0.649670  0.796660  1.0  0.0286
  N  N870  1  0.259340  0.741980  0.567420  1.0  -0.219
  N  N871  1  0.844500  0.691500  0.537860  1.0  -0.3981
  N  N872  1  0.191210  0.950340  0.659830  1.0  -0.2421
  N  N873  1  0.653640  0.306640  0.962140  1.0  -0.3992
  N  N874  1  0.740660  0.482640  0.808080  1.0  -0.2191
  N  N875  1  0.296660  0.438230  0.646990  1.0  0.0298
  N  N876  1  0.061770  0.203340  0.853010  1.0  0.0296
  N  N877  1  0.709490  0.549660  0.740870  1.0  -0.2435
  N  N878  1  0.208760  0.146990  0.350330  1.0  0.029
  N  N879  1  0.017360  0.258020  0.825440  1.0  -0.2215
  N  N880  1  0.208760  0.061770  0.358430  1.0  0.0309
  N  N881  1  0.308080  0.740660  0.982640  1.0  -0.2187
  N  N882  1  0.674560  0.691920  0.932580  1.0  -0.2173
  N  N883  1  0.641570  0.203340  0.350330  1.0  0.0289
  N  N884  1  0.840170  0.808790  0.549660  1.0  -0.2449
  N  N885  1  0.291240  0.649670  0.853010  1.0  0.0295
  N  N886  1  0.191920  0.174560  0.432580  1.0  -0.2184
  N  N887  1  0.759130  0.290510  0.950340  1.0  -0.242
  N  N888  1  0.759340  0.191920  0.517360  1.0  -0.2201
  N  N889  1  0.141570  0.791240  0.438230  1.0  0.0282
  N  N890  1  0.549660  0.240870  0.209490  1.0  -0.2429
  N  N891  1  0.741980  0.674560  0.482640  1.0  -0.2192
  N  N892  1  0.808790  0.759130  0.968620  1.0  -0.2437
  N  N893  1  0.308500  0.346360  0.153000  1.0  -0.4
  N  N894  1  0.306640  0.844500  0.653000  1.0  -0.3982
  N  N895  1  0.174560  0.241980  0.982640  1.0  -0.2196
  N  N896  1  0.740660  0.258020  0.432580  1.0  -0.2193
  N  N897  1  0.153640  0.962140  0.306640  1.0  -0.4001
  N  N898  1  0.241980  0.759340  0.067420  1.0  -0.2179
  N  N899  1  0.340170  0.790510  0.031380  1.0  -0.2419
  N  N900  1  0.709490  0.159830  0.468620  1.0  -0.2451
  N  N901  1  0.308500  0.962140  0.655500  1.0  -0.4
  N  N902  1  0.659830  0.209490  0.968620  1.0  -0.2426
  N  N903  1  0.982640  0.741980  0.174560  1.0  -0.2182
  N  N904  1  0.049660  0.840170  0.308790  1.0  -0.2462
  N  N905  1  0.149670  0.358430  0.296660  1.0  0.0286
  N  N906  1  0.932580  0.740660  0.758020  1.0  -0.2193
  N  N907  1  0.850330  0.641570  0.703340  1.0  0.0304
  N  N908  1  0.308080  0.567420  0.825440  1.0  -0.2178
  N  N909  1  0.791240  0.853010  0.649670  1.0  0.0293
  N  N910  1  0.806640  0.653000  0.844500  1.0  -0.4039
  N  N911  1  0.358430  0.796660  0.649670  1.0  0.0302
  N  N912  1  0.655500  0.193360  0.847000  1.0  -0.4016
  N  N913  1  0.344500  0.537860  0.691500  1.0  -0.4005
  N  N914  1  0.708760  0.350330  0.146990  1.0  0.0282
  N  N915  1  0.808790  0.049660  0.340170  1.0  -0.2431
  N  N916  1  0.325440  0.308080  0.067420  1.0  -0.2176
  N  N917  1  0.691210  0.031380  0.240870  1.0  -0.241
  N  N918  1  0.641570  0.438230  0.791240  1.0  0.0286
  N  N919  1  0.193360  0.347000  0.155500  1.0  -0.4035
  N  N920  1  0.691920  0.432580  0.174560  1.0  -0.2188
  N  N921  1  0.691920  0.259340  0.017360  1.0  -0.2195
  N  N922  1  0.191210  0.240870  0.031380  1.0  -0.2441
  N  N923  1  0.462140  0.653640  0.806640  1.0  -0.3993
  N  N924  1  0.468620  0.808790  0.259130  1.0  -0.2461
  N  N925  1  0.796660  0.149670  0.858430  1.0  0.0292
  N  N926  1  0.159830  0.191210  0.450340  1.0  -0.2448
  N  N927  1  0.790510  0.531380  0.840170  1.0  -0.2428
  N  N928  1  0.146990  0.296660  0.938230  1.0  0.0282
  N  N929  1  0.850330  0.208760  0.646990  1.0  0.028
  N  N930  1  0.517360  0.691920  0.759340  1.0  -0.2178
  N  N931  1  0.482640  0.174560  0.741980  1.0  -0.2189
  N  N932  1  0.347000  0.655500  0.693360  1.0  -0.3989
  N  N933  1  0.350330  0.703340  0.641570  1.0  0.0279
  N  N934  1  0.740870  0.049660  0.709490  1.0  -0.2429
  N  N935  1  0.290510  0.840170  0.531380  1.0  -0.246
  N  N936  1  0.693360  0.155500  0.347000  1.0  -0.3992
  N  N937  1  0.325440  0.017360  0.758020  1.0  -0.2192
  N  N938  1  0.791240  0.938230  0.641570  1.0  0.0302
  N  N939  1  0.146990  0.850330  0.708760  1.0  0.0289
  N  N940  1  0.240660  0.808080  0.482640  1.0  -0.221
  N  N941  1  0.808080  0.825440  0.567420  1.0  -0.2188
  N  N942  1  0.358430  0.561770  0.208760  1.0  0.0293
  N  N943  1  0.691500  0.653640  0.847000  1.0  -0.3998
  N  N944  1  0.938230  0.796660  0.146990  1.0  0.03
  N  N945  1  0.155500  0.847000  0.193360  1.0  -0.3994
  N  N946  1  0.153000  0.306640  0.344500  1.0  -0.4012
  N  N947  1  0.740870  0.691210  0.531380  1.0  -0.2451
  N  N948  1  0.296660  0.858430  0.149670  1.0  0.0303
  N  N949  1  0.708760  0.358430  0.061770  1.0  0.0291
  N  N950  1  0.653640  0.347000  0.191500  1.0  -0.4019
  N  N951  1  0.347000  0.691500  0.153640  1.0  -0.4005
  N  N952  1  0.950340  0.159830  0.691210  1.0  -0.2449
  N  N953  1  0.209490  0.468620  0.159830  1.0  -0.2418
  N  N954  1  0.203340  0.353010  0.561770  1.0  0.0288
  N  N955  1  0.847000  0.153640  0.691500  1.0  -0.4016
  N  N956  1  0.031380  0.290510  0.340170  1.0  -0.2431
  N  N957  1  0.346360  0.693360  0.037860  1.0  -0.4002
  N  N958  1  0.759340  0.567420  0.741980  1.0  -0.2193
  N  N959  1  0.537860  0.191500  0.844500  1.0  -0.3993
  N  N960  1  0.531380  0.340170  0.290510  1.0  -0.2456
  N  N961  1  0.691500  0.037860  0.344500  1.0  -0.3999
  N  N962  1  0.844500  0.153000  0.806640  1.0  -0.4014
  N  N963  1  0.549660  0.308790  0.840170  1.0  -0.2467
  N  N964  1  0.438230  0.291240  0.141570  1.0  0.0293
  N  N965  1  0.482640  0.308080  0.240660  1.0  -0.2167
  N  N966  1  0.241980  0.482640  0.674560  1.0  -0.2175
  N  N967  1  0.240660  0.432580  0.258020  1.0  -0.218
  N  N968  1  0.962140  0.806640  0.653640  1.0  -0.4026
  N  N969  1  0.968620  0.259130  0.808790  1.0  -0.2451
  N  N970  1  0.450340  0.759130  0.790510  1.0  -0.2445
  N  N971  1  0.691210  0.659830  0.950340  1.0  -0.2442
  N  N972  1  0.808080  0.982640  0.740660  1.0  -0.2187
  N  N973  1  0.290510  0.450340  0.259130  1.0  -0.2419
  N  N974  1  0.438230  0.146990  0.796660  1.0  0.0293
  N  N975  1  0.649670  0.353010  0.791240  1.0  0.0285
  N  N976  1  0.468620  0.659830  0.709490  1.0  -0.2439
  N  N977  1  0.846360  0.808500  0.653000  1.0  -0.4014
  N  N978  1  0.153640  0.191500  0.347000  1.0  -0.4015
  N  N979  1  0.067420  0.259340  0.241980  1.0  -0.2192
  N  N980  1  0.037860  0.844500  0.191500  1.0  -0.3996
  N  N981  1  0.649670  0.296660  0.358430  1.0  0.0272
  N  N982  1  0.853010  0.703340  0.061770  1.0  0.028
  N  N983  1  0.968620  0.709490  0.659830  1.0  -0.2426
  N  N984  1  0.031380  0.740870  0.191210  1.0  -0.2444
  N  N985  1  0.017360  0.759340  0.691920  1.0  -0.2177
  N  N986  1  0.353010  0.291240  0.149670  1.0  0.0297
  N  N987  1  0.258020  0.932580  0.240660  1.0  -0.2183
  N  N988  1  0.155500  0.308500  0.462140  1.0  -0.3991
  N  N989  1  0.840170  0.031380  0.790510  1.0  -0.2422
  N  N990  1  0.209490  0.740870  0.549660  1.0  -0.2447
  N  N991  1  0.159830  0.968620  0.209490  1.0  -0.2413
  N  N992  1  0.537860  0.346360  0.193360  1.0  -0.4012
  N  N993  1  0.340170  0.549660  0.808790  1.0  -0.2438
  N  N994  1  0.191500  0.344500  0.037860  1.0  -0.3994
  N  N995  1  0.962140  0.155500  0.808500  1.0  -0.398
  N  N996  1  0.806640  0.153640  0.462140  1.0  -0.4015
  N  N997  1  0.938230  0.141570  0.291240  1.0  0.0291
  N  N998  1  0.174560  0.932580  0.691920  1.0  -0.2161
  N  N999  1  0.561770  0.853010  0.203340  1.0  0.0292
  N  N1000  1  0.153000  0.846360  0.308500  1.0  -0.4028
  N  N1001  1  0.308790  0.340170  0.049660  1.0  -0.244
  N  N1002  1  0.659830  0.450340  0.191210  1.0  -0.2432
  N  N1003  1  0.950340  0.790510  0.759130  1.0  -0.2423
  N  N1004  1  0.758020  0.240660  0.932580  1.0  -0.2181
  N  N1005  1  0.141570  0.350330  0.203340  1.0  0.0296
  N  N1006  1  0.037860  0.193360  0.346360  1.0  -0.3997
  N  N1007  1  0.703340  0.141570  0.850330  1.0  0.0286
  N  N1008  1  0.932580  0.191920  0.674560  1.0  -0.2212
  N  N1009  1  0.808500  0.153000  0.346360  1.0  -0.4016
  N  N1010  1  0.191920  0.017360  0.259340  1.0  -0.218
  N  N1011  1  0.061770  0.858430  0.708760  1.0  0.0285
  N  N1012  1  0.291240  0.641570  0.938230  1.0  0.0293
  N  N1013  1  0.353010  0.061770  0.703340  1.0  0.0298
  N  N1014  1  0.067420  0.808080  0.325440  1.0  -0.2197
  N  N1015  1  0.567420  0.325440  0.808080  1.0  -0.2198
  N  N1016  1  0.982640  0.240660  0.308080  1.0  -0.2175
  N  N1017  1  0.531380  0.191210  0.740870  1.0  -0.2431
  N  N1018  1  0.191500  0.847000  0.653640  1.0  -0.4003
  N  N1019  1  0.240870  0.531380  0.691210  1.0  -0.2421
  N  N1020  1  0.259340  0.517360  0.191920  1.0  -0.2181
  N  N1021  1  0.653000  0.308500  0.846360  1.0  -0.4009
  N  N1022  1  0.432580  0.758020  0.740660  1.0  -0.2211
  N  N1023  1  0.825440  0.758020  0.017360  1.0  -0.2222
  N  N1024  1  0.741980  0.067420  0.759340  1.0  -0.2159
  N  N1025  1  0.825440  0.067420  0.308080  1.0  -0.2188
  N  N1026  1  0.346360  0.653000  0.808500  1.0  -0.403
  N  N1027  1  0.567420  0.241980  0.259340  1.0  -0.2209
  N  N1028  1  0.693360  0.537860  0.846360  1.0  -0.4006
  N  N1029  1  0.259130  0.950340  0.290510  1.0  -0.2418
  N  N1030  1  0.655500  0.462140  0.308500  1.0  -0.401
  N  N1031  1  0.646990  0.708760  0.850330  1.0  0.0292
  N  N1032  1  0.308790  0.968620  0.759130  1.0  -0.242
  N  N1033  1  0.758020  0.517360  0.325440  1.0  -0.2199
  N  N1034  1  0.203340  0.850330  0.141570  1.0  0.0279
  N  N1035  1  0.858430  0.208760  0.561770  1.0  0.0288
  N  N1036  1  0.674560  0.982640  0.241980  1.0  -0.2178
  N  N1037  1  0.853010  0.149670  0.291240  1.0  0.0282
  N  N1038  1  0.450340  0.691210  0.159830  1.0  -0.2448
  N  N1039  1  0.653000  0.344500  0.306640  1.0  -0.4005
  N  N1040  1  0.759130  0.468620  0.308790  1.0  -0.2426
  N  N1041  1  0.049660  0.209490  0.240870  1.0  -0.2412
  N  N1042  1  0.350330  0.646990  0.208760  1.0  0.0285
  N  N1043  1  0.240870  0.709490  0.049660  1.0  -0.2421
  N  N1044  1  0.306640  0.462140  0.153640  1.0  -0.4001
