# generated using pymatgen
data_Cd12H92C139N120
_symmetry_space_group_name_H-M   'P 1'
_cell_length_a   20.34740000
_cell_length_b   26.60010000
_cell_length_c   26.60010000
_cell_angle_alpha   80.05900000
_cell_angle_beta   90.00000000
_cell_angle_gamma   90.00000000
_symmetry_Int_Tables_number   1
_chemical_formula_structural   Cd12H92C139N120
_chemical_formula_sum   'Cd24 H184 C278 N240'
_cell_volume   14180.95694826
_cell_formula_units_Z   2
loop_
 _symmetry_equiv_pos_site_id
 _symmetry_equiv_pos_as_xyz
  1  'x, y, z'
loop_
 _atom_site_type_symbol
 _atom_site_label
 _atom_site_symmetry_multiplicity
 _atom_site_fract_x
 _atom_site_fract_y
 _atom_site_fract_z
 _atom_site_occupancy
 _atom_site_charge
  Cd  Cd1  1  0.385140  0.541040  0.541040  1.0  0.8392
  Cd  Cd2  1  0.316670  0.217930  0.217930  1.0  0.8423
  Cd  Cd3  1  0.043870  0.419890  0.915250  1.0  0.9052
  Cd  Cd4  1  0.543870  0.580110  0.084750  1.0  0.9049
  Cd  Cd5  1  0.362350  0.120050  0.120050  1.0  0.7396
  Cd  Cd6  1  0.681850  0.334350  0.830750  1.0  0.9412
  Cd  Cd7  1  0.043870  0.915250  0.419890  1.0  0.9053
  Cd  Cd8  1  0.410160  0.021900  0.021900  1.0  0.9026
  Cd  Cd9  1  0.863080  0.865070  0.381120  1.0  0.9141
  Cd  Cd10  1  0.543870  0.084750  0.580110  1.0  0.905
  Cd  Cd11  1  0.816670  0.782070  0.782070  1.0  0.8426
  Cd  Cd12  1  0.863080  0.381120  0.865070  1.0  0.9143
  Cd  Cd13  1  0.867570  0.361710  0.361710  1.0  0.8704
  Cd  Cd14  1  0.681850  0.830750  0.334350  1.0  0.9416
  Cd  Cd15  1  0.885140  0.458960  0.458960  1.0  0.8393
  Cd  Cd16  1  0.363080  0.618880  0.134930  1.0  0.914
  Cd  Cd17  1  0.367570  0.638290  0.638290  1.0  0.8706
  Cd  Cd18  1  0.315650  0.736090  0.736090  1.0  0.8121
  Cd  Cd19  1  0.815650  0.263910  0.263910  1.0  0.8133
  Cd  Cd20  1  0.181850  0.665650  0.169250  1.0  0.9411
  Cd  Cd21  1  0.910160  0.978100  0.978100  1.0  0.9032
  Cd  Cd22  1  0.181850  0.169250  0.665650  1.0  0.942
  Cd  Cd23  1  0.363080  0.134930  0.618880  1.0  0.9146
  Cd  Cd24  1  0.862350  0.879950  0.879950  1.0  0.7398
  H  H25  1  0.085100  0.531400  0.883800  1.0  0.0602
  H  H26  1  0.081700  0.072600  0.072600  1.0  0.0931
  H  H27  1  0.061800  0.548000  0.046200  1.0  0.0787
  H  H28  1  0.143700  0.777400  0.128000  1.0  0.0596
  H  H29  1  0.662000  0.091200  0.673000  1.0  0.0705
  H  H30  1  0.416300  0.345400  0.560800  1.0  0.0741
  H  H31  1  0.224500  0.961800  0.268000  1.0  0.097
  H  H32  1  0.631500  0.721700  0.376300  1.0  0.0515
  H  H33  1  0.967100  0.933200  0.086400  1.0  0.0673
  H  H34  1  0.067800  0.568900  0.332500  1.0  0.1216
  H  H35  1  0.179600  0.957900  0.449100  1.0  0.0737
  H  H36  1  0.510900  0.501100  0.005300  1.0  0.0692
  H  H37  1  0.790600  0.849800  0.586600  1.0  0.1127
  H  H38  1  0.631500  0.376300  0.721700  1.0  0.0513
  H  H39  1  0.468400  0.710600  0.897800  1.0  0.1182
  H  H40  1  0.993300  0.751200  0.253800  1.0  0.1037
  H  H41  1  0.717600  0.747200  0.257800  1.0  0.078
  H  H42  1  0.565500  0.923800  0.334600  1.0  0.0628
  H  H43  1  0.937000  0.571200  0.469000  1.0  0.1057
  H  H44  1  0.258200  0.843300  0.688300  1.0  0.0822
  H  H45  1  0.648200  0.408200  0.167600  1.0  0.1148
  H  H46  1  0.916300  0.439200  0.654600  1.0  0.0745
  H  H47  1  0.493300  0.746200  0.248800  1.0  0.1039
  H  H48  1  0.937500  0.266300  0.183300  1.0  0.0536
  H  H49  1  0.584400  0.624300  0.973700  1.0  0.0846
  H  H50  1  0.732900  0.502500  0.993900  1.0  0.1069
  H  H51  1  0.259100  0.858700  0.049500  1.0  0.0981
  H  H52  1  0.164500  0.826200  0.422200  1.0  0.0652
  H  H53  1  0.679600  0.042100  0.550900  1.0  0.0737
  H  H54  1  0.291000  0.012700  0.937900  1.0  0.08
  H  H55  1  0.759100  0.141300  0.950500  1.0  0.0979
  H  H56  1  0.759100  0.950500  0.141300  1.0  0.0971
  H  H57  1  0.937000  0.469000  0.571200  1.0  0.1071
  H  H58  1  0.724500  0.732000  0.038200  1.0  0.0949
  H  H59  1  0.470300  0.206200  0.383600  1.0  0.1018
  H  H60  1  0.504900  0.487500  0.789100  1.0  0.11
  H  H61  1  0.584400  0.973700  0.624300  1.0  0.084
  H  H62  1  0.148500  0.081400  0.318000  1.0  0.0956
  H  H63  1  0.585100  0.116200  0.468600  1.0  0.0605
  H  H64  1  0.084400  0.375700  0.026300  1.0  0.0841
  H  H65  1  0.664500  0.173800  0.577800  1.0  0.0639
  H  H66  1  0.968400  0.102200  0.289400  1.0  0.1181
  H  H67  1  0.085100  0.883800  0.531400  1.0  0.0612
  H  H68  1  0.968400  0.289400  0.102200  1.0  0.1174
  H  H69  1  0.468400  0.897800  0.710600  1.0  0.1183
  H  H70  1  0.061800  0.046200  0.548000  1.0  0.0789
  H  H71  1  0.767900  0.537500  0.414100  1.0  0.0849
  H  H72  1  0.504900  0.789100  0.487500  1.0  0.1111
  H  H73  1  0.585100  0.468600  0.116200  1.0  0.0606
  H  H74  1  0.261400  0.331600  0.176800  1.0  0.0724
  H  H75  1  0.231800  0.775400  0.479000  1.0  0.1091
  H  H76  1  0.267900  0.462500  0.585900  1.0  0.0845
  H  H77  1  0.437500  0.816700  0.733700  1.0  0.0526
  H  H78  1  0.939000  0.779300  0.701300  1.0  0.0757
  H  H79  1  0.065500  0.665400  0.076200  1.0  0.0623
  H  H80  1  0.290600  0.413400  0.150200  1.0  0.113
  H  H81  1  0.970300  0.793800  0.616400  1.0  0.1008
  H  H82  1  0.437000  0.531000  0.428800  1.0  0.1073
  H  H83  1  0.561600  0.255900  0.255900  1.0  0.0923
  H  H84  1  0.148200  0.591800  0.832400  1.0  0.1141
  H  H85  1  0.999800  0.720100  0.020700  1.0  0.1096
  H  H86  1  0.231800  0.479000  0.775400  1.0  0.1092
  H  H87  1  0.743600  0.395600  0.621600  1.0  0.0728
  H  H88  1  0.131500  0.623700  0.278300  1.0  0.0513
  H  H89  1  0.440300  0.829600  0.101000  1.0  0.1124
  H  H90  1  0.167500  0.198700  0.198700  1.0  0.0933
  H  H91  1  0.243600  0.378400  0.604400  1.0  0.0714
  H  H92  1  0.546100  0.297800  0.798000  1.0  0.0795
  H  H93  1  0.940300  0.899000  0.170400  1.0  0.1127
  H  H94  1  0.162000  0.327000  0.908800  1.0  0.0738
  H  H95  1  0.245600  0.288800  0.288800  1.0  0.0648
  H  H96  1  0.067800  0.332500  0.568900  1.0  0.1209
  H  H97  1  0.167300  0.985300  0.985300  1.0  0.1047
  H  H98  1  0.664500  0.577800  0.173800  1.0  0.0637
  H  H99  1  0.648500  0.918600  0.682000  1.0  0.0959
  H  H100  1  0.573500  0.429900  0.838900  1.0  0.0662
  H  H101  1  0.724500  0.038200  0.732000  1.0  0.0963
  H  H102  1  0.667300  0.014700  0.014700  1.0  0.105
  H  H103  1  0.078700  0.835100  0.078500  1.0  0.1037
  H  H104  1  0.510900  0.005300  0.501100  1.0  0.0682
  H  H105  1  0.261400  0.176800  0.331600  1.0  0.0743
  H  H106  1  0.078700  0.078500  0.835100  1.0  0.105
  H  H107  1  0.164500  0.422200  0.826200  1.0  0.0635
  H  H108  1  0.499800  0.279900  0.979300  1.0  0.1096
  H  H109  1  0.484300  0.951800  0.951800  1.0  0.0681
  H  H110  1  0.745600  0.711200  0.711200  1.0  0.0652
  H  H111  1  0.644800  0.168800  0.168800  1.0  0.0734
  H  H112  1  0.679600  0.550900  0.042100  1.0  0.0742
  H  H113  1  0.790600  0.586600  0.849800  1.0  0.1121
  H  H114  1  0.993300  0.253800  0.751200  1.0  0.1034
  H  H115  1  0.168900  0.304700  0.789700  1.0  0.109
  H  H116  1  0.758200  0.156700  0.311700  1.0  0.0829
  H  H117  1  0.144800  0.831200  0.831200  1.0  0.0724
  H  H118  1  0.232900  0.006100  0.497500  1.0  0.1069
  H  H119  1  0.643700  0.872000  0.222600  1.0  0.06
  H  H120  1  0.758200  0.311700  0.156700  1.0  0.0836
  H  H121  1  0.004900  0.210900  0.512500  1.0  0.1115
  H  H122  1  0.065500  0.076200  0.665400  1.0  0.063
  H  H123  1  0.141000  0.316200  0.316200  1.0  0.1064
  H  H124  1  0.745200  0.192900  0.192900  1.0  0.09
  H  H125  1  0.641000  0.683800  0.683800  1.0  0.1058
  H  H126  1  0.217600  0.252800  0.742200  1.0  0.0767
  H  H127  1  0.731800  0.521000  0.224600  1.0  0.1095
  H  H128  1  0.731800  0.224600  0.521000  1.0  0.1088
  H  H129  1  0.416300  0.560800  0.345400  1.0  0.074
  H  H130  1  0.767900  0.414100  0.537500  1.0  0.0852
  H  H131  1  0.224500  0.268000  0.961800  1.0  0.0955
  H  H132  1  0.667500  0.801300  0.801300  1.0  0.0935
  H  H133  1  0.743600  0.621600  0.395600  1.0  0.0722
  H  H134  1  0.217600  0.742200  0.252800  1.0  0.0772
  H  H135  1  0.010900  0.498900  0.994700  1.0  0.0666
  H  H136  1  0.046100  0.202000  0.702200  1.0  0.0788
  H  H137  1  0.967100  0.086400  0.933200  1.0  0.0658
  H  H138  1  0.143700  0.128000  0.777400  1.0  0.0602
  H  H139  1  0.287500  0.651300  0.925100  1.0  0.1135
  H  H140  1  0.267900  0.585900  0.462500  1.0  0.083
  H  H141  1  0.787500  0.348700  0.074900  1.0  0.1138
  H  H142  1  0.258200  0.688300  0.843300  1.0  0.0842
  H  H143  1  0.148200  0.832400  0.591800  1.0  0.1159
  H  H144  1  0.984300  0.048200  0.048200  1.0  0.0672
  H  H145  1  0.561800  0.452000  0.953800  1.0  0.0783
  H  H146  1  0.668900  0.695300  0.210300  1.0  0.109
  H  H147  1  0.162000  0.908800  0.327000  1.0  0.0696
  H  H148  1  0.970300  0.616400  0.793800  1.0  0.1012
  H  H149  1  0.162700  0.721400  0.721400  1.0  0.0885
  H  H150  1  0.437000  0.428800  0.531000  1.0  0.1054
  H  H151  1  0.573500  0.838900  0.429900  1.0  0.0656
  H  H152  1  0.578700  0.164900  0.921500  1.0  0.1038
  H  H153  1  0.439000  0.298700  0.220700  1.0  0.0756
  H  H154  1  0.717600  0.257800  0.747200  1.0  0.0788
  H  H155  1  0.148500  0.318000  0.081400  1.0  0.0973
  H  H156  1  0.084400  0.026300  0.375700  1.0  0.0839
  H  H157  1  0.561500  0.037900  0.037900  1.0  0.0689
  H  H158  1  0.290600  0.150200  0.413400  1.0  0.1126
  H  H159  1  0.061600  0.744100  0.744100  1.0  0.092
  H  H160  1  0.179600  0.449100  0.957900  1.0  0.0738
  H  H161  1  0.787500  0.074900  0.348700  1.0  0.1126
  H  H162  1  0.010900  0.994700  0.498900  1.0  0.0679
  H  H163  1  0.437500  0.733700  0.816700  1.0  0.0531
  H  H164  1  0.467100  0.913600  0.066800  1.0  0.0663
  H  H165  1  0.581700  0.927400  0.927400  1.0  0.0928
  H  H166  1  0.073500  0.161100  0.570100  1.0  0.0655
  H  H167  1  0.245200  0.807100  0.807100  1.0  0.0911
  H  H168  1  0.940300  0.170400  0.899000  1.0  0.1135
  H  H169  1  0.567800  0.667500  0.431100  1.0  0.1212
  H  H170  1  0.259100  0.049500  0.858700  1.0  0.0974
  H  H171  1  0.470300  0.383600  0.206200  1.0  0.1018
  H  H172  1  0.243600  0.604400  0.378400  1.0  0.0731
  H  H173  1  0.131500  0.278300  0.623700  1.0  0.0516
  H  H174  1  0.567800  0.431100  0.667500  1.0  0.121
  H  H175  1  0.761400  0.823200  0.668400  1.0  0.0736
  H  H176  1  0.004900  0.512500  0.210900  1.0  0.1105
  H  H177  1  0.791000  0.062100  0.987300  1.0  0.0805
  H  H178  1  0.578700  0.921500  0.164900  1.0  0.1049
  H  H179  1  0.499800  0.979300  0.279900  1.0  0.1085
  H  H180  1  0.061500  0.962100  0.962100  1.0  0.0697
  H  H181  1  0.493300  0.248800  0.746200  1.0  0.1038
  H  H182  1  0.467100  0.066800  0.913600  1.0  0.0674
  H  H183  1  0.732900  0.993900  0.502500  1.0  0.1068
  H  H184  1  0.937500  0.183300  0.266300  1.0  0.0538
  H  H185  1  0.073500  0.570100  0.161100  1.0  0.0664
  H  H186  1  0.046100  0.702200  0.202000  1.0  0.0802
  H  H187  1  0.668900  0.210300  0.695300  1.0  0.1092
  H  H188  1  0.916300  0.654600  0.439200  1.0  0.0746
  H  H189  1  0.999800  0.020700  0.720100  1.0  0.1083
  H  H190  1  0.546100  0.798000  0.297800  1.0  0.0804
  H  H191  1  0.791000  0.987300  0.062100  1.0  0.0808
  H  H192  1  0.662000  0.673000  0.091200  1.0  0.0718
  H  H193  1  0.562900  0.775800  0.775800  1.0  0.0829
  H  H194  1  0.648500  0.682000  0.918600  1.0  0.0968
  H  H195  1  0.291000  0.937900  0.012700  1.0  0.0802
  H  H196  1  0.561800  0.953800  0.452000  1.0  0.0784
  H  H197  1  0.232900  0.497500  0.006100  1.0  0.107
  H  H198  1  0.565500  0.334600  0.923800  1.0  0.0622
  H  H199  1  0.440300  0.101000  0.829600  1.0  0.1129
  H  H200  1  0.439000  0.220700  0.298700  1.0  0.076
  H  H201  1  0.643700  0.222600  0.872000  1.0  0.0593
  H  H202  1  0.662700  0.278600  0.278600  1.0  0.0883
  H  H203  1  0.939000  0.701300  0.779300  1.0  0.0759
  H  H204  1  0.062900  0.224200  0.224200  1.0  0.0832
  H  H205  1  0.761400  0.668400  0.823200  1.0  0.0719
  H  H206  1  0.287500  0.925100  0.651300  1.0  0.1139
  H  H207  1  0.168900  0.789700  0.304700  1.0  0.1094
  H  H208  1  0.648200  0.167600  0.408200  1.0  0.1161
  C  C209  1  0.600100  0.762500  0.762500  1.0  -0.0654
  C  C210  1  0.825100  0.217900  0.898700  1.0  0.343
  C  C211  1  0.207900  0.793900  0.793900  1.0  0.1008
  C  C212  1  0.556500  0.502100  0.002900  1.0  0.0996
  C  C213  1  0.589800  0.207200  0.207200  1.0  -0.0533
  C  C214  1  0.883800  0.630800  0.435800  1.0  -0.0596
  C  C215  1  0.528400  0.465600  0.721400  1.0  -0.0287
  C  C216  1  0.908300  0.915400  0.148400  1.0  -0.1441
  C  C217  1  0.162200  0.221400  0.221400  1.0  0.0539
  C  C218  1  0.321700  0.165400  0.390000  1.0  -0.1399
  C  C219  1  0.397600  0.547700  0.419300  1.0  0.0897
  C  C220  1  0.325900  0.584700  0.351900  1.0  -0.0824
  C  C221  1  0.145000  0.293400  0.293400  1.0  -0.1001
  C  C222  1  0.087600  0.528300  0.028100  1.0  -0.0836
  C  C223  1  0.697000  0.024200  0.710200  1.0  -0.1006
  C  C224  1  0.197000  0.975800  0.289800  1.0  -0.1005
  C  C225  1  0.067100  0.568100  0.297700  1.0  -0.1971
  C  C226  1  0.653000  0.442600  0.169200  1.0  -0.1532
  C  C227  1  0.568400  0.923600  0.299800  1.0  0.1747
  C  C228  1  0.907300  0.792400  0.677400  1.0  0.1827
  C  C229  1  0.885800  0.827700  0.593900  1.0  0.0061
  C  C230  1  0.653000  0.169200  0.442600  1.0  -0.1555
  C  C231  1  0.201800  0.797100  0.490900  1.0  -0.1463
  C  C232  1  0.039000  0.254300  0.749300  1.0  -0.0838
  C  C233  1  0.701800  0.202900  0.509100  1.0  -0.1459
  C  C234  1  0.312400  0.297000  0.599200  1.0  0.3275
  C  C235  1  0.924200  0.097700  0.936500  1.0  0.1604
  C  C236  1  0.071100  0.719500  0.222700  1.0  0.1008
  C  C237  1  0.598400  0.242400  0.242400  1.0  -0.1434
  C  C238  1  0.902500  0.347100  0.027900  1.0  0.3979
  C  C239  1  0.203100  0.045600  0.045600  1.0  0.2819
  C  C240  1  0.698200  0.458400  0.201600  1.0  -0.0937
  C  C241  1  0.383800  0.369200  0.564200  1.0  -0.0588
  C  C242  1  0.154900  0.469500  0.975900  1.0  0.134
  C  C243  1  0.573100  0.225200  0.714800  1.0  -0.0805
  C  C244  1  0.198200  0.798400  0.541600  1.0  -0.0972
  C  C245  1  0.660900  0.172200  0.543200  1.0  0.1617
  C  C246  1  0.490600  0.177600  0.988600  1.0  0.2998
  C  C247  1  0.567100  0.702300  0.431900  1.0  -0.1962
  C  C248  1  0.187300  0.498300  0.004500  1.0  -0.1384
  C  C249  1  0.074900  0.076400  0.800600  1.0  -0.1549
  C  C250  1  0.408300  0.084600  0.851600  1.0  -0.1443
  C  C251  1  0.317800  0.670600  0.903800  1.0  -0.1191
  C  C252  1  0.605100  0.735700  0.398900  1.0  0.1874
  C  C253  1  0.201800  0.490900  0.797100  1.0  -0.1451
  C  C254  1  0.845300  0.919200  0.165200  1.0  -0.0304
  C  C255  1  0.425800  0.704200  0.887800  1.0  -0.2019
  C  C256  1  0.236800  0.064100  0.253500  1.0  0.3271
  C  C257  1  0.736800  0.935900  0.746500  1.0  0.3266
  C  C258  1  0.637000  0.967300  0.967300  1.0  -0.0567
  C  C259  1  0.907300  0.677400  0.792400  1.0  0.1805
  C  C260  1  0.643600  0.227800  0.715600  1.0  -0.1311
  C  C261  1  0.490600  0.988600  0.177600  1.0  0.3011
  C  C262  1  0.302300  0.868800  0.053600  1.0  -0.0972
  C  C263  1  0.612700  0.986900  0.646100  1.0  0.1243
  C  C264  1  0.105100  0.601100  0.264300  1.0  0.1873
  C  C265  1  0.571300  0.430000  0.804000  1.0  0.1497
  C  C266  1  0.800800  0.307700  0.145300  1.0  0.1422
  C  C267  1  0.486400  0.689000  0.501400  1.0  0.3025
  C  C268  1  0.986400  0.498600  0.311000  1.0  0.3024
  C  C269  1  0.382200  0.678100  0.921100  1.0  -0.0867
  C  C270  1  0.071300  0.570000  0.196000  1.0  0.1506
  C  C271  1  0.073100  0.774800  0.285200  1.0  -0.081
  C  C272  1  0.071300  0.196000  0.570000  1.0  0.1506
  C  C273  1  0.302300  0.053600  0.868800  1.0  -0.097
  C  C274  1  0.925800  0.112200  0.295800  1.0  -0.2027
  C  C275  1  0.571300  0.804000  0.430000  1.0  0.1501
  C  C276  1  0.137000  0.032700  0.032700  1.0  -0.0561
  C  C277  1  0.798400  0.561200  0.421600  1.0  0.1089
  C  C278  1  0.100100  0.237500  0.237500  1.0  -0.0655
  C  C279  1  0.065900  0.984800  0.984800  1.0  0.1393
  C  C280  1  0.239400  0.767600  0.580600  1.0  0.3387
  C  C281  1  0.703100  0.954400  0.954400  1.0  0.2802
  C  C282  1  0.613200  0.893200  0.234600  1.0  0.1624
  C  C283  1  0.405200  0.720400  0.840000  1.0  0.1766
  C  C284  1  0.651300  0.469900  0.967300  1.0  -0.0828
  C  C285  1  0.067100  0.297700  0.568100  1.0  -0.1968
  C  C286  1  0.405200  0.840000  0.720400  1.0  0.1738
  C  C287  1  0.195100  0.287100  0.026900  1.0  -0.044
  C  C288  1  0.812400  0.703000  0.400800  1.0  0.3275
  C  C289  1  0.736800  0.746500  0.935900  1.0  0.3293
  C  C290  1  0.030400  0.225600  0.535000  1.0  -0.1389
  C  C291  1  0.239400  0.580600  0.767600  1.0  0.3365
  C  C292  1  0.686300  0.438900  0.933500  1.0  0.5471
  C  C293  1  0.317800  0.903800  0.670600  1.0  -0.1202
  C  C294  1  0.698200  0.201600  0.458400  1.0  -0.0971
  C  C295  1  0.087600  0.028100  0.528300  1.0  -0.0836
  C  C296  1  0.113200  0.106800  0.765400  1.0  0.1632
  C  C297  1  0.568400  0.299800  0.923600  1.0  0.1741
  C  C298  1  0.651700  0.953700  0.680700  1.0  -0.1163
  C  C299  1  0.651300  0.967300  0.469900  1.0  -0.082
  C  C300  1  0.284800  0.590800  0.388000  1.0  -0.0796
  C  C301  1  0.187300  0.004500  0.498300  1.0  -0.1381
  C  C302  1  0.056500  0.997100  0.497900  1.0  0.1005
  C  C303  1  0.424200  0.063500  0.902300  1.0  0.1636
  C  C304  1  0.143600  0.772200  0.284400  1.0  -0.1311
  C  C305  1  0.687300  0.995500  0.501700  1.0  -0.1376
  C  C306  1  0.556500  0.002900  0.502100  1.0  0.1
  C  C307  1  0.530400  0.774400  0.465000  1.0  -0.1413
  C  C308  1  0.590400  0.728700  0.728700  1.0  -0.1489
  C  C309  1  0.883800  0.435800  0.630800  1.0  -0.0571
  C  C310  1  0.522400  0.194500  0.194500  1.0  0.3714
  C  C311  1  0.990600  0.011400  0.822400  1.0  0.3019
  C  C312  1  0.905200  0.279600  0.160000  1.0  0.177
  C  C313  1  0.032000  0.785700  0.043700  1.0  -0.032
  C  C314  1  0.298400  0.438800  0.578400  1.0  0.1081
  C  C315  1  0.908300  0.148400  0.915400  1.0  -0.1435
  C  C316  1  0.654900  0.024100  0.530500  1.0  0.1361
  C  C317  1  0.028400  0.278600  0.534400  1.0  -0.0286
  C  C318  1  0.532000  0.214300  0.956300  1.0  -0.0258
  C  C319  1  0.707900  0.206100  0.206100  1.0  0.0996
  C  C320  1  0.905600  0.541400  0.846200  1.0  0.3868
  C  C321  1  0.905600  0.846200  0.541400  1.0  0.3881
  C  C322  1  0.825100  0.898700  0.217900  1.0  0.345
  C  C323  1  0.739400  0.419400  0.232400  1.0  0.3375
  C  C324  1  0.032000  0.043700  0.785700  1.0  -0.0337
  C  C325  1  0.195100  0.026900  0.287100  1.0  -0.0424
  C  C326  1  0.068400  0.076400  0.700200  1.0  0.1728
  C  C327  1  0.080100  0.049800  0.049800  1.0  -0.1252
  C  C328  1  0.817800  0.329400  0.096200  1.0  -0.1199
  C  C329  1  0.320800  0.916600  0.032600  1.0  0.1487
  C  C330  1  0.089800  0.792800  0.792800  1.0  -0.0524
  C  C331  1  0.074900  0.800600  0.076400  1.0  -0.1575
  C  C332  1  0.812400  0.400800  0.703000  1.0  0.3288
  C  C333  1  0.686300  0.933500  0.438900  1.0  0.5471
  C  C334  1  0.687300  0.501700  0.995500  1.0  -0.139
  C  C335  1  0.158200  0.324900  0.943900  1.0  0.1527
  C  C336  1  0.382200  0.921100  0.678100  1.0  -0.0879
  C  C337  1  0.345300  0.080800  0.834800  1.0  -0.0294
  C  C338  1  0.882200  0.321900  0.078900  1.0  -0.0851
  C  C339  1  0.321700  0.390000  0.165400  1.0  -0.1389
  C  C340  1  0.021400  0.034900  0.034900  1.0  0.1602
  C  C341  1  0.539000  0.250700  0.745700  1.0  -0.0824
  C  C342  1  0.402500  0.972100  0.652900  1.0  0.3964
  C  C343  1  0.407300  0.322600  0.207600  1.0  0.1806
  C  C344  1  0.028400  0.534400  0.278600  1.0  -0.03
  C  C345  1  0.171900  0.743600  0.253400  1.0  0.1289
  C  C346  1  0.151700  0.319300  0.046300  1.0  -0.1146
  C  C347  1  0.160900  0.827800  0.456800  1.0  0.1621
  C  C348  1  0.521400  0.965100  0.965100  1.0  0.1605
  C  C349  1  0.112700  0.013100  0.353900  1.0  0.124
  C  C350  1  0.817800  0.096200  0.329400  1.0  -0.1199
  C  C351  1  0.428900  0.373600  0.196800  1.0  -0.1844
  C  C352  1  0.612700  0.646100  0.986900  1.0  0.1246
  C  C353  1  0.802300  0.946400  0.131200  1.0  -0.101
  C  C354  1  0.614500  0.479300  0.138900  1.0  0.1379
  C  C355  1  0.630400  0.001300  0.001300  1.0  -0.1119
  C  C356  1  0.325100  0.101300  0.782100  1.0  0.3442
  C  C357  1  0.143600  0.284400  0.772200  1.0  -0.1306
  C  C358  1  0.658600  0.255900  0.255900  1.0  0.1246
  C  C359  1  0.646300  0.191700  0.191700  1.0  -0.0806
  C  C360  1  0.573100  0.714800  0.225200  1.0  -0.0809
  C  C361  1  0.587600  0.471700  0.971900  1.0  -0.0841
  C  C362  1  0.486400  0.501400  0.689000  1.0  0.3028
  C  C363  1  0.565900  0.015200  0.015200  1.0  0.1392
  C  C364  1  0.528200  0.957200  0.267200  1.0  -0.1725
  C  C365  1  0.928900  0.803200  0.626400  1.0  -0.1849
  C  C366  1  0.068400  0.700200  0.076400  1.0  0.1738
  C  C367  1  0.098400  0.757600  0.757600  1.0  -0.1458
  C  C368  1  0.198200  0.541600  0.798400  1.0  -0.095
  C  C369  1  0.325900  0.351900  0.584700  1.0  -0.0814
  C  C370  1  0.153000  0.830800  0.557400  1.0  -0.153
  C  C371  1  0.040700  0.805100  0.316100  1.0  0.2579
  C  C372  1  0.197000  0.289800  0.975800  1.0  -0.0985
  C  C373  1  0.925800  0.295800  0.112200  1.0  -0.2003
  C  C374  1  0.028200  0.732800  0.042800  1.0  -0.1717
  C  C375  1  0.402500  0.652900  0.972100  1.0  0.398
  C  C376  1  0.304900  0.340900  0.180700  1.0  0.161
  C  C377  1  0.428900  0.196800  0.373600  1.0  -0.1846
  C  C378  1  0.574900  0.923600  0.199400  1.0  -0.159
  C  C379  1  0.821700  0.610000  0.834600  1.0  -0.1357
  C  C380  1  0.040700  0.316100  0.805100  1.0  0.2575
  C  C381  1  0.885800  0.593900  0.827700  1.0  0.0059
  C  C382  1  0.114500  0.520700  0.861100  1.0  0.1385
  C  C383  1  0.990600  0.822400  0.011400  1.0  0.2996
  C  C384  1  0.571100  0.777300  0.280500  1.0  0.1011
  C  C385  1  0.105100  0.264300  0.601100  1.0  0.1885
  C  C386  1  0.528400  0.721400  0.465600  1.0  -0.0269
  C  C387  1  0.567100  0.431900  0.702300  1.0  -0.1968
  C  C388  1  0.802300  0.131200  0.946400  1.0  -0.0982
  C  C389  1  0.905200  0.160000  0.279600  1.0  0.1734
  C  C390  1  0.408300  0.851600  0.084600  1.0  -0.1451
  C  C391  1  0.385800  0.406100  0.172300  1.0  0.0077
  C  C392  1  0.924200  0.936500  0.097700  1.0  0.1631
  C  C393  1  0.798400  0.421600  0.561200  1.0  0.1118
  C  C394  1  0.071100  0.222700  0.719500  1.0  0.0999
  C  C395  1  0.385800  0.172300  0.406100  1.0  0.0059
  C  C396  1  0.651700  0.680700  0.953700  1.0  -0.1143
  C  C397  1  0.690100  0.412600  0.412600  1.0  0.0679
  C  C398  1  0.643600  0.715600  0.227800  1.0  -0.1305
  C  C399  1  0.695100  0.712900  0.973100  1.0  -0.0425
  C  C400  1  0.325100  0.782100  0.101300  1.0  0.3431
  C  C401  1  0.130400  0.998700  0.998700  1.0  -0.1114
  C  C402  1  0.532000  0.956300  0.214300  1.0  -0.0258
  C  C403  1  0.671900  0.746600  0.256400  1.0  0.1298
  C  C404  1  0.186300  0.066500  0.561100  1.0  0.5481
  C  C405  1  0.114500  0.861100  0.520700  1.0  0.1388
  C  C406  1  0.113200  0.765400  0.106800  1.0  0.1633
  C  C407  1  0.151300  0.032700  0.530100  1.0  -0.0831
  C  C408  1  0.112700  0.353900  0.013100  1.0  0.1254
  C  C409  1  0.658200  0.675100  0.056100  1.0  0.1537
  C  C410  1  0.695100  0.973100  0.712900  1.0  -0.0421
  C  C411  1  0.171900  0.253400  0.743600  1.0  0.1294
  C  C412  1  0.030400  0.535000  0.225600  1.0  -0.1385
  C  C413  1  0.160900  0.456800  0.827800  1.0  0.1615
  C  C414  1  0.153000  0.557400  0.830800  1.0  -0.154
  C  C415  1  0.405600  0.458600  0.153800  1.0  0.3867
  C  C416  1  0.845300  0.165200  0.919200  1.0  -0.0288
  C  C417  1  0.151700  0.046300  0.319300  1.0  -0.119
  C  C418  1  0.928900  0.626400  0.803200  1.0  -0.1846
  C  C419  1  0.154900  0.975900  0.469500  1.0  0.135
  C  C420  1  0.320800  0.032600  0.916600  1.0  0.1533
  C  C421  1  0.345300  0.834800  0.080800  1.0  -0.03
  C  C422  1  0.539000  0.745700  0.250700  1.0  -0.0822
  C  C423  1  0.158600  0.744100  0.744100  1.0  0.1248
  C  C424  1  0.825900  0.648100  0.415300  1.0  -0.0806
  C  C425  1  0.660900  0.543200  0.172200  1.0  0.1607
  C  C426  1  0.407300  0.207600  0.322600  1.0  0.1827
  C  C427  1  0.707400  0.723700  0.723700  1.0  0.1196
  C  C428  1  0.580100  0.950200  0.950200  1.0  -0.1266
  C  C429  1  0.820800  0.083400  0.967400  1.0  0.1485
  C  C430  1  0.073100  0.285200  0.774800  1.0  -0.0806
  C  C431  1  0.028200  0.042800  0.732800  1.0  -0.1706
  C  C432  1  0.300800  0.854700  0.692300  1.0  0.1395
  C  C433  1  0.383800  0.564200  0.369200  1.0  -0.0566
  C  C434  1  0.671900  0.256400  0.746600  1.0  0.1294
  C  C435  1  0.882200  0.078900  0.321900  1.0  -0.0872
  C  C436  1  0.039000  0.749300  0.254300  1.0  -0.0827
  C  C437  1  0.186300  0.561100  0.066500  1.0  0.5484
  C  C438  1  0.284800  0.388000  0.590800  1.0  -0.0812
  C  C439  1  0.304900  0.180700  0.340900  1.0  0.165
  C  C440  1  0.056500  0.497900  0.997100  1.0  0.1006
  C  C441  1  0.146300  0.808300  0.808300  1.0  -0.0804
  C  C442  1  0.528200  0.267200  0.957200  1.0  -0.174
  C  C443  1  0.397600  0.419300  0.547700  1.0  0.0884
  C  C444  1  0.530400  0.465000  0.774400  1.0  -0.1383
  C  C445  1  0.654900  0.530500  0.024100  1.0  0.1339
  C  C446  1  0.825900  0.415300  0.648100  1.0  -0.0825
  C  C447  1  0.897600  0.580700  0.452300  1.0  0.088
  C  C448  1  0.540700  0.683900  0.194900  1.0  0.2571
  C  C449  1  0.540700  0.194900  0.683900  1.0  0.2589
  C  C450  1  0.820800  0.967400  0.083400  1.0  0.1519
  C  C451  1  0.658200  0.056100  0.675100  1.0  0.1538
  C  C452  1  0.701800  0.509100  0.202900  1.0  -0.1465
  C  C453  1  0.158200  0.943900  0.324900  1.0  0.1532
  C  C454  1  0.784800  0.612000  0.409200  1.0  -0.0837
  C  C455  1  0.587600  0.971900  0.471700  1.0  -0.0835
  C  C456  1  0.605100  0.398900  0.735700  1.0  0.1866
  C  C457  1  0.897600  0.452300  0.580700  1.0  0.0891
  C  C458  1  0.312400  0.599200  0.297000  1.0  0.329
  C  C459  1  0.151300  0.530100  0.032700  1.0  -0.0832
  C  C460  1  0.236800  0.253500  0.064100  1.0  0.3299
  C  C461  1  0.425800  0.887800  0.704200  1.0  -0.2037
  C  C462  1  0.662200  0.778600  0.778600  1.0  0.0539
  C  C463  1  0.574900  0.199400  0.923600  1.0  -0.1572
  C  C464  1  0.821700  0.834600  0.610000  1.0  -0.136
  C  C465  1  0.298400  0.578400  0.438800  1.0  0.1113
  C  C466  1  0.405600  0.153800  0.458600  1.0  0.3879
  C  C467  1  0.800800  0.145300  0.307700  1.0  0.14
  C  C468  1  0.986400  0.311000  0.498600  1.0  0.3032
  C  C469  1  0.090400  0.271300  0.271300  1.0  -0.1493
  C  C470  1  0.300800  0.692300  0.854700  1.0  0.1411
  C  C471  1  0.784800  0.409200  0.612000  1.0  -0.084
  C  C472  1  0.804900  0.659100  0.819300  1.0  0.1614
  C  C473  1  0.207400  0.276300  0.276300  1.0  0.119
  C  C474  1  0.645000  0.706600  0.706600  1.0  -0.1008
  C  C475  1  0.614500  0.138900  0.479300  1.0  0.1383
  C  C476  1  0.571100  0.280500  0.777300  1.0  0.1019
  C  C477  1  0.024400  0.286700  0.286700  1.0  0.3701
  C  C478  1  0.190100  0.587400  0.587400  1.0  0.0673
  C  C479  1  0.804900  0.819300  0.659100  1.0  0.1648
  C  C480  1  0.902500  0.027900  0.347100  1.0  0.3965
  C  C481  1  0.524400  0.713300  0.713300  1.0  0.3705
  C  C482  1  0.697000  0.710200  0.024200  1.0  -0.1003
  C  C483  1  0.613200  0.234600  0.893200  1.0  0.1627
  C  C484  1  0.424200  0.902300  0.063500  1.0  0.1611
  C  C485  1  0.739400  0.232400  0.419400  1.0  0.3369
  C  C486  1  0.022400  0.805500  0.805500  1.0  0.3712
  N  N487  1  0.771200  0.786200  0.945800  1.0  -0.3322
  N  N488  1  0.213800  0.763000  0.763000  1.0  -0.3212
  N  N489  1  0.805400  0.285500  0.382900  1.0  -0.007
  N  N490  1  0.241800  0.628600  0.776800  1.0  -0.3389
  N  N491  1  0.458500  0.543500  0.698700  1.0  -0.3078
  N  N492  1  0.443000  0.016800  0.107400  1.0  -0.1482
  N  N493  1  0.459200  0.523700  0.123100  1.0  -0.0073
  N  N494  1  0.757600  0.376300  0.721500  1.0  -0.304
  N  N495  1  0.454400  0.029000  0.186200  1.0  -0.3331
  N  N496  1  0.744100  0.738700  0.888300  1.0  -0.3187
  N  N497  1  0.943000  0.983200  0.892600  1.0  -0.1495
  N  N498  1  0.940800  0.837500  0.837500  1.0  -0.0117
  N  N499  1  0.458200  0.618400  0.033400  1.0  -0.0254
  N  N500  1  0.764800  0.230200  0.880000  1.0  -0.3528
  N  N501  1  0.241800  0.776800  0.628600  1.0  -0.3372
  N  N502  1  0.969200  0.358300  0.508500  1.0  -0.3565
  N  N503  1  0.943000  0.892600  0.983200  1.0  -0.1467
  N  N504  1  0.925300  0.858300  0.954500  1.0  0.0
  N  N505  1  0.443000  0.107400  0.016800  1.0  -0.1465
  N  N506  1  0.348400  0.304000  0.201600  1.0  -0.3504
  N  N507  1  0.485200  0.130100  0.981100  1.0  -0.2883
  N  N508  1  0.783700  0.429500  0.429500  1.0  -0.2735
  N  N509  1  0.269000  0.719700  0.134700  1.0  -0.0624
  N  N510  1  0.421800  0.712200  0.712200  1.0  0.008
  N  N511  1  0.157600  0.090800  0.590400  1.0  -0.1786
  N  N512  1  0.960000  0.016200  0.368000  1.0  -0.3046
  N  N513  1  0.471100  0.733200  0.733200  1.0  -0.3551
  N  N514  1  0.458500  0.698700  0.543500  1.0  -0.31
  N  N515  1  0.867500  0.840300  0.502100  1.0  -0.3423
  N  N516  1  0.251300  0.070000  0.560000  1.0  -0.3699
  N  N517  1  0.136800  0.715500  0.221700  1.0  -0.3592
  N  N518  1  0.367500  0.497900  0.159700  1.0  -0.3427
  N  N519  1  0.975000  0.323400  0.808200  1.0  -0.2611
  N  N520  1  0.741800  0.223200  0.371400  1.0  -0.3387
  N  N521  1  0.458200  0.033400  0.618400  1.0  -0.0241
  N  N522  1  0.881400  0.960200  0.066000  1.0  -0.3414
  N  N523  1  0.657600  0.409600  0.909200  1.0  -0.1793
  N  N524  1  0.828800  0.876600  0.296000  1.0  -0.0467
  N  N525  1  0.429900  0.531000  0.622800  1.0  -0.0167
  N  N526  1  0.783600  0.349700  0.257500  1.0  -0.043
  N  N527  1  0.424600  0.561700  0.656900  1.0  0.0197
  N  N528  1  0.283700  0.570500  0.570500  1.0  -0.2779
  N  N529  1  0.071900  0.834800  0.347200  1.0  -0.3464
  N  N530  1  0.107800  0.603700  0.215700  1.0  -0.3429
  N  N531  1  0.467200  0.161000  0.646400  1.0  -0.0296
  N  N532  1  0.507500  0.683800  0.683800  1.0  -0.1501
  N  N533  1  0.425300  0.141700  0.045500  1.0  -0.0013
  N  N534  1  0.354200  0.555900  0.455100  1.0  -0.3526
  N  N535  1  0.475000  0.191800  0.676600  1.0  -0.2605
  N  N536  1  0.424600  0.656900  0.561700  1.0  0.0168
  N  N537  1  0.299400  0.195400  0.098400  1.0  0.0365
  N  N538  1  0.954400  0.813800  0.971000  1.0  -0.3338
  N  N539  1  0.283500  0.224400  0.132200  1.0  -0.0113
  N  N540  1  0.404200  0.141400  0.538400  1.0  0.0115
  N  N541  1  0.007500  0.316200  0.316200  1.0  -0.151
  N  N542  1  0.571900  0.652800  0.165200  1.0  -0.3489
  N  N543  1  0.262500  0.593400  0.103400  1.0  -0.0978
  N  N544  1  0.460000  0.983800  0.632000  1.0  -0.3052
  N  N545  1  0.854200  0.444100  0.544900  1.0  -0.3505
  N  N546  1  0.975000  0.808200  0.323400  1.0  -0.2605
  N  N547  1  0.828800  0.296000  0.876600  1.0  -0.0453
  N  N548  1  0.420700  0.193600  0.193600  1.0  0.014
  N  N549  1  0.985200  0.869900  0.018900  1.0  -0.289
  N  N550  1  0.280000  0.602200  0.602200  1.0  -0.1575
  N  N551  1  0.512000  0.996700  0.996700  1.0  -0.3491
  N  N552  1  0.851900  0.740200  0.409800  1.0  -0.3097
  N  N553  1  0.522700  0.632500  0.145100  1.0  -0.0558
  N  N554  1  0.615800  0.038000  0.644400  1.0  -0.3629
  N  N555  1  0.400800  0.051000  0.630600  1.0  0.0062
  N  N556  1  0.785300  0.924700  0.924700  1.0  -0.0865
  N  N557  1  0.657600  0.909200  0.409600  1.0  -0.1776
  N  N558  1  0.351900  0.259800  0.590200  1.0  -0.3112
  N  N559  1  0.764400  0.369600  0.770800  1.0  -0.0106
  N  N560  1  0.924600  0.343100  0.438300  1.0  0.0197
  N  N561  1  0.219900  0.614200  0.614200  1.0  -0.3055
  N  N562  1  0.971100  0.786900  0.786900  1.0  -0.2535
  N  N563  1  0.440800  0.162500  0.162500  1.0  -0.0123
  N  N564  1  0.459200  0.123100  0.523700  1.0  -0.0084
  N  N565  1  0.306200  0.046900  0.046900  1.0  -0.0714
  N  N566  1  0.588600  0.531500  0.028700  1.0  -0.3445
  N  N567  1  0.779300  0.427400  0.270000  1.0  -0.3331
  N  N568  1  0.958500  0.456500  0.301300  1.0  -0.3081
  N  N569  1  0.244100  0.111700  0.261300  1.0  -0.3222
  N  N570  1  0.305400  0.714500  0.617100  1.0  -0.0071
  N  N571  1  0.229000  0.553800  0.553800  1.0  -0.4079
  N  N572  1  0.279300  0.730000  0.572600  1.0  -0.3326
  N  N573  1  0.958200  0.381600  0.966600  1.0  -0.0245
  N  N574  1  0.755900  0.973500  0.973500  1.0  -0.3218
  N  N575  1  0.929900  0.469000  0.377200  1.0  -0.0176
  N  N576  1  0.264800  0.120000  0.769800  1.0  -0.3515
  N  N577  1  0.321400  0.610200  0.217200  1.0  0.0079
  N  N578  1  0.863200  0.987800  0.348400  1.0  -0.3422
  N  N579  1  0.115800  0.962000  0.355600  1.0  -0.3613
  N  N580  1  0.244100  0.261300  0.111700  1.0  -0.3202
  N  N581  1  0.864500  0.895600  0.258600  1.0  -0.2937
  N  N582  1  0.967200  0.353600  0.839000  1.0  -0.0317
  N  N583  1  0.219500  0.077500  0.077500  1.0  -0.3613
  N  N584  1  0.203700  0.612600  0.116400  1.0  -0.2761
  N  N585  1  0.783600  0.257500  0.349700  1.0  -0.0442
  N  N586  1  0.615800  0.644400  0.038000  1.0  -0.3625
  N  N587  1  0.921800  0.287800  0.287800  1.0  0.0074
  N  N588  1  0.771200  0.945800  0.786200  1.0  -0.3314
  N  N589  1  0.769000  0.280300  0.865300  1.0  -0.0613
  N  N590  1  0.328800  0.123400  0.704000  1.0  -0.0421
  N  N591  1  0.969200  0.508500  0.358300  1.0  -0.3577
  N  N592  1  0.283500  0.132200  0.224400  1.0  -0.0096
  N  N593  1  0.299400  0.098400  0.195400  1.0  0.0362
  N  N594  1  0.283600  0.742500  0.650300  1.0  -0.045
  N  N595  1  0.279300  0.572600  0.730000  1.0  -0.3323
  N  N596  1  0.264400  0.229200  0.630400  1.0  -0.0101
  N  N597  1  0.157600  0.590400  0.090800  1.0  -0.1791
  N  N598  1  0.115800  0.355600  0.962000  1.0  -0.3624
  N  N599  1  0.764800  0.880000  0.230200  1.0  -0.3518
  N  N600  1  0.719500  0.922500  0.922500  1.0  -0.3617
  N  N601  1  0.636800  0.284500  0.778300  1.0  -0.3584
  N  N602  1  0.022700  0.367500  0.854900  1.0  -0.0562
  N  N603  1  0.461700  0.472300  0.131900  1.0  -0.3172
  N  N604  1  0.751300  0.930000  0.440000  1.0  -0.3703
  N  N605  1  0.958200  0.966600  0.381600  1.0  -0.0248
  N  N606  1  0.729000  0.446200  0.446200  1.0  -0.4085
  N  N607  1  0.607800  0.396300  0.784300  1.0  -0.343
  N  N608  1  0.269000  0.134700  0.719700  1.0  -0.0628
  N  N609  1  0.805400  0.382900  0.285500  1.0  -0.0085
  N  N610  1  0.821400  0.782800  0.389800  1.0  0.007
  N  N611  1  0.485200  0.981100  0.130100  1.0  -0.2881
  N  N612  1  0.925300  0.954500  0.858300  1.0  0.0028
  N  N613  1  0.109900  0.716000  0.108000  1.0  -0.3532
  N  N614  1  0.381400  0.039800  0.934000  1.0  -0.341
  N  N615  1  0.571900  0.165200  0.652800  1.0  -0.3476
  N  N616  1  0.522700  0.145100  0.632500  1.0  -0.054
  N  N617  1  0.769000  0.865300  0.280300  1.0  -0.0631
  N  N618  1  0.283600  0.650300  0.742500  1.0  -0.0422
  N  N619  1  0.904200  0.461600  0.858600  1.0  0.0123
  N  N620  1  0.264400  0.630400  0.229200  1.0  -0.0102
  N  N621  1  0.741800  0.371400  0.223200  1.0  -0.3381
  N  N622  1  0.251300  0.560000  0.070000  1.0  -0.3706
  N  N623  1  0.607800  0.784300  0.396300  1.0  -0.3443
  N  N624  1  0.467200  0.646400  0.161000  1.0  -0.031
  N  N625  1  0.363200  0.012200  0.651600  1.0  -0.3426
  N  N626  1  0.487500  0.515100  0.515100  1.0  -0.4451
  N  N627  1  0.506300  0.162400  0.162400  1.0  -0.3385
  N  N628  1  0.851900  0.409800  0.740200  1.0  -0.3094
  N  N629  1  0.071900  0.347200  0.834800  1.0  -0.3471
  N  N630  1  0.364500  0.104400  0.741400  1.0  -0.2931
  N  N631  1  0.703700  0.883600  0.387400  1.0  -0.2744
  N  N632  1  0.367500  0.159700  0.497900  1.0  -0.3426
  N  N633  1  0.351900  0.590200  0.259800  1.0  -0.3111
  N  N634  1  0.848400  0.696000  0.798400  1.0  -0.3497
  N  N635  1  0.475000  0.676600  0.191800  1.0  -0.26
  N  N636  1  0.262500  0.103400  0.593400  1.0  -0.0985
  N  N637  1  0.779300  0.270000  0.427400  1.0  -0.3309
  N  N638  1  0.821400  0.389800  0.782800  1.0  0.0058
  N  N639  1  0.136800  0.221700  0.715500  1.0  -0.3586
  N  N640  1  0.924600  0.438300  0.343100  1.0  0.0203
  N  N641  1  0.900800  0.949000  0.369400  1.0  0.0046
  N  N642  1  0.442500  0.682200  0.682200  1.0  -0.1712
  N  N643  1  0.257600  0.278500  0.623700  1.0  -0.3028
  N  N644  1  0.881400  0.066000  0.960200  1.0  -0.3422
  N  N645  1  0.636800  0.778300  0.284500  1.0  -0.3577
  N  N646  1  0.757600  0.721500  0.376300  1.0  -0.3032
  N  N647  1  0.846300  0.178000  0.280000  1.0  -0.3572
  N  N648  1  0.363200  0.651600  0.012200  1.0  -0.3429
  N  N649  1  0.863200  0.348400  0.987800  1.0  -0.3429
  N  N650  1  0.961700  0.527700  0.868100  1.0  -0.3172
  N  N651  1  0.255900  0.026500  0.026500  1.0  -0.322
  N  N652  1  0.469200  0.641700  0.491500  1.0  -0.3554
  N  N653  1  0.022700  0.854900  0.367500  1.0  -0.0552
  N  N654  1  0.617800  0.529100  0.141100  1.0  -0.3529
  N  N655  1  0.213700  0.243500  0.243500  1.0  -0.3449
  N  N656  1  0.764400  0.770800  0.369600  1.0  -0.0094
  N  N657  1  0.703700  0.387400  0.883600  1.0  -0.2754
  N  N658  1  0.783500  0.867800  0.775600  1.0  -0.0086
  N  N659  1  0.305400  0.617100  0.714500  1.0  -0.0087
  N  N660  1  0.864500  0.258600  0.895600  1.0  -0.2933
  N  N661  1  0.348400  0.201600  0.304000  1.0  -0.3486
  N  N662  1  0.264800  0.769800  0.120000  1.0  -0.3531
  N  N663  1  0.271200  0.054200  0.213800  1.0  -0.3315
  N  N664  1  0.203700  0.116400  0.612600  1.0  -0.2764
  N  N665  1  0.751300  0.440000  0.930000  1.0  -0.3734
  N  N666  1  0.783500  0.775600  0.867800  1.0  -0.0104
  N  N667  1  0.959200  0.476300  0.876900  1.0  -0.0075
  N  N668  1  0.117800  0.858900  0.470900  1.0  -0.3538
  N  N669  1  0.958500  0.301300  0.456500  1.0  -0.3087
  N  N670  1  0.088600  0.468500  0.971300  1.0  -0.3441
  N  N671  1  0.354200  0.455100  0.555900  1.0  -0.3555
  N  N672  1  0.364500  0.741400  0.104400  1.0  -0.2936
  N  N673  1  0.799400  0.901600  0.804600  1.0  0.0354
  N  N674  1  0.713800  0.237000  0.237000  1.0  -0.3201
  N  N675  1  0.617800  0.141100  0.529100  1.0  -0.3533
  N  N676  1  0.846300  0.280000  0.178000  1.0  -0.3562
  N  N677  1  0.900800  0.369400  0.949000  1.0  0.0075
  N  N678  1  0.961700  0.868100  0.527700  1.0  -0.3165
  N  N679  1  0.404200  0.538400  0.141400  1.0  0.0122
  N  N680  1  0.942500  0.317800  0.317800  1.0  -0.1724
  N  N681  1  0.806200  0.953100  0.953100  1.0  -0.0731
  N  N682  1  0.762500  0.406600  0.896600  1.0  -0.0975
  N  N683  1  0.461700  0.131900  0.472300  1.0  -0.3181
  N  N684  1  0.425300  0.045500  0.141700  1.0  0.0026
  N  N685  1  0.588600  0.028700  0.531500  1.0  -0.3463
  N  N686  1  0.854200  0.544900  0.444100  1.0  -0.3536
  N  N687  1  0.471100  0.213100  0.213100  1.0  -0.2528
  N  N688  1  0.321400  0.217200  0.610200  1.0  0.0076
  N  N689  1  0.460000  0.632000  0.983800  1.0  -0.3056
  N  N690  1  0.967200  0.839000  0.353600  1.0  -0.0307
  N  N691  1  0.381400  0.934000  0.039800  1.0  -0.3434
  N  N692  1  0.971100  0.266800  0.266800  1.0  -0.3552
  N  N693  1  0.609900  0.284000  0.892000  1.0  -0.3537
  N  N694  1  0.719900  0.385800  0.385800  1.0  -0.3053
  N  N695  1  0.867500  0.502100  0.840300  1.0  -0.3414
  N  N696  1  0.346300  0.720000  0.822000  1.0  -0.3598
  N  N697  1  0.920700  0.806400  0.806400  1.0  0.0133
  N  N698  1  0.328800  0.704000  0.123400  1.0  -0.0448
  N  N699  1  0.469200  0.491500  0.641700  1.0  -0.3578
  N  N700  1  0.012000  0.003300  0.003300  1.0  -0.3499
  N  N701  1  0.799400  0.804600  0.901600  1.0  0.0349
  N  N702  1  0.929900  0.377200  0.469000  1.0  -0.017
  N  N703  1  0.904200  0.858600  0.461600  1.0  0.0139
  N  N704  1  0.985200  0.018900  0.869900  1.0  -0.2873
  N  N705  1  0.088600  0.971300  0.468500  1.0  -0.3448
  N  N706  1  0.257600  0.623700  0.278500  1.0  -0.3039
  N  N707  1  0.780000  0.397800  0.397800  1.0  -0.1574
  N  N708  1  0.271200  0.213800  0.054200  1.0  -0.3302
  N  N709  1  0.109900  0.108000  0.716000  1.0  -0.3529
  N  N710  1  0.429900  0.622800  0.531000  1.0  -0.0169
  N  N711  1  0.107800  0.215700  0.603700  1.0  -0.3423
  N  N712  1  0.744100  0.888300  0.738700  1.0  -0.3199
  N  N713  1  0.954400  0.971000  0.813800  1.0  -0.332
  N  N714  1  0.609900  0.892000  0.284000  1.0  -0.3526
  N  N715  1  0.762500  0.896600  0.406600  1.0  -0.0983
  N  N716  1  0.960000  0.368000  0.016200  1.0  -0.306
  N  N717  1  0.400800  0.630600  0.051000  1.0  0.005
  N  N718  1  0.117800  0.470900  0.858900  1.0  -0.3526
  N  N719  1  0.713700  0.756500  0.756500  1.0  -0.3443
  N  N720  1  0.006300  0.837600  0.837600  1.0  -0.3379
  N  N721  1  0.848400  0.798400  0.696000  1.0  -0.3482
  N  N722  1  0.346300  0.822000  0.720000  1.0  -0.3552
  N  N723  1  0.285300  0.075300  0.075300  1.0  -0.0879
  N  N724  1  0.987500  0.484900  0.484900  1.0  -0.4451
  N  N725  1  0.454400  0.186200  0.029000  1.0  -0.3336
  N  N726  1  0.959200  0.876900  0.476300  1.0  -0.0075
