# generated using pymatgen
data_AgH24(C3N)4
_symmetry_space_group_name_H-M   'P 1'
_cell_length_a   32.40390000
_cell_length_b   32.40390000
_cell_length_c   32.40390000
_cell_angle_alpha   60.00000000
_cell_angle_beta   60.00000000
_cell_angle_gamma   60.00000000
_symmetry_Int_Tables_number   1
_chemical_formula_structural   AgH24(C3N)4
_chemical_formula_sum   'Ag34 H816 C408 N136'
_cell_volume   24058.96010032
_cell_formula_units_Z   34
loop_
 _symmetry_equiv_pos_site_id
 _symmetry_equiv_pos_as_xyz
  1  'x, y, z'
loop_
 _atom_site_type_symbol
 _atom_site_label
 _atom_site_symmetry_multiplicity
 _atom_site_fract_x
 _atom_site_fract_y
 _atom_site_fract_z
 _atom_site_occupancy
 _atom_site_charge
  Ag  Ag1  1  0.860630  0.631950  0.253710  1.0  0.2185
  Ag  Ag2  1  0.631950  0.860630  0.253710  1.0  0.2186
  Ag  Ag3  1  0.253710  0.253710  0.860630  1.0  0.2179
  Ag  Ag4  1  0.253710  0.253710  0.631950  1.0  0.2174
  Ag  Ag5  1  0.253710  0.860630  0.631950  1.0  0.2173
  Ag  Ag6  1  0.253710  0.631950  0.860630  1.0  0.2175
  Ag  Ag7  1  0.860630  0.253710  0.253710  1.0  0.218
  Ag  Ag8  1  0.631950  0.253710  0.253710  1.0  0.2172
  Ag  Ag9  1  0.631950  0.253710  0.860630  1.0  0.217
  Ag  Ag10  1  0.860630  0.253710  0.631950  1.0  0.2176
  Ag  Ag11  1  0.253710  0.860630  0.253710  1.0  0.2177
  Ag  Ag12  1  0.253710  0.631950  0.253710  1.0  0.2176
  Ag  Ag13  1  0.389370  0.618050  0.996290  1.0  0.2166
  Ag  Ag14  1  0.618050  0.389370  0.996290  1.0  0.2173
  Ag  Ag15  1  0.996290  0.996290  0.618050  1.0  0.2189
  Ag  Ag16  1  0.996290  0.996290  0.389370  1.0  0.2184
  Ag  Ag17  1  0.996290  0.389370  0.996290  1.0  0.2176
  Ag  Ag18  1  0.996290  0.618050  0.996290  1.0  0.2176
  Ag  Ag19  1  0.389370  0.996290  0.618050  1.0  0.2181
  Ag  Ag20  1  0.618050  0.996290  0.389370  1.0  0.2172
  Ag  Ag21  1  0.618050  0.996290  0.996290  1.0  0.217
  Ag  Ag22  1  0.389370  0.996290  0.996290  1.0  0.2176
  Ag  Ag23  1  0.996290  0.389370  0.618050  1.0  0.2181
  Ag  Ag24  1  0.996290  0.618050  0.389370  1.0  0.2177
  Ag  Ag25  1  0.777990  0.407340  0.407340  1.0  0.2645
  Ag  Ag26  1  0.407340  0.777990  0.407340  1.0  0.2642
  Ag  Ag27  1  0.407340  0.407340  0.777990  1.0  0.2638
  Ag  Ag28  1  0.407340  0.407340  0.407340  1.0  0.264
  Ag  Ag29  1  0.472010  0.842660  0.842660  1.0  0.2635
  Ag  Ag30  1  0.842660  0.472010  0.842660  1.0  0.2638
  Ag  Ag31  1  0.842660  0.842660  0.842660  1.0  0.264
  Ag  Ag32  1  0.842660  0.842660  0.472010  1.0  0.2643
  Ag  Ag33  1  0.500000  0.500000  0.500000  1.0  0.2779
  Ag  Ag34  1  0.750000  0.750000  0.750000  1.0  0.2775
  H  H35  1  0.874900  0.442700  0.316500  1.0  0.0738
  H  H36  1  0.899200  0.509400  0.320400  1.0  0.0682
  H  H37  1  0.979000  0.581600  0.259200  1.0  0.0792
  H  H38  1  0.945900  0.549900  0.310300  1.0  0.0776
  H  H39  1  0.745100  0.677900  0.326900  1.0  0.077
  H  H40  1  0.775300  0.708100  0.321500  1.0  0.0731
  H  H41  1  0.821500  0.754500  0.187300  1.0  0.0758
  H  H42  1  0.895200  0.703000  0.267400  1.0  0.0818
  H  H43  1  0.946800  0.675200  0.231400  1.0  0.0677
  H  H44  1  0.864100  0.598100  0.363500  1.0  0.0734
  H  H45  1  0.847600  0.658400  0.343600  1.0  0.0665
  H  H46  1  0.596600  0.476200  0.525600  1.0  0.0682
  H  H47  1  0.748800  0.521800  0.326000  1.0  0.0743
  H  H48  1  0.798900  0.488500  0.293500  1.0  0.0598
  H  H49  1  0.678800  0.498400  0.449000  1.0  0.0723
  H  H50  1  0.827900  0.553100  0.246700  1.0  0.0644
  H  H51  1  0.776500  0.587300  0.277100  1.0  0.0787
  H  H52  1  0.442700  0.874900  0.365900  1.0  0.0729
  H  H53  1  0.509400  0.899200  0.271000  1.0  0.0671
  H  H54  1  0.581600  0.979000  0.180200  1.0  0.0793
  H  H55  1  0.549900  0.945900  0.193900  1.0  0.0699
  H  H56  1  0.677900  0.745100  0.250100  1.0  0.0708
  H  H57  1  0.708100  0.775300  0.195100  1.0  0.0727
  H  H58  1  0.754500  0.821500  0.236700  1.0  0.0755
  H  H59  1  0.703000  0.895200  0.134400  1.0  0.0784
  H  H60  1  0.675200  0.946800  0.146600  1.0  0.0674
  H  H61  1  0.598100  0.864100  0.174300  1.0  0.0727
  H  H62  1  0.658400  0.847600  0.150400  1.0  0.0683
  H  H63  1  0.476200  0.596600  0.401600  1.0  0.0664
  H  H64  1  0.521800  0.748800  0.403400  1.0  0.0769
  H  H65  1  0.488500  0.798900  0.419100  1.0  0.0606
  H  H66  1  0.498400  0.678800  0.373800  1.0  0.0649
  H  H67  1  0.553100  0.827900  0.372300  1.0  0.0641
  H  H68  1  0.587300  0.776500  0.359100  1.0  0.0806
  H  H69  1  0.316500  0.365900  0.874900  1.0  0.0696
  H  H70  1  0.320400  0.271000  0.899200  1.0  0.0669
  H  H71  1  0.259200  0.180200  0.979000  1.0  0.0757
  H  H72  1  0.310300  0.193900  0.945900  1.0  0.0755
  H  H73  1  0.326900  0.250100  0.745100  1.0  0.0746
  H  H74  1  0.321500  0.195100  0.775300  1.0  0.0741
  H  H75  1  0.187300  0.236700  0.821500  1.0  0.0672
  H  H76  1  0.267400  0.134400  0.895200  1.0  0.0754
  H  H77  1  0.231400  0.146600  0.946800  1.0  0.0612
  H  H78  1  0.363500  0.174300  0.864100  1.0  0.0712
  H  H79  1  0.343600  0.150400  0.847600  1.0  0.0685
  H  H80  1  0.525600  0.401600  0.596600  1.0  0.0661
  H  H81  1  0.326000  0.403400  0.748800  1.0  0.0762
  H  H82  1  0.293500  0.419100  0.798900  1.0  0.06
  H  H83  1  0.449000  0.373800  0.678800  1.0  0.0705
  H  H84  1  0.246700  0.372300  0.827900  1.0  0.065
  H  H85  1  0.277100  0.359100  0.776500  1.0  0.0787
  H  H86  1  0.365900  0.316500  0.442700  1.0  0.0716
  H  H87  1  0.271000  0.320400  0.509400  1.0  0.0635
  H  H88  1  0.180200  0.259200  0.581600  1.0  0.0752
  H  H89  1  0.193900  0.310300  0.549900  1.0  0.0744
  H  H90  1  0.250100  0.326900  0.677900  1.0  0.0773
  H  H91  1  0.195100  0.321500  0.708100  1.0  0.073
  H  H92  1  0.236700  0.187300  0.754500  1.0  0.0713
  H  H93  1  0.134400  0.267400  0.703000  1.0  0.0756
  H  H94  1  0.146600  0.231400  0.675200  1.0  0.0636
  H  H95  1  0.174300  0.363500  0.598100  1.0  0.0703
  H  H96  1  0.150400  0.343600  0.658400  1.0  0.0662
  H  H97  1  0.401600  0.525600  0.476200  1.0  0.0679
  H  H98  1  0.403400  0.326000  0.521800  1.0  0.0771
  H  H99  1  0.419100  0.293500  0.488500  1.0  0.0597
  H  H100  1  0.373800  0.449000  0.498400  1.0  0.0675
  H  H101  1  0.372300  0.246700  0.553100  1.0  0.0673
  H  H102  1  0.359100  0.277100  0.587300  1.0  0.0785
  H  H103  1  0.316500  0.874900  0.442700  1.0  0.0725
  H  H104  1  0.320400  0.899200  0.509400  1.0  0.0675
  H  H105  1  0.259200  0.979000  0.581600  1.0  0.0789
  H  H106  1  0.310300  0.945900  0.549900  1.0  0.0764
  H  H107  1  0.326900  0.745100  0.677900  1.0  0.0764
  H  H108  1  0.321500  0.775300  0.708100  1.0  0.0726
  H  H109  1  0.187300  0.821500  0.754500  1.0  0.0736
  H  H110  1  0.267400  0.895200  0.703000  1.0  0.0757
  H  H111  1  0.231400  0.946800  0.675200  1.0  0.0609
  H  H112  1  0.363500  0.864100  0.598100  1.0  0.0716
  H  H113  1  0.343600  0.847600  0.658400  1.0  0.0701
  H  H114  1  0.525600  0.596600  0.476200  1.0  0.0612
  H  H115  1  0.326000  0.748800  0.521800  1.0  0.0744
  H  H116  1  0.293500  0.798900  0.488500  1.0  0.06
  H  H117  1  0.449000  0.678800  0.498400  1.0  0.0708
  H  H118  1  0.246700  0.827900  0.553100  1.0  0.0658
  H  H119  1  0.277100  0.776500  0.587300  1.0  0.0781
  H  H120  1  0.365900  0.442700  0.874900  1.0  0.0727
  H  H121  1  0.271000  0.509400  0.899200  1.0  0.0603
  H  H122  1  0.180200  0.581600  0.979000  1.0  0.0783
  H  H123  1  0.193900  0.549900  0.945900  1.0  0.0777
  H  H124  1  0.250100  0.677900  0.745100  1.0  0.0748
  H  H125  1  0.195100  0.708100  0.775300  1.0  0.0682
  H  H126  1  0.236700  0.754500  0.821500  1.0  0.0735
  H  H127  1  0.134400  0.703000  0.895200  1.0  0.0794
  H  H128  1  0.146600  0.675200  0.946800  1.0  0.0679
  H  H129  1  0.174300  0.598100  0.864100  1.0  0.068
  H  H130  1  0.150400  0.658400  0.847600  1.0  0.0657
  H  H131  1  0.401600  0.476200  0.596600  1.0  0.0652
  H  H132  1  0.403400  0.521800  0.748800  1.0  0.0765
  H  H133  1  0.419100  0.488500  0.798900  1.0  0.0597
  H  H134  1  0.373800  0.498400  0.678800  1.0  0.0709
  H  H135  1  0.372300  0.553100  0.827900  1.0  0.0673
  H  H136  1  0.359100  0.587300  0.776500  1.0  0.0789
  H  H137  1  0.874900  0.316500  0.365900  1.0  0.072
  H  H138  1  0.899200  0.320400  0.271000  1.0  0.0641
  H  H139  1  0.979000  0.259200  0.180200  1.0  0.0774
  H  H140  1  0.945900  0.310300  0.193900  1.0  0.0748
  H  H141  1  0.745100  0.326900  0.250100  1.0  0.076
  H  H142  1  0.775300  0.321500  0.195100  1.0  0.0734
  H  H143  1  0.821500  0.187300  0.236700  1.0  0.0747
  H  H144  1  0.895200  0.267400  0.134400  1.0  0.0708
  H  H145  1  0.946800  0.231400  0.146600  1.0  0.068
  H  H146  1  0.864100  0.363500  0.174300  1.0  0.0704
  H  H147  1  0.847600  0.343600  0.150400  1.0  0.0643
  H  H148  1  0.596600  0.525600  0.401600  1.0  0.0694
  H  H149  1  0.748800  0.326000  0.403400  1.0  0.0721
  H  H150  1  0.798900  0.293500  0.419100  1.0  0.0627
  H  H151  1  0.678800  0.449000  0.373800  1.0  0.0691
  H  H152  1  0.827900  0.246700  0.372300  1.0  0.0677
  H  H153  1  0.776500  0.277100  0.359100  1.0  0.0754
  H  H154  1  0.442700  0.365900  0.316500  1.0  0.0675
  H  H155  1  0.509400  0.271000  0.320400  1.0  0.0661
  H  H156  1  0.581600  0.180200  0.259200  1.0  0.0783
  H  H157  1  0.549900  0.193900  0.310300  1.0  0.0748
  H  H158  1  0.677900  0.250100  0.326900  1.0  0.0749
  H  H159  1  0.708100  0.195100  0.321500  1.0  0.0742
  H  H160  1  0.754500  0.236700  0.187300  1.0  0.0746
  H  H161  1  0.703000  0.134400  0.267400  1.0  0.0724
  H  H162  1  0.675200  0.146600  0.231400  1.0  0.07
  H  H163  1  0.598100  0.174300  0.363500  1.0  0.0706
  H  H164  1  0.658400  0.150400  0.343600  1.0  0.0636
  H  H165  1  0.476200  0.401600  0.525600  1.0  0.069
  H  H166  1  0.521800  0.403400  0.326000  1.0  0.076
  H  H167  1  0.488500  0.419100  0.293500  1.0  0.061
  H  H168  1  0.498400  0.373800  0.449000  1.0  0.0725
  H  H169  1  0.553100  0.372300  0.246700  1.0  0.0678
  H  H170  1  0.587300  0.359100  0.277100  1.0  0.0737
  H  H171  1  0.442700  0.316500  0.874900  1.0  0.0666
  H  H172  1  0.509400  0.320400  0.899200  1.0  0.0672
  H  H173  1  0.581600  0.259200  0.979000  1.0  0.0755
  H  H174  1  0.549900  0.310300  0.945900  1.0  0.0736
  H  H175  1  0.677900  0.326900  0.745100  1.0  0.0775
  H  H176  1  0.708100  0.321500  0.775300  1.0  0.0744
  H  H177  1  0.754500  0.187300  0.821500  1.0  0.0724
  H  H178  1  0.703000  0.267400  0.895200  1.0  0.0745
  H  H179  1  0.675200  0.231400  0.946800  1.0  0.0656
  H  H180  1  0.598100  0.363500  0.864100  1.0  0.0723
  H  H181  1  0.658400  0.343600  0.847600  1.0  0.0645
  H  H182  1  0.476200  0.525600  0.596600  1.0  0.0647
  H  H183  1  0.521800  0.326000  0.748800  1.0  0.0772
  H  H184  1  0.488500  0.293500  0.798900  1.0  0.06
  H  H185  1  0.498400  0.449000  0.678800  1.0  0.0687
  H  H186  1  0.553100  0.246700  0.827900  1.0  0.0682
  H  H187  1  0.587300  0.277100  0.776500  1.0  0.0759
  H  H188  1  0.874900  0.365900  0.442700  1.0  0.0686
  H  H189  1  0.899200  0.271000  0.509400  1.0  0.0672
  H  H190  1  0.979000  0.180200  0.581600  1.0  0.078
  H  H191  1  0.945900  0.193900  0.549900  1.0  0.0741
  H  H192  1  0.745100  0.250100  0.677900  1.0  0.0743
  H  H193  1  0.775300  0.195100  0.708100  1.0  0.0724
  H  H194  1  0.821500  0.236700  0.754500  1.0  0.0734
  H  H195  1  0.895200  0.134400  0.703000  1.0  0.0757
  H  H196  1  0.946800  0.146600  0.675200  1.0  0.0672
  H  H197  1  0.864100  0.174300  0.598100  1.0  0.0716
  H  H198  1  0.847600  0.150400  0.658400  1.0  0.0636
  H  H199  1  0.596600  0.401600  0.476200  1.0  0.0671
  H  H200  1  0.748800  0.403400  0.521800  1.0  0.0747
  H  H201  1  0.798900  0.419100  0.488500  1.0  0.0615
  H  H202  1  0.678800  0.373800  0.498400  1.0  0.0725
  H  H203  1  0.827900  0.372300  0.553100  1.0  0.0663
  H  H204  1  0.776500  0.359100  0.587300  1.0  0.0808
  H  H205  1  0.365900  0.874900  0.316500  1.0  0.0642
  H  H206  1  0.271000  0.899200  0.320400  1.0  0.0651
  H  H207  1  0.180200  0.979000  0.259200  1.0  0.079
  H  H208  1  0.193900  0.945900  0.310300  1.0  0.0759
  H  H209  1  0.250100  0.745100  0.326900  1.0  0.0767
  H  H210  1  0.195100  0.775300  0.321500  1.0  0.0706
  H  H211  1  0.236700  0.821500  0.187300  1.0  0.0743
  H  H212  1  0.134400  0.895200  0.267400  1.0  0.0747
  H  H213  1  0.146600  0.946800  0.231400  1.0  0.0681
  H  H214  1  0.174300  0.864100  0.363500  1.0  0.0717
  H  H215  1  0.150400  0.847600  0.343600  1.0  0.0689
  H  H216  1  0.401600  0.596600  0.525600  1.0  0.0675
  H  H217  1  0.403400  0.748800  0.326000  1.0  0.0753
  H  H218  1  0.419100  0.798900  0.293500  1.0  0.0555
  H  H219  1  0.373800  0.678800  0.449000  1.0  0.0688
  H  H220  1  0.372300  0.827900  0.246700  1.0  0.0672
  H  H221  1  0.359100  0.776500  0.277100  1.0  0.0799
  H  H222  1  0.316500  0.442700  0.365900  1.0  0.0706
  H  H223  1  0.320400  0.509400  0.271000  1.0  0.0676
  H  H224  1  0.259200  0.581600  0.180200  1.0  0.0693
  H  H225  1  0.310300  0.549900  0.193900  1.0  0.077
  H  H226  1  0.326900  0.677900  0.250100  1.0  0.0773
  H  H227  1  0.321500  0.708100  0.195100  1.0  0.0744
  H  H228  1  0.187300  0.754500  0.236700  1.0  0.0685
  H  H229  1  0.267400  0.703000  0.134400  1.0  0.0782
  H  H230  1  0.231400  0.675200  0.146600  1.0  0.0597
  H  H231  1  0.363500  0.598100  0.174300  1.0  0.071
  H  H232  1  0.343600  0.658400  0.150400  1.0  0.0664
  H  H233  1  0.525600  0.476200  0.401600  1.0  0.0597
  H  H234  1  0.326000  0.521800  0.403400  1.0  0.0774
  H  H235  1  0.293500  0.488500  0.419100  1.0  0.059
  H  H236  1  0.449000  0.498400  0.373800  1.0  0.0706
  H  H237  1  0.246700  0.553100  0.372300  1.0  0.0652
  H  H238  1  0.277100  0.587300  0.359100  1.0  0.0781
  H  H239  1  0.375100  0.807300  0.884100  1.0  0.0722
  H  H240  1  0.350800  0.740600  0.979000  1.0  0.066
  H  H241  1  0.271000  0.668400  0.069800  1.0  0.0738
  H  H242  1  0.304100  0.700100  0.056100  1.0  0.0781
  H  H243  1  0.504900  0.572100  0.999900  1.0  0.0765
  H  H244  1  0.474700  0.541900  0.054900  1.0  0.0724
  H  H245  1  0.428500  0.495500  0.013300  1.0  0.075
  H  H246  1  0.354800  0.547000  0.115600  1.0  0.0781
  H  H247  1  0.303200  0.574800  0.103400  1.0  0.0655
  H  H248  1  0.385900  0.651900  0.075700  1.0  0.0713
  H  H249  1  0.402400  0.591600  0.099600  1.0  0.0651
  H  H250  1  0.653400  0.773800  0.848400  1.0  0.0662
  H  H251  1  0.501200  0.728200  0.846600  1.0  0.0734
  H  H252  1  0.451100  0.761500  0.830900  1.0  0.0603
  H  H253  1  0.571200  0.751600  0.876200  1.0  0.0673
  H  H254  1  0.422100  0.696900  0.877700  1.0  0.0646
  H  H255  1  0.473500  0.662700  0.890900  1.0  0.078
  H  H256  1  0.807300  0.375100  0.933500  1.0  0.0737
  H  H257  1  0.740600  0.350800  0.929600  1.0  0.0687
  H  H258  1  0.668400  0.271000  0.990800  1.0  0.0753
  H  H259  1  0.700100  0.304100  0.939700  1.0  0.0714
  H  H260  1  0.572100  0.504900  0.923100  1.0  0.0724
  H  H261  1  0.541900  0.474700  0.928500  1.0  0.0733
  H  H262  1  0.495500  0.428500  0.062700  1.0  0.0753
  H  H263  1  0.547000  0.354800  0.982600  1.0  0.0747
  H  H264  1  0.574800  0.303200  0.018600  1.0  0.0663
  H  H265  1  0.651900  0.385900  0.886500  1.0  0.0701
  H  H266  1  0.591600  0.402400  0.906400  1.0  0.0642
  H  H267  1  0.773800  0.653400  0.724400  1.0  0.0668
  H  H268  1  0.728200  0.501200  0.924000  1.0  0.0798
  H  H269  1  0.761500  0.451100  0.956500  1.0  0.0607
  H  H270  1  0.751600  0.571200  0.801000  1.0  0.0665
  H  H271  1  0.696900  0.422100  0.003300  1.0  0.0645
  H  H272  1  0.662700  0.473500  0.972900  1.0  0.0792
  H  H273  1  0.933500  0.884100  0.807300  1.0  0.0703
  H  H274  1  0.929600  0.979000  0.740600  1.0  0.0648
  H  H275  1  0.990800  0.069800  0.668400  1.0  0.0715
  H  H276  1  0.939700  0.056100  0.700100  1.0  0.0764
  H  H277  1  0.923100  0.999900  0.572100  1.0  0.0733
  H  H278  1  0.928500  0.054900  0.541900  1.0  0.0716
  H  H279  1  0.062700  0.013300  0.495500  1.0  0.0669
  H  H280  1  0.982600  0.115600  0.547000  1.0  0.0745
  H  H281  1  0.018600  0.103400  0.574800  1.0  0.0635
  H  H282  1  0.886500  0.075700  0.651900  1.0  0.0716
  H  H283  1  0.906400  0.099600  0.591600  1.0  0.066
  H  H284  1  0.724400  0.848400  0.773800  1.0  0.0637
  H  H285  1  0.924000  0.846600  0.728200  1.0  0.0767
  H  H286  1  0.956500  0.830900  0.761500  1.0  0.062
  H  H287  1  0.801000  0.876200  0.751600  1.0  0.0688
  H  H288  1  0.003300  0.877700  0.696900  1.0  0.0661
  H  H289  1  0.972900  0.890900  0.662700  1.0  0.0788
  H  H290  1  0.884100  0.933500  0.375100  1.0  0.0734
  H  H291  1  0.979000  0.929600  0.350800  1.0  0.064
  H  H292  1  0.069800  0.990800  0.271000  1.0  0.0753
  H  H293  1  0.056100  0.939700  0.304100  1.0  0.0703
  H  H294  1  0.999900  0.923100  0.504900  1.0  0.0763
  H  H295  1  0.054900  0.928500  0.474700  1.0  0.0728
  H  H296  1  0.013300  0.062700  0.428500  1.0  0.0748
  H  H297  1  0.115600  0.982600  0.354800  1.0  0.0734
  H  H298  1  0.103400  0.018600  0.303200  1.0  0.0668
  H  H299  1  0.075700  0.886500  0.385900  1.0  0.0708
  H  H300  1  0.099600  0.906400  0.402400  1.0  0.0647
  H  H301  1  0.848400  0.724400  0.653400  1.0  0.0656
  H  H302  1  0.846600  0.924000  0.501200  1.0  0.0777
  H  H303  1  0.830900  0.956500  0.451100  1.0  0.0614
  H  H304  1  0.876200  0.801000  0.571200  1.0  0.0647
  H  H305  1  0.877700  0.003300  0.422100  1.0  0.0671
  H  H306  1  0.890900  0.972900  0.473500  1.0  0.08
  H  H307  1  0.933500  0.375100  0.884100  1.0  0.0689
  H  H308  1  0.929600  0.350800  0.979000  1.0  0.0687
  H  H309  1  0.990800  0.271000  0.069800  1.0  0.0741
  H  H310  1  0.939700  0.304100  0.056100  1.0  0.0761
  H  H311  1  0.923100  0.504900  0.999900  1.0  0.0761
  H  H312  1  0.928500  0.474700  0.054900  1.0  0.0715
  H  H313  1  0.062700  0.428500  0.013300  1.0  0.0747
  H  H314  1  0.982600  0.354800  0.115600  1.0  0.0737
  H  H315  1  0.018600  0.303200  0.103400  1.0  0.0628
  H  H316  1  0.886500  0.385900  0.075700  1.0  0.0726
  H  H317  1  0.906400  0.402400  0.099600  1.0  0.0634
  H  H318  1  0.724400  0.653400  0.848400  1.0  0.0588
  H  H319  1  0.924000  0.501200  0.846600  1.0  0.0782
  H  H320  1  0.956500  0.451100  0.830900  1.0  0.0605
  H  H321  1  0.801000  0.571200  0.876200  1.0  0.0694
  H  H322  1  0.003300  0.422100  0.877700  1.0  0.0658
  H  H323  1  0.972900  0.473500  0.890900  1.0  0.0782
  H  H324  1  0.884100  0.807300  0.933500  1.0  0.0712
  H  H325  1  0.979000  0.740600  0.929600  1.0  0.0631
  H  H326  1  0.069800  0.668400  0.990800  1.0  0.0746
  H  H327  1  0.056100  0.700100  0.939700  1.0  0.0777
  H  H328  1  0.999900  0.572100  0.923100  1.0  0.0753
  H  H329  1  0.054900  0.541900  0.928500  1.0  0.0689
  H  H330  1  0.013300  0.495500  0.062700  1.0  0.0725
  H  H331  1  0.115600  0.547000  0.982600  1.0  0.0761
  H  H332  1  0.103400  0.574800  0.018600  1.0  0.0668
  H  H333  1  0.075700  0.651900  0.886500  1.0  0.0698
  H  H334  1  0.099600  0.591600  0.906400  1.0  0.0618
  H  H335  1  0.848400  0.773800  0.724400  1.0  0.065
  H  H336  1  0.846600  0.728200  0.924000  1.0  0.0772
  H  H337  1  0.830900  0.761500  0.956500  1.0  0.0599
  H  H338  1  0.876200  0.751600  0.801000  1.0  0.0704
  H  H339  1  0.877700  0.696900  0.003300  1.0  0.0683
  H  H340  1  0.890900  0.662700  0.972900  1.0  0.0788
  H  H341  1  0.375100  0.933500  0.807300  1.0  0.0681
  H  H342  1  0.350800  0.929600  0.740600  1.0  0.0636
  H  H343  1  0.271000  0.990800  0.668400  1.0  0.0744
  H  H344  1  0.304100  0.939700  0.700100  1.0  0.0755
  H  H345  1  0.504900  0.923100  0.572100  1.0  0.0764
  H  H346  1  0.474700  0.928500  0.541900  1.0  0.0731
  H  H347  1  0.428500  0.062700  0.495500  1.0  0.0756
  H  H348  1  0.354800  0.982600  0.547000  1.0  0.0727
  H  H349  1  0.303200  0.018600  0.574800  1.0  0.0682
  H  H350  1  0.385900  0.886500  0.651900  1.0  0.072
  H  H351  1  0.402400  0.906400  0.591600  1.0  0.0598
  H  H352  1  0.653400  0.724400  0.773800  1.0  0.0654
  H  H353  1  0.501200  0.924000  0.728200  1.0  0.0718
  H  H354  1  0.451100  0.956500  0.761500  1.0  0.0617
  H  H355  1  0.571200  0.801000  0.751600  1.0  0.07
  H  H356  1  0.422100  0.003300  0.696900  1.0  0.0655
  H  H357  1  0.473500  0.972900  0.662700  1.0  0.0766
  H  H358  1  0.807300  0.884100  0.375100  1.0  0.0686
  H  H359  1  0.740600  0.979000  0.350800  1.0  0.0674
  H  H360  1  0.668400  0.069800  0.271000  1.0  0.0748
  H  H361  1  0.700100  0.056100  0.304100  1.0  0.0761
  H  H362  1  0.572100  0.999900  0.504900  1.0  0.0752
  H  H363  1  0.541900  0.054900  0.474700  1.0  0.0719
  H  H364  1  0.495500  0.013300  0.428500  1.0  0.0722
  H  H365  1  0.547000  0.115600  0.354800  1.0  0.0699
  H  H366  1  0.574800  0.103400  0.303200  1.0  0.068
  H  H367  1  0.651900  0.075700  0.385900  1.0  0.0703
  H  H368  1  0.591600  0.099600  0.402400  1.0  0.0591
  H  H369  1  0.773800  0.848400  0.653400  1.0  0.0682
  H  H370  1  0.728200  0.846600  0.501200  1.0  0.0769
  H  H371  1  0.761500  0.830900  0.451100  1.0  0.0601
  H  H372  1  0.751600  0.876200  0.571200  1.0  0.0695
  H  H373  1  0.696900  0.877700  0.422100  1.0  0.067
  H  H374  1  0.662700  0.890900  0.473500  1.0  0.0745
  H  H375  1  0.807300  0.933500  0.884100  1.0  0.0674
  H  H376  1  0.740600  0.929600  0.979000  1.0  0.0668
  H  H377  1  0.668400  0.990800  0.069800  1.0  0.0745
  H  H378  1  0.700100  0.939700  0.056100  1.0  0.0741
  H  H379  1  0.572100  0.923100  0.999900  1.0  0.0766
  H  H380  1  0.541900  0.928500  0.054900  1.0  0.0757
  H  H381  1  0.495500  0.062700  0.013300  1.0  0.0742
  H  H382  1  0.547000  0.982600  0.115600  1.0  0.072
  H  H383  1  0.574800  0.018600  0.103400  1.0  0.0676
  H  H384  1  0.651900  0.886500  0.075700  1.0  0.0725
  H  H385  1  0.591600  0.906400  0.099600  1.0  0.0618
  H  H386  1  0.773800  0.724400  0.848400  1.0  0.0669
  H  H387  1  0.728200  0.924000  0.846600  1.0  0.0766
  H  H388  1  0.761500  0.956500  0.830900  1.0  0.061
  H  H389  1  0.751600  0.801000  0.876200  1.0  0.0657
  H  H390  1  0.696900  0.003300  0.877700  1.0  0.0683
  H  H391  1  0.662700  0.972900  0.890900  1.0  0.0753
  H  H392  1  0.375100  0.884100  0.933500  1.0  0.0674
  H  H393  1  0.350800  0.979000  0.929600  1.0  0.0654
  H  H394  1  0.271000  0.069800  0.990800  1.0  0.0722
  H  H395  1  0.304100  0.056100  0.939700  1.0  0.0733
  H  H396  1  0.504900  0.999900  0.923100  1.0  0.0761
  H  H397  1  0.474700  0.054900  0.928500  1.0  0.0719
  H  H398  1  0.428500  0.013300  0.062700  1.0  0.0713
  H  H399  1  0.354800  0.115600  0.982600  1.0  0.0736
  H  H400  1  0.303200  0.103400  0.018600  1.0  0.0672
  H  H401  1  0.385900  0.075700  0.886500  1.0  0.07
  H  H402  1  0.402400  0.099600  0.906400  1.0  0.0592
  H  H403  1  0.653400  0.848400  0.724400  1.0  0.0686
  H  H404  1  0.501200  0.846600  0.924000  1.0  0.0755
  H  H405  1  0.451100  0.830900  0.956500  1.0  0.0613
  H  H406  1  0.571200  0.876200  0.801000  1.0  0.0677
  H  H407  1  0.422100  0.877700  0.003300  1.0  0.0676
  H  H408  1  0.473500  0.890900  0.972900  1.0  0.0811
  H  H409  1  0.884100  0.375100  0.807300  1.0  0.0658
  H  H410  1  0.979000  0.350800  0.740600  1.0  0.0678
  H  H411  1  0.069800  0.271000  0.668400  1.0  0.0734
  H  H412  1  0.056100  0.304100  0.700100  1.0  0.0757
  H  H413  1  0.999900  0.504900  0.572100  1.0  0.0749
  H  H414  1  0.054900  0.474700  0.541900  1.0  0.0725
  H  H415  1  0.013300  0.428500  0.495500  1.0  0.0738
  H  H416  1  0.115600  0.354800  0.547000  1.0  0.0751
  H  H417  1  0.103400  0.303200  0.574800  1.0  0.0673
  H  H418  1  0.075700  0.385900  0.651900  1.0  0.0689
  H  H419  1  0.099600  0.402400  0.591600  1.0  0.0634
  H  H420  1  0.848400  0.653400  0.773800  1.0  0.0667
  H  H421  1  0.846600  0.501200  0.728200  1.0  0.0771
  H  H422  1  0.830900  0.451100  0.761500  1.0  0.0518
  H  H423  1  0.876200  0.571200  0.751600  1.0  0.0656
  H  H424  1  0.877700  0.422100  0.696900  1.0  0.067
  H  H425  1  0.890900  0.473500  0.662700  1.0  0.0797
  H  H426  1  0.933500  0.807300  0.375100  1.0  0.0714
  H  H427  1  0.929600  0.740600  0.350800  1.0  0.0669
  H  H428  1  0.990800  0.668400  0.271000  1.0  0.0702
  H  H429  1  0.939700  0.700100  0.304100  1.0  0.0762
  H  H430  1  0.923100  0.572100  0.504900  1.0  0.0769
  H  H431  1  0.928500  0.541900  0.474700  1.0  0.0722
  H  H432  1  0.062700  0.495500  0.428500  1.0  0.0688
  H  H433  1  0.982600  0.547000  0.354800  1.0  0.0745
  H  H434  1  0.018600  0.574800  0.303200  1.0  0.0626
  H  H435  1  0.886500  0.651900  0.385900  1.0  0.0714
  H  H436  1  0.906400  0.591600  0.402400  1.0  0.0647
  H  H437  1  0.724400  0.773800  0.653400  1.0  0.0575
  H  H438  1  0.924000  0.728200  0.501200  1.0  0.0795
  H  H439  1  0.956500  0.761500  0.451100  1.0  0.0587
  H  H440  1  0.801000  0.751600  0.571200  1.0  0.0708
  H  H441  1  0.003300  0.696900  0.422100  1.0  0.0645
  H  H442  1  0.972900  0.662700  0.473500  1.0  0.079
  H  H443  1  0.375100  0.807300  0.933500  1.0  0.0724
  H  H444  1  0.350800  0.740600  0.929600  1.0  0.0663
  H  H445  1  0.271000  0.668400  0.990800  1.0  0.076
  H  H446  1  0.304100  0.700100  0.939700  1.0  0.0779
  H  H447  1  0.504900  0.572100  0.923100  1.0  0.077
  H  H448  1  0.474700  0.541900  0.928500  1.0  0.0729
  H  H449  1  0.428500  0.495500  0.062700  1.0  0.0741
  H  H450  1  0.354800  0.547000  0.982600  1.0  0.0802
  H  H451  1  0.303200  0.574800  0.018600  1.0  0.0657
  H  H452  1  0.385900  0.651900  0.886500  1.0  0.0724
  H  H453  1  0.402400  0.591600  0.906400  1.0  0.0674
  H  H454  1  0.653400  0.773800  0.724400  1.0  0.0666
  H  H455  1  0.501200  0.728200  0.924000  1.0  0.0718
  H  H456  1  0.451100  0.761500  0.956500  1.0  0.061
  H  H457  1  0.571200  0.751600  0.801000  1.0  0.0691
  H  H458  1  0.422100  0.696900  0.003300  1.0  0.0638
  H  H459  1  0.473500  0.662700  0.972900  1.0  0.0769
  H  H460  1  0.807300  0.375100  0.884100  1.0  0.0733
  H  H461  1  0.740600  0.350800  0.979000  1.0  0.0693
  H  H462  1  0.668400  0.271000  0.069800  1.0  0.0769
  H  H463  1  0.700100  0.304100  0.056100  1.0  0.0715
  H  H464  1  0.572100  0.504900  0.999900  1.0  0.0717
  H  H465  1  0.541900  0.474700  0.054900  1.0  0.0727
  H  H466  1  0.495500  0.428500  0.013300  1.0  0.0753
  H  H467  1  0.547000  0.354800  0.115600  1.0  0.0763
  H  H468  1  0.574800  0.303200  0.103400  1.0  0.0654
  H  H469  1  0.651900  0.385900  0.075700  1.0  0.0688
  H  H470  1  0.591600  0.402400  0.099600  1.0  0.0671
  H  H471  1  0.773800  0.653400  0.848400  1.0  0.0663
  H  H472  1  0.728200  0.501200  0.846600  1.0  0.0743
  H  H473  1  0.761500  0.451100  0.830900  1.0  0.0593
  H  H474  1  0.751600  0.571200  0.876200  1.0  0.0589
  H  H475  1  0.696900  0.422100  0.877700  1.0  0.0628
  H  H476  1  0.662700  0.473500  0.890900  1.0  0.0767
  H  H477  1  0.933500  0.884100  0.375100  1.0  0.0712
  H  H478  1  0.929600  0.979000  0.350800  1.0  0.0659
  H  H479  1  0.990800  0.069800  0.271000  1.0  0.0738
  H  H480  1  0.939700  0.056100  0.304100  1.0  0.0745
  H  H481  1  0.923100  0.999900  0.504900  1.0  0.0737
  H  H482  1  0.928500  0.054900  0.474700  1.0  0.072
  H  H483  1  0.062700  0.013300  0.428500  1.0  0.0672
  H  H484  1  0.982600  0.115600  0.354800  1.0  0.076
  H  H485  1  0.018600  0.103400  0.303200  1.0  0.0634
  H  H486  1  0.886500  0.075700  0.385900  1.0  0.0709
  H  H487  1  0.906400  0.099600  0.402400  1.0  0.0695
  H  H488  1  0.724400  0.848400  0.653400  1.0  0.063
  H  H489  1  0.924000  0.846600  0.501200  1.0  0.0752
  H  H490  1  0.956500  0.830900  0.451100  1.0  0.0613
  H  H491  1  0.801000  0.876200  0.571200  1.0  0.067
  H  H492  1  0.003300  0.877700  0.422100  1.0  0.0646
  H  H493  1  0.972900  0.890900  0.473500  1.0  0.0773
  H  H494  1  0.884100  0.933500  0.807300  1.0  0.0731
  H  H495  1  0.979000  0.929600  0.740600  1.0  0.0646
  H  H496  1  0.069800  0.990800  0.668400  1.0  0.0773
  H  H497  1  0.056100  0.939700  0.700100  1.0  0.072
  H  H498  1  0.999900  0.923100  0.572100  1.0  0.0761
  H  H499  1  0.054900  0.928500  0.541900  1.0  0.0733
  H  H500  1  0.013300  0.062700  0.495500  1.0  0.0745
  H  H501  1  0.115600  0.982600  0.547000  1.0  0.0774
  H  H502  1  0.103400  0.018600  0.574800  1.0  0.0668
  H  H503  1  0.075700  0.886500  0.651900  1.0  0.0713
  H  H504  1  0.099600  0.906400  0.591600  1.0  0.0671
  H  H505  1  0.848400  0.724400  0.773800  1.0  0.0662
  H  H506  1  0.846600  0.924000  0.728200  1.0  0.072
  H  H507  1  0.830900  0.956500  0.761500  1.0  0.061
  H  H508  1  0.876200  0.801000  0.751600  1.0  0.0623
  H  H509  1  0.877700  0.003300  0.696900  1.0  0.0665
  H  H510  1  0.890900  0.972900  0.662700  1.0  0.0777
  H  H511  1  0.933500  0.375100  0.807300  1.0  0.0699
  H  H512  1  0.929600  0.350800  0.740600  1.0  0.0677
  H  H513  1  0.990800  0.271000  0.668400  1.0  0.0766
  H  H514  1  0.939700  0.304100  0.700100  1.0  0.0765
  H  H515  1  0.923100  0.504900  0.572100  1.0  0.0754
  H  H516  1  0.928500  0.474700  0.541900  1.0  0.0708
  H  H517  1  0.062700  0.428500  0.495500  1.0  0.0751
  H  H518  1  0.982600  0.354800  0.547000  1.0  0.0779
  H  H519  1  0.018600  0.303200  0.574800  1.0  0.0639
  H  H520  1  0.886500  0.385900  0.651900  1.0  0.0719
  H  H521  1  0.906400  0.402400  0.591600  1.0  0.0677
  H  H522  1  0.724400  0.653400  0.773800  1.0  0.0622
  H  H523  1  0.924000  0.501200  0.728200  1.0  0.0749
  H  H524  1  0.956500  0.451100  0.761500  1.0  0.0611
  H  H525  1  0.801000  0.571200  0.751600  1.0  0.0702
  H  H526  1  0.003300  0.422100  0.696900  1.0  0.0647
  H  H527  1  0.972900  0.473500  0.662700  1.0  0.0763
  H  H528  1  0.884100  0.807300  0.375100  1.0  0.0692
  H  H529  1  0.979000  0.740600  0.350800  1.0  0.0641
  H  H530  1  0.069800  0.668400  0.271000  1.0  0.0783
  H  H531  1  0.056100  0.700100  0.304100  1.0  0.0778
  H  H532  1  0.999900  0.572100  0.504900  1.0  0.0762
  H  H533  1  0.054900  0.541900  0.474700  1.0  0.0665
  H  H534  1  0.013300  0.495500  0.428500  1.0  0.0734
  H  H535  1  0.115600  0.547000  0.354800  1.0  0.0784
  H  H536  1  0.103400  0.574800  0.303200  1.0  0.0682
  H  H537  1  0.075700  0.651900  0.385900  1.0  0.0696
  H  H538  1  0.099600  0.591600  0.402400  1.0  0.0689
  H  H539  1  0.848400  0.773800  0.653400  1.0  0.0671
  H  H540  1  0.846600  0.728200  0.501200  1.0  0.0736
  H  H541  1  0.830900  0.761500  0.451100  1.0  0.0594
  H  H542  1  0.876200  0.751600  0.571200  1.0  0.0686
  H  H543  1  0.877700  0.696900  0.422100  1.0  0.0671
  H  H544  1  0.890900  0.662700  0.473500  1.0  0.0773
  H  H545  1  0.375100  0.933500  0.884100  1.0  0.0683
  H  H546  1  0.350800  0.929600  0.979000  1.0  0.0637
  H  H547  1  0.271000  0.990800  0.069800  1.0  0.0772
  H  H548  1  0.304100  0.939700  0.056100  1.0  0.0741
  H  H549  1  0.504900  0.923100  0.999900  1.0  0.0768
  H  H550  1  0.474700  0.928500  0.054900  1.0  0.0743
  H  H551  1  0.428500  0.062700  0.013300  1.0  0.0746
  H  H552  1  0.354800  0.982600  0.115600  1.0  0.0749
  H  H553  1  0.303200  0.018600  0.103400  1.0  0.0679
  H  H554  1  0.385900  0.886500  0.075700  1.0  0.0714
  H  H555  1  0.402400  0.906400  0.099600  1.0  0.0642
  H  H556  1  0.653400  0.724400  0.848400  1.0  0.0682
  H  H557  1  0.501200  0.924000  0.846600  1.0  0.0682
  H  H558  1  0.451100  0.956500  0.830900  1.0  0.0615
  H  H559  1  0.571200  0.801000  0.876200  1.0  0.0678
  H  H560  1  0.422100  0.003300  0.877700  1.0  0.0664
  H  H561  1  0.473500  0.972900  0.890900  1.0  0.0742
  H  H562  1  0.807300  0.884100  0.933500  1.0  0.0719
  H  H563  1  0.740600  0.979000  0.929600  1.0  0.0655
  H  H564  1  0.668400  0.069800  0.990800  1.0  0.0755
  H  H565  1  0.700100  0.056100  0.939700  1.0  0.0756
  H  H566  1  0.572100  0.999900  0.923100  1.0  0.0738
  H  H567  1  0.541900  0.054900  0.928500  1.0  0.0731
  H  H568  1  0.495500  0.013300  0.062700  1.0  0.0725
  H  H569  1  0.547000  0.115600  0.982600  1.0  0.072
  H  H570  1  0.574800  0.103400  0.018600  1.0  0.0672
  H  H571  1  0.651900  0.075700  0.886500  1.0  0.0692
  H  H572  1  0.591600  0.099600  0.906400  1.0  0.062
  H  H573  1  0.773800  0.848400  0.724400  1.0  0.0692
  H  H574  1  0.728200  0.846600  0.924000  1.0  0.0734
  H  H575  1  0.761500  0.830900  0.956500  1.0  0.0619
  H  H576  1  0.751600  0.876200  0.801000  1.0  0.0706
  H  H577  1  0.696900  0.877700  0.003300  1.0  0.0679
  H  H578  1  0.662700  0.890900  0.972900  1.0  0.0742
  H  H579  1  0.807300  0.933500  0.375100  1.0  0.0705
  H  H580  1  0.740600  0.929600  0.350800  1.0  0.0661
  H  H581  1  0.668400  0.990800  0.271000  1.0  0.0778
  H  H582  1  0.700100  0.939700  0.304100  1.0  0.0739
  H  H583  1  0.572100  0.923100  0.504900  1.0  0.0779
  H  H584  1  0.541900  0.928500  0.474700  1.0  0.0743
  H  H585  1  0.495500  0.062700  0.428500  1.0  0.0746
  H  H586  1  0.547000  0.982600  0.354800  1.0  0.0734
  H  H587  1  0.574800  0.018600  0.303200  1.0  0.0681
  H  H588  1  0.651900  0.886500  0.385900  1.0  0.0736
  H  H589  1  0.591600  0.906400  0.402400  1.0  0.0649
  H  H590  1  0.773800  0.724400  0.653400  1.0  0.0647
  H  H591  1  0.728200  0.924000  0.501200  1.0  0.0742
  H  H592  1  0.761500  0.956500  0.451100  1.0  0.0604
  H  H593  1  0.751600  0.801000  0.571200  1.0  0.0693
  H  H594  1  0.696900  0.003300  0.422100  1.0  0.0648
  H  H595  1  0.662700  0.972900  0.473500  1.0  0.0737
  H  H596  1  0.375100  0.884100  0.807300  1.0  0.0678
  H  H597  1  0.350800  0.979000  0.740600  1.0  0.0639
  H  H598  1  0.271000  0.069800  0.668400  1.0  0.0742
  H  H599  1  0.304100  0.056100  0.700100  1.0  0.0755
  H  H600  1  0.504900  0.999900  0.572100  1.0  0.0759
  H  H601  1  0.474700  0.054900  0.541900  1.0  0.0722
  H  H602  1  0.428500  0.013300  0.495500  1.0  0.0715
  H  H603  1  0.354800  0.115600  0.547000  1.0  0.0766
  H  H604  1  0.303200  0.103400  0.574800  1.0  0.0676
  H  H605  1  0.385900  0.075700  0.651900  1.0  0.0706
  H  H606  1  0.402400  0.099600  0.591600  1.0  0.0621
  H  H607  1  0.653400  0.848400  0.773800  1.0  0.0686
  H  H608  1  0.501200  0.846600  0.728200  1.0  0.0703
  H  H609  1  0.451100  0.830900  0.761500  1.0  0.0607
  H  H610  1  0.571200  0.876200  0.751600  1.0  0.0677
  H  H611  1  0.422100  0.877700  0.696900  1.0  0.0661
  H  H612  1  0.473500  0.890900  0.662700  1.0  0.078
  H  H613  1  0.884100  0.375100  0.933500  1.0  0.0657
  H  H614  1  0.979000  0.350800  0.929600  1.0  0.0668
  H  H615  1  0.069800  0.271000  0.990800  1.0  0.0759
  H  H616  1  0.056100  0.304100  0.939700  1.0  0.0755
  H  H617  1  0.999900  0.504900  0.923100  1.0  0.075
  H  H618  1  0.054900  0.474700  0.928500  1.0  0.0722
  H  H619  1  0.013300  0.428500  0.062700  1.0  0.075
  H  H620  1  0.115600  0.354800  0.982600  1.0  0.0767
  H  H621  1  0.103400  0.303200  0.018600  1.0  0.0671
  H  H622  1  0.075700  0.385900  0.886500  1.0  0.0697
  H  H623  1  0.099600  0.402400  0.906400  1.0  0.0673
  H  H624  1  0.848400  0.653400  0.724400  1.0  0.0665
  H  H625  1  0.846600  0.501200  0.924000  1.0  0.0753
  H  H626  1  0.830900  0.451100  0.956500  1.0  0.053
  H  H627  1  0.876200  0.571200  0.801000  1.0  0.0661
  H  H628  1  0.877700  0.422100  0.003300  1.0  0.0668
  H  H629  1  0.890900  0.473500  0.972900  1.0  0.0783
  H  H630  1  0.933500  0.807300  0.884100  1.0  0.0686
  H  H631  1  0.929600  0.740600  0.979000  1.0  0.0659
  H  H632  1  0.990800  0.668400  0.069800  1.0  0.0705
  H  H633  1  0.939700  0.700100  0.056100  1.0  0.0769
  H  H634  1  0.923100  0.572100  0.999900  1.0  0.077
  H  H635  1  0.928500  0.541900  0.054900  1.0  0.0738
  H  H636  1  0.062700  0.495500  0.013300  1.0  0.0674
  H  H637  1  0.982600  0.547000  0.115600  1.0  0.0774
  H  H638  1  0.018600  0.574800  0.103400  1.0  0.0615
  H  H639  1  0.886500  0.651900  0.075700  1.0  0.0723
  H  H640  1  0.906400  0.591600  0.099600  1.0  0.0668
  H  H641  1  0.724400  0.773800  0.848400  1.0  0.0561
  H  H642  1  0.924000  0.728200  0.846600  1.0  0.0729
  H  H643  1  0.956500  0.761500  0.830900  1.0  0.0597
  H  H644  1  0.801000  0.751600  0.876200  1.0  0.0703
  H  H645  1  0.003300  0.696900  0.877700  1.0  0.0663
  H  H646  1  0.972900  0.662700  0.890900  1.0  0.0757
  H  H647  1  0.874900  0.442700  0.365900  1.0  0.0747
  H  H648  1  0.899200  0.509400  0.271000  1.0  0.0671
  H  H649  1  0.979000  0.581600  0.180200  1.0  0.075
  H  H650  1  0.945900  0.549900  0.193900  1.0  0.0778
  H  H651  1  0.745100  0.677900  0.250100  1.0  0.0753
  H  H652  1  0.775300  0.708100  0.195100  1.0  0.0726
  H  H653  1  0.821500  0.754500  0.236700  1.0  0.0754
  H  H654  1  0.895200  0.703000  0.134400  1.0  0.079
  H  H655  1  0.946800  0.675200  0.146600  1.0  0.0673
  H  H656  1  0.864100  0.598100  0.174300  1.0  0.0724
  H  H657  1  0.847600  0.658400  0.150400  1.0  0.0636
  H  H658  1  0.596600  0.476200  0.401600  1.0  0.0679
  H  H659  1  0.748800  0.521800  0.403400  1.0  0.0722
  H  H660  1  0.798900  0.488500  0.419100  1.0  0.0614
  H  H661  1  0.678800  0.498400  0.373800  1.0  0.0699
  H  H662  1  0.827900  0.553100  0.372300  1.0  0.0646
  H  H663  1  0.776500  0.587300  0.359100  1.0  0.077
  H  H664  1  0.442700  0.874900  0.316500  1.0  0.074
  H  H665  1  0.509400  0.899200  0.320400  1.0  0.0675
  H  H666  1  0.581600  0.979000  0.259200  1.0  0.0759
  H  H667  1  0.549900  0.945900  0.310300  1.0  0.0701
  H  H668  1  0.677900  0.745100  0.326900  1.0  0.0725
  H  H669  1  0.708100  0.775300  0.321500  1.0  0.0732
  H  H670  1  0.754500  0.821500  0.187300  1.0  0.077
  H  H671  1  0.703000  0.895200  0.267400  1.0  0.0752
  H  H672  1  0.675200  0.946800  0.231400  1.0  0.0678
  H  H673  1  0.598100  0.864100  0.363500  1.0  0.0738
  H  H674  1  0.658400  0.847600  0.343600  1.0  0.0658
  H  H675  1  0.476200  0.596600  0.525600  1.0  0.0668
  H  H676  1  0.521800  0.748800  0.326000  1.0  0.0734
  H  H677  1  0.488500  0.798900  0.293500  1.0  0.0603
  H  H678  1  0.498400  0.678800  0.449000  1.0  0.0646
  H  H679  1  0.553100  0.827900  0.246700  1.0  0.063
  H  H680  1  0.587300  0.776500  0.277100  1.0  0.077
  H  H681  1  0.316500  0.365900  0.442700  1.0  0.0709
  H  H682  1  0.320400  0.271000  0.509400  1.0  0.0661
  H  H683  1  0.259200  0.180200  0.581600  1.0  0.0713
  H  H684  1  0.310300  0.193900  0.549900  1.0  0.0752
  H  H685  1  0.326900  0.250100  0.677900  1.0  0.0746
  H  H686  1  0.321500  0.195100  0.708100  1.0  0.0736
  H  H687  1  0.187300  0.236700  0.754500  1.0  0.0674
  H  H688  1  0.267400  0.134400  0.703000  1.0  0.0732
  H  H689  1  0.231400  0.146600  0.675200  1.0  0.0614
  H  H690  1  0.363500  0.174300  0.598100  1.0  0.0713
  H  H691  1  0.343600  0.150400  0.658400  1.0  0.0654
  H  H692  1  0.525600  0.401600  0.476200  1.0  0.0652
  H  H693  1  0.326000  0.403400  0.521800  1.0  0.0742
  H  H694  1  0.293500  0.419100  0.488500  1.0  0.0601
  H  H695  1  0.449000  0.373800  0.498400  1.0  0.07
  H  H696  1  0.246700  0.372300  0.553100  1.0  0.0644
  H  H697  1  0.277100  0.359100  0.587300  1.0  0.0774
  H  H698  1  0.365900  0.316500  0.874900  1.0  0.0736
  H  H699  1  0.271000  0.320400  0.899200  1.0  0.0624
  H  H700  1  0.180200  0.259200  0.979000  1.0  0.0741
  H  H701  1  0.193900  0.310300  0.945900  1.0  0.0745
  H  H702  1  0.250100  0.326900  0.745100  1.0  0.077
  H  H703  1  0.195100  0.321500  0.775300  1.0  0.0727
  H  H704  1  0.236700  0.187300  0.821500  1.0  0.072
  H  H705  1  0.134400  0.267400  0.895200  1.0  0.0723
  H  H706  1  0.146600  0.231400  0.946800  1.0  0.064
  H  H707  1  0.174300  0.363500  0.864100  1.0  0.0703
  H  H708  1  0.150400  0.343600  0.847600  1.0  0.0629
  H  H709  1  0.401600  0.525600  0.596600  1.0  0.0683
  H  H710  1  0.403400  0.326000  0.748800  1.0  0.0733
  H  H711  1  0.419100  0.293500  0.798900  1.0  0.0606
  H  H712  1  0.373800  0.449000  0.678800  1.0  0.0646
  H  H713  1  0.372300  0.246700  0.827900  1.0  0.0676
  H  H714  1  0.359100  0.277100  0.776500  1.0  0.0764
  H  H715  1  0.316500  0.874900  0.365900  1.0  0.0722
  H  H716  1  0.320400  0.899200  0.271000  1.0  0.0672
  H  H717  1  0.259200  0.979000  0.180200  1.0  0.0746
  H  H718  1  0.310300  0.945900  0.193900  1.0  0.077
  H  H719  1  0.326900  0.745100  0.250100  1.0  0.0756
  H  H720  1  0.321500  0.775300  0.195100  1.0  0.0724
  H  H721  1  0.187300  0.821500  0.236700  1.0  0.0742
  H  H722  1  0.267400  0.895200  0.134400  1.0  0.0723
  H  H723  1  0.231400  0.946800  0.146600  1.0  0.0604
  H  H724  1  0.363500  0.864100  0.174300  1.0  0.0712
  H  H725  1  0.343600  0.847600  0.150400  1.0  0.0646
  H  H726  1  0.525600  0.596600  0.401600  1.0  0.0645
  H  H727  1  0.326000  0.748800  0.403400  1.0  0.0716
  H  H728  1  0.293500  0.798900  0.419100  1.0  0.0604
  H  H729  1  0.449000  0.678800  0.373800  1.0  0.0706
  H  H730  1  0.246700  0.827900  0.372300  1.0  0.0646
  H  H731  1  0.277100  0.776500  0.359100  1.0  0.0765
  H  H732  1  0.365900  0.442700  0.316500  1.0  0.0708
  H  H733  1  0.271000  0.509400  0.320400  1.0  0.0619
  H  H734  1  0.180200  0.581600  0.259200  1.0  0.0743
  H  H735  1  0.193900  0.549900  0.310300  1.0  0.0781
  H  H736  1  0.250100  0.677900  0.326900  1.0  0.0778
  H  H737  1  0.195100  0.708100  0.321500  1.0  0.0675
  H  H738  1  0.236700  0.754500  0.187300  1.0  0.0737
  H  H739  1  0.134400  0.703000  0.267400  1.0  0.0765
  H  H740  1  0.146600  0.675200  0.231400  1.0  0.0691
  H  H741  1  0.174300  0.598100  0.363500  1.0  0.0703
  H  H742  1  0.150400  0.658400  0.343600  1.0  0.0626
  H  H743  1  0.401600  0.476200  0.525600  1.0  0.0677
  H  H744  1  0.403400  0.521800  0.326000  1.0  0.0732
  H  H745  1  0.419100  0.488500  0.293500  1.0  0.0593
  H  H746  1  0.373800  0.498400  0.449000  1.0  0.0711
  H  H747  1  0.372300  0.553100  0.246700  1.0  0.067
  H  H748  1  0.359100  0.587300  0.277100  1.0  0.0765
  H  H749  1  0.874900  0.316500  0.442700  1.0  0.0725
  H  H750  1  0.899200  0.320400  0.509400  1.0  0.0646
  H  H751  1  0.979000  0.259200  0.581600  1.0  0.0741
  H  H752  1  0.945900  0.310300  0.549900  1.0  0.0755
  H  H753  1  0.745100  0.326900  0.677900  1.0  0.0764
  H  H754  1  0.775300  0.321500  0.708100  1.0  0.0732
  H  H755  1  0.821500  0.187300  0.754500  1.0  0.0736
  H  H756  1  0.895200  0.267400  0.703000  1.0  0.0693
  H  H757  1  0.946800  0.231400  0.675200  1.0  0.0673
  H  H758  1  0.864100  0.363500  0.598100  1.0  0.0718
  H  H759  1  0.847600  0.343600  0.658400  1.0  0.0602
  H  H760  1  0.596600  0.525600  0.476200  1.0  0.068
  H  H761  1  0.748800  0.326000  0.521800  1.0  0.0692
  H  H762  1  0.798900  0.293500  0.488500  1.0  0.061
  H  H763  1  0.678800  0.449000  0.498400  1.0  0.0702
  H  H764  1  0.827900  0.246700  0.553100  1.0  0.0654
  H  H765  1  0.776500  0.277100  0.587300  1.0  0.0733
  H  H766  1  0.442700  0.365900  0.874900  1.0  0.0676
  H  H767  1  0.509400  0.271000  0.899200  1.0  0.0653
  H  H768  1  0.581600  0.180200  0.979000  1.0  0.0739
  H  H769  1  0.549900  0.193900  0.945900  1.0  0.0751
  H  H770  1  0.677900  0.250100  0.745100  1.0  0.0742
  H  H771  1  0.708100  0.195100  0.775300  1.0  0.0743
  H  H772  1  0.754500  0.236700  0.821500  1.0  0.0734
  H  H773  1  0.703000  0.134400  0.895200  1.0  0.0693
  H  H774  1  0.675200  0.146600  0.946800  1.0  0.0674
  H  H775  1  0.598100  0.174300  0.864100  1.0  0.0705
  H  H776  1  0.658400  0.150400  0.847600  1.0  0.0575
  H  H777  1  0.476200  0.401600  0.596600  1.0  0.0695
  H  H778  1  0.521800  0.403400  0.748800  1.0  0.074
  H  H779  1  0.488500  0.419100  0.798900  1.0  0.061
  H  H780  1  0.498400  0.373800  0.678800  1.0  0.0723
  H  H781  1  0.553100  0.372300  0.827900  1.0  0.0662
  H  H782  1  0.587300  0.359100  0.776500  1.0  0.0719
  H  H783  1  0.442700  0.316500  0.365900  1.0  0.068
  H  H784  1  0.509400  0.320400  0.271000  1.0  0.0675
  H  H785  1  0.581600  0.259200  0.180200  1.0  0.0705
  H  H786  1  0.549900  0.310300  0.193900  1.0  0.0733
  H  H787  1  0.677900  0.326900  0.250100  1.0  0.0774
  H  H788  1  0.708100  0.321500  0.195100  1.0  0.075
  H  H789  1  0.754500  0.187300  0.236700  1.0  0.0731
  H  H790  1  0.703000  0.267400  0.134400  1.0  0.072
  H  H791  1  0.675200  0.231400  0.146600  1.0  0.0654
  H  H792  1  0.598100  0.363500  0.174300  1.0  0.0711
  H  H793  1  0.658400  0.343600  0.150400  1.0  0.0609
  H  H794  1  0.476200  0.525600  0.401600  1.0  0.0649
  H  H795  1  0.521800  0.326000  0.403400  1.0  0.0748
  H  H796  1  0.488500  0.293500  0.419100  1.0  0.0603
  H  H797  1  0.498400  0.449000  0.373800  1.0  0.0686
  H  H798  1  0.553100  0.246700  0.372300  1.0  0.0673
  H  H799  1  0.587300  0.277100  0.359100  1.0  0.0751
  H  H800  1  0.874900  0.365900  0.316500  1.0  0.0691
  H  H801  1  0.899200  0.271000  0.320400  1.0  0.0679
  H  H802  1  0.979000  0.180200  0.259200  1.0  0.074
  H  H803  1  0.945900  0.193900  0.310300  1.0  0.0741
  H  H804  1  0.745100  0.250100  0.326900  1.0  0.0749
  H  H805  1  0.775300  0.195100  0.321500  1.0  0.0744
  H  H806  1  0.821500  0.236700  0.187300  1.0  0.0727
  H  H807  1  0.895200  0.134400  0.267400  1.0  0.0727
  H  H808  1  0.946800  0.146600  0.231400  1.0  0.0681
  H  H809  1  0.864100  0.174300  0.363500  1.0  0.0708
  H  H810  1  0.847600  0.150400  0.343600  1.0  0.0603
  H  H811  1  0.596600  0.401600  0.525600  1.0  0.0697
  H  H812  1  0.748800  0.403400  0.326000  1.0  0.071
  H  H813  1  0.798900  0.419100  0.293500  1.0  0.0616
  H  H814  1  0.678800  0.373800  0.449000  1.0  0.0711
  H  H815  1  0.827900  0.372300  0.246700  1.0  0.0665
  H  H816  1  0.776500  0.359100  0.277100  1.0  0.079
  H  H817  1  0.365900  0.874900  0.442700  1.0  0.0644
  H  H818  1  0.271000  0.899200  0.509400  1.0  0.0666
  H  H819  1  0.180200  0.979000  0.581600  1.0  0.0747
  H  H820  1  0.193900  0.945900  0.549900  1.0  0.0755
  H  H821  1  0.250100  0.745100  0.677900  1.0  0.0752
  H  H822  1  0.195100  0.775300  0.708100  1.0  0.0694
  H  H823  1  0.236700  0.821500  0.754500  1.0  0.0742
  H  H824  1  0.134400  0.895200  0.703000  1.0  0.0739
  H  H825  1  0.146600  0.946800  0.675200  1.0  0.0682
  H  H826  1  0.174300  0.864100  0.598100  1.0  0.0697
  H  H827  1  0.150400  0.847600  0.658400  1.0  0.0661
  H  H828  1  0.401600  0.596600  0.476200  1.0  0.0644
  H  H829  1  0.403400  0.748800  0.521800  1.0  0.0738
  H  H830  1  0.419100  0.798900  0.488500  1.0  0.0543
  H  H831  1  0.373800  0.678800  0.498400  1.0  0.0691
  H  H832  1  0.372300  0.827900  0.553100  1.0  0.0661
  H  H833  1  0.359100  0.776500  0.587300  1.0  0.0785
  H  H834  1  0.316500  0.442700  0.874900  1.0  0.0695
  H  H835  1  0.320400  0.509400  0.899200  1.0  0.0683
  H  H836  1  0.259200  0.581600  0.979000  1.0  0.0668
  H  H837  1  0.310300  0.549900  0.945900  1.0  0.0768
  H  H838  1  0.326900  0.677900  0.745100  1.0  0.0768
  H  H839  1  0.321500  0.708100  0.775300  1.0  0.0743
  H  H840  1  0.187300  0.754500  0.821500  1.0  0.0686
  H  H841  1  0.267400  0.703000  0.895200  1.0  0.0767
  H  H842  1  0.231400  0.675200  0.946800  1.0  0.0597
  H  H843  1  0.363500  0.598100  0.864100  1.0  0.0709
  H  H844  1  0.343600  0.658400  0.847600  1.0  0.0635
  H  H845  1  0.525600  0.476200  0.596600  1.0  0.0595
  H  H846  1  0.326000  0.521800  0.748800  1.0  0.0741
  H  H847  1  0.293500  0.488500  0.798900  1.0  0.0593
  H  H848  1  0.449000  0.498400  0.678800  1.0  0.0704
  H  H849  1  0.246700  0.553100  0.827900  1.0  0.0651
  H  H850  1  0.277100  0.587300  0.776500  1.0  0.0751
  C  C851  1  0.955670  0.580530  0.293910  1.0  -0.0668
  C  C852  1  0.755320  0.708380  0.306120  1.0  -0.0666
  C  C853  1  0.925710  0.672310  0.267090  1.0  -0.0897
  C  C854  1  0.877040  0.626760  0.344840  1.0  -0.062
  C  C855  1  0.786340  0.509560  0.314040  1.0  -0.0841
  C  C856  1  0.805770  0.555610  0.280790  1.0  -0.1025
  C  C857  1  0.580530  0.955670  0.169890  1.0  -0.0655
  C  C858  1  0.708380  0.755320  0.230180  1.0  -0.0666
  C  C859  1  0.672310  0.925710  0.134890  1.0  -0.0888
  C  C860  1  0.626760  0.877040  0.151360  1.0  -0.0597
  C  C861  1  0.509560  0.786340  0.390060  1.0  -0.0843
  C  C862  1  0.555610  0.805770  0.357830  1.0  -0.1024
  C  C863  1  0.293910  0.169890  0.955670  1.0  -0.0658
  C  C864  1  0.306120  0.230180  0.755320  1.0  -0.066
  C  C865  1  0.267090  0.134890  0.925710  1.0  -0.0893
  C  C866  1  0.344840  0.151360  0.877040  1.0  -0.0659
  C  C867  1  0.314040  0.390060  0.786340  1.0  -0.0875
  C  C868  1  0.280790  0.357830  0.805770  1.0  -0.1032
  C  C869  1  0.169890  0.293910  0.580530  1.0  -0.0673
  C  C870  1  0.230180  0.306120  0.708380  1.0  -0.0691
  C  C871  1  0.134890  0.267090  0.672310  1.0  -0.0871
  C  C872  1  0.151360  0.344840  0.626760  1.0  -0.0669
  C  C873  1  0.390060  0.314040  0.509560  1.0  -0.0858
  C  C874  1  0.357830  0.280790  0.555610  1.0  -0.104
  C  C875  1  0.293910  0.955670  0.580530  1.0  -0.0671
  C  C876  1  0.306120  0.755320  0.708380  1.0  -0.0605
  C  C877  1  0.267090  0.925710  0.672310  1.0  -0.0845
  C  C878  1  0.344840  0.877040  0.626760  1.0  -0.0628
  C  C879  1  0.314040  0.786340  0.509560  1.0  -0.0885
  C  C880  1  0.280790  0.805770  0.555610  1.0  -0.0986
  C  C881  1  0.169890  0.580530  0.955670  1.0  -0.0655
  C  C882  1  0.230180  0.708380  0.755320  1.0  -0.0668
  C  C883  1  0.134890  0.672310  0.925710  1.0  -0.0894
  C  C884  1  0.151360  0.626760  0.877040  1.0  -0.0642
  C  C885  1  0.390060  0.509560  0.786340  1.0  -0.0838
  C  C886  1  0.357830  0.555610  0.805770  1.0  -0.1073
  C  C887  1  0.955670  0.293910  0.169890  1.0  -0.0693
  C  C888  1  0.755320  0.306120  0.230180  1.0  -0.0656
  C  C889  1  0.925710  0.267090  0.134890  1.0  -0.0886
  C  C890  1  0.877040  0.344840  0.151360  1.0  -0.0634
  C  C891  1  0.786340  0.314040  0.390060  1.0  -0.0865
  C  C892  1  0.805770  0.280790  0.357830  1.0  -0.1011
  C  C893  1  0.580530  0.169890  0.293910  1.0  -0.0641
  C  C894  1  0.708380  0.230180  0.306120  1.0  -0.0651
  C  C895  1  0.672310  0.134890  0.267090  1.0  -0.0857
  C  C896  1  0.626760  0.151360  0.344840  1.0  -0.0642
  C  C897  1  0.509560  0.390060  0.314040  1.0  -0.0854
  C  C898  1  0.555610  0.357830  0.280790  1.0  -0.1048
  C  C899  1  0.580530  0.293910  0.955670  1.0  -0.0621
  C  C900  1  0.708380  0.306120  0.755320  1.0  -0.0681
  C  C901  1  0.672310  0.267090  0.925710  1.0  -0.0871
  C  C902  1  0.626760  0.344840  0.877040  1.0  -0.0665
  C  C903  1  0.509560  0.314040  0.786340  1.0  -0.0865
  C  C904  1  0.555610  0.280790  0.805770  1.0  -0.1035
  C  C905  1  0.955670  0.169890  0.580530  1.0  -0.068
  C  C906  1  0.755320  0.230180  0.708380  1.0  -0.066
  C  C907  1  0.925710  0.134890  0.672310  1.0  -0.0828
  C  C908  1  0.877040  0.151360  0.626760  1.0  -0.0619
  C  C909  1  0.786340  0.390060  0.509560  1.0  -0.0877
  C  C910  1  0.805770  0.357830  0.555610  1.0  -0.108
  C  C911  1  0.169890  0.955670  0.293910  1.0  -0.0612
  C  C912  1  0.230180  0.755320  0.306120  1.0  -0.064
  C  C913  1  0.134890  0.925710  0.267090  1.0  -0.0871
  C  C914  1  0.151360  0.877040  0.344840  1.0  -0.0624
  C  C915  1  0.390060  0.786340  0.314040  1.0  -0.0836
  C  C916  1  0.357830  0.805770  0.280790  1.0  -0.1087
  C  C917  1  0.293910  0.580530  0.169890  1.0  -0.0624
  C  C918  1  0.306120  0.708380  0.230180  1.0  -0.068
  C  C919  1  0.267090  0.672310  0.134890  1.0  -0.0878
  C  C920  1  0.344840  0.626760  0.151360  1.0  -0.0669
  C  C921  1  0.314040  0.509560  0.390060  1.0  -0.0829
  C  C922  1  0.280790  0.555610  0.357830  1.0  -0.1023
  C  C923  1  0.294330  0.669470  0.080110  1.0  -0.0671
  C  C924  1  0.494680  0.541620  0.019820  1.0  -0.0668
  C  C925  1  0.324290  0.577690  0.115110  1.0  -0.0887
  C  C926  1  0.372960  0.623240  0.098640  1.0  -0.0621
  C  C927  1  0.463660  0.740440  0.859940  1.0  -0.0852
  C  C928  1  0.444230  0.694390  0.892170  1.0  -0.103
  C  C929  1  0.669470  0.294330  0.956090  1.0  -0.0663
  C  C930  1  0.541620  0.494680  0.943880  1.0  -0.065
  C  C931  1  0.577690  0.324290  0.982910  1.0  -0.0896
  C  C932  1  0.623240  0.372960  0.905160  1.0  -0.0626
  C  C933  1  0.740440  0.463660  0.935960  1.0  -0.0859
  C  C934  1  0.694390  0.444230  0.969210  1.0  -0.1015
  C  C935  1  0.956090  0.080110  0.669470  1.0  -0.0652
  C  C936  1  0.943880  0.019820  0.541620  1.0  -0.0681
  C  C937  1  0.982910  0.115110  0.577690  1.0  -0.0887
  C  C938  1  0.905160  0.098640  0.623240  1.0  -0.0671
  C  C939  1  0.935960  0.859940  0.740440  1.0  -0.0856
  C  C940  1  0.969210  0.892170  0.694390  1.0  -0.1042
  C  C941  1  0.080110  0.956090  0.294330  1.0  -0.0657
  C  C942  1  0.019820  0.943880  0.494680  1.0  -0.0691
  C  C943  1  0.115110  0.982910  0.324290  1.0  -0.0878
  C  C944  1  0.098640  0.905160  0.372960  1.0  -0.067
  C  C945  1  0.859940  0.935960  0.463660  1.0  -0.0878
  C  C946  1  0.892170  0.969210  0.444230  1.0  -0.1043
  C  C947  1  0.956090  0.294330  0.080110  1.0  -0.0671
  C  C948  1  0.943880  0.494680  0.019820  1.0  -0.0624
  C  C949  1  0.982910  0.324290  0.115110  1.0  -0.0841
  C  C950  1  0.905160  0.372960  0.098640  1.0  -0.0635
  C  C951  1  0.935960  0.463660  0.859940  1.0  -0.0895
  C  C952  1  0.969210  0.444230  0.892170  1.0  -0.101
  C  C953  1  0.080110  0.669470  0.956090  1.0  -0.0671
  C  C954  1  0.019820  0.541620  0.943880  1.0  -0.0657
  C  C955  1  0.115110  0.577690  0.982910  1.0  -0.0896
  C  C956  1  0.098640  0.623240  0.905160  1.0  -0.0654
  C  C957  1  0.859940  0.740440  0.935960  1.0  -0.0855
  C  C958  1  0.892170  0.694390  0.969210  1.0  -0.1063
  C  C959  1  0.294330  0.956090  0.669470  1.0  -0.069
  C  C960  1  0.494680  0.943880  0.541620  1.0  -0.0654
  C  C961  1  0.324290  0.982910  0.577690  1.0  -0.0872
  C  C962  1  0.372960  0.905160  0.623240  1.0  -0.0656
  C  C963  1  0.463660  0.935960  0.740440  1.0  -0.0884
  C  C964  1  0.444230  0.969210  0.694390  1.0  -0.1017
  C  C965  1  0.669470  0.080110  0.294330  1.0  -0.0667
  C  C966  1  0.541620  0.019820  0.494680  1.0  -0.0662
  C  C967  1  0.577690  0.115110  0.324290  1.0  -0.085
  C  C968  1  0.623240  0.098640  0.372960  1.0  -0.0672
  C  C969  1  0.740440  0.859940  0.463660  1.0  -0.0849
  C  C970  1  0.694390  0.892170  0.444230  1.0  -0.1029
  C  C971  1  0.669470  0.956090  0.080110  1.0  -0.0635
  C  C972  1  0.541620  0.943880  0.019820  1.0  -0.0676
  C  C973  1  0.577690  0.982910  0.115110  1.0  -0.0878
  C  C974  1  0.623240  0.905160  0.098640  1.0  -0.0658
  C  C975  1  0.740440  0.935960  0.859940  1.0  -0.0876
  C  C976  1  0.694390  0.969210  0.892170  1.0  -0.1028
  C  C977  1  0.294330  0.080110  0.956090  1.0  -0.0689
  C  C978  1  0.494680  0.019820  0.943880  1.0  -0.0663
  C  C979  1  0.324290  0.115110  0.982910  1.0  -0.0857
  C  C980  1  0.372960  0.098640  0.905160  1.0  -0.0644
  C  C981  1  0.463660  0.859940  0.935960  1.0  -0.0847
  C  C982  1  0.444230  0.892170  0.969210  1.0  -0.1067
  C  C983  1  0.080110  0.294330  0.669470  1.0  -0.0636
  C  C984  1  0.019820  0.494680  0.541620  1.0  -0.0639
  C  C985  1  0.115110  0.324290  0.577690  1.0  -0.0882
  C  C986  1  0.098640  0.372960  0.623240  1.0  -0.0648
  C  C987  1  0.859940  0.463660  0.740440  1.0  -0.0814
  C  C988  1  0.892170  0.444230  0.694390  1.0  -0.1069
  C  C989  1  0.956090  0.669470  0.294330  1.0  -0.0653
  C  C990  1  0.943880  0.541620  0.494680  1.0  -0.0675
  C  C991  1  0.982910  0.577690  0.324290  1.0  -0.0895
  C  C992  1  0.905160  0.623240  0.372960  1.0  -0.0675
  C  C993  1  0.935960  0.740440  0.463660  1.0  -0.083
  C  C994  1  0.969210  0.694390  0.444230  1.0  -0.1024
  C  C995  1  0.294330  0.669470  0.956090  1.0  -0.0669
  C  C996  1  0.494680  0.541620  0.943880  1.0  -0.0659
  C  C997  1  0.324290  0.577690  0.982910  1.0  -0.0872
  C  C998  1  0.372960  0.623240  0.905160  1.0  -0.0611
  C  C999  1  0.463660  0.740440  0.935960  1.0  -0.084
  C  C1000  1  0.444230  0.694390  0.969210  1.0  -0.1019
  C  C1001  1  0.669470  0.294330  0.080110  1.0  -0.0663
  C  C1002  1  0.541620  0.494680  0.019820  1.0  -0.0659
  C  C1003  1  0.577690  0.324290  0.115110  1.0  -0.0898
  C  C1004  1  0.623240  0.372960  0.098640  1.0  -0.0629
  C  C1005  1  0.740440  0.463660  0.859940  1.0  -0.0859
  C  C1006  1  0.694390  0.444230  0.892170  1.0  -0.1007
  C  C1007  1  0.956090  0.080110  0.294330  1.0  -0.0672
  C  C1008  1  0.943880  0.019820  0.494680  1.0  -0.0676
  C  C1009  1  0.982910  0.115110  0.324290  1.0  -0.0872
  C  C1010  1  0.905160  0.098640  0.372960  1.0  -0.0673
  C  C1011  1  0.935960  0.859940  0.463660  1.0  -0.0856
  C  C1012  1  0.969210  0.892170  0.444230  1.0  -0.1035
  C  C1013  1  0.080110  0.956090  0.669470  1.0  -0.0658
  C  C1014  1  0.019820  0.943880  0.541620  1.0  -0.0689
  C  C1015  1  0.115110  0.982910  0.577690  1.0  -0.0885
  C  C1016  1  0.098640  0.905160  0.623240  1.0  -0.066
  C  C1017  1  0.859940  0.935960  0.740440  1.0  -0.0865
  C  C1018  1  0.892170  0.969210  0.694390  1.0  -0.1036
  C  C1019  1  0.956090  0.294330  0.669470  1.0  -0.066
  C  C1020  1  0.943880  0.494680  0.541620  1.0  -0.0622
  C  C1021  1  0.982910  0.324290  0.577690  1.0  -0.0857
  C  C1022  1  0.905160  0.372960  0.623240  1.0  -0.0623
  C  C1023  1  0.935960  0.463660  0.740440  1.0  -0.0903
  C  C1024  1  0.969210  0.444230  0.694390  1.0  -0.0987
  C  C1025  1  0.080110  0.669470  0.294330  1.0  -0.0654
  C  C1026  1  0.019820  0.541620  0.494680  1.0  -0.0663
  C  C1027  1  0.115110  0.577690  0.324290  1.0  -0.0887
  C  C1028  1  0.098640  0.623240  0.372960  1.0  -0.0662
  C  C1029  1  0.859940  0.740440  0.463660  1.0  -0.0847
  C  C1030  1  0.892170  0.694390  0.444230  1.0  -0.1071
  C  C1031  1  0.294330  0.956090  0.080110  1.0  -0.0698
  C  C1032  1  0.494680  0.943880  0.019820  1.0  -0.0647
  C  C1033  1  0.324290  0.982910  0.115110  1.0  -0.0858
  C  C1034  1  0.372960  0.905160  0.098640  1.0  -0.0649
  C  C1035  1  0.463660  0.935960  0.859940  1.0  -0.0869
  C  C1036  1  0.444230  0.969210  0.892170  1.0  -0.103
  C  C1037  1  0.669470  0.080110  0.956090  1.0  -0.0647
  C  C1038  1  0.541620  0.019820  0.943880  1.0  -0.0657
  C  C1039  1  0.577690  0.115110  0.982910  1.0  -0.0853
  C  C1040  1  0.623240  0.098640  0.905160  1.0  -0.0633
  C  C1041  1  0.740440  0.859940  0.935960  1.0  -0.0857
  C  C1042  1  0.694390  0.892170  0.969210  1.0  -0.1029
  C  C1043  1  0.669470  0.956090  0.294330  1.0  -0.0642
  C  C1044  1  0.541620  0.943880  0.494680  1.0  -0.0674
  C  C1045  1  0.577690  0.982910  0.324290  1.0  -0.0871
  C  C1046  1  0.623240  0.905160  0.372960  1.0  -0.067
  C  C1047  1  0.740440  0.935960  0.463660  1.0  -0.0859
  C  C1048  1  0.694390  0.969210  0.444230  1.0  -0.1031
  C  C1049  1  0.294330  0.080110  0.669470  1.0  -0.0667
  C  C1050  1  0.494680  0.019820  0.541620  1.0  -0.065
  C  C1051  1  0.324290  0.115110  0.577690  1.0  -0.0872
  C  C1052  1  0.372960  0.098640  0.623240  1.0  -0.0631
  C  C1053  1  0.463660  0.859940  0.740440  1.0  -0.0853
  C  C1054  1  0.444230  0.892170  0.694390  1.0  -0.1064
  C  C1055  1  0.080110  0.294330  0.956090  1.0  -0.0641
  C  C1056  1  0.019820  0.494680  0.943880  1.0  -0.065
  C  C1057  1  0.115110  0.324290  0.982910  1.0  -0.084
  C  C1058  1  0.098640  0.372960  0.905160  1.0  -0.0642
  C  C1059  1  0.859940  0.463660  0.935960  1.0  -0.0848
  C  C1060  1  0.892170  0.444230  0.969210  1.0  -0.1061
  C  C1061  1  0.956090  0.669470  0.080110  1.0  -0.064
  C  C1062  1  0.943880  0.541620  0.019820  1.0  -0.0687
  C  C1063  1  0.982910  0.577690  0.115110  1.0  -0.087
  C  C1064  1  0.905160  0.623240  0.098640  1.0  -0.0652
  C  C1065  1  0.935960  0.740440  0.859940  1.0  -0.0862
  C  C1066  1  0.969210  0.694390  0.892170  1.0  -0.1042
  C  C1067  1  0.955670  0.580530  0.169890  1.0  -0.0669
  C  C1068  1  0.755320  0.708380  0.230180  1.0  -0.0667
  C  C1069  1  0.925710  0.672310  0.134890  1.0  -0.0894
  C  C1070  1  0.877040  0.626760  0.151360  1.0  -0.062
  C  C1071  1  0.786340  0.509560  0.390060  1.0  -0.085
  C  C1072  1  0.805770  0.555610  0.357830  1.0  -0.1029
  C  C1073  1  0.580530  0.955670  0.293910  1.0  -0.0658
  C  C1074  1  0.708380  0.755320  0.306120  1.0  -0.0672
  C  C1075  1  0.672310  0.925710  0.267090  1.0  -0.0898
  C  C1076  1  0.626760  0.877040  0.344840  1.0  -0.0618
  C  C1077  1  0.509560  0.786340  0.314040  1.0  -0.086
  C  C1078  1  0.555610  0.805770  0.280790  1.0  -0.1034
  C  C1079  1  0.293910  0.169890  0.580530  1.0  -0.0654
  C  C1080  1  0.306120  0.230180  0.708380  1.0  -0.0664
  C  C1081  1  0.267090  0.134890  0.672310  1.0  -0.0894
  C  C1082  1  0.344840  0.151360  0.626760  1.0  -0.0661
  C  C1083  1  0.314040  0.390060  0.509560  1.0  -0.088
  C  C1084  1  0.280790  0.357830  0.555610  1.0  -0.1044
  C  C1085  1  0.169890  0.293910  0.955670  1.0  -0.0655
  C  C1086  1  0.230180  0.306120  0.755320  1.0  -0.0693
  C  C1087  1  0.134890  0.267090  0.925710  1.0  -0.0886
  C  C1088  1  0.151360  0.344840  0.877040  1.0  -0.0674
  C  C1089  1  0.390060  0.314040  0.786340  1.0  -0.0873
  C  C1090  1  0.357830  0.280790  0.805770  1.0  -0.1044
  C  C1091  1  0.293910  0.955670  0.169890  1.0  -0.0676
  C  C1092  1  0.306120  0.755320  0.230180  1.0  -0.0616
  C  C1093  1  0.267090  0.925710  0.134890  1.0  -0.087
  C  C1094  1  0.344840  0.877040  0.151360  1.0  -0.064
  C  C1095  1  0.314040  0.786340  0.390060  1.0  -0.0893
  C  C1096  1  0.280790  0.805770  0.357830  1.0  -0.0985
  C  C1097  1  0.169890  0.580530  0.293910  1.0  -0.0663
  C  C1098  1  0.230180  0.708380  0.306120  1.0  -0.0667
  C  C1099  1  0.134890  0.672310  0.267090  1.0  -0.0888
  C  C1100  1  0.151360  0.626760  0.344840  1.0  -0.0677
  C  C1101  1  0.390060  0.509560  0.314040  1.0  -0.0832
  C  C1102  1  0.357830  0.555610  0.280790  1.0  -0.1082
  C  C1103  1  0.955670  0.293910  0.580530  1.0  -0.0709
  C  C1104  1  0.755320  0.306120  0.708380  1.0  -0.065
  C  C1105  1  0.925710  0.267090  0.672310  1.0  -0.0867
  C  C1106  1  0.877040  0.344840  0.626760  1.0  -0.0638
  C  C1107  1  0.786340  0.314040  0.509560  1.0  -0.0858
  C  C1108  1  0.805770  0.280790  0.555610  1.0  -0.101
  C  C1109  1  0.580530  0.169890  0.955670  1.0  -0.0645
  C  C1110  1  0.708380  0.230180  0.755320  1.0  -0.0651
  C  C1111  1  0.672310  0.134890  0.925710  1.0  -0.0858
  C  C1112  1  0.626760  0.151360  0.877040  1.0  -0.0642
  C  C1113  1  0.509560  0.390060  0.786340  1.0  -0.086
  C  C1114  1  0.555610  0.357830  0.805770  1.0  -0.104
  C  C1115  1  0.580530  0.293910  0.169890  1.0  -0.0631
  C  C1116  1  0.708380  0.306120  0.230180  1.0  -0.0675
  C  C1117  1  0.672310  0.267090  0.134890  1.0  -0.0891
  C  C1118  1  0.626760  0.344840  0.151360  1.0  -0.0688
  C  C1119  1  0.509560  0.314040  0.390060  1.0  -0.0845
  C  C1120  1  0.555610  0.280790  0.357830  1.0  -0.1016
  C  C1121  1  0.955670  0.169890  0.293910  1.0  -0.067
  C  C1122  1  0.755320  0.230180  0.306120  1.0  -0.0662
  C  C1123  1  0.925710  0.134890  0.267090  1.0  -0.0877
  C  C1124  1  0.877040  0.151360  0.344840  1.0  -0.063
  C  C1125  1  0.786340  0.390060  0.314040  1.0  -0.084
  C  C1126  1  0.805770  0.357830  0.280790  1.0  -0.1075
  C  C1127  1  0.169890  0.955670  0.580530  1.0  -0.0632
  C  C1128  1  0.230180  0.755320  0.708380  1.0  -0.0637
  C  C1129  1  0.134890  0.925710  0.672310  1.0  -0.0856
  C  C1130  1  0.151360  0.877040  0.626760  1.0  -0.0643
  C  C1131  1  0.390060  0.786340  0.509560  1.0  -0.0848
  C  C1132  1  0.357830  0.805770  0.555610  1.0  -0.1071
  C  C1133  1  0.293910  0.580530  0.955670  1.0  -0.0629
  C  C1134  1  0.306120  0.708380  0.755320  1.0  -0.0682
  C  C1135  1  0.267090  0.672310  0.925710  1.0  -0.0887
  C  C1136  1  0.344840  0.626760  0.877040  1.0  -0.067
  C  C1137  1  0.314040  0.509560  0.786340  1.0  -0.0847
  C  C1138  1  0.280790  0.555610  0.805770  1.0  -0.1023
  C  C1139  1  0.861220  0.463380  0.337700  1.0  -0.0735
  C  C1140  1  0.878100  0.510260  0.305820  1.0  -0.0307
  C  C1141  1  0.800930  0.753930  0.222570  1.0  -0.0251
  C  C1142  1  0.463380  0.861220  0.337700  1.0  -0.0736
  C  C1143  1  0.510260  0.878100  0.305820  1.0  -0.0322
  C  C1144  1  0.753930  0.800930  0.222570  1.0  -0.027
  C  C1145  1  0.337700  0.337700  0.861220  1.0  -0.0754
  C  C1146  1  0.305820  0.305820  0.878100  1.0  -0.038
  C  C1147  1  0.222570  0.222570  0.800930  1.0  -0.0315
  C  C1148  1  0.337700  0.337700  0.463380  1.0  -0.0726
  C  C1149  1  0.305820  0.305820  0.510260  1.0  -0.0367
  C  C1150  1  0.222570  0.222570  0.753930  1.0  -0.0322
  C  C1151  1  0.337700  0.861220  0.463380  1.0  -0.0765
  C  C1152  1  0.305820  0.878100  0.510260  1.0  -0.0325
  C  C1153  1  0.222570  0.800930  0.753930  1.0  -0.0308
  C  C1154  1  0.337700  0.463380  0.861220  1.0  -0.0706
  C  C1155  1  0.305820  0.510260  0.878100  1.0  -0.0358
  C  C1156  1  0.222570  0.753930  0.800930  1.0  -0.0294
  C  C1157  1  0.861220  0.337700  0.337700  1.0  -0.0776
  C  C1158  1  0.878100  0.305820  0.305820  1.0  -0.0327
  C  C1159  1  0.800930  0.222570  0.222570  1.0  -0.0338
  C  C1160  1  0.463380  0.337700  0.337700  1.0  -0.0726
  C  C1161  1  0.510260  0.305820  0.305820  1.0  -0.0357
  C  C1162  1  0.753930  0.222570  0.222570  1.0  -0.0311
  C  C1163  1  0.463380  0.337700  0.861220  1.0  -0.071
  C  C1164  1  0.510260  0.305820  0.878100  1.0  -0.0382
  C  C1165  1  0.753930  0.222570  0.800930  1.0  -0.0304
  C  C1166  1  0.861220  0.337700  0.463380  1.0  -0.0776
  C  C1167  1  0.878100  0.305820  0.510260  1.0  -0.0339
  C  C1168  1  0.800930  0.222570  0.753930  1.0  -0.0301
  C  C1169  1  0.337700  0.861220  0.337700  1.0  -0.0772
  C  C1170  1  0.305820  0.878100  0.305820  1.0  -0.0321
  C  C1171  1  0.222570  0.800930  0.222570  1.0  -0.0293
  C  C1172  1  0.337700  0.463380  0.337700  1.0  -0.0732
  C  C1173  1  0.305820  0.510260  0.305820  1.0  -0.0338
  C  C1174  1  0.222570  0.753930  0.222570  1.0  -0.0258
  C  C1175  1  0.388780  0.786620  0.912300  1.0  -0.074
  C  C1176  1  0.371900  0.739740  0.944180  1.0  -0.0316
  C  C1177  1  0.449070  0.496070  0.027430  1.0  -0.0249
  C  C1178  1  0.786620  0.388780  0.912300  1.0  -0.0731
  C  C1179  1  0.739740  0.371900  0.944180  1.0  -0.0305
  C  C1180  1  0.496070  0.449070  0.027430  1.0  -0.029
  C  C1181  1  0.912300  0.912300  0.786620  1.0  -0.0739
  C  C1182  1  0.944180  0.944180  0.739740  1.0  -0.0383
  C  C1183  1  0.027430  0.027430  0.496070  1.0  -0.0303
  C  C1184  1  0.912300  0.912300  0.388780  1.0  -0.0726
  C  C1185  1  0.944180  0.944180  0.371900  1.0  -0.0377
  C  C1186  1  0.027430  0.027430  0.449070  1.0  -0.0312
  C  C1187  1  0.912300  0.388780  0.912300  1.0  -0.0752
  C  C1188  1  0.944180  0.371900  0.944180  1.0  -0.0318
  C  C1189  1  0.027430  0.449070  0.027430  1.0  -0.0307
  C  C1190  1  0.912300  0.786620  0.912300  1.0  -0.0725
  C  C1191  1  0.944180  0.739740  0.944180  1.0  -0.0366
  C  C1192  1  0.027430  0.496070  0.027430  1.0  -0.0306
  C  C1193  1  0.388780  0.912300  0.786620  1.0  -0.0755
  C  C1194  1  0.371900  0.944180  0.739740  1.0  -0.033
  C  C1195  1  0.449070  0.027430  0.496070  1.0  -0.0272
  C  C1196  1  0.786620  0.912300  0.388780  1.0  -0.0716
  C  C1197  1  0.739740  0.944180  0.371900  1.0  -0.0372
  C  C1198  1  0.496070  0.027430  0.449070  1.0  -0.0302
  C  C1199  1  0.786620  0.912300  0.912300  1.0  -0.0702
  C  C1200  1  0.739740  0.944180  0.944180  1.0  -0.0381
  C  C1201  1  0.496070  0.027430  0.027430  1.0  -0.0319
  C  C1202  1  0.388780  0.912300  0.912300  1.0  -0.0764
  C  C1203  1  0.371900  0.944180  0.944180  1.0  -0.0335
  C  C1204  1  0.449070  0.027430  0.027430  1.0  -0.0287
  C  C1205  1  0.912300  0.388780  0.786620  1.0  -0.0755
  C  C1206  1  0.944180  0.371900  0.739740  1.0  -0.0315
  C  C1207  1  0.027430  0.449070  0.496070  1.0  -0.0341
  C  C1208  1  0.912300  0.786620  0.388780  1.0  -0.0721
  C  C1209  1  0.944180  0.739740  0.371900  1.0  -0.0343
  C  C1210  1  0.027430  0.496070  0.449070  1.0  -0.0295
  C  C1211  1  0.609100  0.488200  0.488200  1.0  -0.0459
  C  C1212  1  0.488200  0.609100  0.414500  1.0  -0.0441
  C  C1213  1  0.488200  0.414500  0.609100  1.0  -0.0466
  C  C1214  1  0.414500  0.488200  0.488200  1.0  -0.0478
  C  C1215  1  0.488200  0.609100  0.488200  1.0  -0.0453
  C  C1216  1  0.414500  0.488200  0.609100  1.0  -0.0473
  C  C1217  1  0.609100  0.488200  0.414500  1.0  -0.0438
  C  C1218  1  0.488200  0.414500  0.488200  1.0  -0.0465
  C  C1219  1  0.488200  0.488200  0.609100  1.0  -0.0419
  C  C1220  1  0.609100  0.414500  0.488200  1.0  -0.0433
  C  C1221  1  0.414500  0.609100  0.488200  1.0  -0.0423
  C  C1222  1  0.488200  0.488200  0.414500  1.0  -0.0412
  C  C1223  1  0.640900  0.761800  0.835500  1.0  -0.0458
  C  C1224  1  0.761800  0.640900  0.761800  1.0  -0.0441
  C  C1225  1  0.761800  0.835500  0.761800  1.0  -0.0452
  C  C1226  1  0.835500  0.761800  0.640900  1.0  -0.0478
  C  C1227  1  0.761800  0.640900  0.835500  1.0  -0.0458
  C  C1228  1  0.835500  0.761800  0.761800  1.0  -0.0476
  C  C1229  1  0.640900  0.761800  0.761800  1.0  -0.0453
  C  C1230  1  0.761800  0.835500  0.640900  1.0  -0.0474
  C  C1231  1  0.761800  0.761800  0.835500  1.0  -0.043
  C  C1232  1  0.640900  0.835500  0.761800  1.0  -0.043
  C  C1233  1  0.835500  0.640900  0.761800  1.0  -0.0414
  C  C1234  1  0.761800  0.761800  0.640900  1.0  -0.0445
  C  C1235  1  0.666540  0.469100  0.469100  1.0  -0.0625
  C  C1236  1  0.469100  0.666540  0.395260  1.0  -0.0612
  C  C1237  1  0.469100  0.395260  0.666540  1.0  -0.056
  C  C1238  1  0.395260  0.469100  0.469100  1.0  -0.0572
  C  C1239  1  0.469100  0.666540  0.469100  1.0  -0.0622
  C  C1240  1  0.395260  0.469100  0.666540  1.0  -0.0595
  C  C1241  1  0.666540  0.469100  0.395260  1.0  -0.0591
  C  C1242  1  0.469100  0.395260  0.469100  1.0  -0.0537
  C  C1243  1  0.469100  0.469100  0.666540  1.0  -0.0603
  C  C1244  1  0.666540  0.395260  0.469100  1.0  -0.055
  C  C1245  1  0.395260  0.666540  0.469100  1.0  -0.0593
  C  C1246  1  0.469100  0.469100  0.395260  1.0  -0.0598
  C  C1247  1  0.583460  0.780900  0.854740  1.0  -0.0636
  C  C1248  1  0.780900  0.583460  0.780900  1.0  -0.0612
  C  C1249  1  0.780900  0.854740  0.780900  1.0  -0.0566
  C  C1250  1  0.854740  0.780900  0.583460  1.0  -0.054
  C  C1251  1  0.780900  0.583460  0.854740  1.0  -0.0633
  C  C1252  1  0.854740  0.780900  0.780900  1.0  -0.0559
  C  C1253  1  0.583460  0.780900  0.780900  1.0  -0.0625
  C  C1254  1  0.780900  0.854740  0.583460  1.0  -0.0554
  C  C1255  1  0.780900  0.780900  0.854740  1.0  -0.0616
  C  C1256  1  0.583460  0.854740  0.780900  1.0  -0.0565
  C  C1257  1  0.854740  0.583460  0.780900  1.0  -0.0583
  C  C1258  1  0.780900  0.780900  0.583460  1.0  -0.0596
  N  N1259  1  0.909920  0.626420  0.292240  1.0  -0.2742
  N  N1260  1  0.626420  0.909920  0.171420  1.0  -0.2738
  N  N1261  1  0.292240  0.171420  0.909920  1.0  -0.2761
  N  N1262  1  0.171420  0.292240  0.626420  1.0  -0.2742
  N  N1263  1  0.292240  0.909920  0.626420  1.0  -0.2765
  N  N1264  1  0.171420  0.626420  0.909920  1.0  -0.2698
  N  N1265  1  0.909920  0.292240  0.171420  1.0  -0.2761
  N  N1266  1  0.626420  0.171420  0.292240  1.0  -0.2746
  N  N1267  1  0.626420  0.292240  0.909920  1.0  -0.2752
  N  N1268  1  0.909920  0.171420  0.626420  1.0  -0.2768
  N  N1269  1  0.171420  0.909920  0.292240  1.0  -0.2739
  N  N1270  1  0.292240  0.626420  0.171420  1.0  -0.2763
  N  N1271  1  0.340080  0.623580  0.078580  1.0  -0.2739
  N  N1272  1  0.623580  0.340080  0.957760  1.0  -0.275
  N  N1273  1  0.957760  0.078580  0.623580  1.0  -0.2769
  N  N1274  1  0.078580  0.957760  0.340080  1.0  -0.2751
  N  N1275  1  0.957760  0.340080  0.078580  1.0  -0.2749
  N  N1276  1  0.078580  0.623580  0.957760  1.0  -0.2735
  N  N1277  1  0.340080  0.957760  0.623580  1.0  -0.2766
  N  N1278  1  0.623580  0.078580  0.340080  1.0  -0.2747
  N  N1279  1  0.623580  0.957760  0.078580  1.0  -0.2745
  N  N1280  1  0.340080  0.078580  0.957760  1.0  -0.2767
  N  N1281  1  0.078580  0.340080  0.623580  1.0  -0.2748
  N  N1282  1  0.957760  0.623580  0.340080  1.0  -0.2758
  N  N1283  1  0.340080  0.623580  0.957760  1.0  -0.2751
  N  N1284  1  0.623580  0.340080  0.078580  1.0  -0.2736
  N  N1285  1  0.957760  0.078580  0.340080  1.0  -0.2767
  N  N1286  1  0.078580  0.957760  0.623580  1.0  -0.2751
  N  N1287  1  0.957760  0.340080  0.623580  1.0  -0.2748
  N  N1288  1  0.078580  0.623580  0.340080  1.0  -0.2734
  N  N1289  1  0.340080  0.957760  0.078580  1.0  -0.2767
  N  N1290  1  0.623580  0.078580  0.957760  1.0  -0.2745
  N  N1291  1  0.623580  0.957760  0.340080  1.0  -0.2752
  N  N1292  1  0.340080  0.078580  0.623580  1.0  -0.2772
  N  N1293  1  0.078580  0.340080  0.957760  1.0  -0.2748
  N  N1294  1  0.957760  0.623580  0.078580  1.0  -0.2753
  N  N1295  1  0.909920  0.626420  0.171420  1.0  -0.2753
  N  N1296  1  0.626420  0.909920  0.292240  1.0  -0.2735
  N  N1297  1  0.292240  0.171420  0.626420  1.0  -0.2758
  N  N1298  1  0.171420  0.292240  0.909920  1.0  -0.2748
  N  N1299  1  0.292240  0.909920  0.171420  1.0  -0.2762
  N  N1300  1  0.171420  0.626420  0.292240  1.0  -0.2698
  N  N1301  1  0.909920  0.292240  0.626420  1.0  -0.277
  N  N1302  1  0.626420  0.171420  0.909920  1.0  -0.2748
  N  N1303  1  0.626420  0.292240  0.171420  1.0  -0.274
  N  N1304  1  0.909920  0.171420  0.292240  1.0  -0.2769
  N  N1305  1  0.171420  0.909920  0.626420  1.0  -0.2741
  N  N1306  1  0.292240  0.626420  0.909920  1.0  -0.2756
  N  N1307  1  0.788270  0.706550  0.252590  1.0  -0.2725
  N  N1308  1  0.834680  0.557720  0.303800  1.0  -0.2612
  N  N1309  1  0.804430  0.478590  0.358490  1.0  -0.2673
  N  N1310  1  0.706550  0.788270  0.252590  1.0  -0.2746
  N  N1311  1  0.557720  0.834680  0.303800  1.0  -0.2531
  N  N1312  1  0.478590  0.804430  0.358490  1.0  -0.2659
  N  N1313  1  0.252590  0.252590  0.788270  1.0  -0.2742
  N  N1314  1  0.303800  0.303800  0.834680  1.0  -0.2631
  N  N1315  1  0.358490  0.358490  0.804430  1.0  -0.2674
  N  N1316  1  0.252590  0.252590  0.706550  1.0  -0.2724
  N  N1317  1  0.303800  0.303800  0.557720  1.0  -0.2622
  N  N1318  1  0.358490  0.358490  0.478590  1.0  -0.2675
  N  N1319  1  0.252590  0.788270  0.706550  1.0  -0.2749
  N  N1320  1  0.303800  0.834680  0.557720  1.0  -0.2601
  N  N1321  1  0.358490  0.804430  0.478590  1.0  -0.2677
  N  N1322  1  0.252590  0.706550  0.788270  1.0  -0.2727
  N  N1323  1  0.303800  0.557720  0.834680  1.0  -0.2608
  N  N1324  1  0.358490  0.478590  0.804430  1.0  -0.2685
  N  N1325  1  0.788270  0.252590  0.252590  1.0  -0.2718
  N  N1326  1  0.834680  0.303800  0.303800  1.0  -0.2606
  N  N1327  1  0.804430  0.358490  0.358490  1.0  -0.2665
  N  N1328  1  0.706550  0.252590  0.252590  1.0  -0.2735
  N  N1329  1  0.557720  0.303800  0.303800  1.0  -0.2598
  N  N1330  1  0.478590  0.358490  0.358490  1.0  -0.2679
  N  N1331  1  0.706550  0.252590  0.788270  1.0  -0.2728
  N  N1332  1  0.557720  0.303800  0.834680  1.0  -0.2584
  N  N1333  1  0.478590  0.358490  0.804430  1.0  -0.2693
  N  N1334  1  0.788270  0.252590  0.706550  1.0  -0.2727
  N  N1335  1  0.834680  0.303800  0.557720  1.0  -0.2589
  N  N1336  1  0.804430  0.358490  0.478590  1.0  -0.2667
  N  N1337  1  0.252590  0.788270  0.252590  1.0  -0.2741
  N  N1338  1  0.303800  0.834680  0.303800  1.0  -0.261
  N  N1339  1  0.358490  0.804430  0.358490  1.0  -0.2667
  N  N1340  1  0.252590  0.706550  0.252590  1.0  -0.2743
  N  N1341  1  0.303800  0.557720  0.303800  1.0  -0.262
  N  N1342  1  0.358490  0.478590  0.358490  1.0  -0.2674
  N  N1343  1  0.461730  0.543450  0.997410  1.0  -0.2745
  N  N1344  1  0.415320  0.692280  0.946200  1.0  -0.2613
  N  N1345  1  0.445570  0.771410  0.891510  1.0  -0.268
  N  N1346  1  0.543450  0.461730  0.997410  1.0  -0.2725
  N  N1347  1  0.692280  0.415320  0.946200  1.0  -0.2615
  N  N1348  1  0.771410  0.445570  0.891510  1.0  -0.2648
  N  N1349  1  0.997410  0.997410  0.543450  1.0  -0.2746
  N  N1350  1  0.946200  0.946200  0.692280  1.0  -0.2616
  N  N1351  1  0.891510  0.891510  0.771410  1.0  -0.2679
  N  N1352  1  0.997410  0.997410  0.461730  1.0  -0.2728
  N  N1353  1  0.946200  0.946200  0.415320  1.0  -0.2613
  N  N1354  1  0.891510  0.891510  0.445570  1.0  -0.2686
  N  N1355  1  0.997410  0.461730  0.997410  1.0  -0.2747
  N  N1356  1  0.946200  0.415320  0.946200  1.0  -0.2596
  N  N1357  1  0.891510  0.445570  0.891510  1.0  -0.2668
  N  N1358  1  0.997410  0.543450  0.997410  1.0  -0.2741
  N  N1359  1  0.946200  0.692280  0.946200  1.0  -0.2599
  N  N1360  1  0.891510  0.771410  0.891510  1.0  -0.2687
  N  N1361  1  0.461730  0.997410  0.543450  1.0  -0.2729
  N  N1362  1  0.415320  0.946200  0.692280  1.0  -0.2603
  N  N1363  1  0.445570  0.891510  0.771410  1.0  -0.2663
  N  N1364  1  0.543450  0.997410  0.461730  1.0  -0.2726
  N  N1365  1  0.692280  0.946200  0.415320  1.0  -0.2623
  N  N1366  1  0.771410  0.891510  0.445570  1.0  -0.2677
  N  N1367  1  0.543450  0.997410  0.997410  1.0  -0.2717
  N  N1368  1  0.692280  0.946200  0.946200  1.0  -0.2614
  N  N1369  1  0.771410  0.891510  0.891510  1.0  -0.2688
  N  N1370  1  0.461730  0.997410  0.997410  1.0  -0.273
  N  N1371  1  0.415320  0.946200  0.946200  1.0  -0.2597
  N  N1372  1  0.445570  0.891510  0.891510  1.0  -0.2676
  N  N1373  1  0.997410  0.461730  0.543450  1.0  -0.2726
  N  N1374  1  0.946200  0.415320  0.692280  1.0  -0.2602
  N  N1375  1  0.891510  0.445570  0.771410  1.0  -0.2664
  N  N1376  1  0.997410  0.543450  0.461730  1.0  -0.2757
  N  N1377  1  0.946200  0.692280  0.415320  1.0  -0.2615
  N  N1378  1  0.891510  0.771410  0.445570  1.0  -0.2676
  N  N1379  1  0.688160  0.437280  0.437280  1.0  -0.27
  N  N1380  1  0.437280  0.688160  0.437280  1.0  -0.2741
  N  N1381  1  0.437280  0.437280  0.688160  1.0  -0.2739
  N  N1382  1  0.437280  0.437280  0.437280  1.0  -0.2745
  N  N1383  1  0.561840  0.812720  0.812720  1.0  -0.2722
  N  N1384  1  0.812720  0.561840  0.812720  1.0  -0.2741
  N  N1385  1  0.812720  0.812720  0.812720  1.0  -0.2737
  N  N1386  1  0.812720  0.812720  0.561840  1.0  -0.274
  N  N1387  1  0.589490  0.470170  0.470170  1.0  -0.2658
  N  N1388  1  0.470170  0.589490  0.470170  1.0  -0.2672
  N  N1389  1  0.470170  0.470170  0.589490  1.0  -0.2683
  N  N1390  1  0.470170  0.470170  0.470170  1.0  -0.2682
  N  N1391  1  0.660510  0.779830  0.779830  1.0  -0.2635
  N  N1392  1  0.779830  0.660510  0.779830  1.0  -0.2673
  N  N1393  1  0.779830  0.779830  0.779830  1.0  -0.2692
  N  N1394  1  0.779830  0.779830  0.660510  1.0  -0.2675
