# generated using pymatgen
data_CuH2C10(SO2)2
_symmetry_space_group_name_H-M   'P 1'
_cell_length_a   36.47890000
_cell_length_b   36.47890000
_cell_length_c   36.47890000
_cell_angle_alpha   90.00000000
_cell_angle_beta   90.00000000
_cell_angle_gamma   90.00000000
_symmetry_Int_Tables_number   1
_chemical_formula_structural   CuH2C10(SO2)2
_chemical_formula_sum   'Cu48 H96 C480 S96 O192'
_cell_volume   48542.84231610
_cell_formula_units_Z   48
loop_
 _symmetry_equiv_pos_site_id
 _symmetry_equiv_pos_as_xyz
  1  'x, y, z'
loop_
 _atom_site_type_symbol
 _atom_site_label
 _atom_site_symmetry_multiplicity
 _atom_site_fract_x
 _atom_site_fract_y
 _atom_site_fract_z
 _atom_site_occupancy
 _atom_site_charge
  Cu  Cu1  1  0.275370  0.000000  0.275370  1.0  0.8521
  Cu  Cu2  1  0.275370  0.500000  0.775370  1.0  0.8503
  Cu  Cu3  1  0.775370  0.000000  0.775370  1.0  0.8538
  Cu  Cu4  1  0.775370  0.500000  0.275370  1.0  0.8503
  Cu  Cu5  1  0.724630  0.000000  0.275370  1.0  0.851
  Cu  Cu6  1  0.724630  0.500000  0.775370  1.0  0.8497
  Cu  Cu7  1  0.224630  0.000000  0.775370  1.0  0.8527
  Cu  Cu8  1  0.224630  0.500000  0.275370  1.0  0.8497
  Cu  Cu9  1  0.724630  0.000000  0.724630  1.0  0.851
  Cu  Cu10  1  0.724630  0.500000  0.224630  1.0  0.8489
  Cu  Cu11  1  0.224630  0.000000  0.224630  1.0  0.8513
  Cu  Cu12  1  0.224630  0.500000  0.724630  1.0  0.8489
  Cu  Cu13  1  0.275370  0.000000  0.724630  1.0  0.8509
  Cu  Cu14  1  0.275370  0.500000  0.224630  1.0  0.8486
  Cu  Cu15  1  0.775370  0.000000  0.224630  1.0  0.8514
  Cu  Cu16  1  0.775370  0.500000  0.724630  1.0  0.8486
  Cu  Cu17  1  0.275370  0.275370  0.000000  1.0  0.8523
  Cu  Cu18  1  0.275370  0.775370  0.500000  1.0  0.8511
  Cu  Cu19  1  0.775370  0.275370  0.500000  1.0  0.8511
  Cu  Cu20  1  0.775370  0.775370  0.000000  1.0  0.854
  Cu  Cu21  1  0.275370  0.724630  0.000000  1.0  0.8521
  Cu  Cu22  1  0.275370  0.224630  0.500000  1.0  0.8503
  Cu  Cu23  1  0.775370  0.724630  0.500000  1.0  0.8503
  Cu  Cu24  1  0.775370  0.224630  0.000000  1.0  0.8537
  Cu  Cu25  1  0.724630  0.724630  0.000000  1.0  0.8519
  Cu  Cu26  1  0.724630  0.224630  0.500000  1.0  0.8503
  Cu  Cu27  1  0.224630  0.724630  0.500000  1.0  0.8503
  Cu  Cu28  1  0.224630  0.224630  0.000000  1.0  0.8532
  Cu  Cu29  1  0.724630  0.275370  0.000000  1.0  0.8524
  Cu  Cu30  1  0.724630  0.775370  0.500000  1.0  0.8513
  Cu  Cu31  1  0.224630  0.275370  0.500000  1.0  0.8513
  Cu  Cu32  1  0.224630  0.775370  0.000000  1.0  0.8536
  Cu  Cu33  1  0.000000  0.275370  0.275370  1.0  0.8506
  Cu  Cu34  1  0.000000  0.775370  0.775370  1.0  0.8521
  Cu  Cu35  1  0.500000  0.275370  0.775370  1.0  0.8493
  Cu  Cu36  1  0.500000  0.775370  0.275370  1.0  0.8493
  Cu  Cu37  1  0.000000  0.275370  0.724630  1.0  0.8493
  Cu  Cu38  1  0.000000  0.775370  0.224630  1.0  0.8493
  Cu  Cu39  1  0.500000  0.275370  0.224630  1.0  0.847
  Cu  Cu40  1  0.500000  0.775370  0.724630  1.0  0.847
  Cu  Cu41  1  0.000000  0.724630  0.724630  1.0  0.8495
  Cu  Cu42  1  0.000000  0.224630  0.224630  1.0  0.8498
  Cu  Cu43  1  0.500000  0.724630  0.224630  1.0  0.8471
  Cu  Cu44  1  0.500000  0.224630  0.724630  1.0  0.8471
  Cu  Cu45  1  0.000000  0.724630  0.275370  1.0  0.8494
  Cu  Cu46  1  0.000000  0.224630  0.775370  1.0  0.8508
  Cu  Cu47  1  0.500000  0.724630  0.775370  1.0  0.8476
  Cu  Cu48  1  0.500000  0.224630  0.275370  1.0  0.8476
  H  H49  1  0.407300  0.269710  0.346300  1.0  0.1373
  H  H50  1  0.407300  0.769710  0.846300  1.0  0.1373
  H  H51  1  0.907300  0.269710  0.846300  1.0  0.1373
  H  H52  1  0.907300  0.769710  0.346300  1.0  0.1373
  H  H53  1  0.592700  0.730290  0.346300  1.0  0.1373
  H  H54  1  0.592700  0.230290  0.846300  1.0  0.1373
  H  H55  1  0.092700  0.730290  0.846300  1.0  0.1373
  H  H56  1  0.092700  0.230290  0.346300  1.0  0.1373
  H  H57  1  0.592700  0.269710  0.653700  1.0  0.1381
  H  H58  1  0.592700  0.769710  0.153700  1.0  0.1381
  H  H59  1  0.092700  0.269710  0.153700  1.0  0.1381
  H  H60  1  0.092700  0.769710  0.653700  1.0  0.1381
  H  H61  1  0.407300  0.730290  0.653700  1.0  0.1365
  H  H62  1  0.407300  0.230290  0.153700  1.0  0.1365
  H  H63  1  0.907300  0.730290  0.153700  1.0  0.1365
  H  H64  1  0.907300  0.230290  0.653700  1.0  0.1365
  H  H65  1  0.346300  0.407300  0.269710  1.0  0.1365
  H  H66  1  0.346300  0.907300  0.769710  1.0  0.1365
  H  H67  1  0.846300  0.407300  0.769710  1.0  0.1365
  H  H68  1  0.846300  0.907300  0.269710  1.0  0.1365
  H  H69  1  0.346300  0.592700  0.730290  1.0  0.134
  H  H70  1  0.346300  0.092700  0.230290  1.0  0.134
  H  H71  1  0.846300  0.592700  0.230290  1.0  0.134
  H  H72  1  0.846300  0.092700  0.730290  1.0  0.134
  H  H73  1  0.653700  0.592700  0.269710  1.0  0.1359
  H  H74  1  0.653700  0.092700  0.769710  1.0  0.1359
  H  H75  1  0.153700  0.592700  0.769710  1.0  0.1359
  H  H76  1  0.153700  0.092700  0.269710  1.0  0.1359
  H  H77  1  0.653700  0.407300  0.730290  1.0  0.1354
  H  H78  1  0.653700  0.907300  0.230290  1.0  0.1354
  H  H79  1  0.153700  0.407300  0.230290  1.0  0.1354
  H  H80  1  0.153700  0.907300  0.730290  1.0  0.1354
  H  H81  1  0.269710  0.346300  0.407300  1.0  0.1345
  H  H82  1  0.269710  0.846300  0.907300  1.0  0.1345
  H  H83  1  0.769710  0.346300  0.907300  1.0  0.1345
  H  H84  1  0.769710  0.846300  0.407300  1.0  0.1345
  H  H85  1  0.730290  0.346300  0.592700  1.0  0.135
  H  H86  1  0.730290  0.846300  0.092700  1.0  0.135
  H  H87  1  0.230290  0.346300  0.092700  1.0  0.135
  H  H88  1  0.230290  0.846300  0.592700  1.0  0.135
  H  H89  1  0.269710  0.653700  0.592700  1.0  0.1346
  H  H90  1  0.269710  0.153700  0.092700  1.0  0.1346
  H  H91  1  0.769710  0.653700  0.092700  1.0  0.1346
  H  H92  1  0.769710  0.153700  0.592700  1.0  0.1346
  H  H93  1  0.730290  0.653700  0.407300  1.0  0.1355
  H  H94  1  0.730290  0.153700  0.907300  1.0  0.1355
  H  H95  1  0.230290  0.653700  0.907300  1.0  0.1355
  H  H96  1  0.230290  0.153700  0.407300  1.0  0.1355
  H  H97  1  0.269710  0.407300  0.653700  1.0  0.1353
  H  H98  1  0.269710  0.907300  0.153700  1.0  0.1353
  H  H99  1  0.769710  0.407300  0.153700  1.0  0.1353
  H  H100  1  0.769710  0.907300  0.653700  1.0  0.1353
  H  H101  1  0.730290  0.592700  0.653700  1.0  0.1351
  H  H102  1  0.730290  0.092700  0.153700  1.0  0.1351
  H  H103  1  0.230290  0.592700  0.153700  1.0  0.1351
  H  H104  1  0.230290  0.092700  0.653700  1.0  0.1351
  H  H105  1  0.269710  0.592700  0.346300  1.0  0.1347
  H  H106  1  0.269710  0.092700  0.846300  1.0  0.1347
  H  H107  1  0.769710  0.592700  0.846300  1.0  0.1347
  H  H108  1  0.769710  0.092700  0.346300  1.0  0.1347
  H  H109  1  0.730290  0.407300  0.346300  1.0  0.1352
  H  H110  1  0.730290  0.907300  0.846300  1.0  0.1352
  H  H111  1  0.230290  0.407300  0.846300  1.0  0.1352
  H  H112  1  0.230290  0.907300  0.346300  1.0  0.1352
  H  H113  1  0.407300  0.346300  0.730290  1.0  0.1353
  H  H114  1  0.407300  0.846300  0.230290  1.0  0.1353
  H  H115  1  0.907300  0.346300  0.230290  1.0  0.1353
  H  H116  1  0.907300  0.846300  0.730290  1.0  0.1353
  H  H117  1  0.592700  0.346300  0.269710  1.0  0.1371
  H  H118  1  0.592700  0.846300  0.769710  1.0  0.1371
  H  H119  1  0.092700  0.346300  0.769710  1.0  0.1371
  H  H120  1  0.092700  0.846300  0.269710  1.0  0.1371
  H  H121  1  0.592700  0.653700  0.730290  1.0  0.1369
  H  H122  1  0.592700  0.153700  0.230290  1.0  0.1369
  H  H123  1  0.092700  0.653700  0.230290  1.0  0.1369
  H  H124  1  0.092700  0.153700  0.730290  1.0  0.1369
  H  H125  1  0.407300  0.653700  0.269710  1.0  0.1379
  H  H126  1  0.407300  0.153700  0.769710  1.0  0.1379
  H  H127  1  0.907300  0.653700  0.769710  1.0  0.1379
  H  H128  1  0.907300  0.153700  0.269710  1.0  0.1379
  H  H129  1  0.346300  0.269710  0.592700  1.0  0.1359
  H  H130  1  0.346300  0.769710  0.092700  1.0  0.1359
  H  H131  1  0.846300  0.269710  0.092700  1.0  0.1359
  H  H132  1  0.846300  0.769710  0.592700  1.0  0.1359
  H  H133  1  0.346300  0.730290  0.407300  1.0  0.135
  H  H134  1  0.346300  0.230290  0.907300  1.0  0.135
  H  H135  1  0.846300  0.730290  0.907300  1.0  0.135
  H  H136  1  0.846300  0.230290  0.407300  1.0  0.135
  H  H137  1  0.653700  0.269710  0.407300  1.0  0.1363
  H  H138  1  0.653700  0.769710  0.907300  1.0  0.1363
  H  H139  1  0.153700  0.269710  0.907300  1.0  0.1363
  H  H140  1  0.153700  0.769710  0.407300  1.0  0.1363
  H  H141  1  0.653700  0.730290  0.592700  1.0  0.1358
  H  H142  1  0.653700  0.230290  0.092700  1.0  0.1358
  H  H143  1  0.153700  0.730290  0.092700  1.0  0.1358
  H  H144  1  0.153700  0.230290  0.592700  1.0  0.1358
  C  C145  1  0.370950  0.316830  0.338710  1.0  0.1064
  C  C146  1  0.367710  0.345320  0.313520  1.0  -0.1109
  C  C147  1  0.400230  0.293900  0.330640  1.0  -0.0087
  C  C148  1  0.418940  0.305370  0.299310  1.0  -0.1346
  C  C149  1  0.218110  0.049680  0.285400  1.0  0.6915
  C  C150  1  0.370950  0.816830  0.838710  1.0  0.1064
  C  C151  1  0.367710  0.845320  0.813520  1.0  -0.1109
  C  C152  1  0.400230  0.793900  0.830640  1.0  -0.0087
  C  C153  1  0.418940  0.805370  0.799310  1.0  -0.1346
  C  C154  1  0.218110  0.549680  0.785400  1.0  0.6915
  C  C155  1  0.870950  0.316830  0.838710  1.0  0.1064
  C  C156  1  0.867710  0.345320  0.813520  1.0  -0.1109
  C  C157  1  0.900230  0.293900  0.830640  1.0  -0.0087
  C  C158  1  0.918940  0.305370  0.799310  1.0  -0.1346
  C  C159  1  0.718110  0.049680  0.785400  1.0  0.6915
  C  C160  1  0.870950  0.816830  0.338710  1.0  0.1064
  C  C161  1  0.867710  0.845320  0.313520  1.0  -0.1109
  C  C162  1  0.900230  0.793900  0.330640  1.0  -0.0087
  C  C163  1  0.918940  0.805370  0.299310  1.0  -0.1346
  C  C164  1  0.718110  0.549680  0.285400  1.0  0.6915
  C  C165  1  0.629050  0.683170  0.338710  1.0  0.1068
  C  C166  1  0.632290  0.654680  0.313520  1.0  -0.1121
  C  C167  1  0.599770  0.706100  0.330640  1.0  -0.0128
  C  C168  1  0.581060  0.694630  0.299310  1.0  -0.1357
  C  C169  1  0.781890  0.950320  0.285400  1.0  0.6915
  C  C170  1  0.629050  0.183170  0.838710  1.0  0.1068
  C  C171  1  0.632290  0.154680  0.813520  1.0  -0.1121
  C  C172  1  0.599770  0.206100  0.830640  1.0  -0.0128
  C  C173  1  0.581060  0.194630  0.799310  1.0  -0.1357
  C  C174  1  0.781890  0.450320  0.785400  1.0  0.6915
  C  C175  1  0.129050  0.683170  0.838710  1.0  0.1068
  C  C176  1  0.132290  0.654680  0.813520  1.0  -0.1121
  C  C177  1  0.099770  0.706100  0.830640  1.0  -0.0128
  C  C178  1  0.081060  0.694630  0.799310  1.0  -0.1357
  C  C179  1  0.281890  0.950320  0.785400  1.0  0.6915
  C  C180  1  0.129050  0.183170  0.338710  1.0  0.1068
  C  C181  1  0.132290  0.154680  0.313520  1.0  -0.1121
  C  C182  1  0.099770  0.206100  0.330640  1.0  -0.0128
  C  C183  1  0.081060  0.194630  0.299310  1.0  -0.1357
  C  C184  1  0.281890  0.450320  0.285400  1.0  0.6915
  C  C185  1  0.629050  0.316830  0.661290  1.0  0.1064
  C  C186  1  0.632290  0.345320  0.686480  1.0  -0.1093
  C  C187  1  0.599770  0.293900  0.669360  1.0  -0.0125
  C  C188  1  0.581060  0.305370  0.700690  1.0  -0.1342
  C  C189  1  0.781890  0.049680  0.714600  1.0  0.6913
  C  C190  1  0.629050  0.816830  0.161290  1.0  0.1064
  C  C191  1  0.632290  0.845320  0.186480  1.0  -0.1093
  C  C192  1  0.599770  0.793900  0.169360  1.0  -0.0125
  C  C193  1  0.581060  0.805370  0.200690  1.0  -0.1342
  C  C194  1  0.781890  0.549680  0.214600  1.0  0.6913
  C  C195  1  0.129050  0.316830  0.161290  1.0  0.1064
  C  C196  1  0.132290  0.345320  0.186480  1.0  -0.1093
  C  C197  1  0.099770  0.293900  0.169360  1.0  -0.0125
  C  C198  1  0.081060  0.305370  0.200690  1.0  -0.1342
  C  C199  1  0.281890  0.049680  0.214600  1.0  0.6913
  C  C200  1  0.129050  0.816830  0.661290  1.0  0.1064
  C  C201  1  0.132290  0.845320  0.686480  1.0  -0.1093
  C  C202  1  0.099770  0.793900  0.669360  1.0  -0.0125
  C  C203  1  0.081060  0.805370  0.700690  1.0  -0.1342
  C  C204  1  0.281890  0.549680  0.714600  1.0  0.6913
  C  C205  1  0.370950  0.683170  0.661290  1.0  0.1068
  C  C206  1  0.367710  0.654680  0.686480  1.0  -0.1099
  C  C207  1  0.400230  0.706100  0.669360  1.0  -0.0126
  C  C208  1  0.418940  0.694630  0.700690  1.0  -0.1344
  C  C209  1  0.218110  0.950320  0.714600  1.0  0.6918
  C  C210  1  0.370950  0.183170  0.161290  1.0  0.1068
  C  C211  1  0.367710  0.154680  0.186480  1.0  -0.1099
  C  C212  1  0.400230  0.206100  0.169360  1.0  -0.0126
  C  C213  1  0.418940  0.194630  0.200690  1.0  -0.1344
  C  C214  1  0.218110  0.450320  0.214600  1.0  0.6918
  C  C215  1  0.870950  0.683170  0.161290  1.0  0.1068
  C  C216  1  0.867710  0.654680  0.186480  1.0  -0.1099
  C  C217  1  0.900230  0.706100  0.169360  1.0  -0.0126
  C  C218  1  0.918940  0.694630  0.200690  1.0  -0.1344
  C  C219  1  0.718110  0.950320  0.214600  1.0  0.6918
  C  C220  1  0.870950  0.183170  0.661290  1.0  0.1068
  C  C221  1  0.867710  0.154680  0.686480  1.0  -0.1099
  C  C222  1  0.900230  0.206100  0.669360  1.0  -0.0126
  C  C223  1  0.918940  0.194630  0.700690  1.0  -0.1344
  C  C224  1  0.718110  0.450320  0.714600  1.0  0.6918
  C  C225  1  0.338710  0.370950  0.316830  1.0  0.1047
  C  C226  1  0.313520  0.367710  0.345320  1.0  -0.1082
  C  C227  1  0.330640  0.400230  0.293900  1.0  -0.0088
  C  C228  1  0.299310  0.418940  0.305370  1.0  -0.1344
  C  C229  1  0.285400  0.218110  0.049680  1.0  0.6904
  C  C230  1  0.338710  0.870950  0.816830  1.0  0.1047
  C  C231  1  0.313520  0.867710  0.845320  1.0  -0.1082
  C  C232  1  0.330640  0.900230  0.793900  1.0  -0.0088
  C  C233  1  0.299310  0.918940  0.805370  1.0  -0.1344
  C  C234  1  0.285400  0.718110  0.549680  1.0  0.6904
  C  C235  1  0.838710  0.370950  0.816830  1.0  0.1047
  C  C236  1  0.813520  0.367710  0.845320  1.0  -0.1082
  C  C237  1  0.830640  0.400230  0.793900  1.0  -0.0088
  C  C238  1  0.799310  0.418940  0.805370  1.0  -0.1344
  C  C239  1  0.785400  0.218110  0.549680  1.0  0.6904
  C  C240  1  0.838710  0.870950  0.316830  1.0  0.1047
  C  C241  1  0.813520  0.867710  0.345320  1.0  -0.1082
  C  C242  1  0.830640  0.900230  0.293900  1.0  -0.0088
  C  C243  1  0.799310  0.918940  0.305370  1.0  -0.1344
  C  C244  1  0.785400  0.718110  0.049680  1.0  0.6904
  C  C245  1  0.338710  0.629050  0.683170  1.0  0.1059
  C  C246  1  0.313520  0.632290  0.654680  1.0  -0.1108
  C  C247  1  0.330640  0.599770  0.706100  1.0  -0.0074
  C  C248  1  0.299310  0.581060  0.694630  1.0  -0.1357
  C  C249  1  0.285400  0.781890  0.950320  1.0  0.6897
  C  C250  1  0.338710  0.129050  0.183170  1.0  0.1059
  C  C251  1  0.313520  0.132290  0.154680  1.0  -0.1108
  C  C252  1  0.330640  0.099770  0.206100  1.0  -0.0074
  C  C253  1  0.299310  0.081060  0.194630  1.0  -0.1357
  C  C254  1  0.285400  0.281890  0.450320  1.0  0.6897
  C  C255  1  0.838710  0.629050  0.183170  1.0  0.1059
  C  C256  1  0.813520  0.632290  0.154680  1.0  -0.1108
  C  C257  1  0.830640  0.599770  0.206100  1.0  -0.0074
  C  C258  1  0.799310  0.581060  0.194630  1.0  -0.1357
  C  C259  1  0.785400  0.781890  0.450320  1.0  0.6897
  C  C260  1  0.838710  0.129050  0.683170  1.0  0.1059
  C  C261  1  0.813520  0.132290  0.654680  1.0  -0.1108
  C  C262  1  0.830640  0.099770  0.706100  1.0  -0.0074
  C  C263  1  0.799310  0.081060  0.694630  1.0  -0.1357
  C  C264  1  0.785400  0.281890  0.950320  1.0  0.6897
  C  C265  1  0.661290  0.629050  0.316830  1.0  0.1052
  C  C266  1  0.686480  0.632290  0.345320  1.0  -0.1087
  C  C267  1  0.669360  0.599770  0.293900  1.0  -0.0089
  C  C268  1  0.700690  0.581060  0.305370  1.0  -0.1347
  C  C269  1  0.714600  0.781890  0.049680  1.0  0.6917
  C  C270  1  0.661290  0.129050  0.816830  1.0  0.1052
  C  C271  1  0.686480  0.132290  0.845320  1.0  -0.1087
  C  C272  1  0.669360  0.099770  0.793900  1.0  -0.0089
  C  C273  1  0.700690  0.081060  0.805370  1.0  -0.1347
  C  C274  1  0.714600  0.281890  0.549680  1.0  0.6917
  C  C275  1  0.161290  0.629050  0.816830  1.0  0.1052
  C  C276  1  0.186480  0.632290  0.845320  1.0  -0.1087
  C  C277  1  0.169360  0.599770  0.793900  1.0  -0.0089
  C  C278  1  0.200690  0.581060  0.805370  1.0  -0.1347
  C  C279  1  0.214600  0.781890  0.549680  1.0  0.6917
  C  C280  1  0.161290  0.129050  0.316830  1.0  0.1052
  C  C281  1  0.186480  0.132290  0.345320  1.0  -0.1087
  C  C282  1  0.169360  0.099770  0.293900  1.0  -0.0089
  C  C283  1  0.200690  0.081060  0.305370  1.0  -0.1347
  C  C284  1  0.214600  0.281890  0.049680  1.0  0.6917
  C  C285  1  0.661290  0.370950  0.683170  1.0  0.1047
  C  C286  1  0.686480  0.367710  0.654680  1.0  -0.1093
  C  C287  1  0.669360  0.400230  0.706100  1.0  -0.0082
  C  C288  1  0.700690  0.418940  0.694630  1.0  -0.1345
  C  C289  1  0.714600  0.218110  0.950320  1.0  0.6914
  C  C290  1  0.661290  0.870950  0.183170  1.0  0.1047
  C  C291  1  0.686480  0.867710  0.154680  1.0  -0.1093
  C  C292  1  0.669360  0.900230  0.206100  1.0  -0.0082
  C  C293  1  0.700690  0.918940  0.194630  1.0  -0.1345
  C  C294  1  0.714600  0.718110  0.450320  1.0  0.6914
  C  C295  1  0.161290  0.370950  0.183170  1.0  0.1047
  C  C296  1  0.186480  0.367710  0.154680  1.0  -0.1093
  C  C297  1  0.169360  0.400230  0.206100  1.0  -0.0082
  C  C298  1  0.200690  0.418940  0.194630  1.0  -0.1345
  C  C299  1  0.214600  0.218110  0.450320  1.0  0.6914
  C  C300  1  0.161290  0.870950  0.683170  1.0  0.1047
  C  C301  1  0.186480  0.867710  0.654680  1.0  -0.1093
  C  C302  1  0.169360  0.900230  0.706100  1.0  -0.0082
  C  C303  1  0.200690  0.918940  0.694630  1.0  -0.1345
  C  C304  1  0.214600  0.718110  0.950320  1.0  0.6914
  C  C305  1  0.316830  0.338710  0.370950  1.0  0.107
  C  C306  1  0.345320  0.313520  0.367710  1.0  -0.1104
  C  C307  1  0.293900  0.330640  0.400230  1.0  -0.0093
  C  C308  1  0.305370  0.299310  0.418940  1.0  -0.134
  C  C309  1  0.049680  0.285400  0.218110  1.0  0.6882
  C  C310  1  0.316830  0.838710  0.870950  1.0  0.107
  C  C311  1  0.345320  0.813520  0.867710  1.0  -0.1104
  C  C312  1  0.293900  0.830640  0.900230  1.0  -0.0093
  C  C313  1  0.305370  0.799310  0.918940  1.0  -0.134
  C  C314  1  0.049680  0.785400  0.718110  1.0  0.6882
  C  C315  1  0.816830  0.338710  0.870950  1.0  0.107
  C  C316  1  0.845320  0.313520  0.867710  1.0  -0.1104
  C  C317  1  0.793900  0.330640  0.900230  1.0  -0.0093
  C  C318  1  0.805370  0.299310  0.918940  1.0  -0.134
  C  C319  1  0.549680  0.285400  0.718110  1.0  0.6882
  C  C320  1  0.816830  0.838710  0.370950  1.0  0.107
  C  C321  1  0.845320  0.813520  0.367710  1.0  -0.1104
  C  C322  1  0.793900  0.830640  0.400230  1.0  -0.0093
  C  C323  1  0.805370  0.799310  0.418940  1.0  -0.134
  C  C324  1  0.549680  0.785400  0.218110  1.0  0.6882
  C  C325  1  0.683170  0.338710  0.629050  1.0  0.1063
  C  C326  1  0.654680  0.313520  0.632290  1.0  -0.1119
  C  C327  1  0.706100  0.330640  0.599770  1.0  -0.0095
  C  C328  1  0.694630  0.299310  0.581060  1.0  -0.1347
  C  C329  1  0.950320  0.285400  0.781890  1.0  0.6894
  C  C330  1  0.683170  0.838710  0.129050  1.0  0.1063
  C  C331  1  0.654680  0.813520  0.132290  1.0  -0.1119
  C  C332  1  0.706100  0.830640  0.099770  1.0  -0.0095
  C  C333  1  0.694630  0.799310  0.081060  1.0  -0.1347
  C  C334  1  0.950320  0.785400  0.281890  1.0  0.6894
  C  C335  1  0.183170  0.338710  0.129050  1.0  0.1063
  C  C336  1  0.154680  0.313520  0.132290  1.0  -0.1119
  C  C337  1  0.206100  0.330640  0.099770  1.0  -0.0095
  C  C338  1  0.194630  0.299310  0.081060  1.0  -0.1347
  C  C339  1  0.450320  0.285400  0.281890  1.0  0.6894
  C  C340  1  0.183170  0.838710  0.629050  1.0  0.1063
  C  C341  1  0.154680  0.813520  0.632290  1.0  -0.1119
  C  C342  1  0.206100  0.830640  0.599770  1.0  -0.0095
  C  C343  1  0.194630  0.799310  0.581060  1.0  -0.1347
  C  C344  1  0.450320  0.785400  0.781890  1.0  0.6894
  C  C345  1  0.316830  0.661290  0.629050  1.0  0.1066
  C  C346  1  0.345320  0.686480  0.632290  1.0  -0.111
  C  C347  1  0.293900  0.669360  0.599770  1.0  -0.0097
  C  C348  1  0.305370  0.700690  0.581060  1.0  -0.1334
  C  C349  1  0.049680  0.714600  0.781890  1.0  0.6896
  C  C350  1  0.316830  0.161290  0.129050  1.0  0.1066
  C  C351  1  0.345320  0.186480  0.132290  1.0  -0.111
  C  C352  1  0.293900  0.169360  0.099770  1.0  -0.0097
  C  C353  1  0.305370  0.200690  0.081060  1.0  -0.1334
  C  C354  1  0.049680  0.214600  0.281890  1.0  0.6896
  C  C355  1  0.816830  0.661290  0.129050  1.0  0.1066
  C  C356  1  0.845320  0.686480  0.132290  1.0  -0.111
  C  C357  1  0.793900  0.669360  0.099770  1.0  -0.0097
  C  C358  1  0.805370  0.700690  0.081060  1.0  -0.1334
  C  C359  1  0.549680  0.714600  0.281890  1.0  0.6896
  C  C360  1  0.816830  0.161290  0.629050  1.0  0.1066
  C  C361  1  0.845320  0.186480  0.632290  1.0  -0.111
  C  C362  1  0.793900  0.169360  0.599770  1.0  -0.0097
  C  C363  1  0.805370  0.200690  0.581060  1.0  -0.1334
  C  C364  1  0.549680  0.214600  0.781890  1.0  0.6896
  C  C365  1  0.683170  0.661290  0.370950  1.0  0.1061
  C  C366  1  0.654680  0.686480  0.367710  1.0  -0.1107
  C  C367  1  0.706100  0.669360  0.400230  1.0  -0.0088
  C  C368  1  0.694630  0.700690  0.418940  1.0  -0.134
  C  C369  1  0.950320  0.714600  0.218110  1.0  0.6898
  C  C370  1  0.683170  0.161290  0.870950  1.0  0.1061
  C  C371  1  0.654680  0.186480  0.867710  1.0  -0.1107
  C  C372  1  0.706100  0.169360  0.900230  1.0  -0.0088
  C  C373  1  0.694630  0.200690  0.918940  1.0  -0.134
  C  C374  1  0.950320  0.214600  0.718110  1.0  0.6898
  C  C375  1  0.183170  0.661290  0.870950  1.0  0.1061
  C  C376  1  0.154680  0.686480  0.867710  1.0  -0.1107
  C  C377  1  0.206100  0.669360  0.900230  1.0  -0.0088
  C  C378  1  0.194630  0.700690  0.918940  1.0  -0.134
  C  C379  1  0.450320  0.714600  0.718110  1.0  0.6898
  C  C380  1  0.183170  0.161290  0.370950  1.0  0.1061
  C  C381  1  0.154680  0.186480  0.367710  1.0  -0.1107
  C  C382  1  0.206100  0.169360  0.400230  1.0  -0.0088
  C  C383  1  0.194630  0.200690  0.418940  1.0  -0.134
  C  C384  1  0.450320  0.214600  0.218110  1.0  0.6898
  C  C385  1  0.316830  0.370950  0.661290  1.0  0.1063
  C  C386  1  0.345320  0.367710  0.686480  1.0  -0.1108
  C  C387  1  0.293900  0.400230  0.669360  1.0  -0.0098
  C  C388  1  0.305370  0.418940  0.700690  1.0  -0.1341
  C  C389  1  0.049680  0.218110  0.714600  1.0  0.6895
  C  C390  1  0.316830  0.870950  0.161290  1.0  0.1063
  C  C391  1  0.345320  0.867710  0.186480  1.0  -0.1108
  C  C392  1  0.293900  0.900230  0.169360  1.0  -0.0098
  C  C393  1  0.305370  0.918940  0.200690  1.0  -0.1341
  C  C394  1  0.049680  0.718110  0.214600  1.0  0.6895
  C  C395  1  0.816830  0.370950  0.161290  1.0  0.1063
  C  C396  1  0.845320  0.367710  0.186480  1.0  -0.1108
  C  C397  1  0.793900  0.400230  0.169360  1.0  -0.0098
  C  C398  1  0.805370  0.418940  0.200690  1.0  -0.1341
  C  C399  1  0.549680  0.218110  0.214600  1.0  0.6895
  C  C400  1  0.816830  0.870950  0.661290  1.0  0.1063
  C  C401  1  0.845320  0.867710  0.686480  1.0  -0.1108
  C  C402  1  0.793900  0.900230  0.669360  1.0  -0.0098
  C  C403  1  0.805370  0.918940  0.700690  1.0  -0.1341
  C  C404  1  0.549680  0.718110  0.714600  1.0  0.6895
  C  C405  1  0.683170  0.629050  0.661290  1.0  0.1063
  C  C406  1  0.654680  0.632290  0.686480  1.0  -0.1105
  C  C407  1  0.706100  0.599770  0.669360  1.0  -0.011
  C  C408  1  0.694630  0.581060  0.700690  1.0  -0.135
  C  C409  1  0.950320  0.781890  0.714600  1.0  0.6907
  C  C410  1  0.683170  0.129050  0.161290  1.0  0.1063
  C  C411  1  0.654680  0.132290  0.186480  1.0  -0.1105
  C  C412  1  0.706100  0.099770  0.169360  1.0  -0.011
  C  C413  1  0.694630  0.081060  0.200690  1.0  -0.135
  C  C414  1  0.950320  0.281890  0.214600  1.0  0.6907
  C  C415  1  0.183170  0.629050  0.161290  1.0  0.1063
  C  C416  1  0.154680  0.632290  0.186480  1.0  -0.1105
  C  C417  1  0.206100  0.599770  0.169360  1.0  -0.011
  C  C418  1  0.194630  0.581060  0.200690  1.0  -0.135
  C  C419  1  0.450320  0.781890  0.214600  1.0  0.6907
  C  C420  1  0.183170  0.129050  0.661290  1.0  0.1063
  C  C421  1  0.154680  0.132290  0.686480  1.0  -0.1105
  C  C422  1  0.206100  0.099770  0.669360  1.0  -0.011
  C  C423  1  0.194630  0.081060  0.700690  1.0  -0.135
  C  C424  1  0.450320  0.281890  0.714600  1.0  0.6907
  C  C425  1  0.316830  0.629050  0.338710  1.0  0.1071
  C  C426  1  0.345320  0.632290  0.313520  1.0  -0.1118
  C  C427  1  0.293900  0.599770  0.330640  1.0  -0.0092
  C  C428  1  0.305370  0.581060  0.299310  1.0  -0.1351
  C  C429  1  0.049680  0.781890  0.285400  1.0  0.6906
  C  C430  1  0.316830  0.129050  0.838710  1.0  0.1071
  C  C431  1  0.345320  0.132290  0.813520  1.0  -0.1118
  C  C432  1  0.293900  0.099770  0.830640  1.0  -0.0092
  C  C433  1  0.305370  0.081060  0.799310  1.0  -0.1351
  C  C434  1  0.049680  0.281890  0.785400  1.0  0.6906
  C  C435  1  0.816830  0.629050  0.838710  1.0  0.1071
  C  C436  1  0.845320  0.632290  0.813520  1.0  -0.1118
  C  C437  1  0.793900  0.599770  0.830640  1.0  -0.0092
  C  C438  1  0.805370  0.581060  0.799310  1.0  -0.1351
  C  C439  1  0.549680  0.781890  0.785400  1.0  0.6906
  C  C440  1  0.816830  0.129050  0.338710  1.0  0.1071
  C  C441  1  0.845320  0.132290  0.313520  1.0  -0.1118
  C  C442  1  0.793900  0.099770  0.330640  1.0  -0.0092
  C  C443  1  0.805370  0.081060  0.299310  1.0  -0.1351
  C  C444  1  0.549680  0.281890  0.285400  1.0  0.6906
  C  C445  1  0.683170  0.370950  0.338710  1.0  0.1055
  C  C446  1  0.654680  0.367710  0.313520  1.0  -0.1117
  C  C447  1  0.706100  0.400230  0.330640  1.0  -0.0085
  C  C448  1  0.694630  0.418940  0.299310  1.0  -0.1344
  C  C449  1  0.950320  0.218110  0.285400  1.0  0.6916
  C  C450  1  0.683170  0.870950  0.838710  1.0  0.1055
  C  C451  1  0.654680  0.867710  0.813520  1.0  -0.1117
  C  C452  1  0.706100  0.900230  0.830640  1.0  -0.0085
  C  C453  1  0.694630  0.918940  0.799310  1.0  -0.1344
  C  C454  1  0.950320  0.718110  0.785400  1.0  0.6916
  C  C455  1  0.183170  0.370950  0.838710  1.0  0.1055
  C  C456  1  0.154680  0.367710  0.813520  1.0  -0.1117
  C  C457  1  0.206100  0.400230  0.830640  1.0  -0.0085
  C  C458  1  0.194630  0.418940  0.799310  1.0  -0.1344
  C  C459  1  0.450320  0.218110  0.785400  1.0  0.6916
  C  C460  1  0.183170  0.870950  0.338710  1.0  0.1055
  C  C461  1  0.154680  0.867710  0.313520  1.0  -0.1117
  C  C462  1  0.206100  0.900230  0.330640  1.0  -0.0085
  C  C463  1  0.194630  0.918940  0.299310  1.0  -0.1344
  C  C464  1  0.450320  0.718110  0.285400  1.0  0.6916
  C  C465  1  0.370950  0.338710  0.683170  1.0  0.1062
  C  C466  1  0.367710  0.313520  0.654680  1.0  -0.1107
  C  C467  1  0.400230  0.330640  0.706100  1.0  -0.0084
  C  C468  1  0.418940  0.299310  0.694630  1.0  -0.1362
  C  C469  1  0.218110  0.285400  0.950320  1.0  0.6899
  C  C470  1  0.370950  0.838710  0.183170  1.0  0.1062
  C  C471  1  0.367710  0.813520  0.154680  1.0  -0.1107
  C  C472  1  0.400230  0.830640  0.206100  1.0  -0.0084
  C  C473  1  0.418940  0.799310  0.194630  1.0  -0.1362
  C  C474  1  0.218110  0.785400  0.450320  1.0  0.6899
  C  C475  1  0.870950  0.338710  0.183170  1.0  0.1062
  C  C476  1  0.867710  0.313520  0.154680  1.0  -0.1107
  C  C477  1  0.900230  0.330640  0.206100  1.0  -0.0084
  C  C478  1  0.918940  0.299310  0.194630  1.0  -0.1362
  C  C479  1  0.718110  0.285400  0.450320  1.0  0.6899
  C  C480  1  0.870950  0.838710  0.683170  1.0  0.1062
  C  C481  1  0.867710  0.813520  0.654680  1.0  -0.1107
  C  C482  1  0.900230  0.830640  0.706100  1.0  -0.0084
  C  C483  1  0.918940  0.799310  0.694630  1.0  -0.1362
  C  C484  1  0.718110  0.785400  0.950320  1.0  0.6899
  C  C485  1  0.629050  0.338710  0.316830  1.0  0.1059
  C  C486  1  0.632290  0.313520  0.345320  1.0  -0.1103
  C  C487  1  0.599770  0.330640  0.293900  1.0  -0.0106
  C  C488  1  0.581060  0.299310  0.305370  1.0  -0.1355
  C  C489  1  0.781890  0.285400  0.049680  1.0  0.6905
  C  C490  1  0.629050  0.838710  0.816830  1.0  0.1059
  C  C491  1  0.632290  0.813520  0.845320  1.0  -0.1103
  C  C492  1  0.599770  0.830640  0.793900  1.0  -0.0106
  C  C493  1  0.581060  0.799310  0.805370  1.0  -0.1355
  C  C494  1  0.781890  0.785400  0.549680  1.0  0.6905
  C  C495  1  0.129050  0.338710  0.816830  1.0  0.1059
  C  C496  1  0.132290  0.313520  0.845320  1.0  -0.1103
  C  C497  1  0.099770  0.330640  0.793900  1.0  -0.0106
  C  C498  1  0.081060  0.299310  0.805370  1.0  -0.1355
  C  C499  1  0.281890  0.285400  0.549680  1.0  0.6905
  C  C500  1  0.129050  0.838710  0.316830  1.0  0.1059
  C  C501  1  0.132290  0.813520  0.345320  1.0  -0.1103
  C  C502  1  0.099770  0.830640  0.293900  1.0  -0.0106
  C  C503  1  0.081060  0.799310  0.305370  1.0  -0.1355
  C  C504  1  0.281890  0.785400  0.049680  1.0  0.6905
  C  C505  1  0.629050  0.661290  0.683170  1.0  0.1059
  C  C506  1  0.632290  0.686480  0.654680  1.0  -0.1107
  C  C507  1  0.599770  0.669360  0.706100  1.0  -0.0093
  C  C508  1  0.581060  0.700690  0.694630  1.0  -0.1352
  C  C509  1  0.781890  0.714600  0.950320  1.0  0.6906
  C  C510  1  0.629050  0.161290  0.183170  1.0  0.1059
  C  C511  1  0.632290  0.186480  0.154680  1.0  -0.1107
  C  C512  1  0.599770  0.169360  0.206100  1.0  -0.0093
  C  C513  1  0.581060  0.200690  0.194630  1.0  -0.1352
  C  C514  1  0.781890  0.214600  0.450320  1.0  0.6906
  C  C515  1  0.129050  0.661290  0.183170  1.0  0.1059
  C  C516  1  0.132290  0.686480  0.154680  1.0  -0.1107
  C  C517  1  0.099770  0.669360  0.206100  1.0  -0.0093
  C  C518  1  0.081060  0.700690  0.194630  1.0  -0.1352
  C  C519  1  0.281890  0.714600  0.450320  1.0  0.6906
  C  C520  1  0.129050  0.161290  0.683170  1.0  0.1059
  C  C521  1  0.132290  0.186480  0.654680  1.0  -0.1107
  C  C522  1  0.099770  0.169360  0.706100  1.0  -0.0093
  C  C523  1  0.081060  0.200690  0.694630  1.0  -0.1352
  C  C524  1  0.281890  0.214600  0.950320  1.0  0.6906
  C  C525  1  0.370950  0.661290  0.316830  1.0  0.1054
  C  C526  1  0.367710  0.686480  0.345320  1.0  -0.1103
  C  C527  1  0.400230  0.669360  0.293900  1.0  -0.0093
  C  C528  1  0.418940  0.700690  0.305370  1.0  -0.1351
  C  C529  1  0.218110  0.714600  0.049680  1.0  0.691
  C  C530  1  0.370950  0.161290  0.816830  1.0  0.1054
  C  C531  1  0.367710  0.186480  0.845320  1.0  -0.1103
  C  C532  1  0.400230  0.169360  0.793900  1.0  -0.0093
  C  C533  1  0.418940  0.200690  0.805370  1.0  -0.1351
  C  C534  1  0.218110  0.214600  0.549680  1.0  0.691
  C  C535  1  0.870950  0.661290  0.816830  1.0  0.1054
  C  C536  1  0.867710  0.686480  0.845320  1.0  -0.1103
  C  C537  1  0.900230  0.669360  0.793900  1.0  -0.0093
  C  C538  1  0.918940  0.700690  0.805370  1.0  -0.1351
  C  C539  1  0.718110  0.714600  0.549680  1.0  0.691
  C  C540  1  0.870950  0.161290  0.316830  1.0  0.1054
  C  C541  1  0.867710  0.186480  0.345320  1.0  -0.1103
  C  C542  1  0.900230  0.169360  0.293900  1.0  -0.0093
  C  C543  1  0.918940  0.200690  0.305370  1.0  -0.1351
  C  C544  1  0.718110  0.214600  0.049680  1.0  0.691
  C  C545  1  0.338710  0.316830  0.629050  1.0  0.1061
  C  C546  1  0.313520  0.345320  0.632290  1.0  -0.1097
  C  C547  1  0.330640  0.293900  0.599770  1.0  -0.0098
  C  C548  1  0.299310  0.305370  0.581060  1.0  -0.133
  C  C549  1  0.285400  0.049680  0.781890  1.0  0.6904
  C  C550  1  0.338710  0.816830  0.129050  1.0  0.1061
  C  C551  1  0.313520  0.845320  0.132290  1.0  -0.1097
  C  C552  1  0.330640  0.793900  0.099770  1.0  -0.0098
  C  C553  1  0.299310  0.805370  0.081060  1.0  -0.133
  C  C554  1  0.285400  0.549680  0.281890  1.0  0.6904
  C  C555  1  0.838710  0.316830  0.129050  1.0  0.1061
  C  C556  1  0.813520  0.345320  0.132290  1.0  -0.1097
  C  C557  1  0.830640  0.293900  0.099770  1.0  -0.0098
  C  C558  1  0.799310  0.305370  0.081060  1.0  -0.133
  C  C559  1  0.785400  0.049680  0.281890  1.0  0.6904
  C  C560  1  0.838710  0.816830  0.629050  1.0  0.1061
  C  C561  1  0.813520  0.845320  0.632290  1.0  -0.1097
  C  C562  1  0.830640  0.793900  0.599770  1.0  -0.0098
  C  C563  1  0.799310  0.805370  0.581060  1.0  -0.133
  C  C564  1  0.785400  0.549680  0.781890  1.0  0.6904
  C  C565  1  0.338710  0.683170  0.370950  1.0  0.1066
  C  C566  1  0.313520  0.654680  0.367710  1.0  -0.1085
  C  C567  1  0.330640  0.706100  0.400230  1.0  -0.0112
  C  C568  1  0.299310  0.694630  0.418940  1.0  -0.1345
  C  C569  1  0.285400  0.950320  0.218110  1.0  0.69
  C  C570  1  0.338710  0.183170  0.870950  1.0  0.1066
  C  C571  1  0.313520  0.154680  0.867710  1.0  -0.1085
  C  C572  1  0.330640  0.206100  0.900230  1.0  -0.0112
  C  C573  1  0.299310  0.194630  0.918940  1.0  -0.1345
  C  C574  1  0.285400  0.450320  0.718110  1.0  0.69
  C  C575  1  0.838710  0.683170  0.870950  1.0  0.1066
  C  C576  1  0.813520  0.654680  0.867710  1.0  -0.1085
  C  C577  1  0.830640  0.706100  0.900230  1.0  -0.0112
  C  C578  1  0.799310  0.694630  0.918940  1.0  -0.1345
  C  C579  1  0.785400  0.950320  0.718110  1.0  0.69
  C  C580  1  0.838710  0.183170  0.370950  1.0  0.1066
  C  C581  1  0.813520  0.154680  0.367710  1.0  -0.1085
  C  C582  1  0.830640  0.206100  0.400230  1.0  -0.0112
  C  C583  1  0.799310  0.194630  0.418940  1.0  -0.1345
  C  C584  1  0.785400  0.450320  0.218110  1.0  0.69
  C  C585  1  0.661290  0.316830  0.370950  1.0  0.1057
  C  C586  1  0.686480  0.345320  0.367710  1.0  -0.1088
  C  C587  1  0.669360  0.293900  0.400230  1.0  -0.0091
  C  C588  1  0.700690  0.305370  0.418940  1.0  -0.1333
  C  C589  1  0.714600  0.049680  0.218110  1.0  0.6908
  C  C590  1  0.661290  0.816830  0.870950  1.0  0.1057
  C  C591  1  0.686480  0.845320  0.867710  1.0  -0.1088
  C  C592  1  0.669360  0.793900  0.900230  1.0  -0.0091
  C  C593  1  0.700690  0.805370  0.918940  1.0  -0.1333
  C  C594  1  0.714600  0.549680  0.718110  1.0  0.6908
  C  C595  1  0.161290  0.316830  0.870950  1.0  0.1057
  C  C596  1  0.186480  0.345320  0.867710  1.0  -0.1088
  C  C597  1  0.169360  0.293900  0.900230  1.0  -0.0091
  C  C598  1  0.200690  0.305370  0.918940  1.0  -0.1333
  C  C599  1  0.214600  0.049680  0.718110  1.0  0.6908
  C  C600  1  0.161290  0.816830  0.370950  1.0  0.1057
  C  C601  1  0.186480  0.845320  0.367710  1.0  -0.1088
  C  C602  1  0.169360  0.793900  0.400230  1.0  -0.0091
  C  C603  1  0.200690  0.805370  0.418940  1.0  -0.1333
  C  C604  1  0.214600  0.549680  0.218110  1.0  0.6908
  C  C605  1  0.661290  0.683170  0.629050  1.0  0.1061
  C  C606  1  0.686480  0.654680  0.632290  1.0  -0.1092
  C  C607  1  0.669360  0.706100  0.599770  1.0  -0.0109
  C  C608  1  0.700690  0.694630  0.581060  1.0  -0.1333
  C  C609  1  0.714600  0.950320  0.781890  1.0  0.692
  C  C610  1  0.661290  0.183170  0.129050  1.0  0.1061
  C  C611  1  0.686480  0.154680  0.132290  1.0  -0.1092
  C  C612  1  0.669360  0.206100  0.099770  1.0  -0.0109
  C  C613  1  0.700690  0.194630  0.081060  1.0  -0.1333
  C  C614  1  0.714600  0.450320  0.281890  1.0  0.692
  C  C615  1  0.161290  0.683170  0.129050  1.0  0.1061
  C  C616  1  0.186480  0.654680  0.132290  1.0  -0.1092
  C  C617  1  0.169360  0.706100  0.099770  1.0  -0.0109
  C  C618  1  0.200690  0.694630  0.081060  1.0  -0.1333
  C  C619  1  0.214600  0.950320  0.281890  1.0  0.692
  C  C620  1  0.161290  0.183170  0.629050  1.0  0.1061
  C  C621  1  0.186480  0.154680  0.632290  1.0  -0.1092
  C  C622  1  0.169360  0.206100  0.599770  1.0  -0.0109
  C  C623  1  0.200690  0.194630  0.581060  1.0  -0.1333
  C  C624  1  0.214600  0.450320  0.781890  1.0  0.692
  S  S625  1  0.400490  0.344500  0.279800  1.0  0.08
  S  S626  1  0.400490  0.844500  0.779800  1.0  0.08
  S  S627  1  0.900490  0.344500  0.779800  1.0  0.08
  S  S628  1  0.900490  0.844500  0.279800  1.0  0.08
  S  S629  1  0.599510  0.655500  0.279800  1.0  0.0825
  S  S630  1  0.599510  0.155500  0.779800  1.0  0.0825
  S  S631  1  0.099510  0.655500  0.779800  1.0  0.0825
  S  S632  1  0.099510  0.155500  0.279800  1.0  0.0825
  S  S633  1  0.599510  0.344500  0.720200  1.0  0.0829
  S  S634  1  0.599510  0.844500  0.220200  1.0  0.0829
  S  S635  1  0.099510  0.344500  0.220200  1.0  0.0829
  S  S636  1  0.099510  0.844500  0.720200  1.0  0.0829
  S  S637  1  0.400490  0.655500  0.720200  1.0  0.0826
  S  S638  1  0.400490  0.155500  0.220200  1.0  0.0826
  S  S639  1  0.900490  0.655500  0.220200  1.0  0.0826
  S  S640  1  0.900490  0.155500  0.720200  1.0  0.0826
  S  S641  1  0.279800  0.400490  0.344500  1.0  0.0755
  S  S642  1  0.279800  0.900490  0.844500  1.0  0.0755
  S  S643  1  0.779800  0.400490  0.844500  1.0  0.0755
  S  S644  1  0.779800  0.900490  0.344500  1.0  0.0755
  S  S645  1  0.279800  0.599510  0.655500  1.0  0.0751
  S  S646  1  0.279800  0.099510  0.155500  1.0  0.0751
  S  S647  1  0.779800  0.599510  0.155500  1.0  0.0751
  S  S648  1  0.779800  0.099510  0.655500  1.0  0.0751
  S  S649  1  0.720200  0.599510  0.344500  1.0  0.0736
  S  S650  1  0.720200  0.099510  0.844500  1.0  0.0736
  S  S651  1  0.220200  0.599510  0.844500  1.0  0.0736
  S  S652  1  0.220200  0.099510  0.344500  1.0  0.0736
  S  S653  1  0.720200  0.400490  0.655500  1.0  0.073
  S  S654  1  0.720200  0.900490  0.155500  1.0  0.073
  S  S655  1  0.220200  0.400490  0.155500  1.0  0.073
  S  S656  1  0.220200  0.900490  0.655500  1.0  0.073
  S  S657  1  0.344500  0.279800  0.400490  1.0  0.0709
  S  S658  1  0.344500  0.779800  0.900490  1.0  0.0709
  S  S659  1  0.844500  0.279800  0.900490  1.0  0.0709
  S  S660  1  0.844500  0.779800  0.400490  1.0  0.0709
  S  S661  1  0.655500  0.279800  0.599510  1.0  0.0735
  S  S662  1  0.655500  0.779800  0.099510  1.0  0.0735
  S  S663  1  0.155500  0.279800  0.099510  1.0  0.0735
  S  S664  1  0.155500  0.779800  0.599510  1.0  0.0735
  S  S665  1  0.344500  0.720200  0.599510  1.0  0.0716
  S  S666  1  0.344500  0.220200  0.099510  1.0  0.0716
  S  S667  1  0.844500  0.720200  0.099510  1.0  0.0716
  S  S668  1  0.844500  0.220200  0.599510  1.0  0.0716
  S  S669  1  0.655500  0.720200  0.400490  1.0  0.0727
  S  S670  1  0.655500  0.220200  0.900490  1.0  0.0727
  S  S671  1  0.155500  0.720200  0.900490  1.0  0.0727
  S  S672  1  0.155500  0.220200  0.400490  1.0  0.0727
  S  S673  1  0.344500  0.400490  0.720200  1.0  0.0815
  S  S674  1  0.344500  0.900490  0.220200  1.0  0.0815
  S  S675  1  0.844500  0.400490  0.220200  1.0  0.0815
  S  S676  1  0.844500  0.900490  0.720200  1.0  0.0815
  S  S677  1  0.655500  0.599510  0.720200  1.0  0.0824
  S  S678  1  0.655500  0.099510  0.220200  1.0  0.0824
  S  S679  1  0.155500  0.599510  0.220200  1.0  0.0824
  S  S680  1  0.155500  0.099510  0.720200  1.0  0.0824
  S  S681  1  0.344500  0.599510  0.279800  1.0  0.0784
  S  S682  1  0.344500  0.099510  0.779800  1.0  0.0784
  S  S683  1  0.844500  0.599510  0.779800  1.0  0.0784
  S  S684  1  0.844500  0.099510  0.279800  1.0  0.0784
  S  S685  1  0.655500  0.400490  0.279800  1.0  0.0799
  S  S686  1  0.655500  0.900490  0.779800  1.0  0.0799
  S  S687  1  0.155500  0.400490  0.779800  1.0  0.0799
  S  S688  1  0.155500  0.900490  0.279800  1.0  0.0799
  S  S689  1  0.400490  0.279800  0.655500  1.0  0.0759
  S  S690  1  0.400490  0.779800  0.155500  1.0  0.0759
  S  S691  1  0.900490  0.279800  0.155500  1.0  0.0759
  S  S692  1  0.900490  0.779800  0.655500  1.0  0.0759
  S  S693  1  0.599510  0.279800  0.344500  1.0  0.0764
  S  S694  1  0.599510  0.779800  0.844500  1.0  0.0764
  S  S695  1  0.099510  0.279800  0.844500  1.0  0.0764
  S  S696  1  0.099510  0.779800  0.344500  1.0  0.0764
  S  S697  1  0.599510  0.720200  0.655500  1.0  0.0757
  S  S698  1  0.599510  0.220200  0.155500  1.0  0.0757
  S  S699  1  0.099510  0.720200  0.155500  1.0  0.0757
  S  S700  1  0.099510  0.220200  0.655500  1.0  0.0757
  S  S701  1  0.400490  0.720200  0.344500  1.0  0.0759
  S  S702  1  0.400490  0.220200  0.844500  1.0  0.0759
  S  S703  1  0.900490  0.720200  0.844500  1.0  0.0759
  S  S704  1  0.900490  0.220200  0.344500  1.0  0.0759
  S  S705  1  0.279800  0.344500  0.599510  1.0  0.0723
  S  S706  1  0.279800  0.844500  0.099510  1.0  0.0723
  S  S707  1  0.779800  0.344500  0.099510  1.0  0.0723
  S  S708  1  0.779800  0.844500  0.599510  1.0  0.0723
  S  S709  1  0.279800  0.655500  0.400490  1.0  0.0722
  S  S710  1  0.279800  0.155500  0.900490  1.0  0.0722
  S  S711  1  0.779800  0.655500  0.900490  1.0  0.0722
  S  S712  1  0.779800  0.155500  0.400490  1.0  0.0722
  S  S713  1  0.720200  0.344500  0.400490  1.0  0.071
  S  S714  1  0.720200  0.844500  0.900490  1.0  0.071
  S  S715  1  0.220200  0.344500  0.900490  1.0  0.071
  S  S716  1  0.220200  0.844500  0.400490  1.0  0.071
  S  S717  1  0.720200  0.655500  0.599510  1.0  0.0708
  S  S718  1  0.720200  0.155500  0.099510  1.0  0.0708
  S  S719  1  0.220200  0.655500  0.099510  1.0  0.0708
  S  S720  1  0.220200  0.155500  0.599510  1.0  0.0708
  O  O721  1  0.247470  0.035980  0.298160  1.0  -0.5898
  O  O722  1  0.295260  0.037220  0.244500  1.0  -0.5883
  O  O723  1  0.247470  0.535980  0.798160  1.0  -0.5898
  O  O724  1  0.295260  0.537220  0.744500  1.0  -0.5883
  O  O725  1  0.747470  0.035980  0.798160  1.0  -0.5898
  O  O726  1  0.795260  0.037220  0.744500  1.0  -0.5883
  O  O727  1  0.747470  0.535980  0.298160  1.0  -0.5898
  O  O728  1  0.795260  0.537220  0.244500  1.0  -0.5883
  O  O729  1  0.752530  0.964020  0.298160  1.0  -0.5887
  O  O730  1  0.704740  0.962780  0.244500  1.0  -0.5871
  O  O731  1  0.752530  0.464020  0.798160  1.0  -0.5887
  O  O732  1  0.704740  0.462780  0.744500  1.0  -0.5871
  O  O733  1  0.252530  0.964020  0.798160  1.0  -0.5887
  O  O734  1  0.204740  0.962780  0.744500  1.0  -0.5871
  O  O735  1  0.252530  0.464020  0.298160  1.0  -0.5887
  O  O736  1  0.204740  0.462780  0.244500  1.0  -0.5871
  O  O737  1  0.752530  0.035980  0.701840  1.0  -0.5885
  O  O738  1  0.704740  0.037220  0.755500  1.0  -0.5874
  O  O739  1  0.752530  0.535980  0.201840  1.0  -0.5885
  O  O740  1  0.704740  0.537220  0.255500  1.0  -0.5874
  O  O741  1  0.252530  0.035980  0.201840  1.0  -0.5885
  O  O742  1  0.204740  0.037220  0.255500  1.0  -0.5874
  O  O743  1  0.252530  0.535980  0.701840  1.0  -0.5885
  O  O744  1  0.204740  0.537220  0.755500  1.0  -0.5874
  O  O745  1  0.247470  0.964020  0.701840  1.0  -0.5897
  O  O746  1  0.295260  0.962780  0.755500  1.0  -0.5886
  O  O747  1  0.247470  0.464020  0.201840  1.0  -0.5897
  O  O748  1  0.295260  0.462780  0.255500  1.0  -0.5886
  O  O749  1  0.747470  0.964020  0.201840  1.0  -0.5897
  O  O750  1  0.795260  0.962780  0.255500  1.0  -0.5886
  O  O751  1  0.747470  0.464020  0.701840  1.0  -0.5897
  O  O752  1  0.795260  0.462780  0.755500  1.0  -0.5886
  O  O753  1  0.298160  0.247470  0.035980  1.0  -0.5896
  O  O754  1  0.244500  0.295260  0.037220  1.0  -0.5903
  O  O755  1  0.298160  0.747470  0.535980  1.0  -0.5896
  O  O756  1  0.244500  0.795260  0.537220  1.0  -0.5903
  O  O757  1  0.798160  0.247470  0.535980  1.0  -0.5896
  O  O758  1  0.744500  0.295260  0.537220  1.0  -0.5903
  O  O759  1  0.798160  0.747470  0.035980  1.0  -0.5896
  O  O760  1  0.744500  0.795260  0.037220  1.0  -0.5903
  O  O761  1  0.298160  0.752530  0.964020  1.0  -0.5892
  O  O762  1  0.244500  0.704740  0.962780  1.0  -0.5903
  O  O763  1  0.298160  0.252530  0.464020  1.0  -0.5892
  O  O764  1  0.244500  0.204740  0.462780  1.0  -0.5903
  O  O765  1  0.798160  0.752530  0.464020  1.0  -0.5892
  O  O766  1  0.744500  0.704740  0.462780  1.0  -0.5903
  O  O767  1  0.798160  0.252530  0.964020  1.0  -0.5892
  O  O768  1  0.744500  0.204740  0.962780  1.0  -0.5903
  O  O769  1  0.701840  0.752530  0.035980  1.0  -0.5884
  O  O770  1  0.755500  0.704740  0.037220  1.0  -0.5899
  O  O771  1  0.701840  0.252530  0.535980  1.0  -0.5884
  O  O772  1  0.755500  0.204740  0.537220  1.0  -0.5899
  O  O773  1  0.201840  0.752530  0.535980  1.0  -0.5884
  O  O774  1  0.255500  0.704740  0.537220  1.0  -0.5899
  O  O775  1  0.201840  0.252530  0.035980  1.0  -0.5884
  O  O776  1  0.255500  0.204740  0.037220  1.0  -0.5899
  O  O777  1  0.701840  0.247470  0.964020  1.0  -0.5896
  O  O778  1  0.755500  0.295260  0.962780  1.0  -0.5903
  O  O779  1  0.701840  0.747470  0.464020  1.0  -0.5896
  O  O780  1  0.755500  0.795260  0.462780  1.0  -0.5903
  O  O781  1  0.201840  0.247470  0.464020  1.0  -0.5896
  O  O782  1  0.255500  0.295260  0.462780  1.0  -0.5903
  O  O783  1  0.201840  0.747470  0.964020  1.0  -0.5896
  O  O784  1  0.255500  0.795260  0.962780  1.0  -0.5903
  O  O785  1  0.035980  0.298160  0.247470  1.0  -0.5905
  O  O786  1  0.037220  0.244500  0.295260  1.0  -0.5893
  O  O787  1  0.035980  0.798160  0.747470  1.0  -0.5905
  O  O788  1  0.037220  0.744500  0.795260  1.0  -0.5893
  O  O789  1  0.535980  0.298160  0.747470  1.0  -0.5905
  O  O790  1  0.537220  0.244500  0.795260  1.0  -0.5893
  O  O791  1  0.535980  0.798160  0.247470  1.0  -0.5905
  O  O792  1  0.537220  0.744500  0.295260  1.0  -0.5893
  O  O793  1  0.964020  0.298160  0.752530  1.0  -0.5919
  O  O794  1  0.962780  0.244500  0.704740  1.0  -0.5918
  O  O795  1  0.964020  0.798160  0.252530  1.0  -0.5919
  O  O796  1  0.962780  0.744500  0.204740  1.0  -0.5918
  O  O797  1  0.464020  0.298160  0.252530  1.0  -0.5919
  O  O798  1  0.462780  0.244500  0.204740  1.0  -0.5918
  O  O799  1  0.464020  0.798160  0.752530  1.0  -0.5919
  O  O800  1  0.462780  0.744500  0.704740  1.0  -0.5918
  O  O801  1  0.035980  0.701840  0.752530  1.0  -0.5914
  O  O802  1  0.037220  0.755500  0.704740  1.0  -0.5889
  O  O803  1  0.035980  0.201840  0.252530  1.0  -0.5914
  O  O804  1  0.037220  0.255500  0.204740  1.0  -0.5889
  O  O805  1  0.535980  0.701840  0.252530  1.0  -0.5914
  O  O806  1  0.537220  0.755500  0.204740  1.0  -0.5889
  O  O807  1  0.535980  0.201840  0.752530  1.0  -0.5914
  O  O808  1  0.537220  0.255500  0.704740  1.0  -0.5889
  O  O809  1  0.964020  0.701840  0.247470  1.0  -0.5912
  O  O810  1  0.962780  0.755500  0.295260  1.0  -0.5902
  O  O811  1  0.964020  0.201840  0.747470  1.0  -0.5912
  O  O812  1  0.962780  0.255500  0.795260  1.0  -0.5902
  O  O813  1  0.464020  0.701840  0.747470  1.0  -0.5912
  O  O814  1  0.462780  0.755500  0.795260  1.0  -0.5902
  O  O815  1  0.464020  0.201840  0.247470  1.0  -0.5912
  O  O816  1  0.462780  0.255500  0.295260  1.0  -0.5902
  O  O817  1  0.035980  0.247470  0.701840  1.0  -0.5937
  O  O818  1  0.037220  0.295260  0.755500  1.0  -0.5913
  O  O819  1  0.035980  0.747470  0.201840  1.0  -0.5937
  O  O820  1  0.037220  0.795260  0.255500  1.0  -0.5913
  O  O821  1  0.535980  0.247470  0.201840  1.0  -0.5937
  O  O822  1  0.537220  0.295260  0.255500  1.0  -0.5913
  O  O823  1  0.535980  0.747470  0.701840  1.0  -0.5937
  O  O824  1  0.537220  0.795260  0.755500  1.0  -0.5913
  O  O825  1  0.964020  0.752530  0.701840  1.0  -0.5914
  O  O826  1  0.962780  0.704740  0.755500  1.0  -0.5919
  O  O827  1  0.964020  0.252530  0.201840  1.0  -0.5914
  O  O828  1  0.962780  0.204740  0.255500  1.0  -0.5919
  O  O829  1  0.464020  0.752530  0.201840  1.0  -0.5914
  O  O830  1  0.462780  0.704740  0.255500  1.0  -0.5919
  O  O831  1  0.464020  0.252530  0.701840  1.0  -0.5914
  O  O832  1  0.462780  0.204740  0.755500  1.0  -0.5919
  O  O833  1  0.035980  0.752530  0.298160  1.0  -0.5913
  O  O834  1  0.037220  0.704740  0.244500  1.0  -0.591
  O  O835  1  0.035980  0.252530  0.798160  1.0  -0.5913
  O  O836  1  0.037220  0.204740  0.744500  1.0  -0.591
  O  O837  1  0.535980  0.752530  0.798160  1.0  -0.5913
  O  O838  1  0.537220  0.704740  0.744500  1.0  -0.591
  O  O839  1  0.535980  0.252530  0.298160  1.0  -0.5913
  O  O840  1  0.537220  0.204740  0.244500  1.0  -0.591
  O  O841  1  0.964020  0.247470  0.298160  1.0  -0.5923
  O  O842  1  0.962780  0.295260  0.244500  1.0  -0.5923
  O  O843  1  0.964020  0.747470  0.798160  1.0  -0.5923
  O  O844  1  0.962780  0.795260  0.744500  1.0  -0.5923
  O  O845  1  0.464020  0.247470  0.798160  1.0  -0.5923
  O  O846  1  0.462780  0.295260  0.744500  1.0  -0.5923
  O  O847  1  0.464020  0.747470  0.298160  1.0  -0.5923
  O  O848  1  0.462780  0.795260  0.244500  1.0  -0.5923
  O  O849  1  0.247470  0.298160  0.964020  1.0  -0.5912
  O  O850  1  0.295260  0.244500  0.962780  1.0  -0.5889
  O  O851  1  0.247470  0.798160  0.464020  1.0  -0.5912
  O  O852  1  0.295260  0.744500  0.462780  1.0  -0.5889
  O  O853  1  0.747470  0.298160  0.464020  1.0  -0.5912
  O  O854  1  0.795260  0.244500  0.462780  1.0  -0.5889
  O  O855  1  0.747470  0.798160  0.964020  1.0  -0.5912
  O  O856  1  0.795260  0.744500  0.962780  1.0  -0.5889
  O  O857  1  0.752530  0.298160  0.035980  1.0  -0.5897
  O  O858  1  0.704740  0.244500  0.037220  1.0  -0.5879
  O  O859  1  0.752530  0.798160  0.535980  1.0  -0.5897
  O  O860  1  0.704740  0.744500  0.537220  1.0  -0.5879
  O  O861  1  0.252530  0.298160  0.535980  1.0  -0.5897
  O  O862  1  0.204740  0.244500  0.537220  1.0  -0.5879
  O  O863  1  0.252530  0.798160  0.035980  1.0  -0.5897
  O  O864  1  0.204740  0.744500  0.037220  1.0  -0.5879
  O  O865  1  0.752530  0.701840  0.964020  1.0  -0.5903
  O  O866  1  0.704740  0.755500  0.962780  1.0  -0.5865
  O  O867  1  0.752530  0.201840  0.464020  1.0  -0.5903
  O  O868  1  0.704740  0.255500  0.462780  1.0  -0.5865
  O  O869  1  0.252530  0.701840  0.464020  1.0  -0.5903
  O  O870  1  0.204740  0.755500  0.462780  1.0  -0.5865
  O  O871  1  0.252530  0.201840  0.964020  1.0  -0.5903
  O  O872  1  0.204740  0.255500  0.962780  1.0  -0.5865
  O  O873  1  0.247470  0.701840  0.035980  1.0  -0.5919
  O  O874  1  0.295260  0.755500  0.037220  1.0  -0.5889
  O  O875  1  0.247470  0.201840  0.535980  1.0  -0.5919
  O  O876  1  0.295260  0.255500  0.537220  1.0  -0.5889
  O  O877  1  0.747470  0.701840  0.535980  1.0  -0.5919
  O  O878  1  0.795260  0.755500  0.537220  1.0  -0.5889
  O  O879  1  0.747470  0.201840  0.035980  1.0  -0.5919
  O  O880  1  0.795260  0.255500  0.037220  1.0  -0.5889
  O  O881  1  0.298160  0.035980  0.752530  1.0  -0.5871
  O  O882  1  0.244500  0.037220  0.704740  1.0  -0.5881
  O  O883  1  0.298160  0.535980  0.252530  1.0  -0.5871
  O  O884  1  0.244500  0.537220  0.204740  1.0  -0.5881
  O  O885  1  0.798160  0.035980  0.252530  1.0  -0.5871
  O  O886  1  0.744500  0.037220  0.204740  1.0  -0.5881
  O  O887  1  0.798160  0.535980  0.752530  1.0  -0.5871
  O  O888  1  0.744500  0.537220  0.704740  1.0  -0.5881
  O  O889  1  0.298160  0.964020  0.247470  1.0  -0.5869
  O  O890  1  0.244500  0.962780  0.295260  1.0  -0.5885
  O  O891  1  0.298160  0.464020  0.747470  1.0  -0.5869
  O  O892  1  0.244500  0.462780  0.795260  1.0  -0.5885
  O  O893  1  0.798160  0.964020  0.747470  1.0  -0.5869
  O  O894  1  0.744500  0.962780  0.795260  1.0  -0.5885
  O  O895  1  0.798160  0.464020  0.247470  1.0  -0.5869
  O  O896  1  0.744500  0.462780  0.295260  1.0  -0.5885
  O  O897  1  0.701840  0.035980  0.247470  1.0  -0.587
  O  O898  1  0.755500  0.037220  0.295260  1.0  -0.5879
  O  O899  1  0.701840  0.535980  0.747470  1.0  -0.587
  O  O900  1  0.755500  0.537220  0.795260  1.0  -0.5879
  O  O901  1  0.201840  0.035980  0.747470  1.0  -0.587
  O  O902  1  0.255500  0.037220  0.795260  1.0  -0.5879
  O  O903  1  0.201840  0.535980  0.247470  1.0  -0.587
  O  O904  1  0.255500  0.537220  0.295260  1.0  -0.5879
  O  O905  1  0.701840  0.964020  0.752530  1.0  -0.5884
  O  O906  1  0.755500  0.962780  0.704740  1.0  -0.5873
  O  O907  1  0.701840  0.464020  0.252530  1.0  -0.5884
  O  O908  1  0.755500  0.462780  0.204740  1.0  -0.5873
  O  O909  1  0.201840  0.964020  0.252530  1.0  -0.5884
  O  O910  1  0.255500  0.962780  0.204740  1.0  -0.5873
  O  O911  1  0.201840  0.464020  0.752530  1.0  -0.5884
  O  O912  1  0.255500  0.462780  0.704740  1.0  -0.5873
