# generated using pymatgen
data_Nd8Cu4H96C191N32O61
_symmetry_space_group_name_H-M   'P 1'
_cell_length_a   11.29930000
_cell_length_b   32.55740000
_cell_length_c   32.55750000
_cell_angle_alpha   88.27450000
_cell_angle_beta   80.00700000
_cell_angle_gamma   80.00730000
_symmetry_Int_Tables_number   1
_chemical_formula_structural   Nd8Cu4H96C191N32O61
_chemical_formula_sum   'Nd16 Cu8 H192 C382 N64 O122'
_cell_volume   11616.47407161
_cell_formula_units_Z   2
loop_
 _symmetry_equiv_pos_site_id
 _symmetry_equiv_pos_as_xyz
  1  'x, y, z'
loop_
 _atom_site_type_symbol
 _atom_site_label
 _atom_site_symmetry_multiplicity
 _atom_site_fract_x
 _atom_site_fract_y
 _atom_site_fract_z
 _atom_site_occupancy
 _atom_site_charge
  Nd  Nd1  1  0.290320  0.669290  0.031750  1.0  2.258
  Nd  Nd2  1  0.709680  0.330710  0.968250  1.0  2.2548
  Nd  Nd3  1  0.174090  0.027630  0.829790  1.0  2.2058
  Nd  Nd4  1  0.677930  0.031750  0.830710  1.0  2.2566
  Nd  Nd5  1  0.798280  0.670210  0.027630  1.0  2.2047
  Nd  Nd6  1  0.508640  0.169290  0.531750  1.0  2.2604
  Nd  Nd7  1  0.959610  0.531750  0.330710  1.0  2.2481
  Nd  Nd8  1  0.491360  0.830710  0.468250  1.0  2.2572
  Nd  Nd9  1  0.201720  0.329790  0.972370  1.0  2.2039
  Nd  Nd10  1  0.040390  0.468250  0.669290  1.0  2.2482
  Nd  Nd11  1  0.322070  0.968250  0.169290  1.0  2.2569
  Nd  Nd12  1  0.468490  0.527630  0.329790  1.0  2.2031
  Nd  Nd13  1  0.531510  0.472370  0.670210  1.0  2.2042
  Nd  Nd14  1  0.825910  0.972370  0.170210  1.0  2.2009
  Nd  Nd15  1  0.003880  0.170210  0.527630  1.0  2.2639
  Nd  Nd16  1  0.996120  0.829790  0.472370  1.0  2.2642
  Cu  Cu17  1  0.084220  0.462730  0.130390  1.0  0.6663
  Cu  Cu18  1  0.546940  0.630400  0.537270  1.0  0.6546
  Cu  Cu19  1  0.453060  0.369600  0.462730  1.0  0.6543
  Cu  Cu20  1  0.822660  0.962730  0.630390  1.0  0.661
  Cu  Cu21  1  0.785380  0.130400  0.037270  1.0  0.6657
  Cu  Cu22  1  0.915780  0.537270  0.869610  1.0  0.6659
  Cu  Cu23  1  0.177340  0.037270  0.369610  1.0  0.66
  Cu  Cu24  1  0.214620  0.869600  0.962730  1.0  0.6662
  H  H25  1  0.763400  0.585700  0.812100  1.0  0.0934
  H  H26  1  0.793400  0.711400  0.876800  1.0  0.1067
  H  H27  1  0.575500  0.187900  0.085700  1.0  0.0931
  H  H28  1  0.384600  0.453400  0.786200  1.0  0.0994
  H  H29  1  0.831900  0.875700  0.783100  1.0  0.1163
  H  H30  1  0.575100  0.706100  0.478100  1.0  0.0769
  H  H31  1  0.752200  0.474300  0.463300  1.0  0.1068
  H  H32  1  0.006000  0.319800  0.144600  1.0  0.1208
  H  H33  1  0.101000  0.106200  0.004000  1.0  0.0708
  H  H34  1  0.707600  0.283100  0.124300  1.0  0.1151
  H  H35  1  0.823700  0.277300  0.642300  1.0  0.1181
  H  H36  1  0.424900  0.293900  0.521900  1.0  0.0764
  H  H37  1  0.448900  0.016500  0.060700  1.0  0.0972
  H  H38  1  0.168100  0.124300  0.216900  1.0  0.1158
  H  H39  1  0.315800  0.862900  0.135900  1.0  0.0709
  H  H40  1  0.784500  0.463300  0.025700  1.0  0.1068
  H  H41  1  0.090600  0.861900  0.890300  1.0  0.0871
  H  H42  1  0.247800  0.525700  0.536700  1.0  0.107
  H  H43  1  0.661200  0.914300  0.687900  1.0  0.0936
  H  H44  1  0.629500  0.539400  0.142600  1.0  0.1149
  H  H45  1  0.375000  0.160800  0.866400  1.0  0.0923
  H  H46  1  0.740700  0.206100  0.978100  1.0  0.0771
  H  H47  1  0.548300  0.135900  0.637100  1.0  0.0692
  H  H48  1  0.170700  0.781100  0.089700  1.0  0.1146
  H  H49  1  0.520300  0.998200  0.620400  1.0  0.0665
  H  H50  1  0.236600  0.414300  0.187900  1.0  0.0949
  H  H51  1  0.509600  0.939300  0.516500  1.0  0.0975
  H  H52  1  0.260400  0.910300  0.281100  1.0  0.1127
  H  H53  1  0.423300  0.255000  0.372400  1.0  0.1071
  H  H54  1  0.118700  0.030900  0.526700  1.0  0.1053
  H  H55  1  0.615000  0.216900  0.375700  1.0  0.1124
  H  H56  1  0.534000  0.642300  0.222700  1.0  0.1188
  H  H57  1  0.645400  0.473300  0.530900  1.0  0.1048
  H  H58  1  0.081200  0.062300  0.464500  1.0  0.0862
  H  H59  1  0.781300  0.756300  0.208700  1.0  0.0631
  H  H60  1  0.010000  0.208700  0.743700  1.0  0.0666
  H  H61  1  0.570600  0.006800  0.436400  1.0  0.1156
  H  H62  1  0.756700  0.777300  0.142300  1.0  0.1177
  H  H63  1  0.162000  0.713800  0.453400  1.0  0.1
  H  H64  1  0.970400  0.180200  0.355400  1.0  0.1159
  H  H65  1  0.599300  0.959300  0.309900  1.0  0.1204
  H  H66  1  0.479700  0.001800  0.379600  1.0  0.0658
  H  H67  1  0.338800  0.085700  0.312100  1.0  0.0929
  H  H68  1  0.525500  0.662800  0.369800  1.0  0.1027
  H  H69  1  0.454300  0.464500  0.437700  1.0  0.0867
  H  H70  1  0.902200  0.339200  0.633600  1.0  0.0932
  H  H71  1  0.814600  0.637100  0.364100  1.0  0.0709
  H  H72  1  0.534600  0.439300  0.016500  1.0  0.0975
  H  H73  1  0.849400  0.144600  0.180200  1.0  0.1203
  H  H74  1  0.422600  0.063600  0.006800  1.0  0.1162
  H  H75  1  0.097800  0.660800  0.366400  1.0  0.0926
  H  H76  1  0.772100  0.857400  0.039400  1.0  0.1136
  H  H77  1  0.168900  0.642600  0.460600  1.0  0.1128
  H  H78  1  0.551100  0.983500  0.939300  1.0  0.0977
  H  H79  1  0.711200  0.393800  0.496000  1.0  0.0679
  H  H80  1  0.150600  0.855400  0.819800  1.0  0.1207
  H  H81  1  0.342800  0.638100  0.609700  1.0  0.0874
  H  H82  1  0.424500  0.812100  0.914300  1.0  0.0936
  H  H83  1  0.497800  0.071100  0.630900  1.0  0.1134
  H  H84  1  0.466000  0.357700  0.777300  1.0  0.1186
  H  H85  1  0.577400  0.936400  0.993200  1.0  0.1151
  H  H86  1  0.349100  0.312100  0.414300  1.0  0.0904
  H  H87  1  0.206600  0.288600  0.123200  1.0  0.107
  H  H88  1  0.048200  0.410300  0.781100  1.0  0.1138
  H  H89  1  0.185400  0.362900  0.635900  1.0  0.0704
  H  H90  1  0.227900  0.142600  0.960600  1.0  0.1115
  H  H91  1  0.441400  0.190100  0.959300  1.0  0.12
  H  H92  1  0.292400  0.716900  0.875700  1.0  0.1142
  H  H93  1  0.550700  0.245000  0.127600  1.0  0.1085
  H  H94  1  0.952500  0.390300  0.138100  1.0  0.0878
  H  H95  1  0.143500  0.964500  0.937700  1.0  0.0867
  H  H96  1  0.990700  0.624300  0.716900  1.0  0.1206
  H  H97  1  0.513800  0.493200  0.063600  1.0  0.1154
  H  H98  1  0.281200  0.978100  0.293900  1.0  0.076
  H  H99  1  0.941900  0.162800  0.869800  1.0  0.1021
  H  H100  1  0.474500  0.337200  0.630200  1.0  0.1024
  H  H101  1  0.246300  0.743700  0.291300  1.0  0.0649
  H  H102  1  0.451700  0.864100  0.362900  1.0  0.0697
  H  H103  1  0.568900  0.130900  0.928900  1.0  0.1122
  H  H104  1  0.361100  0.498200  0.120400  1.0  0.0659
  H  H105  1  0.176300  0.469100  0.973300  1.0  0.1036
  H  H106  1  0.029600  0.819800  0.644600  1.0  0.1154
  H  H107  1  0.458500  0.281100  0.589700  1.0  0.1149
  H  H108  1  0.699800  0.428900  0.869100  1.0  0.1117
  H  H109  1  0.631500  0.459300  0.809900  1.0  0.12
  H  H110  1  0.321700  0.127600  0.255000  1.0  0.1075
  H  H111  1  0.670200  0.123200  0.211400  1.0  0.1072
  H  H112  1  0.909400  0.138100  0.109700  1.0  0.0874
  H  H113  1  0.188300  0.869800  0.337200  1.0  0.1026
  H  H114  1  0.207200  0.504000  0.893800  1.0  0.069
  H  H115  1  0.918800  0.937700  0.535500  1.0  0.0862
  H  H116  1  0.429400  0.993200  0.563600  1.0  0.116
  H  H117  1  0.218700  0.243700  0.791300  1.0  0.0667
  H  H118  1  0.058100  0.837200  0.130200  1.0  0.1017
  H  H119  1  0.329800  0.876800  0.788600  1.0  0.1069
  H  H120  1  0.795700  0.627600  0.755000  1.0  0.1059
  H  H121  1  0.875800  0.953400  0.286200  1.0  0.0994
  H  H122  1  0.838000  0.286200  0.546600  1.0  0.1002
  H  H123  1  0.899000  0.857700  0.277300  1.0  0.1182
  H  H124  1  0.993000  0.436400  0.493200  1.0  0.1159
  H  H125  1  0.829200  0.786200  0.046600  1.0  0.0996
  H  H126  1  0.502200  0.928900  0.369100  1.0  0.113
  H  H127  1  0.558600  0.809900  0.040700  1.0  0.1201
  H  H128  1  0.718800  0.021900  0.706100  1.0  0.0767
  H  H129  1  0.176300  0.722700  0.357700  1.0  0.1187
  H  H130  1  0.204300  0.372400  0.245000  1.0  0.105
  H  H131  1  0.288800  0.606200  0.504000  1.0  0.0705
  H  H132  1  0.104700  0.369800  0.837200  1.0  0.1025
  H  H133  1  0.504800  0.376800  0.288600  1.0  0.1066
  H  H134  1  0.370500  0.460600  0.857400  1.0  0.1152
  H  H135  1  0.464200  0.633600  0.160800  1.0  0.0914
  H  H136  1  0.490400  0.060700  0.483500  1.0  0.0981
  H  H137  1  0.684200  0.137100  0.864100  1.0  0.071
  H  H138  1  0.811500  0.960600  0.357400  1.0  0.1137
  H  H139  1  0.856500  0.035500  0.062300  1.0  0.0864
  H  H140  1  0.535800  0.366400  0.839200  1.0  0.0915
  H  H141  1  0.850400  0.973300  0.030900  1.0  0.1048
  H  H142  1  0.215500  0.536700  0.974300  1.0  0.1069
  H  H143  1  0.090800  0.309900  0.540700  1.0  0.1176
  H  H144  1  0.810200  0.974300  0.963300  1.0  0.1066
  H  H145  1  0.118400  0.211400  0.376800  1.0  0.1075
  H  H146  1  0.465400  0.560700  0.983500  1.0  0.0971
  H  H147  1  0.481500  0.879600  0.998200  1.0  0.0661
  H  H148  1  0.831100  0.357400  0.539400  1.0  0.1131
  H  H149  1  0.149600  0.026700  0.969100  1.0  0.1047
  H  H150  1  0.792800  0.496000  0.106200  1.0  0.0695
  H  H151  1  0.638900  0.501800  0.879600  1.0  0.0661
  H  H152  1  0.990000  0.791300  0.256300  1.0  0.0652
  H  H153  1  0.385000  0.783100  0.624300  1.0  0.1132
  H  H154  1  0.047500  0.609700  0.861900  1.0  0.0882
  H  H155  1  0.053200  0.521900  0.206100  1.0  0.078
  H  H156  1  0.007000  0.563600  0.506800  1.0  0.1163
  H  H157  1  0.811700  0.130200  0.662800  1.0  0.1032
  H  H158  1  0.871300  0.630900  0.428900  1.0  0.1131
  H  H159  1  0.105000  0.996000  0.606200  1.0  0.0714
  H  H160  1  0.495200  0.623200  0.711400  1.0  0.1081
  H  H161  1  0.895000  0.004000  0.393800  1.0  0.0714
  H  H162  1  0.259300  0.793900  0.021900  1.0  0.0767
  H  H163  1  0.657200  0.361900  0.390300  1.0  0.0886
  H  H164  1  0.486200  0.506800  0.936400  1.0  0.1154
  H  H165  1  0.101000  0.142300  0.722700  1.0  0.1178
  H  H166  1  0.892000  0.562300  0.964500  1.0  0.0857
  H  H167  1  0.541500  0.718900  0.410300  1.0  0.114
  H  H168  1  0.128700  0.369100  0.571100  1.0  0.1138
  H  H169  1  0.678300  0.872400  0.745000  1.0  0.1073
  H  H170  1  0.170800  0.213800  0.953400  1.0  0.1001
  H  H171  1  0.821300  0.364100  0.862900  1.0  0.0708
  H  H172  1  0.325800  0.644600  0.680200  1.0  0.1209
  H  H173  1  0.773500  0.036700  0.474300  1.0  0.1054
  H  H174  1  0.615400  0.546600  0.213800  1.0  0.0991
  H  H175  1  0.951800  0.589700  0.218900  1.0  0.1163
  H  H176  1  0.899000  0.893800  0.996000  1.0  0.0686
  H  H177  1  0.674200  0.355400  0.319800  1.0  0.121
  H  H178  1  0.124200  0.046600  0.713800  1.0  0.0998
  H  H179  1  0.189800  0.025700  0.036700  1.0  0.1065
  H  H180  1  0.431100  0.869100  0.071100  1.0  0.1148
  H  H181  1  0.537600  0.708700  0.243700  1.0  0.065
  H  H182  1  0.009300  0.375700  0.283100  1.0  0.12
  H  H183  1  0.243300  0.222700  0.857700  1.0  0.1177
  H  H184  1  0.823700  0.530900  0.026700  1.0  0.1052
  H  H185  1  0.576700  0.745000  0.627600  1.0  0.1071
  H  H186  1  0.994000  0.680200  0.855400  1.0  0.121
  H  H187  1  0.758600  0.866400  0.339200  1.0  0.0919
  H  H188  1  0.881300  0.969100  0.473300  1.0  0.103
  H  H189  1  0.753700  0.256300  0.708700  1.0  0.0637
  H  H190  1  0.226500  0.963300  0.525700  1.0  0.1051
  H  H191  1  0.140700  0.379600  0.498200  1.0  0.0672
  H  H192  1  0.241400  0.133600  0.660800  1.0  0.0919
  H  H193  1  0.895300  0.630200  0.162800  1.0  0.103
  H  H194  1  0.909200  0.690100  0.459300  1.0  0.1183
  H  H195  1  0.881600  0.788600  0.623200  1.0  0.1078
  H  H196  1  0.368500  0.540700  0.190100  1.0  0.1208
  H  H197  1  0.108000  0.437700  0.035500  1.0  0.0852
  H  H198  1  0.400700  0.040700  0.690100  1.0  0.121
  H  H199  1  0.829300  0.218900  0.910300  1.0  0.1144
  H  H200  1  0.946800  0.478100  0.793900  1.0  0.0782
  H  H201  1  0.973900  0.516500  0.560700  1.0  0.1002
  H  H202  1  0.650900  0.687900  0.585700  1.0  0.0916
  H  H203  1  0.545700  0.535500  0.562300  1.0  0.0858
  H  H204  1  0.019100  0.890300  0.638100  1.0  0.0827
  H  H205  1  0.354600  0.526700  0.469100  1.0  0.1043
  H  H206  1  0.625000  0.839200  0.133600  1.0  0.0932
  H  H207  1  0.188500  0.039400  0.642600  1.0  0.1134
  H  H208  1  0.859300  0.620400  0.501800  1.0  0.0672
  H  H209  1  0.739600  0.089700  0.718900  1.0  0.1123
  H  H210  1  0.300200  0.571100  0.130900  1.0  0.1147
  H  H211  1  0.026100  0.483500  0.439300  1.0  0.0997
  H  H212  1  0.518500  0.120400  0.001800  1.0  0.0673
  H  H213  1  0.980900  0.109700  0.361900  1.0  0.0831
  H  H214  1  0.462400  0.291300  0.756300  1.0  0.0664
  H  H215  1  0.449300  0.755000  0.872400  1.0  0.108
  H  H216  1  0.178700  0.635900  0.137100  1.0  0.0709
  C  C217  1  0.721460  0.588430  0.679450  1.0  0.0725
  C  C218  1  0.415810  0.759800  0.607380  1.0  -0.0626
  C  C219  1  0.926940  0.273080  0.078440  1.0  0.6703
  C  C220  1  0.615810  0.909780  0.272000  1.0  -0.0808
  C  C221  1  0.905070  0.117820  0.911840  1.0  -0.1469
  C  C222  1  0.683050  0.914610  0.585890  1.0  0.1614
  C  C223  1  0.197260  0.656440  0.266840  1.0  0.1592
  C  C224  1  0.901090  0.158190  0.896430  1.0  -0.0
  C  C225  1  0.994620  0.078440  0.226920  1.0  0.6715
  C  C226  1  0.841860  0.584520  0.797160  1.0  0.1287
  C  C227  1  0.333900  0.899550  0.884250  1.0  0.0871
  C  C228  1  0.485570  0.191140  0.932520  1.0  -0.0177
  C  C229  1  0.687900  0.524120  0.156480  1.0  -0.15
  C  C230  1  0.856350  0.475020  0.195280  1.0  0.1138
  C  C231  1  0.765300  0.512710  0.264490  1.0  0.6997
  C  C232  1  0.883070  0.834870  0.293990  1.0  -0.2059
  C  C233  1  0.384190  0.090220  0.728000  1.0  -0.0804
  C  C234  1  0.966510  0.622070  0.870310  1.0  0.134
  C  C235  1  0.792880  0.048590  0.612050  1.0  0.1464
  C  C236  1  0.972030  0.579290  0.191850  1.0  -0.1336
  C  C237  1  0.112190  0.272000  0.590220  1.0  -0.0832
  C  C238  1  0.848210  0.602530  0.524450  1.0  0.1816
  C  C239  1  0.676710  0.432520  0.808860  1.0  -0.0188
  C  C240  1  0.584190  0.240200  0.392620  1.0  -0.0615
  C  C241  1  0.683550  0.585390  0.914110  1.0  0.1628
  C  C242  1  0.782700  0.805480  0.356320  1.0  -0.12
  C  C243  1  0.437360  0.843690  0.084990  1.0  -0.1177
  C  C244  1  0.948370  0.195280  0.024980  1.0  0.117
  C  C245  1  0.462000  0.416650  0.612950  1.0  0.6886
  C  C246  1  0.731060  0.585890  0.585390  1.0  0.1751
  C  C247  1  0.482310  0.295050  0.782330  1.0  0.1482
  C  C248  1  0.218150  0.115750  0.399550  1.0  0.0862
  C  C249  1  0.723540  0.915480  0.702840  1.0  0.1367
  C  C250  1  0.448680  0.308150  0.579290  1.0  -0.1316
  C  C251  1  0.966180  0.835800  0.633440  1.0  -0.1632
  C  C252  1  0.388710  0.396360  0.341220  1.0  -0.0739
  C  C253  1  0.819610  0.998790  0.975390  1.0  -0.0448
  C  C254  1  0.524540  0.558850  0.959470  1.0  0.0167
  C  C255  1  0.094150  0.028080  0.698820  1.0  0.0179
  C  C256  1  0.582660  0.535360  0.534520  1.0  0.1479
  C  C257  1  0.803520  0.028280  0.571280  1.0  0.0921
  C  C258  1  0.300490  0.464280  0.547540  1.0  -0.0704
  C  C259  1  0.118020  0.034520  0.464640  1.0  0.1484
  C  C260  1  0.965330  0.461130  0.816210  1.0  0.1403
  C  C261  1  0.973350  0.975020  0.695280  1.0  0.1171
  C  C262  1  0.374800  0.428720  0.528280  1.0  0.094
  C  C263  1  0.207120  0.951410  0.387950  1.0  0.1461
  C  C264  1  0.059280  0.396430  0.841810  1.0  -0.0016
  C  C265  1  0.517690  0.704950  0.217670  1.0  0.1491
  C  C266  1  0.822940  0.293990  0.665130  1.0  -0.1901
  C  C267  1  0.599800  0.588590  0.951610  1.0  -0.1217
  C  C268  1  0.545550  0.229250  0.870450  1.0  0.1693
  C  C269  1  0.611280  0.311030  0.894210  1.0  0.6768
  C  C270  1  0.175610  0.107380  0.240200  1.0  -0.0839
  C  C271  1  0.927690  0.420070  0.247550  1.0  -0.0951
  C  C272  1  0.527720  0.340070  0.831090  1.0  -0.0123
  C  C273  1  0.454450  0.770750  0.129550  1.0  0.1678
  C  C274  1  0.925050  0.612950  0.083350  1.0  0.6857
  C  C275  1  0.514430  0.808860  0.067480  1.0  -0.0186
  C  C276  1  0.573540  0.683790  0.461130  1.0  0.1412
  C  C277  1  0.781540  0.183790  0.961130  1.0  0.1397
  C  C278  1  0.620540  0.843560  0.233160  1.0  0.1583
  C  C279  1  0.180390  0.001210  0.024610  1.0  -0.0443
  C  C280  1  0.448590  0.951610  0.911410  1.0  -0.1174
  C  C281  1  0.787980  0.343520  0.524120  1.0  -0.157
  C  C282  1  0.878300  0.817270  0.620530  1.0  -0.0823
  C  C283  1  0.183090  0.911840  0.382180  1.0  -0.143
  C  C284  1  0.605070  0.287240  0.444820  1.0  0.1212
  C  C285  1  0.426460  0.316210  0.538870  1.0  0.1414
  C  C286  1  0.588180  0.856320  0.194520  1.0  -0.1206
  C  C287  1  0.347760  0.747550  0.579930  1.0  0.0048
  C  C288  1  0.630910  0.160510  0.875670  1.0  0.1758
  C  C289  1  0.096920  0.528280  0.071280  1.0  0.0921
  C  C290  1  0.475460  0.441150  0.040530  1.0  0.0138
  C  C291  1  0.666100  0.100450  0.115750  1.0  0.087
  C  C292  1  0.316450  0.414610  0.085890  1.0  0.1627
  C  C293  1  0.721990  0.235510  0.512710  1.0  0.7184
  C  C294  1  0.400910  0.320550  0.088430  1.0  0.6797
  C  C295  1  0.167090  0.339490  0.624330  1.0  0.1768
  C  C296  1  0.818400  0.475390  0.001210  1.0  -0.0476
  C  C297  1  0.890770  0.691140  0.432520  1.0  -0.0152
  C  C298  1  0.878650  0.112950  0.583350  1.0  0.6857
  C  C299  1  0.455710  0.341810  0.603570  1.0  0.0008
  C  C300  1  0.831800  0.071280  0.971720  1.0  0.0916
  C  C301  1  0.163180  0.870310  0.877930  1.0  0.1385
  C  C302  1  0.799980  0.421560  0.273080  1.0  0.6703
  C  C303  1  0.457140  0.058850  0.459470  1.0  0.0136
  C  C304  1  0.143080  0.016150  0.501690  1.0  -0.1037
  C  C305  1  0.797520  0.103570  0.658190  1.0  0.0003
  C  C306  1  0.504140  0.026650  0.431870  1.0  -0.1877
  C  C307  1  0.376340  0.762920  0.890600  1.0  -0.1071
  C  C308  1  0.623660  0.237080  0.109400  1.0  -0.1107
  C  C309  1  0.495860  0.973350  0.568130  1.0  -0.1851
  C  C310  1  0.511930  0.665130  0.206010  1.0  -0.1982
  C  C311  1  0.257330  0.961130  0.316210  1.0  0.1407
  C  C312  1  0.139020  0.643680  0.305480  1.0  -0.1217
  C  C313  1  0.916660  0.002800  0.364880  1.0  0.1698
  C  C314  1  0.416000  0.129550  0.729250  1.0  0.1696
  C  C315  1  0.683480  0.811030  0.394210  1.0  0.6735
  C  C316  1  0.766550  0.615750  0.899550  1.0  0.086
  C  C317  1  0.922550  0.764820  0.428280  1.0  0.6951
  C  C318  1  0.510660  0.088430  0.179450  1.0  0.6808
  C  C319  1  0.617700  0.600450  0.615750  1.0  0.0945
  C  C320  1  0.051630  0.804720  0.975020  1.0  0.1163
  C  C321  1  0.073060  0.726920  0.921560  1.0  0.6712
  C  C322  1  0.360000  0.088590  0.451610  1.0  -0.1214
  C  C323  1  0.882820  0.534520  0.964640  1.0  0.1477
  C  C324  1  0.551410  0.048390  0.088590  1.0  -0.1195
  C  C325  1  0.735360  0.782330  0.204950  1.0  0.1447
  C  C326  1  0.421140  0.984600  0.878920  1.0  0.7115
  C  C327  1  0.005380  0.921560  0.773080  1.0  0.6712
  C  C328  1  0.729880  0.280780  0.504060  1.0  -0.1027
  C  C329  1  0.493420  0.875670  0.339490  1.0  0.173
  C  C330  1  0.470140  0.262920  0.390600  1.0  -0.0965
  C  C331  1  0.316520  0.188970  0.605790  1.0  0.6741
  C  C332  1  0.312100  0.475880  0.843520  1.0  -0.1497
  C  C333  1  0.489340  0.911570  0.820550  1.0  0.68
  C  C334  1  0.207030  0.698820  0.471920  1.0  0.0184
  C  C335  1  0.215340  0.484600  0.378920  1.0  0.7133
  C  C336  1  0.152540  0.964640  0.965480  1.0  0.1499
  C  C337  1  0.095310  0.079930  0.252450  1.0  -0.0891
  C  C338  1  0.278010  0.764490  0.487290  1.0  0.7189
  C  C339  1  0.358810  0.168910  0.840070  1.0  -0.0107
  C  C340  1  0.729930  0.658780  0.896360  1.0  -0.0947
  C  C341  1  0.121350  0.887050  0.416650  1.0  0.6846
  C  C342  1  0.151970  0.547540  0.035720  1.0  -0.0689
  C  C343  1  0.158140  0.415480  0.202840  1.0  0.1274
  C  C344  1  0.300060  0.121080  0.484600  1.0  0.7174
  C  C345  1  0.976810  0.607380  0.740200  1.0  -0.0933
  C  C346  1  0.417340  0.464640  0.465480  1.0  0.1474
  C  C347  1  0.904690  0.920070  0.747550  1.0  -0.0889
  C  C348  1  0.200020  0.578440  0.726920  1.0  0.6711
  C  C349  1  0.151790  0.397470  0.475550  1.0  0.1804
  C  C350  1  0.791420  0.375670  0.839490  1.0  0.17
  C  C351  1  0.957500  0.012710  0.764490  1.0  0.6999
  C  C352  1  0.131500  0.024120  0.656480  1.0  -0.1495
  C  C353  1  0.382300  0.399550  0.384250  1.0  0.0947
  C  C354  1  0.083390  0.459470  0.441150  1.0  0.0212
  C  C355  1  0.916610  0.540530  0.558850  1.0  0.0195
  C  C356  1  0.844380  0.843520  0.024120  1.0  -0.1499
  C  C357  1  0.860980  0.356320  0.694520  1.0  -0.1212
  C  C358  1  0.162870  0.787240  0.944820  1.0  0.1057
  C  C359  1  0.824390  0.892620  0.759800  1.0  -0.0806
  C  C360  1  0.462660  0.473350  0.068130  1.0  -0.1909
  C  C361  1  0.551320  0.691850  0.420710  1.0  -0.1303
  C  C362  1  0.282990  0.740200  0.892620  1.0  -0.0803
  C  C363  1  0.816910  0.088160  0.617820  1.0  -0.1433
  C  C364  1  0.212020  0.656480  0.475880  1.0  -0.1571
  C  C365  1  0.681390  0.089490  0.537330  1.0  0.6938
  C  C366  1  0.555500  0.305480  0.856320  1.0  -0.1206
  C  C367  1  0.544290  0.658190  0.396430  1.0  0.0016
  C  C368  1  0.014720  0.219220  0.995940  1.0  -0.1192
  C  C369  1  0.158530  0.887950  0.048590  1.0  0.1486
  C  C370  1  0.784340  0.497200  0.135120  1.0  0.1693
  C  C371  1  0.033490  0.377930  0.129690  1.0  0.1356
  C  C372  1  0.950110  0.444820  0.212760  1.0  0.106
  C  C373  1  0.402340  0.914110  0.914610  1.0  0.1649
  C  C374  1  0.475190  0.897470  0.975550  1.0  0.1795
  C  C375  1  0.525590  0.772000  0.090220  1.0  -0.0819
  C  C376  1  0.109230  0.308860  0.567480  1.0  -0.0162
  C  C377  1  0.837130  0.212760  0.055180  1.0  0.1066
  C  C378  1  0.049890  0.555180  0.787240  1.0  0.1074
  C  C379  1  0.266940  0.109400  0.262920  1.0  -0.103
  C  C380  1  0.175240  0.752450  0.920070  1.0  -0.0893
  C  C381  1  0.802740  0.343560  0.733160  1.0  0.1582
  C  C382  1  0.316950  0.085390  0.414110  1.0  0.1611
  C  C383  1  0.023190  0.392620  0.259800  1.0  -0.0892
  C  C384  1  0.530790  0.931870  0.973350  1.0  -0.1874
  C  C385  1  0.877770  0.801180  0.028080  1.0  0.0194
  C  C386  1  0.143650  0.524980  0.804720  1.0  0.1161
  C  C387  1  0.506580  0.124330  0.660510  1.0  0.1713
  C  C388  1  0.505490  0.105790  0.811030  1.0  0.675
  C  C389  1  0.484010  0.040530  0.058850  1.0  0.0168
  C  C390  1  0.469210  0.068130  0.026650  1.0  -0.1854
  C  C391  1  0.717940  0.793990  0.165130  1.0  -0.2035
  C  C392  1  0.404930  0.387950  0.548590  1.0  0.1479
  C  C393  1  0.281540  0.635120  0.502800  1.0  0.1725
  C  C394  1  0.233940  0.495940  0.780780  1.0  -0.1163
  C  C395  1  0.472280  0.659930  0.168910  1.0  -0.0105
  C  C396  1  0.214930  0.158780  0.396360  1.0  -0.0969
  C  C397  1  0.717010  0.259800  0.107380  1.0  -0.0812
  C  C398  1  0.026650  0.024980  0.304720  1.0  0.1171
  C  C399  1  0.312630  0.071720  0.764820  1.0  0.6962
  C  C400  1  0.027970  0.420710  0.808150  1.0  -0.134
  C  C401  1  0.641190  0.831090  0.159930  1.0  -0.0105
  C  C402  1  0.781850  0.884250  0.600450  1.0  0.0851
  C  C403  1  0.191790  0.589490  0.037330  1.0  0.6944
  C  C404  1  0.594260  0.621080  0.984600  1.0  0.7151
  C  C405  1  0.434730  0.382180  0.588160  1.0  -0.1443
  C  C406  1  0.989340  0.995940  0.280780  1.0  -0.1172
  C  C407  1  0.535900  0.266840  0.843560  1.0  0.1578
  C  C408  1  0.801980  0.133440  0.164200  1.0  -0.167
  C  C409  1  0.795000  0.024610  0.498790  1.0  -0.0441
  C  C410  1  0.384350  0.264820  0.928280  1.0  0.6954
  C  C411  1  0.565270  0.617820  0.411840  1.0  -0.1438
  C  C412  1  0.235230  0.952460  0.464280  1.0  -0.0704
  C  C413  1  0.444500  0.694520  0.143680  1.0  -0.119
  C  C414  1  0.847460  0.035360  0.034520  1.0  0.1479
  C  C415  1  0.770880  0.037330  0.910510  1.0  0.6951
  C  C416  1  0.029790  0.735510  0.012710  1.0  0.6978
  C  C417  1  0.146300  0.233160  0.656440  1.0  0.1589
  C  C418  1  0.379460  0.156440  0.766840  1.0  0.1571
  C  C419  1  0.936010  0.568130  0.526650  1.0  -0.1659
  C  C420  1  0.293790  0.501210  0.524610  1.0  -0.0483
  C  C421  1  0.208580  0.624330  0.160510  1.0  0.1697
  C  C422  1  0.756830  0.079290  0.691850  1.0  -0.1268
  C  C423  1  0.218720  0.462670  0.589490  1.0  0.6918
  C  C424  1  0.117180  0.465480  0.035360  1.0  0.1469
  C  C425  1  0.542860  0.941150  0.540530  1.0  0.016
  C  C426  1  0.595070  0.612050  0.451410  1.0  0.1479
  C  C427  1  0.840770  0.998310  0.016150  1.0  -0.0975
  C  C428  1  0.699510  0.535720  0.452460  1.0  -0.0717
  C  C429  1  0.217300  0.194520  0.643680  1.0  -0.1222
  C  C430  1  0.699940  0.878920  0.515400  1.0  0.7189
  C  C431  1  0.243170  0.920710  0.308150  1.0  -0.1271
  C  C432  1  0.063990  0.431870  0.473350  1.0  -0.1661
  C  C433  1  0.132210  0.668910  0.340070  1.0  -0.0104
  C  C434  1  0.816100  0.682730  0.879470  1.0  -0.0549
  C  C435  1  0.668630  0.304720  0.475020  1.0  0.1389
  C  C436  1  0.450740  0.024450  0.397470  1.0  0.1832
  C  C437  1  0.270120  0.719220  0.495940  1.0  -0.1012
  C  C438  1  0.202480  0.896430  0.341810  1.0  -0.0016
  C  C439  1  0.388720  0.688970  0.105790  1.0  0.6745
  C  C440  1  0.812310  0.035720  0.952460  1.0  -0.0698
  C  C441  1  0.474410  0.228000  0.909780  1.0  -0.0823
  C  C442  1  0.400380  0.633440  0.664200  1.0  -0.1652
  C  C443  1  0.887810  0.728000  0.409780  1.0  -0.0829
  C  C444  1  0.640000  0.911410  0.548390  1.0  -0.1213
  C  C445  1  0.183900  0.317270  0.120530  1.0  -0.0559
  C  C446  1  0.373710  0.896360  0.841220  1.0  -0.0907
  C  C447  1  0.718950  0.415010  0.843690  1.0  -0.1222
  C  C448  1  0.611290  0.603640  0.658780  1.0  -0.07
  C  C449  1  0.866040  0.656310  0.415010  1.0  -0.1193
  C  C450  1  0.919460  0.864880  0.997200  1.0  0.1701
  C  C451  1  0.072310  0.579930  0.752450  1.0  -0.0938
  C  C452  1  0.121700  0.182730  0.379470  1.0  -0.0774
  C  C453  1  0.868500  0.975880  0.343520  1.0  -0.1525
  C  C454  1  0.940310  0.795050  0.282330  1.0  0.1471
  C  C455  1  0.411420  0.629690  0.622070  1.0  0.1418
  C  C456  1  0.297590  0.590220  0.228000  1.0  -0.0807
  C  C457  1  0.860740  0.609400  0.762920  1.0  -0.1093
  C  C458  1  0.953520  0.451410  0.887950  1.0  0.1468
  C  C459  1  0.278540  0.411570  0.320550  1.0  0.0728
  C  C460  1  0.372660  0.475550  0.102530  1.0  0.184
  C  C461  1  0.268940  0.414110  0.414610  1.0  0.1759
  C  C462  1  0.774800  0.370450  0.770750  1.0  0.1692
  C  C463  1  0.764770  0.047540  0.535720  1.0  -0.07
  C  C464  1  0.562640  0.156310  0.915010  1.0  -0.1183
  C  C465  1  0.098910  0.841810  0.103570  1.0  -0.0018
  C  C466  1  0.515990  0.959470  0.941150  1.0  0.0134
  C  C467  1  0.892310  0.944820  0.712760  1.0  0.1072
  C  C468  1  0.080540  0.135120  0.002800  1.0  0.1699
  C  C469  1  0.168200  0.928720  0.028280  1.0  0.0928
  C  C470  1  0.958890  0.877930  0.629690  1.0  0.1432
  C  C471  1  0.139260  0.390600  0.237080  1.0  -0.108
  C  C472  1  0.733060  0.890600  0.737080  1.0  -0.1067
  C  C473  1  0.264640  0.217670  0.795050  1.0  0.1472
  C  C474  1  0.839080  0.516150  0.001690  1.0  -0.1014
  C  C475  1  0.077450  0.235180  0.571720  1.0  0.6957
  C  C476  1  0.010660  0.004060  0.719220  1.0  -0.1165
  C  C477  1  0.498830  0.379470  0.317270  1.0  -0.066
  C  C478  1  0.801120  0.840070  0.331090  1.0  -0.0127
  C  C479  1  0.309890  0.179450  0.411570  1.0  0.6798
  C  C480  1  0.233450  0.384250  0.100450  1.0  0.0864
  C  C481  1  0.360980  0.797160  0.915480  1.0  0.1353
  C  C482  1  0.196480  0.971720  0.428720  1.0  0.0939
  C  C483  1  0.282060  0.206010  0.834870  1.0  -0.2019
  C  C484  1  0.198880  0.159930  0.668910  1.0  -0.0122
  C  C485  1  0.625200  0.571280  0.471720  1.0  0.0912
  C  C486  1  0.501170  0.620530  0.682730  1.0  -0.0632
  C  C487  1  0.133960  0.343690  0.584990  1.0  -0.1194
  C  C488  1  0.350830  0.571720  0.264820  1.0  0.6979
  C  C489  1  0.464100  0.733160  0.156440  1.0  0.1586
  C  C490  1  0.074950  0.387050  0.916650  1.0  0.6853
  C  C491  1  0.159230  0.001690  0.983850  1.0  -0.0956
  C  C492  1  0.022890  0.411840  0.882180  1.0  -0.1446
  C  C493  1  0.122230  0.198820  0.971920  1.0  0.0184
  C  C494  1  0.400200  0.411410  0.048390  1.0  -0.1255
  C  C495  1  0.418090  0.067480  0.691140  1.0  -0.0198
  C  C496  1  0.836820  0.129690  0.122070  1.0  0.1354
  C  C497  1  0.477650  0.084990  0.656310  1.0  -0.1236
  C  C498  1  0.922310  0.394210  0.688970  1.0  0.6738
  C  C499  1  0.405740  0.378920  0.015400  1.0  0.7163
  C  C500  1  0.695570  0.120530  0.182730  1.0  -0.0627
  C  C501  1  0.841470  0.112050  0.951410  1.0  0.1477
  C  C502  1  0.394930  0.712760  0.555180  1.0  0.1234
  C  C503  1  0.777360  0.282330  0.704950  1.0  0.1473
  C  C504  1  0.644770  0.498310  0.516150  1.0  -0.0976
  C  C505  1  0.687370  0.928280  0.235180  1.0  0.6957
  C  C506  1  0.584000  0.870450  0.270750  1.0  0.1694
  C  C507  1  0.785070  0.841220  0.603640  1.0  -0.0915
  C  C508  1  0.177060  0.706010  0.334870  1.0  -0.1905
  C  C509  1  0.537340  0.526650  0.931870  1.0  -0.1873
  C  C510  1  0.792970  0.301180  0.528080  1.0  0.0184
  C  C511  1  0.155620  0.156480  0.975880  1.0  -0.1544
  C  C512  1  0.811610  0.548390  0.588590  1.0  -0.0964
  C  C513  1  0.321050  0.471920  0.801180  1.0  0.0118
  C  C514  1  0.848030  0.452460  0.964280  1.0  -0.0706
  C  C515  1  0.781280  0.537330  0.410510  1.0  0.6913
  C  C516  1  0.181600  0.524610  0.998790  1.0  -0.0456
  C  C517  1  0.034670  0.538870  0.183790  1.0  0.1408
  C  C518  1  0.229120  0.962670  0.089490  1.0  0.6954
  C  C519  1  0.270070  0.341220  0.103640  1.0  -0.0917
  C  C520  1  0.784660  0.515400  0.621080  1.0  0.7139
  C  C521  1  0.059690  0.204950  0.717670  1.0  0.1477
  C  C522  1  0.903080  0.471720  0.928720  1.0  0.0915
  C  C523  1  0.064580  0.335800  0.133440  1.0  -0.1706
  C  C524  1  0.218460  0.816210  0.038870  1.0  0.139
  C  C525  1  0.369090  0.839490  0.124330  1.0  0.1759
  C  C526  1  0.977110  0.588160  0.117820  1.0  -0.1415
  C  C527  1  0.355230  0.501690  0.483850  1.0  -0.0989
  C  C528  1  0.766060  0.504060  0.219220  1.0  -0.1159
  C  C529  1  0.198020  0.866560  0.835800  1.0  -0.1637
  C  C530  1  0.215660  0.502800  0.864880  1.0  0.1717
  C  C531  1  0.529860  0.737080  0.609400  1.0  -0.1
  C  C532  1  0.742670  0.038870  0.683790  1.0  0.1401
  C  C533  1  0.599620  0.366560  0.335800  1.0  -0.1638
  C  C534  1  0.853700  0.766840  0.343560  1.0  0.1584
  C  C535  1  0.318610  0.910510  0.462670  1.0  0.692
  C  C536  1  0.985280  0.780780  0.004060  1.0  -0.1198
  C  C537  1  0.626290  0.103640  0.158780  1.0  -0.0908
  C  C538  1  0.276460  0.084520  0.297160  1.0  0.1353
  C  C539  1  0.494510  0.894210  0.188970  1.0  0.6732
  C  C540  1  0.856920  0.983850  0.498310  1.0  -0.103
  C  C541  1  0.041110  0.122070  0.370310  1.0  0.143
  C  C542  1  0.281050  0.584990  0.156310  1.0  -0.1221
  C  C543  1  0.549260  0.975550  0.602530  1.0  0.1801
  C  C544  1  0.627340  0.524450  0.897470  1.0  0.1836
  C  C545  1  0.702410  0.409780  0.772000  1.0  -0.0804
  C  C546  1  0.522350  0.915010  0.343690  1.0  -0.1222
  C  C547  1  0.940720  0.603570  0.158190  1.0  -0.0009
  C  C548  1  0.008400  0.916650  0.112950  1.0  0.6872
  C  C549  1  0.205000  0.975390  0.501210  1.0  -0.0478
  C  C550  1  0.234700  0.487290  0.735510  1.0  0.7044
  C  C551  1  0.488070  0.334870  0.793990  1.0  -0.1983
  C  C552  1  0.854750  0.729250  0.370450  1.0  0.1713
  C  C553  1  0.588580  0.370310  0.377930  1.0  0.1405
  C  C554  1  0.581910  0.932520  0.308860  1.0  -0.0205
  C  C555  1  0.304430  0.879470  0.817270  1.0  -0.0594
  C  C556  1  0.639020  0.202840  0.084520  1.0  0.1359
  C  C557  1  0.718460  0.364880  0.497200  1.0  0.1701
  C  C558  1  0.083340  0.997200  0.635120  1.0  0.1697
  C  C559  1  0.905850  0.971920  0.301180  1.0  0.018
  C  C560  1  0.094930  0.882180  0.088160  1.0  -0.1451
  C  C561  1  0.832910  0.660510  0.375670  1.0  0.1769
  C  C562  1  0.188390  0.451610  0.411410  1.0  -0.0924
  C  C563  1  0.116930  0.165130  0.706010  1.0  -0.2035
  C  C564  1  0.678950  0.528080  0.198820  1.0  0.0188
  C  C565  1  0.615650  0.735180  0.071720  1.0  0.6948
  C  C566  1  0.107690  0.055180  0.287240  1.0  0.1074
  C  C567  1  0.690110  0.820550  0.588430  1.0  0.6818
  C  C568  1  0.145250  0.270750  0.629550  1.0  0.1705
  C  C569  1  0.163880  0.808150  0.079290  1.0  -0.1278
  C  C570  1  0.867790  0.331090  0.659930  1.0  -0.0107
  C  C571  1  0.331370  0.695280  0.524980  1.0  0.1396
  C  C572  1  0.323290  0.567480  0.191140  1.0  -0.0195
  C  C573  1  0.033820  0.164200  0.366560  1.0  -0.1633
  C  C574  1  0.836120  0.191850  0.920710  1.0  -0.1296
  C  C575  1  0.077690  0.605790  0.311030  1.0  0.6751
  C  C576  1  0.649170  0.428280  0.735180  1.0  0.6993
  C  C577  1  0.578860  0.015400  0.121080  1.0  0.7116
  C  C578  1  0.046480  0.548590  0.112050  1.0  0.1479
  C  C579  1  0.160920  0.483850  0.998310  1.0  -0.1034
  C  C580  1  0.042500  0.987290  0.235510  1.0  0.7018
  C  C581  1  0.970210  0.264490  0.987290  1.0  0.6952
  C  C582  1  0.222640  0.717670  0.295050  1.0  0.1485
  C  C583  1  0.706210  0.498790  0.475390  1.0  -0.0476
  C  C584  1  0.808210  0.410510  0.962670  1.0  0.6953
  C  C585  1  0.881980  0.965480  0.535360  1.0  0.1476
  C  C586  1  0.573620  0.702840  0.584520  1.0  0.1294
  C  C587  1  0.652240  0.252450  0.420070  1.0  0.0038
  C  C588  1  0.225200  0.629550  0.229250  1.0  0.1687
  C  C589  1  0.991600  0.083350  0.887050  1.0  0.6884
  C  C590  1  0.824760  0.247550  0.079930  1.0  -0.0881
  C  C591  1  0.597660  0.085890  0.085390  1.0  0.1595
  C  C592  1  0.187690  0.964280  0.047540  1.0  -0.0685
  C  C593  1  0.599090  0.679450  0.911570  1.0  0.6799
  C  C594  1  0.524810  0.102530  0.024450  1.0  0.1794
  C  C595  1  0.538000  0.583350  0.387050  1.0  0.6898
  C  C596  1  0.935420  0.664200  0.866560  1.0  -0.1717
  C  C597  1  0.426380  0.297160  0.415480  1.0  0.1297
  C  C598  1  0.411820  0.143680  0.805480  1.0  -0.1212
  N  N599  1  0.503570  0.261660  0.806200  1.0  -0.4217
  N  N600  1  0.660370  0.346240  0.472420  1.0  -0.3414
  N  N601  1  0.993390  0.027580  0.346240  1.0  -0.3242
  N  N602  1  0.587840  0.111700  0.053220  1.0  -0.3173
  N  N603  1  0.935300  0.558090  0.809710  1.0  -0.3225
  N  N604  1  0.765230  0.306200  0.738340  1.0  -0.4231
  N  N605  1  0.064700  0.441910  0.190290  1.0  -0.3216
  N  N606  1  0.309770  0.193800  0.761660  1.0  -0.4256
  N  N607  1  0.300460  0.446780  0.111700  1.0  -0.317
  N  N608  1  0.478770  0.146530  0.695730  1.0  -0.4226
  N  N609  1  0.132760  0.097680  0.385800  1.0  -0.3217
  N  N610  1  0.841280  0.071080  0.012960  1.0  -0.3163
  N  N611  1  0.252760  0.388300  0.446780  1.0  -0.3304
  N  N612  1  0.641060  0.946780  0.611700  1.0  -0.3171
  N  N613  1  0.803100  0.941910  0.690290  1.0  -0.3219
  N  N614  1  0.574680  0.571080  0.512960  1.0  -0.3168
  N  N615  1  0.769560  0.114200  0.097680  1.0  -0.3258
  N  N616  1  0.116240  0.402320  0.114200  1.0  -0.3244
  N  N617  1  0.521230  0.853470  0.304270  1.0  -0.4225
  N  N618  1  0.406970  0.355210  0.523450  1.0  -0.3111
  N  N619  1  0.867210  0.472420  0.153760  1.0  -0.3209
  N  N620  1  0.593030  0.644790  0.476550  1.0  -0.3128
  N  N621  1  0.745010  0.190290  0.058090  1.0  -0.3242
  N  N622  1  0.762180  0.023450  0.644790  1.0  -0.3124
  N  N623  1  0.506610  0.690290  0.558090  1.0  -0.3266
  N  N624  1  0.785630  0.144790  0.976550  1.0  -0.3113
  N  N625  1  0.230440  0.885800  0.902320  1.0  -0.3266
  N  N626  1  0.690230  0.806200  0.238340  1.0  -0.4238
  N  N627  1  0.196900  0.058090  0.309710  1.0  -0.3216
  N  N628  1  0.412160  0.888300  0.946780  1.0  -0.3164
  N  N629  1  0.425320  0.428920  0.487040  1.0  -0.318
  N  N630  1  0.358940  0.053220  0.388300  1.0  -0.3173
  N  N631  1  0.006610  0.972420  0.653760  1.0  -0.3234
  N  N632  1  0.087640  0.487040  0.071080  1.0  -0.3191
  N  N633  1  0.174500  0.304270  0.646530  1.0  -0.426
  N  N634  1  0.699540  0.553220  0.888300  1.0  -0.3187
  N  N635  1  0.234770  0.693800  0.261660  1.0  -0.4316
  N  N636  1  0.867240  0.902320  0.614200  1.0  -0.3207
  N  N637  1  0.930420  0.476550  0.855210  1.0  -0.3126
  N  N638  1  0.237820  0.976550  0.355210  1.0  -0.3125
  N  N639  1  0.020970  0.846240  0.972420  1.0  -0.325
  N  N640  1  0.254990  0.809710  0.941910  1.0  -0.323
  N  N641  1  0.979030  0.153760  0.027580  1.0  -0.3234
  N  N642  1  0.481440  0.385800  0.402320  1.0  -0.3231
  N  N643  1  0.854240  0.987040  0.571080  1.0  -0.3188
  N  N644  1  0.747240  0.611700  0.553220  1.0  -0.3321
  N  N645  1  0.493390  0.309710  0.441910  1.0  -0.3244
  N  N646  1  0.069580  0.523450  0.144790  1.0  -0.3113
  N  N647  1  0.912360  0.512960  0.928920  1.0  -0.3179
  N  N648  1  0.071430  0.238340  0.693800  1.0  -0.4286
  N  N649  1  0.145760  0.012960  0.428920  1.0  -0.319
  N  N650  1  0.214370  0.855210  0.023450  1.0  -0.3098
  N  N651  1  0.625300  0.195730  0.853470  1.0  -0.4264
  N  N652  1  0.518560  0.614200  0.597680  1.0  -0.3221
  N  N653  1  0.158720  0.928920  0.987040  1.0  -0.3171
  N  N654  1  0.821030  0.353470  0.804270  1.0  -0.4224
  N  N655  1  0.132790  0.527580  0.846240  1.0  -0.3227
  N  N656  1  0.374700  0.804270  0.146530  1.0  -0.4242
  N  N657  1  0.496430  0.738340  0.193800  1.0  -0.4227
  N  N658  1  0.339630  0.653760  0.527580  1.0  -0.3415
  N  N659  1  0.178970  0.646530  0.195730  1.0  -0.4215
  N  N660  1  0.825500  0.695730  0.353470  1.0  -0.4257
  N  N661  1  0.928570  0.761660  0.306200  1.0  -0.422
  N  N662  1  0.883760  0.597680  0.885800  1.0  -0.3252
  O  O663  1  0.144100  0.724860  0.009140  1.0  -0.733
  O  O664  1  0.270830  0.212090  0.432450  1.0  -0.5725
  O  O665  1  0.366370  0.041610  0.783650  1.0  -0.648
  O  O666  1  0.047570  0.287460  0.975800  1.0  -0.731
  O  O667  1  0.691630  0.458390  0.716350  1.0  -0.6486
  O  O668  1  0.417630  0.098900  0.162840  1.0  -0.5486
  O  O669  1  0.296720  0.432450  0.287910  1.0  -0.4687
  O  O670  1  0.592020  0.716350  0.041610  1.0  -0.6555
  O  O671  1  0.499820  0.447400  0.595960  1.0  -0.6454
  O  O672  1  0.321560  0.718320  0.091560  1.0  -0.7235
  O  O673  1  0.716350  0.118920  0.515780  1.0  -0.6497
  O  O674  1  0.150020  0.216350  0.541610  1.0  -0.6519
  O  O675  1  0.319560  0.987740  0.867740  1.0  -0.7344
  O  O676  1  0.125240  0.507330  0.367590  1.0  -0.7389
  O  O677  1  0.713460  0.725010  0.085470  1.0  -0.626
  O  O678  1  0.324960  0.487740  0.367740  1.0  -0.7374
  O  O679  1  0.307300  0.367740  0.012260  1.0  -0.737
  O  O680  1  0.308370  0.541610  0.283650  1.0  -0.6467
  O  O681  1  0.413120  0.908440  0.218320  1.0  -0.7224
  O  O682  1  0.729170  0.787910  0.567550  1.0  -0.572
  O  O683  1  0.621900  0.224860  0.509140  1.0  -0.7428
  O  O684  1  0.043180  0.052600  0.904040  1.0  -0.6458
  O  O685  1  0.039880  0.591560  0.281680  1.0  -0.7223
  O  O686  1  0.368560  0.218320  0.591560  1.0  -0.7218
  O  O687  1  0.972160  0.924120  0.811960  1.0  -0.5558
  O  O688  1  0.187300  0.132260  0.487740  1.0  -0.7402
  O  O689  1  0.483470  0.337160  0.098900  1.0  -0.5527
  O  O690  1  0.378100  0.775140  0.490860  1.0  -0.7428
  O  O691  1  0.103720  0.688040  0.924120  1.0  -0.5487
  O  O692  1  0.407980  0.283650  0.958390  1.0  -0.6575
  O  O693  1  0.422800  0.907810  0.441590  1.0  -0.6445
  O  O694  1  0.139400  0.847570  0.410630  1.0  -0.702
  O  O695  1  0.714070  0.420990  0.253470  1.0  -0.5554
  O  O696  1  0.492830  0.632410  0.007330  1.0  -0.7454
  O  O697  1  0.347530  0.152440  0.590500  1.0  -0.6927
  O  O698  1  0.631440  0.781680  0.408440  1.0  -0.7223
  O  O699  1  0.798930  0.914530  0.225010  1.0  -0.6267
  O  O700  1  0.664970  0.524200  0.287460  1.0  -0.7325
  O  O701  1  0.680440  0.012260  0.132260  1.0  -0.7345
  O  O702  1  0.678440  0.281680  0.908440  1.0  -0.7226
  O  O703  1  0.419530  0.162840  0.401100  1.0  -0.5511
  O  O704  1  0.851050  0.381080  0.984220  1.0  -0.6602
  O  O705  1  0.967540  0.746530  0.920990  1.0  -0.5556
  O  O706  1  0.500030  0.909500  0.152440  1.0  -0.6921
  O  O707  1  0.335030  0.475800  0.712540  1.0  -0.7314
  O  O708  1  0.285930  0.579010  0.746530  1.0  -0.5551
  O  O709  1  0.095780  0.404040  0.947400  1.0  -0.6445
  O  O710  1  0.023940  0.774990  0.414530  1.0  -0.6258
  O  O711  1  0.102400  0.347570  0.910630  1.0  -0.7023
  O  O712  1  0.135610  0.441590  0.592190  1.0  -0.6434
  O  O713  1  0.590470  0.347560  0.909500  1.0  -0.6933
  O  O714  1  0.272200  0.592190  0.058410  1.0  -0.6441
  O  O715  1  0.904220  0.595960  0.052600  1.0  -0.6461
  O  O716  1  0.482920  0.932450  0.787910  1.0  -0.5635
  O  O717  1  0.897600  0.652430  0.089370  1.0  -0.7027
  O  O718  1  0.232130  0.484220  0.618920  1.0  -0.6655
  O  O719  1  0.632570  0.867590  0.492670  1.0  -0.7475
  O  O720  1  0.330610  0.941590  0.092190  1.0  -0.6434
  O  O721  1  0.835270  0.015780  0.881080  1.0  -0.6602
  O  O722  1  0.810830  0.212540  0.524200  1.0  -0.7202
  O  O723  1  0.409530  0.652440  0.090500  1.0  -0.6924
  O  O724  1  0.767870  0.515780  0.381080  1.0  -0.6637
  O  O725  1  0.580470  0.837160  0.598900  1.0  -0.5484
  O  O726  1  0.052780  0.904040  0.447400  1.0  -0.6435
  O  O727  1  0.669390  0.058410  0.907810  1.0  -0.6434
  O  O728  1  0.976060  0.225010  0.585470  1.0  -0.6263
  O  O729  1  0.061970  0.590500  0.347560  1.0  -0.6941
  O  O730  1  0.947220  0.095960  0.552600  1.0  -0.6446
  O  O731  1  0.201070  0.085470  0.774990  1.0  -0.6264
  O  O732  1  0.499840  0.007330  0.867590  1.0  -0.7453
  O  O733  1  0.023370  0.024200  0.787460  1.0  -0.7308
  O  O734  1  0.550030  0.589370  0.347570  1.0  -0.7031
  O  O735  1  0.846760  0.009140  0.775140  1.0  -0.7344
  O  O736  1  0.153240  0.990860  0.224860  1.0  -0.7342
  O  O737  1  0.027840  0.075880  0.188040  1.0  -0.553
  O  O738  1  0.791760  0.424120  0.311960  1.0  -0.5464
  O  O739  1  0.111470  0.920990  0.753470  1.0  -0.5529
  O  O740  1  0.652470  0.847560  0.409500  1.0  -0.6943
  O  O741  1  0.976630  0.975800  0.212540  1.0  -0.7318
  O  O742  1  0.860600  0.152430  0.589370  1.0  -0.7045
  O  O743  1  0.415370  0.287910  0.067550  1.0  -0.5618
  O  O744  1  0.500180  0.552600  0.404040  1.0  -0.6447
  O  O745  1  0.449970  0.410630  0.652430  1.0  -0.7036
  O  O746  1  0.864390  0.558410  0.407810  1.0  -0.643
  O  O747  1  0.692700  0.632260  0.987740  1.0  -0.7378
  O  O748  1  0.164730  0.984220  0.118920  1.0  -0.6599
  O  O749  1  0.148950  0.618920  0.015780  1.0  -0.6606
  O  O750  1  0.208240  0.575880  0.688040  1.0  -0.5403
  O  O751  1  0.633630  0.958390  0.216350  1.0  -0.6494
  O  O752  1  0.938030  0.409500  0.652440  1.0  -0.6928
  O  O753  1  0.703280  0.567550  0.712090  1.0  -0.4685
  O  O754  1  0.283650  0.881080  0.484220  1.0  -0.6472
  O  O755  1  0.584630  0.712090  0.932450  1.0  -0.5664
  O  O756  1  0.577200  0.092190  0.558410  1.0  -0.6453
  O  O757  1  0.896280  0.311960  0.075880  1.0  -0.5478
  O  O758  1  0.675040  0.512260  0.632260  1.0  -0.7377
  O  O759  1  0.582370  0.901100  0.837160  1.0  -0.549
  O  O760  1  0.561530  0.414530  0.725010  1.0  -0.6263
  O  O761  1  0.517080  0.067550  0.212090  1.0  -0.5638
  O  O762  1  0.960120  0.408440  0.718320  1.0  -0.7223
  O  O763  1  0.500160  0.992670  0.132410  1.0  -0.7456
  O  O764  1  0.586880  0.091560  0.781680  1.0  -0.7202
  O  O765  1  0.956820  0.947400  0.095960  1.0  -0.6461
  O  O766  1  0.868960  0.509140  0.275140  1.0  -0.7343
  O  O767  1  0.499970  0.090500  0.847560  1.0  -0.6938
  O  O768  1  0.013030  0.089370  0.847570  1.0  -0.7037
  O  O769  1  0.032460  0.253470  0.079010  1.0  -0.5546
  O  O770  1  0.812700  0.867740  0.512260  1.0  -0.7382
  O  O771  1  0.516530  0.662840  0.901100  1.0  -0.5536
  O  O772  1  0.874760  0.492670  0.632410  1.0  -0.7374
  O  O773  1  0.727800  0.407810  0.941590  1.0  -0.6447
  O  O774  1  0.367430  0.132410  0.507330  1.0  -0.7458
  O  O775  1  0.131040  0.490860  0.724860  1.0  -0.7345
  O  O776  1  0.986970  0.910630  0.152430  1.0  -0.7073
  O  O777  1  0.849980  0.783650  0.458390  1.0  -0.651
  O  O778  1  0.189170  0.787460  0.475800  1.0  -0.7208
  O  O779  1  0.507170  0.367590  0.992670  1.0  -0.7453
  O  O780  1  0.855900  0.275140  0.990860  1.0  -0.7324
  O  O781  1  0.286540  0.274990  0.914530  1.0  -0.626
  O  O782  1  0.438470  0.585470  0.274990  1.0  -0.6279
  O  O783  1  0.952430  0.712540  0.024200  1.0  -0.7319
  O  O784  1  0.888530  0.079010  0.246530  1.0  -0.5518
