# generated using pymatgen
data_Zn4H24C45O13
_symmetry_space_group_name_H-M   'P 1'
_cell_length_a   33.35860000
_cell_length_b   33.35860000
_cell_length_c   67.83900000
_cell_angle_alpha   90.00000000
_cell_angle_beta   90.00000000
_cell_angle_gamma   120.00000000
_symmetry_Int_Tables_number   1
_chemical_formula_structural   Zn4H24C45O13
_chemical_formula_sum   'Zn96 H576 C1080 O312'
_cell_volume   65377.10730439
_cell_formula_units_Z   24
loop_
 _symmetry_equiv_pos_site_id
 _symmetry_equiv_pos_as_xyz
  1  'x, y, z'
loop_
 _atom_site_type_symbol
 _atom_site_label
 _atom_site_symmetry_multiplicity
 _atom_site_fract_x
 _atom_site_fract_y
 _atom_site_fract_z
 _atom_site_occupancy
 _atom_site_charge
  Zn  Zn1  1  0.832830  0.669150  0.022590  1.0  1.0876
  Zn  Zn2  1  0.742150  0.671460  0.532110  1.0  1.0623
  Zn  Zn3  1  0.747190  0.078950  0.803510  1.0  1.0907
  Zn  Zn4  1  0.832830  0.163680  0.522590  1.0  1.0873
  Zn  Zn5  1  0.837890  0.230190  0.556870  1.0  1.1035
  Zn  Zn6  1  0.827170  0.668930  0.812640  1.0  1.0977
  Zn  Zn7  1  0.889910  0.175640  0.562770  1.0  0.9437
  Zn  Zn8  1  0.395060  0.225130  0.778780  1.0  1.1083
  Zn  Zn9  1  0.921050  0.252810  0.303510  1.0  1.0883
  Zn  Zn10  1  0.824360  0.110090  0.062770  1.0  0.9447
  Zn  Zn11  1  0.824360  0.714270  0.562770  1.0  0.9454
  Zn  Zn12  1  0.929310  0.257850  0.532110  1.0  1.0643
  Zn  Zn13  1  0.774870  0.169930  0.778780  1.0  1.1093
  Zn  Zn14  1  0.331760  0.252810  0.803510  1.0  1.0899
  Zn  Zn15  1  0.830290  0.117090  0.772560  1.0  0.9463
  Zn  Zn16  1  0.395060  0.169930  0.278780  1.0  1.1089
  Zn  Zn17  1  0.330850  0.167170  0.522590  1.0  1.0881
  Zn  Zn18  1  0.392300  0.230190  0.056870  1.0  1.1036
  Zn  Zn19  1  0.769810  0.162110  0.056870  1.0  1.1035
  Zn  Zn20  1  0.392300  0.162110  0.556870  1.0  1.1037
  Zn  Zn21  1  0.841760  0.172830  0.812640  1.0  1.0985
  Zn  Zn22  1  0.837890  0.607700  0.056870  1.0  1.1043
  Zn  Zn23  1  0.830070  0.225130  0.278780  1.0  1.1091
  Zn  Zn24  1  0.774870  0.604940  0.278780  1.0  1.1108
  Zn  Zn25  1  0.882910  0.169710  0.272560  1.0  0.9475
  Zn  Zn26  1  0.285730  0.175640  0.062770  1.0  0.9435
  Zn  Zn27  1  0.328540  0.257850  0.032110  1.0  1.0646
  Zn  Zn28  1  0.331070  0.172830  0.312640  1.0  1.0978
  Zn  Zn29  1  0.286800  0.169710  0.772560  1.0  0.9476
  Zn  Zn30  1  0.830070  0.604940  0.778780  1.0  1.1115
  Zn  Zn31  1  0.742150  0.070690  0.032110  1.0  1.0641
  Zn  Zn32  1  0.286800  0.117090  0.272560  1.0  0.9456
  Zn  Zn33  1  0.769810  0.607700  0.556870  1.0  1.1045
  Zn  Zn34  1  0.836320  0.167170  0.022590  1.0  1.0887
  Zn  Zn35  1  0.285730  0.110090  0.562770  1.0  0.946
  Zn  Zn36  1  0.921050  0.668240  0.803510  1.0  1.0863
  Zn  Zn37  1  0.929310  0.671460  0.032110  1.0  1.064
  Zn  Zn38  1  0.889910  0.714270  0.062770  1.0  0.9446
  Zn  Zn39  1  0.841760  0.668930  0.312640  1.0  1.0978
  Zn  Zn40  1  0.747190  0.668240  0.303510  1.0  1.0882
  Zn  Zn41  1  0.331760  0.078950  0.303510  1.0  1.0896
  Zn  Zn42  1  0.330850  0.163680  0.022590  1.0  1.0876
  Zn  Zn43  1  0.836320  0.669150  0.522590  1.0  1.0874
  Zn  Zn44  1  0.328540  0.070690  0.532110  1.0  1.0646
  Zn  Zn45  1  0.882910  0.713200  0.772560  1.0  0.9463
  Zn  Zn46  1  0.827170  0.158240  0.312640  1.0  1.0987
  Zn  Zn47  1  0.830290  0.713200  0.272560  1.0  0.9471
  Zn  Zn48  1  0.331070  0.158240  0.812640  1.0  1.0986
  Zn  Zn49  1  0.668930  0.827170  0.687360  1.0  1.0988
  Zn  Zn50  1  0.607700  0.837890  0.443130  1.0  1.1015
  Zn  Zn51  1  0.169710  0.286800  0.727440  1.0  0.9468
  Zn  Zn52  1  0.163680  0.330850  0.477410  1.0  1.0879
  Zn  Zn53  1  0.225130  0.830070  0.221220  1.0  1.109
  Zn  Zn54  1  0.604940  0.830070  0.721220  1.0  1.1095
  Zn  Zn55  1  0.225130  0.395060  0.721220  1.0  1.1118
  Zn  Zn56  1  0.175640  0.285730  0.437230  1.0  0.9458
  Zn  Zn57  1  0.714270  0.824360  0.937230  1.0  0.9447
  Zn  Zn58  1  0.162110  0.769810  0.443130  1.0  1.102
  Zn  Zn59  1  0.669150  0.836320  0.977410  1.0  1.0876
  Zn  Zn60  1  0.167170  0.330850  0.977410  1.0  1.0876
  Zn  Zn61  1  0.669150  0.832830  0.477410  1.0  1.089
  Zn  Zn62  1  0.713200  0.830290  0.227440  1.0  0.9473
  Zn  Zn63  1  0.230190  0.392300  0.443130  1.0  1.1026
  Zn  Zn64  1  0.117090  0.286800  0.227440  1.0  0.9476
  Zn  Zn65  1  0.169930  0.774870  0.721220  1.0  1.109
  Zn  Zn66  1  0.078950  0.331760  0.196490  1.0  1.089
  Zn  Zn67  1  0.175640  0.889910  0.937230  1.0  0.9468
  Zn  Zn68  1  0.070690  0.742150  0.467890  1.0  1.0656
  Zn  Zn69  1  0.668240  0.921050  0.696490  1.0  1.0893
  Zn  Zn70  1  0.257850  0.328540  0.467890  1.0  1.064
  Zn  Zn71  1  0.257850  0.929310  0.967890  1.0  1.0626
  Zn  Zn72  1  0.110090  0.285730  0.937230  1.0  0.9467
  Zn  Zn73  1  0.117090  0.830290  0.727440  1.0  0.9475
  Zn  Zn74  1  0.158240  0.331070  0.687360  1.0  1.0964
  Zn  Zn75  1  0.110090  0.824360  0.437230  1.0  0.9447
  Zn  Zn76  1  0.604940  0.774870  0.221220  1.0  1.1097
  Zn  Zn77  1  0.713200  0.882910  0.727440  1.0  0.9467
  Zn  Zn78  1  0.078950  0.747190  0.696490  1.0  1.092
  Zn  Zn79  1  0.172830  0.331070  0.187360  1.0  1.0972
  Zn  Zn80  1  0.252810  0.921050  0.196490  1.0  1.089
  Zn  Zn81  1  0.607700  0.769810  0.943130  1.0  1.102
  Zn  Zn82  1  0.230190  0.837890  0.943130  1.0  1.1023
  Zn  Zn83  1  0.668930  0.841760  0.187360  1.0  1.0973
  Zn  Zn84  1  0.169930  0.395060  0.221220  1.0  1.1112
  Zn  Zn85  1  0.668240  0.747190  0.196490  1.0  1.0896
  Zn  Zn86  1  0.671460  0.742150  0.967890  1.0  1.0663
  Zn  Zn87  1  0.169710  0.882910  0.227440  1.0  0.9457
  Zn  Zn88  1  0.070690  0.328540  0.967890  1.0  1.0615
  Zn  Zn89  1  0.172830  0.841760  0.687360  1.0  1.0975
  Zn  Zn90  1  0.714270  0.889910  0.437230  1.0  0.9457
  Zn  Zn91  1  0.167170  0.836320  0.477410  1.0  1.0878
  Zn  Zn92  1  0.671460  0.929310  0.467890  1.0  1.0617
  Zn  Zn93  1  0.252810  0.331760  0.696490  1.0  1.087
  Zn  Zn94  1  0.162110  0.392300  0.943130  1.0  1.1025
  Zn  Zn95  1  0.158240  0.827170  0.187360  1.0  1.0976
  Zn  Zn96  1  0.163680  0.832830  0.977410  1.0  1.0883
  H  H97  1  0.582400  0.384000  0.559000  1.0  0.1334
  H  H98  1  0.710900  0.052000  0.863600  1.0  0.1105
  H  H99  1  0.621000  0.119000  0.496100  1.0  0.128
  H  H100  1  0.754700  0.556500  0.185800  1.0  0.1213
  H  H101  1  0.092600  0.154800  0.260800  1.0  0.1245
  H  H102  1  0.827500  0.850300  0.570400  1.0  0.1163
  H  H103  1  0.210200  0.033200  0.827200  1.0  0.1118
  H  H104  1  0.030700  0.797200  0.017700  1.0  0.1071
  H  H105  1  0.557100  0.153900  0.763900  1.0  0.1277
  H  H106  1  0.695300  0.182000  0.556300  1.0  0.1135
  H  H107  1  0.864700  0.953800  0.570800  1.0  0.1277
  H  H108  1  0.449300  0.384500  0.818800  1.0  0.1123
  H  H109  1  0.184100  0.027200  0.068300  1.0  0.1236
  H  H110  1  0.698900  0.034400  0.937300  1.0  0.1151
  H  H111  1  0.022800  0.850300  0.070400  1.0  0.1171
  H  H112  1  0.291300  0.127100  0.626600  1.0  0.1288
  H  H113  1  0.184100  0.156900  0.568300  1.0  0.1239
  H  H114  1  0.814000  0.931700  0.579600  1.0  0.1333
  H  H115  1  0.839000  0.156900  0.875000  1.0  0.1184
  H  H116  1  0.838700  0.683300  0.459700  1.0  0.1092
  H  H117  1  0.684000  0.586600  0.822400  1.0  0.1252
  H  H118  1  0.802000  0.228300  0.220700  1.0  0.1175
  H  H119  1  0.754700  0.198200  0.685800  1.0  0.1205
  H  H120  1  0.823000  0.789800  0.827200  1.0  0.112
  H  H121  1  0.486700  0.182000  0.056300  1.0  0.1139
  H  H122  1  0.317900  0.156900  0.375000  1.0  0.1185
  H  H123  1  0.336700  0.288300  0.970800  1.0  0.1117
  H  H124  1  0.826300  0.715700  0.669200  1.0  0.1131
  H  H125  1  0.548700  0.150300  0.069000  1.0  0.1369
  H  H126  1  0.814000  0.882300  0.079600  1.0  0.1327
  H  H127  1  0.565700  0.468800  0.496600  1.0  0.1133
  H  H128  1  0.846100  0.442900  0.263900  1.0  0.1281
  H  H129  1  0.935200  0.384500  0.318800  1.0  0.1124
  H  H130  1  0.790600  0.915300  0.260100  1.0  0.1268
  H  H131  1  0.889400  0.715700  0.169200  1.0  0.114
  H  H132  1  0.596800  0.153900  0.263900  1.0  0.1279
  H  H133  1  0.413400  0.316000  0.322400  1.0  0.1263
  H  H134  1  0.497800  0.187200  0.781500  1.0  0.1225
  H  H135  1  0.965600  0.664500  0.937300  1.0  0.1148
  H  H136  1  0.835800  0.127100  0.126600  1.0  0.1269
  H  H137  1  0.615500  0.550700  0.318800  1.0  0.112
  H  H138  1  0.977700  0.212700  0.014300  1.0  0.1031
  H  H139  1  0.440600  0.306100  0.500200  1.0  0.1197
  H  H140  1  0.210200  0.177000  0.327200  1.0  0.1123
  H  H141  1  0.643100  0.484100  0.276200  1.0  0.1194
  H  H142  1  0.092600  0.937800  0.760800  1.0  0.1244
  H  H143  1  0.810700  0.878600  0.330800  1.0  0.1188
  H  H144  1  0.846100  0.403200  0.763900  1.0  0.1289
  H  H145  1  0.765300  0.207700  0.647600  1.0  0.1163
  H  H146  1  0.053700  0.232300  0.010700  1.0  0.1319
  H  H147  1  0.029300  0.838400  0.764300  1.0  0.1187
  H  H148  1  0.430200  0.225900  0.115600  1.0  0.1085
  H  H149  1  0.461900  0.377000  0.007700  1.0  0.1038
  H  H150  1  0.340700  0.038200  0.397100  1.0  0.1132
  H  H151  1  0.697500  0.659300  0.397100  1.0  0.1127
  H  H152  1  0.801600  0.384000  0.059000  1.0  0.1335
  H  H153  1  0.340100  0.185400  0.418500  1.0  0.133
  H  H154  1  0.848500  0.714300  0.917800  1.0  0.1335
  H  H155  1  0.809200  0.959800  0.332200  1.0  0.1076
  H  H156  1  0.865800  0.151500  0.917800  1.0  0.126
  H  H157  1  0.639700  0.152400  0.059200  1.0  0.1011
  H  H158  1  0.639700  0.487300  0.559200  1.0  0.1012
  H  H159  1  0.848500  0.134200  0.417800  1.0  0.1351
  H  H160  1  0.839000  0.682100  0.375000  1.0  0.1183
  H  H161  1  0.848200  0.123000  0.665100  1.0  0.1077
  H  H162  1  0.809100  0.838400  0.264300  1.0  0.1184
  H  H163  1  0.089100  0.953800  0.070800  1.0  0.1272
  H  H164  1  0.818000  0.304700  0.056300  1.0  0.1134
  H  H165  1  0.430200  0.204300  0.615600  1.0  0.1082
  H  H166  1  0.689400  0.187200  0.281500  1.0  0.1214
  H  H167  1  0.643100  0.159000  0.776200  1.0  0.1191
  H  H168  1  0.442400  0.234700  0.647600  1.0  0.117
  H  H169  1  0.761700  0.899200  0.012100  1.0  0.1066
  H  H170  1  0.137500  0.238300  0.012100  1.0  0.1066
  H  H171  1  0.150600  0.959800  0.832200  1.0  0.1078
  H  H172  1  0.846700  0.137800  0.709400  1.0  0.0964
  H  H173  1  0.711700  0.048400  0.970800  1.0  0.1115
  H  H174  1  0.440600  0.134500  0.000200  1.0  0.1193
  H  H175  1  0.812800  0.310600  0.781500  1.0  0.121
  H  H176  1  0.872900  0.708700  0.126600  1.0  0.1275
  H  H177  1  0.787300  0.765000  0.014300  1.0  0.1032
  H  H178  1  0.161600  0.970700  0.264300  1.0  0.1181
  H  H179  1  0.848200  0.725200  0.165100  1.0  0.1093
  H  H180  1  0.771700  0.573700  0.220700  1.0  0.1185
  H  H181  1  0.792300  0.234700  0.147600  1.0  0.1171
  H  H182  1  0.542600  0.486400  0.322900  1.0  0.118
  H  H183  1  0.961800  0.302500  0.397100  1.0  0.1142
  H  H184  1  0.684000  0.097400  0.322400  1.0  0.1264
  H  H185  1  0.844600  0.683300  0.959700  1.0  0.1104
  H  H186  1  0.809200  0.849400  0.832200  1.0  0.1074
  H  H187  1  0.977700  0.765000  0.514300  1.0  0.1031
  H  H188  1  0.826300  0.110600  0.169200  1.0  0.1125
  H  H189  1  0.966800  0.177000  0.827200  1.0  0.1122
  H  H190  1  0.124700  0.209400  0.260100  1.0  0.1272
  H  H191  1  0.761700  0.862500  0.512100  1.0  0.1061
  H  H192  1  0.801600  0.417600  0.559000  1.0  0.1405
  H  H193  1  0.426300  0.228300  0.720700  1.0  0.1178
  H  H194  1  0.124700  0.915300  0.760100  1.0  0.1266
  H  H195  1  0.340700  0.302500  0.897100  1.0  0.1142
  H  H196  1  0.089100  0.135300  0.570800  1.0  0.1303
  H  H197  1  0.557100  0.403200  0.263900  1.0  0.1284
  H  H198  1  0.067900  0.189300  0.330800  1.0  0.1214
  H  H199  1  0.513600  0.457400  0.822900  1.0  0.1174
  H  H200  1  0.100800  0.862500  0.012100  1.0  0.1059
  H  H201  1  0.022800  0.172500  0.570400  1.0  0.1162
  H  H202  1  0.865800  0.714300  0.417800  1.0  0.1335
  H  H203  1  0.117700  0.186000  0.579600  1.0  0.1331
  H  H204  1  0.831900  0.018000  0.268000  1.0  0.1022
  H  H205  1  0.062200  0.154800  0.760800  1.0  0.1242
  H  H206  1  0.915100  0.538100  0.007700  1.0  0.1035
  H  H207  1  0.202800  0.969300  0.517700  1.0  0.1065
  H  H208  1  0.285700  0.134200  0.917800  1.0  0.1329
  H  H209  1  0.889400  0.173700  0.669200  1.0  0.1134
  H  H210  1  0.847600  0.487300  0.059200  1.0  0.1014
  H  H211  1  0.449300  0.064800  0.318800  1.0  0.1124
  H  H212  1  0.084700  0.209400  0.760100  1.0  0.1271
  H  H213  1  0.486700  0.304700  0.556300  1.0  0.1133
  H  H214  1  0.943800  0.486400  0.822900  1.0  0.1178
  H  H215  1  0.765300  0.557600  0.147600  1.0  0.117
  H  H216  1  0.587900  0.195600  0.778600  1.0  0.1253
  H  H217  1  0.084700  0.875300  0.260100  1.0  0.127
  H  H218  1  0.515900  0.159000  0.276200  1.0  0.1193
  H  H219  1  0.190800  0.201100  0.822700  1.0  0.0996
  H  H220  1  0.881000  0.379000  0.996100  1.0  0.1277
  H  H221  1  0.798900  0.809200  0.322700  1.0  0.1
  H  H222  1  0.711700  0.663300  0.470800  1.0  0.1112
  H  H223  1  0.766500  0.969300  0.017700  1.0  0.1064
  H  H224  1  0.966800  0.789800  0.327200  1.0  0.112
  H  H225  1  0.827500  0.977200  0.070400  1.0  0.1165
  H  H226  1  0.982000  0.813900  0.268000  1.0  0.1015
  H  H227  1  0.463100  0.395200  0.325700  1.0  0.1105
  H  H228  1  0.121400  0.932100  0.330800  1.0  0.1196
  H  H229  1  0.965600  0.301100  0.437300  1.0  0.1175
  H  H230  1  0.531200  0.096900  0.496600  1.0  0.1134
  H  H231  1  0.137500  0.899200  0.512100  1.0  0.107
  H  H232  1  0.442400  0.207700  0.147600  1.0  0.1171
  H  H233  1  0.766500  0.797200  0.517700  1.0  0.1073
  H  H234  1  0.787300  0.022300  0.514300  1.0  0.1035
  H  H235  1  0.202800  0.233500  0.017700  1.0  0.1073
  H  H236  1  0.497800  0.310600  0.281500  1.0  0.1208
  H  H237  1  0.843100  0.027200  0.568300  1.0  0.1234
  H  H238  1  0.336700  0.048400  0.470800  1.0  0.1116
  H  H239  1  0.291100  0.153300  0.709400  1.0  0.0958
  H  H240  1  0.798900  0.989700  0.822700  1.0  0.1003
  H  H241  1  0.426300  0.198000  0.220700  1.0  0.1181
  H  H242  1  0.932100  0.395200  0.825700  1.0  0.11
  H  H243  1  0.587900  0.392300  0.278600  1.0  0.1241
  H  H244  1  0.902600  0.586600  0.322400  1.0  0.1252
  H  H245  1  0.149700  0.172500  0.070400  1.0  0.116
  H  H246  1  0.849700  0.451300  0.569000  1.0  0.1361
  H  H247  1  0.046200  0.135300  0.070800  1.0  0.1299
  H  H248  1  0.623000  0.538100  0.507700  1.0  0.1033
  H  H249  1  0.823000  0.033200  0.327200  1.0  0.1118
  H  H250  1  0.845300  0.659900  0.418500  1.0  0.1329
  H  H251  1  0.693900  0.134500  0.500200  1.0  0.1195
  H  H252  1  0.915100  0.377000  0.507700  1.0  0.104
  H  H253  1  0.693900  0.559400  0.000200  1.0  0.1194
  H  H254  1  0.774100  0.204300  0.115600  1.0  0.1074
  H  H255  1  0.117700  0.931700  0.079600  1.0  0.1339
  H  H256  1  0.512700  0.152400  0.559200  1.0  0.1011
  H  H257  1  0.767700  0.946300  0.510700  1.0  0.1306
  H  H258  1  0.982000  0.168100  0.768000  1.0  0.1034
  H  H259  1  0.902600  0.316000  0.822400  1.0  0.1262
  H  H260  1  0.847600  0.360300  0.559200  1.0  0.1012
  H  H261  1  0.340100  0.154700  0.918500  1.0  0.1285
  H  H262  1  0.801800  0.556500  0.685800  1.0  0.1211
  H  H263  1  0.316700  0.161300  0.959700  1.0  0.1089
  H  H264  1  0.604800  0.067900  0.325700  1.0  0.1105
  H  H265  1  0.809100  0.970700  0.764300  1.0  0.1184
  H  H266  1  0.068300  0.186000  0.079600  1.0  0.1326
  H  H267  1  0.795700  0.569800  0.115600  1.0  0.1073
  H  H268  1  0.865500  0.306100  0.000200  1.0  0.1197
  H  H269  1  0.841000  0.484100  0.776200  1.0  0.1199
  H  H270  1  0.812800  0.502200  0.281500  1.0  0.1213
  H  H271  1  0.149700  0.977200  0.570400  1.0  0.1169
  H  H272  1  0.186100  0.168100  0.268000  1.0  0.1021
  H  H273  1  0.621000  0.502000  0.996100  1.0  0.1275
  H  H274  1  0.862200  0.708900  0.709400  1.0  0.0972
  H  H275  1  0.616000  0.198400  0.559000  1.0  0.1399
  H  H276  1  0.235000  0.212700  0.514300  1.0  0.102
  H  H277  1  0.335500  0.301100  0.937300  1.0  0.1175
  H  H278  1  0.767700  0.821400  0.010700  1.0  0.131
  H  H279  1  0.498000  0.119000  0.996100  1.0  0.1279
  H  H280  1  0.513600  0.056200  0.322900  1.0  0.1188
  H  H281  1  0.877000  0.151800  0.165100  1.0  0.1082
  H  H282  1  0.951600  0.663300  0.970800  1.0  0.1114
  H  H283  1  0.186100  0.018000  0.768000  1.0  0.102
  H  H284  1  0.046200  0.910900  0.570800  1.0  0.1289
  H  H285  1  0.515900  0.356900  0.776200  1.0  0.1189
  H  H286  1  0.864700  0.910900  0.070800  1.0  0.1292
  H  H287  1  0.062200  0.907400  0.260800  1.0  0.125
  H  H288  1  0.804400  0.412100  0.278600  1.0  0.1267
  H  H289  1  0.317900  0.161000  0.875000  1.0  0.1179
  H  H290  1  0.601600  0.150300  0.569000  1.0  0.1373
  H  H291  1  0.697500  0.038200  0.897100  1.0  0.1128
  H  H292  1  0.235000  0.022300  0.014300  1.0  0.1029
  H  H293  1  0.463100  0.067900  0.825700  1.0  0.1107
  H  H294  1  0.698900  0.664500  0.437300  1.0  0.1148
  H  H295  1  0.710900  0.658900  0.363600  1.0  0.1111
  H  H296  1  0.771700  0.198000  0.720700  1.0  0.1178
  H  H297  1  0.689400  0.502200  0.781500  1.0  0.1205
  H  H298  1  0.835800  0.708700  0.626600  1.0  0.1291
  H  H299  1  0.291300  0.164200  0.126600  1.0  0.1275
  H  H300  1  0.067900  0.878600  0.830800  1.0  0.1191
  H  H301  1  0.615500  0.064800  0.818800  1.0  0.1127
  H  H302  1  0.838700  0.155400  0.959700  1.0  0.1092
  H  H303  1  0.831900  0.813900  0.768000  1.0  0.1014
  H  H304  1  0.498000  0.379000  0.496100  1.0  0.1275
  H  H305  1  0.804400  0.392300  0.778600  1.0  0.1214
  H  H306  1  0.040200  0.190800  0.832200  1.0  0.1082
  H  H307  1  0.881000  0.502000  0.496100  1.0  0.1279
  H  H308  1  0.285700  0.151500  0.417800  1.0  0.1291
  H  H309  1  0.512700  0.360300  0.059200  1.0  0.1005
  H  H310  1  0.790600  0.875300  0.760100  1.0  0.1282
  H  H311  1  0.846700  0.708900  0.209400  1.0  0.0968
  H  H312  1  0.849700  0.398400  0.069000  1.0  0.138
  H  H313  1  0.565700  0.096900  0.996600  1.0  0.1134
  H  H314  1  0.845200  0.937800  0.260800  1.0  0.1254
  H  H315  1  0.601600  0.451300  0.069000  1.0  0.1365
  H  H316  1  0.284300  0.173700  0.169200  1.0  0.1138
  H  H317  1  0.948000  0.658900  0.863600  1.0  0.1114
  H  H318  1  0.607700  0.195600  0.278600  1.0  0.1254
  H  H319  1  0.810700  0.932100  0.830800  1.0  0.1198
  H  H320  1  0.274800  0.151800  0.665100  1.0  0.1093
  H  H321  1  0.795700  0.225900  0.615600  1.0  0.1079
  H  H322  1  0.190800  0.989700  0.322700  1.0  0.1005
  H  H323  1  0.903100  0.468800  0.996600  1.0  0.1132
  H  H324  1  0.943800  0.457400  0.322900  1.0  0.1173
  H  H325  1  0.178600  0.232300  0.510700  1.0  0.1318
  H  H326  1  0.604800  0.536900  0.825700  1.0  0.1104
  H  H327  1  0.053700  0.821400  0.510700  1.0  0.1306
  H  H328  1  0.100800  0.238300  0.512100  1.0  0.1066
  H  H329  1  0.862200  0.153300  0.209400  1.0  0.0964
  H  H330  1  0.040200  0.849400  0.332200  1.0  0.1075
  H  H331  1  0.531200  0.434300  0.996600  1.0  0.1136
  H  H332  1  0.150600  0.190800  0.332200  1.0  0.1079
  H  H333  1  0.948000  0.289100  0.363600  1.0  0.1113
  H  H334  1  0.010300  0.201100  0.322700  1.0  0.0998
  H  H335  1  0.284300  0.110600  0.669200  1.0  0.1121
  H  H336  1  0.178600  0.946300  0.010700  1.0  0.1317
  H  H337  1  0.814600  0.659900  0.918500  1.0  0.1328
  H  H338  1  0.843100  0.815900  0.068300  1.0  0.1241
  H  H339  1  0.877000  0.725200  0.665100  1.0  0.1072
  H  H340  1  0.316700  0.155400  0.459700  1.0  0.1091
  H  H341  1  0.818000  0.513300  0.556300  1.0  0.1139
  H  H342  1  0.607700  0.412100  0.778600  1.0  0.1278
  H  H343  1  0.951600  0.288300  0.470800  1.0  0.1123
  H  H344  1  0.291100  0.137800  0.209400  1.0  0.0964
  H  H345  1  0.542600  0.056200  0.822900  1.0  0.1185
  H  H346  1  0.443500  0.198200  0.185800  1.0  0.1205
  H  H347  1  0.341100  0.052000  0.363600  1.0  0.1108
  H  H348  1  0.802000  0.573700  0.720700  1.0  0.1185
  H  H349  1  0.582400  0.198400  0.059000  1.0  0.1405
  H  H350  1  0.872900  0.164200  0.626600  1.0  0.1272
  H  H351  1  0.801800  0.245300  0.185800  1.0  0.1213
  H  H352  1  0.068300  0.882300  0.579600  1.0  0.1342
  H  H353  1  0.972800  0.156900  0.068300  1.0  0.1244
  H  H354  1  0.844600  0.161300  0.459700  1.0  0.1098
  H  H355  1  0.845200  0.907400  0.760800  1.0  0.1254
  H  H356  1  0.030700  0.233500  0.517700  1.0  0.1073
  H  H357  1  0.623000  0.084900  0.007700  1.0  0.1037
  H  H358  1  0.792300  0.557600  0.647600  1.0  0.117
  H  H359  1  0.814600  0.154700  0.418500  1.0  0.1282
  H  H360  1  0.029300  0.190900  0.264300  1.0  0.1186
  H  H361  1  0.932100  0.536900  0.325700  1.0  0.1102
  H  H362  1  0.961800  0.659300  0.897100  1.0  0.1128
  H  H363  1  0.972800  0.815900  0.568300  1.0  0.1251
  H  H364  1  0.335500  0.034400  0.437300  1.0  0.1155
  H  H365  1  0.843100  0.161000  0.375000  1.0  0.1181
  H  H366  1  0.616000  0.417600  0.059000  1.0  0.1402
  H  H367  1  0.841000  0.356900  0.276200  1.0  0.1193
  H  H368  1  0.274800  0.123000  0.165100  1.0  0.1075
  H  H369  1  0.695300  0.513300  0.056300  1.0  0.1136
  H  H370  1  0.341100  0.289100  0.863600  1.0  0.1115
  H  H371  1  0.121400  0.189300  0.830800  1.0  0.1212
  H  H372  1  0.845300  0.185400  0.918500  1.0  0.1324
  H  H373  1  0.443500  0.245300  0.685800  1.0  0.1217
  H  H374  1  0.413400  0.097400  0.822400  1.0  0.1263
  H  H375  1  0.161600  0.190900  0.764300  1.0  0.1186
  H  H376  1  0.548700  0.398400  0.569000  1.0  0.1373
  H  H377  1  0.865500  0.559400  0.500200  1.0  0.1191
  H  H378  1  0.596800  0.442900  0.763900  1.0  0.128
  H  H379  1  0.935200  0.550700  0.818800  1.0  0.1122
  H  H380  1  0.903100  0.434300  0.496600  1.0  0.1137
  H  H381  1  0.843100  0.682100  0.875000  1.0  0.1183
  H  H382  1  0.010300  0.809200  0.822700  1.0  0.1003
  H  H383  1  0.461900  0.084900  0.507700  1.0  0.1031
  H  H384  1  0.774100  0.569800  0.615600  1.0  0.1075
  H  H385  1  0.198200  0.754700  0.814200  1.0  0.1213
  H  H386  1  0.797200  0.766500  0.982300  1.0  0.1081
  H  H387  1  0.989700  0.798900  0.677300  1.0  0.0992
  H  H388  1  0.434300  0.903100  0.003400  1.0  0.1144
  H  H389  1  0.190800  0.040200  0.667800  1.0  0.1078
  H  H390  1  0.559400  0.865500  0.999800  1.0  0.1197
  H  H391  1  0.573700  0.771700  0.279300  1.0  0.1173
  H  H392  1  0.289100  0.948000  0.136400  1.0  0.1108
  H  H393  1  0.487300  0.639700  0.940800  1.0  0.0997
  H  H394  1  0.212700  0.235000  0.985700  1.0  0.1029
  H  H395  1  0.487300  0.847600  0.440800  1.0  0.0999
  H  H396  1  0.123000  0.848200  0.834900  1.0  0.1099
  H  H397  1  0.238300  0.100800  0.987900  1.0  0.1069
  H  H398  1  0.232300  0.053700  0.489300  1.0  0.1313
  H  H399  1  0.150300  0.548700  0.431000  1.0  0.1374
  H  H400  1  0.153300  0.862200  0.290600  1.0  0.0958
  H  H401  1  0.186000  0.068300  0.420400  1.0  0.1325
  H  H402  1  0.714300  0.848500  0.582200  1.0  0.1265
  H  H403  1  0.304700  0.486700  0.943700  1.0  0.1135
  H  H404  1  0.502000  0.881000  0.003900  1.0  0.1283
  H  H405  1  0.201100  0.190800  0.677300  1.0  0.0999
  H  H406  1  0.306100  0.440600  0.999800  1.0  0.1198
  H  H407  1  0.198400  0.582400  0.441000  1.0  0.1402
  H  H408  1  0.134200  0.848500  0.082200  1.0  0.1302
  H  H409  1  0.288300  0.951600  0.029200  1.0  0.1124
  H  H410  1  0.159000  0.515900  0.223800  1.0  0.1198
  H  H411  1  0.212700  0.977700  0.485700  1.0  0.1028
  H  H412  1  0.022300  0.235000  0.485700  1.0  0.1032
  H  H413  1  0.067900  0.604800  0.174300  1.0  0.1097
  H  H414  1  0.907400  0.062200  0.239200  1.0  0.1251
  H  H415  1  0.161300  0.844600  0.040300  1.0  0.1094
  H  H416  1  0.931700  0.814000  0.920400  1.0  0.133
  H  H417  1  0.209400  0.084700  0.739900  1.0  0.1266
  H  H418  1  0.809200  0.798900  0.177300  1.0  0.0994
  H  H419  1  0.959800  0.150600  0.667800  1.0  0.1071
  H  H420  1  0.155400  0.316700  0.040300  1.0  0.1095
  H  H421  1  0.395200  0.932100  0.674300  1.0  0.1112
  H  H422  1  0.915300  0.124700  0.739900  1.0  0.1277
  H  H423  1  0.123000  0.274800  0.334900  1.0  0.1095
  H  H424  1  0.398400  0.849700  0.431000  1.0  0.1359
  H  H425  1  0.970700  0.161600  0.235700  1.0  0.119
  H  H426  1  0.232300  0.178600  0.989300  1.0  0.1307
  H  H427  1  0.233500  0.202800  0.482300  1.0  0.1072
  H  H428  1  0.097400  0.413400  0.677600  1.0  0.1256
  H  H429  1  0.302500  0.340700  0.602900  1.0  0.1129
  H  H430  1  0.152400  0.512700  0.940800  1.0  0.1002
  H  H431  1  0.682100  0.839000  0.125000  1.0  0.1183
  H  H432  1  0.048400  0.336700  0.029200  1.0  0.1121
  H  H433  1  0.119000  0.621000  0.003900  1.0  0.127
  H  H434  1  0.064800  0.615500  0.681200  1.0  0.1122
  H  H435  1  0.838400  0.809100  0.235700  1.0  0.1194
  H  H436  1  0.789800  0.823000  0.672800  1.0  0.1122
  H  H437  1  0.204300  0.774100  0.384400  1.0  0.1074
  H  H438  1  0.538100  0.623000  0.992300  1.0  0.1042
  H  H439  1  0.486400  0.943800  0.677100  1.0  0.1186
  H  H440  1  0.550700  0.615500  0.181200  1.0  0.1125
  H  H441  1  0.156900  0.839000  0.625000  1.0  0.118
  H  H442  1  0.878600  0.067900  0.669200  1.0  0.1203
  H  H443  1  0.064800  0.449300  0.181200  1.0  0.1113
  H  H444  1  0.097400  0.684000  0.177600  1.0  0.1259
  H  H445  1  0.177000  0.966800  0.672800  1.0  0.1117
  H  H446  1  0.412100  0.607700  0.721400  1.0  0.1211
  H  H447  1  0.977200  0.827500  0.429600  1.0  0.1167
  H  H448  1  0.168100  0.982000  0.732000  1.0  0.1027
  H  H449  1  0.875300  0.790600  0.739900  1.0  0.1271
  H  H450  1  0.195600  0.587900  0.721400  1.0  0.1278
  H  H451  1  0.153900  0.596800  0.236100  1.0  0.1279
  H  H452  1  0.434300  0.531200  0.503400  1.0  0.1139
  H  H453  1  0.708900  0.846700  0.290600  1.0  0.0959
  H  H454  1  0.379000  0.498000  0.003900  1.0  0.1279
  H  H455  1  0.813900  0.982000  0.232000  1.0  0.103
  H  H456  1  0.316000  0.902600  0.677600  1.0  0.1257
  H  H457  1  0.932100  0.810700  0.669200  1.0  0.1212
  H  H458  1  0.899200  0.761700  0.487900  1.0  0.1057
  H  H459  1  0.821400  0.053700  0.989300  1.0  0.1312
  H  H460  1  0.907400  0.845200  0.739200  1.0  0.1242
  H  H461  1  0.392300  0.804400  0.721400  1.0  0.1249
  H  H462  1  0.959800  0.809200  0.167800  1.0  0.1073
  H  H463  1  0.586600  0.902600  0.177600  1.0  0.1259
  H  H464  1  0.977200  0.149700  0.929600  1.0  0.1169
  H  H465  1  0.204300  0.430200  0.884400  1.0  0.1079
  H  H466  1  0.234700  0.442400  0.852400  1.0  0.1177
  H  H467  1  0.809200  0.010300  0.677300  1.0  0.0996
  H  H468  1  0.150300  0.601600  0.931000  1.0  0.1368
  H  H469  1  0.161000  0.317900  0.625000  1.0  0.118
  H  H470  1  0.151800  0.274800  0.834900  1.0  0.1086
  H  H471  1  0.156900  0.184100  0.931700  1.0  0.1252
  H  H472  1  0.302500  0.961800  0.102900  1.0  0.1134
  H  H473  1  0.502200  0.689400  0.718500  1.0  0.1206
  H  H474  1  0.182000  0.695300  0.943700  1.0  0.1137
  H  H475  1  0.198400  0.616000  0.941000  1.0  0.1358
  H  H476  1  0.937800  0.845200  0.239200  1.0  0.1244
  H  H477  1  0.052000  0.710900  0.636400  1.0  0.1108
  H  H478  1  0.151500  0.285700  0.082200  1.0  0.1349
  H  H479  1  0.038200  0.697500  0.602900  1.0  0.114
  H  H480  1  0.502200  0.812800  0.218500  1.0  0.122
  H  H481  1  0.154700  0.340100  0.581500  1.0  0.1324
  H  H482  1  0.173700  0.889400  0.830800  1.0  0.1133
  H  H483  1  0.659900  0.845300  0.081500  1.0  0.1274
  H  H484  1  0.725200  0.877000  0.834900  1.0  0.1069
  H  H485  1  0.159000  0.643100  0.723800  1.0  0.1197
  H  H486  1  0.486400  0.542600  0.177100  1.0  0.1174
  H  H487  1  0.151800  0.877000  0.334900  1.0  0.107
  H  H488  1  0.190900  0.029300  0.235700  1.0  0.119
  H  H489  1  0.190900  0.161600  0.735700  1.0  0.1192
  H  H490  1  0.910900  0.046200  0.929200  1.0  0.1289
  H  H491  1  0.360300  0.847600  0.940800  1.0  0.1
  H  H492  1  0.663300  0.711700  0.029200  1.0  0.1124
  H  H493  1  0.189300  0.067900  0.169200  1.0  0.1198
  H  H494  1  0.937800  0.092600  0.739200  1.0  0.125
  H  H495  1  0.225900  0.430200  0.384400  1.0  0.108
  H  H496  1  0.177000  0.210200  0.172800  1.0  0.112
  H  H497  1  0.310600  0.497800  0.218500  1.0  0.1213
  H  H498  1  0.878600  0.810700  0.169200  1.0  0.1217
  H  H499  1  0.797200  0.030700  0.482300  1.0  0.1069
  H  H500  1  0.048400  0.711700  0.529200  1.0  0.1119
  H  H501  1  0.310600  0.812800  0.718500  1.0  0.1219
  H  H502  1  0.033200  0.210200  0.672800  1.0  0.1121
  H  H503  1  0.683300  0.838700  0.040300  1.0  0.1097
  H  H504  1  0.953800  0.864700  0.929200  1.0  0.1292
  H  H505  1  0.127100  0.835800  0.373400  1.0  0.1274
  H  H506  1  0.765000  0.977700  0.985700  1.0  0.1036
  H  H507  1  0.550700  0.935200  0.681200  1.0  0.1127
  H  H508  1  0.882300  0.068300  0.920400  1.0  0.1338
  H  H509  1  0.161000  0.843100  0.125000  1.0  0.1173
  H  H510  1  0.306100  0.865500  0.499800  1.0  0.1198
  H  H511  1  0.569800  0.795700  0.384400  1.0  0.107
  H  H512  1  0.683300  0.844600  0.540300  1.0  0.1101
  H  H513  1  0.899200  0.137500  0.987900  1.0  0.1057
  H  H514  1  0.556500  0.801800  0.814200  1.0  0.1209
  H  H515  1  0.849400  0.040200  0.167800  1.0  0.1078
  H  H516  1  0.457400  0.513600  0.677100  1.0  0.1179
  H  H517  1  0.708900  0.862200  0.790600  1.0  0.0958
  H  H518  1  0.154800  0.092600  0.239200  1.0  0.1254
  H  H519  1  0.238300  0.137500  0.487900  1.0  0.1066
  H  H520  1  0.849400  0.809200  0.667800  1.0  0.107
  H  H521  1  0.821400  0.767700  0.489300  1.0  0.1316
  H  H522  1  0.245300  0.443500  0.814200  1.0  0.1214
  H  H523  1  0.682100  0.843100  0.625000  1.0  0.1173
  H  H524  1  0.557600  0.792300  0.852400  1.0  0.1164
  H  H525  1  0.850300  0.022800  0.429600  1.0  0.1172
  H  H526  1  0.135300  0.046200  0.429200  1.0  0.1275
  H  H527  1  0.182000  0.486700  0.443700  1.0  0.1137
  H  H528  1  0.155400  0.838700  0.540300  1.0  0.1089
  H  H529  1  0.658900  0.710900  0.136400  1.0  0.1107
  H  H530  1  0.946300  0.178600  0.489300  1.0  0.1316
  H  H531  1  0.038200  0.340700  0.102900  1.0  0.1127
  H  H532  1  0.659300  0.697500  0.102900  1.0  0.114
  H  H533  1  0.289100  0.341100  0.636400  1.0  0.1109
  H  H534  1  0.384500  0.935200  0.181200  1.0  0.1129
  H  H535  1  0.096900  0.531200  0.003400  1.0  0.114
  H  H536  1  0.195600  0.607700  0.221400  1.0  0.1245
  H  H537  1  0.154700  0.814600  0.081500  1.0  0.1326
  H  H538  1  0.034400  0.698900  0.562700  1.0  0.1172
  H  H539  1  0.725200  0.848200  0.334900  1.0  0.1086
  H  H540  1  0.234700  0.792300  0.352400  1.0  0.1174
  H  H541  1  0.569800  0.774100  0.884400  1.0  0.1074
  H  H542  1  0.664500  0.965600  0.562700  1.0  0.1163
  H  H543  1  0.201100  0.010300  0.177300  1.0  0.0999
  H  H544  1  0.168100  0.186100  0.232000  1.0  0.1012
  H  H545  1  0.164200  0.291300  0.373400  1.0  0.127
  H  H546  1  0.838400  0.029300  0.735700  1.0  0.1191
  H  H547  1  0.172500  0.022800  0.929600  1.0  0.1179
  H  H548  1  0.813900  0.831900  0.732000  1.0  0.1017
  H  H549  1  0.862500  0.761700  0.987900  1.0  0.1072
  H  H550  1  0.384000  0.582400  0.941000  1.0  0.1382
  H  H551  1  0.189300  0.121400  0.669200  1.0  0.1193
  H  H552  1  0.154800  0.062200  0.739200  1.0  0.1246
  H  H553  1  0.468800  0.565700  0.003400  1.0  0.1136
  H  H554  1  0.931700  0.117700  0.420400  1.0  0.1332
  H  H555  1  0.714300  0.865800  0.082200  1.0  0.1352
  H  H556  1  0.573700  0.802000  0.779300  1.0  0.1178
  H  H557  1  0.233500  0.030700  0.982300  1.0  0.1067
  H  H558  1  0.715700  0.826300  0.830800  1.0  0.1132
  H  H559  1  0.484100  0.841000  0.723800  1.0  0.1197
  H  H560  1  0.185400  0.340100  0.081500  1.0  0.1335
  H  H561  1  0.875300  0.084700  0.239900  1.0  0.1267
  H  H562  1  0.398400  0.548700  0.931000  1.0  0.1376
  H  H563  1  0.882300  0.814000  0.420400  1.0  0.133
  H  H564  1  0.663300  0.951600  0.529200  1.0  0.1123
  H  H565  1  0.164200  0.872900  0.873400  1.0  0.1275
  H  H566  1  0.708700  0.835800  0.873400  1.0  0.1277
  H  H567  1  0.815900  0.972800  0.931700  1.0  0.1245
  H  H568  1  0.207700  0.765300  0.852400  1.0  0.1169
  H  H569  1  0.417600  0.616000  0.441000  1.0  0.1302
  H  H570  1  0.457400  0.943800  0.177100  1.0  0.1186
  H  H571  1  0.356900  0.515900  0.723800  1.0  0.1203
  H  H572  1  0.027200  0.184100  0.431700  1.0  0.1247
  H  H573  1  0.153900  0.557100  0.736100  1.0  0.1279
  H  H574  1  0.056200  0.513600  0.177100  1.0  0.1181
  H  H575  1  0.910900  0.864700  0.429200  1.0  0.1293
  H  H576  1  0.789800  0.966800  0.172800  1.0  0.1118
  H  H577  1  0.134500  0.693900  0.999800  1.0  0.1201
  H  H578  1  0.395200  0.463100  0.174300  1.0  0.1099
  H  H579  1  0.403200  0.846100  0.736100  1.0  0.1276
  H  H580  1  0.135300  0.089100  0.929200  1.0  0.1292
  H  H581  1  0.153300  0.291100  0.790600  1.0  0.0972
  H  H582  1  0.586600  0.684000  0.677600  1.0  0.126
  H  H583  1  0.096900  0.565700  0.503400  1.0  0.1138
  H  H584  1  0.442900  0.846100  0.236100  1.0  0.128
  H  H585  1  0.384500  0.449300  0.681200  1.0  0.1112
  H  H586  1  0.137800  0.291100  0.290600  1.0  0.0968
  H  H587  1  0.152400  0.639700  0.440800  1.0  0.0996
  H  H588  1  0.557600  0.765300  0.352400  1.0  0.1167
  H  H589  1  0.451300  0.849700  0.931000  1.0  0.1366
  H  H590  1  0.502000  0.621000  0.503900  1.0  0.1268
  H  H591  1  0.970700  0.809100  0.735700  1.0  0.1191
  H  H592  1  0.067900  0.463100  0.674300  1.0  0.1098
  H  H593  1  0.915300  0.790600  0.239900  1.0  0.1274
  H  H594  1  0.412100  0.804400  0.221400  1.0  0.1244
  H  H595  1  0.151500  0.865800  0.582200  1.0  0.1335
  H  H596  1  0.969300  0.766500  0.482300  1.0  0.1076
  H  H597  1  0.034400  0.335500  0.062700  1.0  0.1147
  H  H598  1  0.536900  0.932100  0.174300  1.0  0.111
  H  H599  1  0.536900  0.604800  0.674300  1.0  0.1099
  H  H600  1  0.161300  0.316700  0.540300  1.0  0.1105
  H  H601  1  0.225900  0.795700  0.884400  1.0  0.1072
  H  H602  1  0.018000  0.831900  0.232000  1.0  0.1013
  H  H603  1  0.850300  0.827500  0.929600  1.0  0.1176
  H  H604  1  0.989700  0.190800  0.177300  1.0  0.0999
  H  H605  1  0.173700  0.284300  0.330800  1.0  0.1142
  H  H606  1  0.379000  0.881000  0.503900  1.0  0.1282
  H  H607  1  0.084900  0.623000  0.492300  1.0  0.1041
  H  H608  1  0.377000  0.915100  0.992300  1.0  0.1037
  H  H609  1  0.052000  0.341100  0.136400  1.0  0.1107
  H  H610  1  0.468800  0.903100  0.503400  1.0  0.1141
  H  H611  1  0.417600  0.801600  0.941000  1.0  0.1416
  H  H612  1  0.538100  0.915100  0.492300  1.0  0.1042
  H  H613  1  0.316000  0.413400  0.177600  1.0  0.1257
  H  H614  1  0.765000  0.787300  0.485700  1.0  0.103
  H  H615  1  0.172500  0.149700  0.429600  1.0  0.1169
  H  H616  1  0.033200  0.823000  0.172800  1.0  0.1124
  H  H617  1  0.815900  0.843100  0.431700  1.0  0.124
  H  H618  1  0.084900  0.461900  0.992300  1.0  0.1038
  H  H619  1  0.134200  0.285700  0.582200  1.0  0.1351
  H  H620  1  0.664500  0.698900  0.062700  1.0  0.1171
  H  H621  1  0.513300  0.695300  0.443700  1.0  0.1138
  H  H622  1  0.442900  0.596800  0.736100  1.0  0.129
  H  H623  1  0.301100  0.335500  0.562700  1.0  0.1151
  H  H624  1  0.288300  0.336700  0.529200  1.0  0.1122
  H  H625  1  0.156900  0.972800  0.431700  1.0  0.1239
  H  H626  1  0.110600  0.826300  0.330800  1.0  0.1127
  H  H627  1  0.659300  0.961800  0.602900  1.0  0.1138
  H  H628  1  0.658900  0.948000  0.636400  1.0  0.1108
  H  H629  1  0.403200  0.557100  0.236100  1.0  0.1282
  H  H630  1  0.245300  0.801800  0.314200  1.0  0.1206
  H  H631  1  0.209400  0.124700  0.239900  1.0  0.1269
  H  H632  1  0.187200  0.689400  0.218500  1.0  0.1203
  H  H633  1  0.953800  0.089100  0.429200  1.0  0.1298
  H  H634  1  0.556500  0.754700  0.314200  1.0  0.1205
  H  H635  1  0.384000  0.801600  0.441000  1.0  0.1415
  H  H636  1  0.392300  0.587900  0.221400  1.0  0.1271
  H  H637  1  0.198200  0.443500  0.314200  1.0  0.1214
  H  H638  1  0.304700  0.818000  0.443700  1.0  0.1139
  H  H639  1  0.110600  0.284300  0.830800  1.0  0.1136
  H  H640  1  0.228300  0.802000  0.279300  1.0  0.118
  H  H641  1  0.451300  0.601600  0.431000  1.0  0.1381
  H  H642  1  0.134500  0.440600  0.499800  1.0  0.1199
  H  H643  1  0.127100  0.291300  0.873400  1.0  0.1272
  H  H644  1  0.946300  0.767700  0.989300  1.0  0.1308
  H  H645  1  0.207700  0.442400  0.352400  1.0  0.1176
  H  H646  1  0.356900  0.841000  0.223800  1.0  0.1202
  H  H647  1  0.186000  0.117700  0.920400  1.0  0.1329
  H  H648  1  0.301100  0.965600  0.062700  1.0  0.1159
  H  H649  1  0.969300  0.202800  0.982300  1.0  0.1071
  H  H650  1  0.190800  0.150600  0.167800  1.0  0.1066
  H  H651  1  0.137800  0.846700  0.790600  1.0  0.0958
  H  H652  1  0.056200  0.542600  0.677100  1.0  0.1172
  H  H653  1  0.377000  0.461900  0.492300  1.0  0.1036
  H  H654  1  0.119000  0.498000  0.503900  1.0  0.1276
  H  H655  1  0.185400  0.845300  0.581500  1.0  0.1283
  H  H656  1  0.022300  0.787300  0.985700  1.0  0.103
  H  H657  1  0.715700  0.889400  0.330800  1.0  0.1137
  H  H658  1  0.027200  0.843100  0.931700  1.0  0.1256
  H  H659  1  0.228300  0.426300  0.779300  1.0  0.1178
  H  H660  1  0.198000  0.426300  0.279300  1.0  0.1178
  H  H661  1  0.018000  0.186100  0.732000  1.0  0.1029
  H  H662  1  0.559400  0.693900  0.499800  1.0  0.12
  H  H663  1  0.187200  0.497800  0.718500  1.0  0.1205
  H  H664  1  0.156900  0.317900  0.125000  1.0  0.1173
  H  H665  1  0.484100  0.643100  0.223800  1.0  0.1199
  H  H666  1  0.198000  0.771700  0.779300  1.0  0.1176
  H  H667  1  0.932100  0.121400  0.169200  1.0  0.1195
  H  H668  1  0.708700  0.872900  0.373400  1.0  0.1279
  H  H669  1  0.513300  0.818000  0.943700  1.0  0.1137
  H  H670  1  0.659900  0.814600  0.581500  1.0  0.1314
  H  H671  1  0.360300  0.512700  0.440800  1.0  0.1004
  H  H672  1  0.862500  0.100800  0.487900  1.0  0.1064
  C  C673  1  0.739100  0.151800  0.301900  1.0  0.5093
  C  C674  1  0.042400  0.221000  0.526800  1.0  -0.1004
  C  C675  1  0.669200  0.559700  0.814900  1.0  -0.0807
  C  C676  1  0.562700  0.485900  0.313600  1.0  -0.0199
  C  C677  1  0.840800  0.173000  0.649980  1.0  0.0892
  C  C678  1  0.845000  0.701300  0.667130  1.0  -0.2655
  C  C679  1  0.890500  0.559700  0.314900  1.0  -0.0795
  C  C680  1  0.923200  0.485900  0.813600  1.0  -0.0189
  C  C681  1  0.923200  0.437300  0.313600  1.0  -0.0186
  C  C682  1  0.076300  0.888400  0.783130  1.0  0.0234
  C  C683  1  0.100800  0.203800  0.036500  1.0  -0.0328
  C  C684  1  0.056400  0.185900  0.803040  1.0  -0.0238
  C  C685  1  0.520700  0.158800  0.041800  1.0  0.0373
  C  C686  1  0.181900  0.169800  0.556520  1.0  -0.026
  C  C687  1  0.514100  0.437300  0.813600  1.0  -0.0185
  C  C688  1  0.329000  0.212700  0.844470  1.0  0.7023
  C  C689  1  0.256000  0.085800  0.042100  1.0  0.6644
  C  C690  1  0.795400  0.787300  0.024000  1.0  -0.0225
  C  C691  1  0.810700  0.131100  0.955190  1.0  -0.0361
  C  C692  1  0.494300  0.364200  0.508100  1.0  -0.0157
  C  C693  1  0.230400  0.028400  0.288920  1.0  0.7403
  C  C694  1  0.819300  0.034500  0.541600  1.0  -0.1405
  C  C695  1  0.726900  0.058600  0.941750  1.0  -0.0709
  C  C696  1  0.822900  0.576900  0.531100  1.0  0.6957
  C  C697  1  0.883700  0.212700  0.344470  1.0  0.7006
  C  C698  1  0.061700  0.191800  0.317590  1.0  -0.094
  C  C699  1  0.806100  0.182300  0.678390  1.0  0.0467
  C  C700  1  0.013900  0.815000  0.792500  1.0  -0.1194
  C  C701  1  0.412700  0.151800  0.801900  1.0  0.5072
  C  C702  1  0.854800  0.549300  0.301630  1.0  -0.0361
  C  C703  1  0.145100  0.178800  0.553400  1.0  0.1172
  C  C704  1  0.984900  0.805900  0.316420  1.0  -0.0386
  C  C705  1  0.832400  0.753000  0.794580  1.0  0.707
  C  C706  1  0.561000  0.395100  0.556500  1.0  -0.2926
  C  C707  1  0.848200  0.587300  0.301900  1.0  0.5063
  C  C708  1  0.625000  0.479400  0.792300  1.0  -0.0095
  C  C709  1  0.815800  0.893500  0.554030  1.0  -0.0333
  C  C710  1  0.329100  0.089200  0.406160  1.0  -0.0436
  C  C711  1  0.336400  0.070300  0.372600  1.0  -0.0378
  C  C712  1  0.816600  0.853700  0.558300  1.0  -0.017
  C  C713  1  0.423100  0.246000  0.531100  1.0  0.6964
  C  C714  1  0.807700  0.962100  0.777430  1.0  -0.0749
  C  C715  1  0.413500  0.202900  0.143800  1.0  -0.0404
  C  C716  1  0.918000  0.393600  0.311100  1.0  -0.0626
  C  C717  1  0.037900  0.845600  0.777430  1.0  -0.0759
  C  C718  1  0.154400  0.192300  0.777430  1.0  -0.0752
  C  C719  1  0.129500  0.943600  0.803040  1.0  -0.0301
  C  C720  1  0.461800  0.321300  0.510300  1.0  -0.0862
  C  C721  1  0.802400  0.829700  0.312680  1.0  -0.0405
  C  C722  1  0.810700  0.910700  0.802460  1.0  0.0421
  C  C723  1  0.510200  0.109900  0.805600  1.0  -0.0165
  C  C724  1  0.703500  0.162000  0.529100  1.0  -0.1306
  C  C725  1  0.809900  0.188300  0.657090  1.0  -0.0135
  C  C726  1  0.829000  0.159600  0.684420  1.0  0.0455
  C  C727  1  0.779000  0.957600  0.026800  1.0  -0.0995
  C  C728  1  0.055500  0.856400  0.536130  1.0  -0.0157
  C  C729  1  0.613800  0.101600  0.015600  1.0  -0.0293
  C  C730  1  0.224800  0.197300  0.048100  1.0  0.7055
  C  C731  1  0.776600  0.860800  0.523400  1.0  -0.0703
  C  C732  1  0.412700  0.260900  0.301900  1.0  0.5059
  C  C733  1  0.847000  0.652200  0.739820  1.0  0.7362
  C  C734  1  0.489100  0.169500  0.044400  1.0  -0.0684
  C  C735  1  0.830500  0.319600  0.044400  1.0  -0.0663
  C  C736  1  0.515500  0.377100  0.785600  1.0  -0.0649
  C  C737  1  0.678700  0.140500  0.510300  1.0  -0.0868
  C  C738  1  0.836800  0.642600  0.117140  1.0  -0.1037
  C  C739  1  0.130100  0.191800  0.817590  1.0  -0.0951
  C  C740  1  0.856300  0.701300  0.167130  1.0  -0.2653
  C  C741  1  0.837200  0.434500  0.277600  1.0  -0.2783
  C  C742  1  0.680800  0.113500  0.038000  1.0  0.4601
  C  C743  1  0.890100  0.489800  0.305600  1.0  -0.0158
  C  C744  1  0.810700  0.679600  0.455190  1.0  -0.0355
  C  C745  1  0.414400  0.190400  0.190600  1.0  0.0191
  C  C746  1  0.802000  0.152800  0.095880  1.0  0.7307
  C  C747  1  0.103000  0.203800  0.536500  1.0  -0.0322
  C  C748  1  0.805800  0.642600  0.617140  1.0  -0.109
  C  C749  1  0.913500  0.238800  0.428360  1.0  -0.0471
  C  C750  1  0.803100  0.122800  0.935080  1.0  -0.0007
  C  C751  1  0.941400  0.668300  0.941750  1.0  -0.0757
  C  C752  1  0.458500  0.296500  0.529100  1.0  -0.1305
  C  C753  1  0.809600  0.585600  0.690600  1.0  0.0165
  C  C754  1  0.910800  0.670900  0.906160  1.0  -0.0409
  C  C755  1  0.891100  0.216500  0.490250  1.0  0.704
  C  C756  1  0.898400  0.512200  0.015600  1.0  -0.0304
  C  C757  1  0.847200  0.198000  0.595880  1.0  0.7309
  C  C758  1  0.971600  0.202000  0.288920  1.0  0.7386
  C  C759  1  0.827000  0.159200  0.149980  1.0  0.0889
  C  C760  1  0.487800  0.386200  0.015600  1.0  -0.0266
  C  C761  1  0.894000  0.421100  0.509100  1.0  -0.1163
  C  C762  1  0.802500  0.677700  0.399540  1.0  -0.0616
  C  C763  1  0.578900  0.472900  0.509100  1.0  -0.1143
  C  C764  1  0.635800  0.505700  0.008100  1.0  -0.0153
  C  C765  1  0.320400  0.131100  0.455190  1.0  -0.0362
  C  C766  1  0.817700  0.193900  0.178390  1.0  0.0471
  C  C767  1  0.886500  0.567300  0.038000  1.0  0.4602
  C  C768  1  0.143000  0.179600  0.284160  1.0  -0.0239
  C  C769  1  0.853500  0.678300  0.130540  1.0  -0.0641
  C  C770  1  0.966700  0.174900  0.796890  1.0  -0.0819
  C  C771  1  0.414400  0.224000  0.690600  1.0  0.0173
  C  C772  1  0.298700  0.143700  0.667130  1.0  -0.2641
  C  C773  1  0.055500  0.199100  0.036130  1.0  -0.0169
  C  C774  1  0.215200  0.180700  0.541600  1.0  -0.1433
  C  C775  1  0.798000  0.769600  0.288920  1.0  0.7366
  C  C776  1  0.672400  0.509100  0.790400  1.0  0.0024
  C  C777  1  0.776000  0.190400  0.690600  1.0  0.0163
  C  C778  1  0.846700  0.162300  0.417970  1.0  -0.2854
  C  C779  1  0.941400  0.273100  0.441750  1.0  -0.0735
  C  C780  1  0.807700  0.845600  0.277430  1.0  -0.0752
  C  C781  1  0.683600  0.563500  0.294500  1.0  0.674
  C  C782  1  0.510200  0.400300  0.305600  1.0  -0.0179
  C  C783  1  0.461800  0.140500  0.010300  1.0  -0.0854
  C  C784  1  0.527100  0.421100  0.009100  1.0  -0.1155
  C  C785  1  0.830200  0.012100  0.556520  1.0  -0.0281
  C  C786  1  0.247000  0.079400  0.794580  1.0  0.7063
  C  C787  1  0.726900  0.668300  0.441750  1.0  -0.0778
  C  C788  1  0.972500  0.775200  0.048100  1.0  0.7062
  C  C789  1  0.694500  0.549300  0.801630  1.0  -0.0348
  C  C790  1  0.805100  0.210500  0.624200  1.0  -0.0539
  C  C791  1  0.739100  0.587300  0.801900  1.0  0.5073
  C  C792  1  0.357400  0.194200  0.117140  1.0  -0.1087
  C  C793  1  0.350800  0.198000  0.095880  1.0  0.7312
  C  C794  1  0.784700  0.821100  0.021480  1.0  -0.1466
  C  C795  1  0.848200  0.260900  0.801900  1.0  0.5066
  C  C796  1  0.322300  0.197500  0.899540  1.0  -0.0614
  C  C797  1  0.139200  0.915800  0.523400  1.0  -0.0712
  C  C798  1  0.256000  0.170200  0.542100  1.0  0.6642
  C  C799  1  0.523500  0.387800  0.523700  1.0  -0.093
  C  C800  1  0.077700  0.184200  0.554030  1.0  -0.0329
  C  C801  1  0.814800  0.217600  0.211360  1.0  -0.0694
  C  C802  1  0.908200  0.378200  0.816800  1.0  -0.077
  C  C803  1  0.178600  0.957600  0.526800  1.0  -0.0996
  C  C804  1  0.636500  0.112700  0.797100  1.0  -0.1692
  C  C805  1  0.481000  0.120500  0.534000  1.0  -0.1221
  C  C806  1  0.797100  0.586500  0.643800  1.0  -0.0465
  C  C807  1  0.678700  0.538200  0.010300  1.0  -0.088
  C  C808  1  0.725800  0.061900  0.892690  1.0  -0.0865
  C  C809  1  0.622900  0.138400  0.785600  1.0  -0.0655
  C  C810  1  0.887300  0.523800  0.797100  1.0  -0.1695
  C  C811  1  0.783500  0.108900  0.990250  1.0  0.7047
  C  C812  1  0.814100  0.971700  0.319470  1.0  -0.0704
  C  C813  1  0.194100  0.015100  0.816420  1.0  -0.0374
  C  C814  1  0.846700  0.684400  0.917970  1.0  -0.2865
  C  C815  1  0.680400  0.510900  0.044400  1.0  -0.0671
  C  C816  1  0.319700  0.196900  0.935080  1.0  -0.0019
  C  C817  1  0.516800  0.376600  0.047600  1.0  0.0459
  C  C818  1  0.787300  0.671000  0.344470  1.0  0.7006
  C  C819  1  0.432700  0.113500  0.538000  1.0  0.4596
  C  C820  1  0.146300  0.962900  0.558300  1.0  -0.0227
  C  C821  1  0.733900  0.070300  0.872600  1.0  -0.0374
  C  C822  1  0.224800  0.027500  0.548100  1.0  0.706
  C  C823  1  0.111600  0.187900  0.783130  1.0  0.0238
  C  C824  1  0.824800  0.146500  0.130540  1.0  -0.0646
  C  C825  1  0.805200  0.153000  0.739820  1.0  0.7361
  C  C826  1  0.440300  0.330800  0.314900  1.0  -0.0804
  C  C827  1  0.185000  0.986100  0.292500  1.0  -0.1207
  C  C828  1  0.754000  0.177100  0.531100  1.0  0.6949
  C  C829  1  0.489100  0.319600  0.544400  1.0  -0.0674
  C  C830  1  0.329600  0.223700  0.865980  1.0  -0.1952
  C  C831  1  0.017400  0.817900  0.044130  1.0  -0.1215
  C  C832  1  0.621800  0.091800  0.316800  1.0  -0.0791
  C  C833  1  0.564100  0.126800  0.023800  1.0  -0.1118
  C  C834  1  0.553400  0.102500  0.302100  1.0  0.0054
  C  C835  1  0.565500  0.162800  0.777600  1.0  -0.2807
  C  C836  1  0.413500  0.210600  0.643800  1.0  -0.0439
  C  C837  1  0.329600  0.105900  0.365980  1.0  -0.196
  C  C838  1  0.170300  0.197600  0.812680  1.0  -0.044
  C  C839  1  0.450700  0.305500  0.301630  1.0  -0.0346
  C  C840  1  0.838000  0.296500  0.029100  1.0  -0.1317
  C  C841  1  0.845000  0.143700  0.167130  1.0  -0.2597
  C  C842  1  0.840400  0.171000  0.184420  1.0  0.0447
  C  C843  1  0.103000  0.899200  0.036500  1.0  -0.0343
  C  C844  1  0.805200  0.652200  0.239820  1.0  0.7359
  C  C845  1  0.694500  0.145200  0.301630  1.0  -0.0352
  C  C846  1  0.804500  0.644000  0.217480  1.0  -0.1346
  C  C847  1  0.520600  0.375000  0.292300  1.0  -0.0097
  C  C848  1  0.405400  0.210500  0.124200  1.0  -0.0531
  C  C849  1  0.322500  0.133100  0.379450  1.0  0.0221
  C  C850  1  0.084200  0.223400  0.523400  1.0  -0.0707
  C  C851  1  0.965500  0.180700  0.041600  1.0  -0.1449
  C  C852  1  0.100800  0.897000  0.536500  1.0  -0.0311
  C  C853  1  0.816600  0.962900  0.058300  1.0  -0.0221
  C  C854  1  0.866900  0.189400  0.379450  1.0  0.0208
  C  C855  1  0.929700  0.266100  0.372600  1.0  -0.042
  C  C856  1  0.347800  0.153000  0.239820  1.0  0.735
  C  C857  1  0.450700  0.145200  0.801630  1.0  -0.0355
  C  C858  1  0.836700  0.327600  0.790400  1.0  0.0005
  C  C859  1  0.734600  0.067000  0.961860  1.0  -0.0569
  C  C860  1  0.896700  0.673200  0.968580  1.0  -0.204
  C  C861  1  0.562700  0.435900  0.023800  1.0  -0.1141
  C  C862  1  0.604900  0.439000  0.056500  1.0  -0.2908
  C  C863  1  0.853500  0.175200  0.630540  1.0  -0.0597
  C  C864  1  0.836700  0.509100  0.290400  1.0  0.0011
  C  C865  1  0.972500  0.197300  0.548100  1.0  0.7045
  C  C866  1  0.036600  0.857000  0.284160  1.0  -0.0239
  C  C867  1  0.866900  0.677500  0.879450  1.0  0.021
  C  C868  1  0.061300  0.168000  0.067600  1.0  -0.303
  C  C869  1  0.520700  0.361900  0.541800  1.0  0.0411
  C  C870  1  0.077700  0.893500  0.054030  1.0  -0.0307
  C  C871  1  0.894100  0.670400  0.865980  1.0  -0.1954
  C  C872  1  0.378400  0.190100  0.657090  1.0  -0.0125
  C  C873  1  0.821000  0.015100  0.316420  1.0  -0.0388
  C  C874  1  0.856300  0.155000  0.667130  1.0  -0.2638
  C  C875  1  0.672400  0.163300  0.290400  1.0  0.0021
  C  C876  1  0.622900  0.484500  0.285600  1.0  -0.065
  C  C877  1  0.869900  0.505700  0.508100  1.0  -0.0156
  C  C878  1  0.849400  0.170700  0.204740  1.0  -0.0342
  C  C879  1  0.779000  0.821400  0.526800  1.0  -0.0982
  C  C880  1  0.866800  0.446100  0.788100  1.0  0.1658
  C  C881  1  0.490900  0.163300  0.790400  1.0  0.001
  C  C882  1  0.553900  0.420700  0.788100  1.0  0.1661
  C  C883  1  0.864300  0.476500  0.523700  1.0  -0.094
  C  C884  1  0.801100  0.815000  0.292500  1.0  -0.1201
  C  C885  1  0.516800  0.140200  0.547600  1.0  0.0417
  C  C886  1  0.639500  0.120500  0.034000  1.0  -0.1214
  C  C887  1  0.108800  0.926100  0.768710  1.0  -0.2643
  C  C888  1  0.787300  0.116300  0.844470  1.0  0.7017
  C  C889  1  0.829800  0.085800  0.542100  1.0  0.6704
  C  C890  1  0.826600  0.820400  0.780730  1.0  -0.02
  C  C891  1  0.331700  0.058600  0.441750  1.0  -0.0769
  C  C892  1  0.789500  0.594600  0.624200  1.0  -0.0549
  C  C893  1  0.858000  0.414500  0.544200  1.0  -0.0087
  C  C894  1  0.179600  0.006200  0.780730  1.0  -0.0197
  C  C895  1  0.802700  0.027500  0.048100  1.0  0.706
  C  C896  1  0.837700  0.153300  0.917970  1.0  -0.2866
  C  C897  1  0.821200  0.854900  0.053400  1.0  0.1218
  C  C898  1  0.683600  0.120100  0.794500  1.0  0.6737
  C  C899  1  0.561000  0.165900  0.056500  1.0  -0.294
  C  C900  1  0.805100  0.594600  0.124200  1.0  -0.055
  C  C901  1  0.877200  0.680300  0.935080  1.0  -0.0002
  C  C902  1  0.810700  0.900000  0.302460  1.0  0.0399
  C  C903  1  0.315600  0.162300  0.917970  1.0  -0.286
  C  C904  1  0.938100  0.663900  0.892690  1.0  -0.0834
  C  C905  1  0.908200  0.530000  0.316800  1.0  -0.0784
  C  C906  1  0.820400  0.857000  0.784160  1.0  -0.0242
  C  C907  1  0.597300  0.162800  0.277600  1.0  -0.2811
  C  C908  1  0.612200  0.135700  0.523700  1.0  -0.0928
  C  C909  1  0.879500  0.519000  0.034000  1.0  -0.123
  C  C910  1  0.036600  0.179600  0.784160  1.0  -0.0248
  C  C911  1  0.879900  0.563500  0.794500  1.0  0.6735
  C  C912  1  0.811700  0.190100  0.157090  1.0  -0.0122
  C  C913  1  0.129500  0.185900  0.303040  1.0  -0.0309
  C  C914  1  0.784700  0.963600  0.521480  1.0  -0.1504
  C  C915  1  0.028300  0.185900  0.819470  1.0  -0.067
  C  C916  1  0.971600  0.769600  0.788920  1.0  0.7384
  C  C917  1  0.423100  0.177100  0.031100  1.0  0.6968
  C  C918  1  0.734600  0.667600  0.461860  1.0  -0.0575
  C  C919  1  0.754000  0.576900  0.031100  1.0  0.6959
  C  C920  1  0.825100  0.791800  0.796890  1.0  -0.0837
  C  C921  1  0.106500  0.922300  0.554030  1.0  -0.0299
  C  C922  1  0.839500  0.644000  0.717480  1.0  -0.1343
  C  C923  1  0.033700  0.854900  0.553400  1.0  0.1226
  C  C924  1  0.089300  0.189300  0.302460  1.0  0.0402
  C  C925  1  0.733900  0.663600  0.372600  1.0  -0.0382
  C  C926  1  0.761200  0.674700  0.428360  1.0  -0.0474
  C  C927  1  0.599700  0.489800  0.805600  1.0  -0.0171
  C  C928  1  0.789400  0.586500  0.143800  1.0  -0.0467
  C  C929  1  0.891100  0.674600  0.990250  1.0  0.7023
  C  C930  1  0.847000  0.194800  0.239820  1.0  0.7345
  C  C931  1  0.760100  0.670900  0.406160  1.0  -0.0432
  C  C932  1  0.873200  0.437300  0.023800  1.0  -0.1131
  C  C933  1  0.494300  0.130100  0.008100  1.0  -0.0156
  C  C934  1  0.332200  0.159200  0.649980  1.0  0.089
  C  C935  1  0.806100  0.623800  0.178390  1.0  0.0468
  C  C936  1  0.897500  0.450900  0.302100  1.0  -0.0011
  C  C937  1  0.938100  0.274200  0.392690  1.0  -0.0865
  C  C938  1  0.579300  0.446100  0.288100  1.0  0.165
  C  C939  1  0.606400  0.082000  0.811100  1.0  -0.0637
  C  C940  1  0.315600  0.153300  0.417970  1.0  -0.2873
  C  C941  1  0.476200  0.363500  0.797100  1.0  -0.1719
  C  C942  1  0.815800  0.922300  0.054030  1.0  -0.0311
  C  C943  1  0.061700  0.869900  0.817590  1.0  -0.0864
  C  C944  1  0.562700  0.076800  0.813600  1.0  -0.0236
  C  C945  1  0.776500  0.103300  0.968580  1.0  -0.209
  C  C946  1  0.143000  0.963400  0.784160  1.0  -0.0242
  C  C947  1  0.356000  0.195500  0.717480  1.0  -0.1345
  C  C948  1  0.330600  0.171000  0.684420  1.0  0.045
  C  C949  1  0.111600  0.923700  0.283130  1.0  0.0249
  C  C950  1  0.638100  0.158800  0.541800  1.0  0.0406
  C  C951  1  0.761200  0.086500  0.928360  1.0  -0.0483
  C  C952  1  0.182100  0.982600  0.544130  1.0  -0.1168
  C  C953  1  0.612200  0.476500  0.023700  1.0  -0.0925
  C  C954  1  0.873200  0.435900  0.523800  1.0  -0.1134
  C  C955  1  0.918000  0.524400  0.811100  1.0  -0.0611
  C  C956  1  0.564100  0.437300  0.523800  1.0  -0.113
  C  C957  1  0.877200  0.196900  0.435080  1.0  -0.0013
  C  C958  1  0.802500  0.124800  0.899540  1.0  -0.0619
  C  C959  1  0.811700  0.621600  0.657090  1.0  -0.0088
  C  C960  1  0.515500  0.138400  0.285600  1.0  -0.0653
  C  C961  1  0.829800  0.744000  0.042100  1.0  0.6645
  C  C962  1  0.669200  0.109500  0.314900  1.0  -0.0799
  C  C963  1  0.470000  0.378200  0.316800  1.0  -0.0768
  C  C964  1  0.073900  0.182700  0.768710  1.0  -0.2632
  C  C965  1  0.776500  0.673200  0.468580  1.0  -0.2042
  C  C966  1  0.776600  0.915800  0.023400  1.0  -0.0695
  C  C967  1  0.894100  0.223700  0.365980  1.0  -0.1954
  C  C968  1  0.556500  0.142000  0.544200  1.0  -0.0162
  C  C969  1  0.145100  0.966300  0.053400  1.0  0.1194
  C  C970  1  0.330600  0.159600  0.184420  1.0  0.0457
  C  C971  1  0.298700  0.155000  0.167130  1.0  -0.2587
  C  C972  1  0.139200  0.223400  0.023400  1.0  -0.0717
  C  C973  1  0.839500  0.195500  0.217480  1.0  -0.1345
  C  C974  1  0.817300  0.891200  0.768710  1.0  -0.262
  C  C975  1  0.322500  0.189400  0.879450  1.0  0.0226
  C  C976  1  0.804500  0.160500  0.717480  1.0  -0.134
  C  C977  1  0.725800  0.663900  0.392690  1.0  -0.0844
  C  C978  1  0.181900  0.012100  0.056520  1.0  -0.0303
  C  C979  1  0.027300  0.197600  0.312680  1.0  -0.0397
  C  C980  1  0.326800  0.103300  0.468580  1.0  -0.21
  C  C981  1  0.378400  0.188300  0.157090  1.0  -0.0127
  C  C982  1  0.800900  0.856400  0.036130  1.0  -0.0167
  C  C983  1  0.864300  0.387800  0.023700  1.0  -0.0945
  C  C984  1  0.966700  0.791800  0.296890  1.0  -0.0836
  C  C985  1  0.143600  0.944500  0.036130  1.0  -0.0157
  C  C986  1  0.562700  0.126800  0.523800  1.0  -0.1119
  C  C987  1  0.100000  0.189300  0.802460  1.0  0.0396
  C  C988  1  0.841200  0.479300  0.541800  1.0  0.0396
  C  C989  1  0.376200  0.193900  0.678390  1.0  0.0472
  C  C990  1  0.812100  0.888400  0.283130  1.0  0.0229
  C  C991  1  0.776300  0.105900  0.865980  1.0  -0.1956
  C  C992  1  0.623400  0.483200  0.547600  1.0  0.0467
  C  C993  1  0.859500  0.321300  0.010300  1.0  -0.0873
  C  C994  1  0.776000  0.585600  0.190600  1.0  0.0147
  C  C995  1  0.089300  0.900000  0.802460  1.0  0.0395
  C  C996  1  0.319700  0.122800  0.435080  1.0  -1e-04
  C  C997  1  0.859500  0.538200  0.510300  1.0  -0.0902
  C  C998  1  0.838000  0.541500  0.529100  1.0  -0.1308
  C  C999  1  0.810600  0.677500  0.379450  1.0  0.0228
  C  C1000  1  0.440300  0.109500  0.814900  1.0  -0.0806
  C  C1001  1  0.829000  0.669400  0.184420  1.0  0.0452
  C  C1002  1  0.432700  0.319200  0.038000  1.0  0.4607
  C  C1003  1  0.910800  0.239900  0.406160  1.0  -0.0441
  C  C1004  1  0.604900  0.165900  0.556500  1.0  -0.2916
  C  C1005  1  0.795400  0.008100  0.524000  1.0  -0.0211
  C  C1006  1  0.321300  0.150600  0.204740  1.0  -0.0357
  C  C1007  1  0.832400  0.079400  0.294580  1.0  0.7064
  C  C1008  1  0.514100  0.076800  0.313600  1.0  -0.0225
  C  C1009  1  0.993800  0.173400  0.780730  1.0  -0.0203
  C  C1010  1  0.037900  0.192300  0.277430  1.0  -0.0761
  C  C1011  1  0.613800  0.512200  0.515600  1.0  -0.0298
  C  C1012  1  0.809600  0.224000  0.190600  1.0  0.0148
  C  C1013  1  0.230400  0.202000  0.788920  1.0  0.7377
  C  C1014  1  0.578900  0.106000  0.009100  1.0  -0.1157
  C  C1015  1  0.703500  0.541500  0.029100  1.0  -0.132
  C  C1016  1  0.886500  0.319200  0.538000  1.0  0.4613
  C  C1017  1  0.376200  0.182300  0.178390  1.0  0.0469
  C  C1018  1  0.984900  0.179000  0.816420  1.0  -0.0394
  C  C1019  1  0.329100  0.239900  0.906160  1.0  -0.0421
  C  C1020  1  0.325400  0.108900  0.490250  1.0  0.7026
  C  C1021  1  0.523500  0.135700  0.023700  1.0  -0.0936
  C  C1022  1  0.814100  0.842400  0.819470  1.0  -0.069
  C  C1023  1  0.776300  0.670400  0.365980  1.0  -0.1958
  C  C1024  1  0.913500  0.674700  0.928360  1.0  -0.0472
  C  C1025  1  0.056400  0.870500  0.303040  1.0  -0.0297
  C  C1026  1  0.321700  0.175200  0.130540  1.0  -0.064
  C  C1027  1  0.817300  0.926100  0.268710  1.0  -0.263
  C  C1028  1  0.680400  0.169500  0.544400  1.0  -0.0671
  C  C1029  1  0.336100  0.274200  0.892690  1.0  -0.0847
  C  C1030  1  0.826600  0.006200  0.280730  1.0  -0.0194
  C  C1031  1  0.320400  0.189300  0.955190  1.0  -0.0338
  C  C1032  1  0.356000  0.160500  0.217480  1.0  -0.1342
  C  C1033  1  0.849400  0.678700  0.704740  1.0  -0.0312
  C  C1034  1  0.476200  0.112700  0.297100  1.0  -0.1709
  C  C1035  1  0.814100  0.943600  0.303040  1.0  -0.0255
  C  C1036  1  0.832000  0.893300  0.067600  1.0  -0.2985
  C  C1037  1  0.490900  0.327600  0.290400  1.0  0.0014
  C  C1038  1  0.178900  0.963600  0.021480  1.0  -0.1452
  C  C1039  1  0.993800  0.820400  0.280730  1.0  -0.0201
  C  C1040  1  0.837200  0.402700  0.777600  1.0  -0.2783
  C  C1041  1  0.061300  0.893300  0.567600  1.0  -0.298
  C  C1042  1  0.037100  0.853700  0.058300  1.0  -0.0193
  C  C1043  1  0.808200  0.938300  0.817590  1.0  -0.089
  C  C1044  1  0.898400  0.386200  0.515600  1.0  -0.028
  C  C1045  1  0.836800  0.194200  0.617140  1.0  -0.1027
  C  C1046  1  0.475600  0.082000  0.311100  1.0  -0.0637
  C  C1047  1  0.987900  0.818100  0.556520  1.0  -0.029
  C  C1048  1  0.896700  0.223500  0.468580  1.0  -0.208
  C  C1049  1  0.869900  0.364200  0.008100  1.0  -0.0169
  C  C1050  1  0.556500  0.414500  0.044200  1.0  -0.0093
  C  C1051  1  0.208200  0.174900  0.296890  1.0  -0.0831
  C  C1052  1  0.326800  0.223500  0.968580  1.0  -0.209
  C  C1053  1  0.436500  0.316400  0.794500  1.0  0.6744
  C  C1054  1  0.178600  0.221000  0.026800  1.0  -0.1009
  C  C1055  1  0.802700  0.775200  0.548100  1.0  0.7049
  C  C1056  1  0.987900  0.169800  0.056520  1.0  -0.0292
  C  C1057  1  0.914200  0.744000  0.542100  1.0  0.6634
  C  C1058  1  0.834100  0.439000  0.556500  1.0  -0.2935
  C  C1059  1  0.036400  0.821100  0.521480  1.0  -0.1491
  C  C1060  1  0.549100  0.102500  0.802100  1.0  -0.0015
  C  C1061  1  0.814800  0.597200  0.711360  1.0  -0.0702
  C  C1062  1  0.875200  0.677700  0.899540  1.0  -0.0621
  C  C1063  1  0.789500  0.194900  0.124200  1.0  -0.0539
  C  C1064  1  0.814100  0.870500  0.803040  1.0  -0.0304
  C  C1065  1  0.185000  0.198900  0.792500  1.0  -0.1197
  C  C1066  1  0.800900  0.944500  0.536130  1.0  -0.0145
  C  C1067  1  0.037100  0.183400  0.558300  1.0  -0.0214
  C  C1068  1  0.810600  0.133100  0.879450  1.0  0.0226
  C  C1069  1  0.789400  0.202900  0.643800  1.0  -0.0429
  C  C1070  1  0.623400  0.140200  0.047600  1.0  0.0469
  C  C1071  1  0.809900  0.621600  0.157090  1.0  -0.0108
  C  C1072  1  0.854800  0.305500  0.801630  1.0  -0.0354
  C  C1073  1  0.332400  0.067000  0.461860  1.0  -0.0558
  C  C1074  1  0.470000  0.091800  0.816800  1.0  -0.0796
  C  C1075  1  0.597300  0.434500  0.777600  1.0  -0.2777
  C  C1076  1  0.553400  0.450900  0.802100  1.0  -0.0022
  C  C1077  1  0.553900  0.133200  0.288100  1.0  0.1661
  C  C1078  1  0.146300  0.183400  0.058300  1.0  -0.0196
  C  C1079  1  0.084200  0.860800  0.023400  1.0  -0.0688
  C  C1080  1  0.325400  0.216500  0.990250  1.0  0.7035
  C  C1081  1  0.817700  0.623800  0.678390  1.0  0.0469
  C  C1082  1  0.585500  0.142000  0.044200  1.0  -0.0124
  C  C1083  1  0.834100  0.395100  0.056500  1.0  -0.294
  C  C1084  1  0.879900  0.316400  0.294500  1.0  0.6745
  C  C1085  1  0.920600  0.753000  0.294580  1.0  0.7067
  C  C1086  1  0.329000  0.116300  0.344470  1.0  0.7027
  C  C1087  1  0.933000  0.667600  0.961860  1.0  -0.0576
  C  C1088  1  0.802000  0.649200  0.595880  1.0  0.731
  C  C1089  1  0.194100  0.179000  0.316420  1.0  -0.0377
  C  C1090  1  0.625000  0.145600  0.292300  1.0  -0.0046
  C  C1091  1  0.215200  0.034500  0.041600  1.0  -0.1403
  C  C1092  1  0.914200  0.170200  0.042100  1.0  0.6707
  C  C1093  1  0.076300  0.187900  0.283130  1.0  0.0227
  C  C1094  1  0.350800  0.152800  0.595880  1.0  0.7313
  C  C1095  1  0.991900  0.787300  0.524000  1.0  -0.0222
  C  C1096  1  0.965500  0.784800  0.541600  1.0  -0.1424
  C  C1097  1  0.017400  0.199500  0.544130  1.0  -0.1211
  C  C1098  1  0.347800  0.194800  0.739820  1.0  0.7364
  C  C1099  1  0.332400  0.265400  0.961860  1.0  -0.0581
  C  C1100  1  0.797100  0.210600  0.143800  1.0  -0.0465
  C  C1101  1  0.832000  0.938700  0.567600  1.0  -0.3011
  C  C1102  1  0.635800  0.130100  0.508100  1.0  -0.0172
  C  C1103  1  0.247000  0.167600  0.294580  1.0  0.7039
  C  C1104  1  0.820400  0.963400  0.284160  1.0  -0.0251
  C  C1105  1  0.402800  0.185200  0.211360  1.0  -0.0669
  C  C1106  1  0.143600  0.199100  0.536130  1.0  -0.0097
  C  C1107  1  0.027300  0.829700  0.812680  1.0  -0.0415
  C  C1108  1  0.847200  0.649200  0.095880  1.0  0.7312
  C  C1109  1  0.933000  0.265400  0.461860  1.0  -0.0572
  C  C1110  1  0.106700  0.938700  0.067600  1.0  -0.299
  C  C1111  1  0.332200  0.173000  0.149980  1.0  0.0894
  C  C1112  1  0.336100  0.061900  0.392690  1.0  -0.0857
  C  C1113  1  0.013900  0.198900  0.292500  1.0  -0.1195
  C  C1114  1  0.599700  0.109900  0.305600  1.0  -0.0178
  C  C1115  1  0.402800  0.217600  0.711360  1.0  -0.0676
  C  C1116  1  0.028300  0.842400  0.319470  1.0  -0.0682
  C  C1117  1  0.796200  0.899200  0.536500  1.0  -0.0338
  C  C1118  1  0.170300  0.972700  0.312680  1.0  -0.0447
  C  C1119  1  0.638100  0.479300  0.041800  1.0  0.0402
  C  C1120  1  0.130100  0.938300  0.317590  1.0  -0.0905
  C  C1121  1  0.887300  0.363500  0.297100  1.0  -0.1707
  C  C1122  1  0.859800  0.483200  0.047600  1.0  0.0456
  C  C1123  1  0.639500  0.519000  0.534000  1.0  -0.123
  C  C1124  1  0.157600  0.971700  0.819470  1.0  -0.0713
  C  C1125  1  0.821000  0.805900  0.816420  1.0  -0.0383
  C  C1126  1  0.890500  0.330800  0.814900  1.0  -0.0795
  C  C1127  1  0.042400  0.821400  0.026800  1.0  -0.099
  C  C1128  1  0.621800  0.530000  0.816800  1.0  -0.0763
  C  C1129  1  0.487800  0.101600  0.515600  1.0  -0.0289
  C  C1130  1  0.680800  0.567300  0.538000  1.0  0.4604
  C  C1131  1  0.802400  0.972700  0.812680  1.0  -0.0521
  C  C1132  1  0.821200  0.966300  0.553400  1.0  0.1202
  C  C1133  1  0.436500  0.120100  0.294500  1.0  0.673
  C  C1134  1  0.897500  0.446600  0.802100  1.0  -0.0004
  C  C1135  1  0.827000  0.667800  0.649980  1.0  0.0891
  C  C1136  1  0.212700  0.008100  0.024000  1.0  -0.021
  C  C1137  1  0.829300  0.678700  0.204740  1.0  -0.0317
  C  C1138  1  0.798000  0.028400  0.788920  1.0  0.7388
  C  C1139  1  0.858000  0.443500  0.044200  1.0  -0.01
  C  C1140  1  0.154400  0.962100  0.277430  1.0  -0.0745
  C  C1141  1  0.819300  0.784800  0.041600  1.0  -0.1402
  C  C1142  1  0.822900  0.246000  0.031100  1.0  0.696
  C  C1143  1  0.321300  0.170700  0.704740  1.0  -0.0343
  C  C1144  1  0.520600  0.145600  0.792300  1.0  -0.0095
  C  C1145  1  0.803100  0.680300  0.435080  1.0  0.0002
  C  C1146  1  0.760100  0.089200  0.906160  1.0  -0.0389
  C  C1147  1  0.830500  0.510900  0.544400  1.0  -0.0672
  C  C1148  1  0.033700  0.178800  0.053400  1.0  0.1238
  C  C1149  1  0.106500  0.184200  0.054030  1.0  -0.0321
  C  C1150  1  0.783500  0.674600  0.490250  1.0  0.703
  C  C1151  1  0.920600  0.167600  0.794580  1.0  0.7041
  C  C1152  1  0.106700  0.168000  0.567600  1.0  -0.3027
  C  C1153  1  0.808200  0.869900  0.317590  1.0  -0.0872
  C  C1154  1  0.073900  0.891200  0.268710  1.0  -0.2685
  C  C1155  1  0.883700  0.671000  0.844470  1.0  0.7003
  C  C1156  1  0.868900  0.679600  0.955190  1.0  -0.0357
  C  C1157  1  0.182100  0.199500  0.044130  1.0  -0.1207
  C  C1158  1  0.405400  0.194900  0.624200  1.0  -0.0534
  C  C1159  1  0.801100  0.986100  0.792500  1.0  -0.1194
  C  C1160  1  0.208200  0.033300  0.796890  1.0  -0.0842
  C  C1161  1  0.357400  0.163200  0.617140  1.0  -0.1032
  C  C1162  1  0.331700  0.273100  0.941750  1.0  -0.0746
  C  C1163  1  0.108800  0.182700  0.268710  1.0  -0.2707
  C  C1164  1  0.825100  0.033300  0.296890  1.0  -0.0827
  C  C1165  1  0.636500  0.523800  0.297100  1.0  -0.1696
  C  C1166  1  0.837700  0.684400  0.417970  1.0  -0.2874
  C  C1167  1  0.475600  0.393600  0.811100  1.0  -0.0651
  C  C1168  1  0.336400  0.266100  0.872600  1.0  -0.0435
  C  C1169  1  0.861600  0.377100  0.285600  1.0  -0.0649
  C  C1170  1  0.841200  0.361900  0.041800  1.0  0.0412
  C  C1171  1  0.481000  0.360500  0.034000  1.0  -0.123
  C  C1172  1  0.812100  0.923700  0.783130  1.0  0.0246
  C  C1173  1  0.840800  0.667800  0.149980  1.0  0.0898
  C  C1174  1  0.868900  0.189300  0.455190  1.0  -0.0334
  C  C1175  1  0.322300  0.124800  0.399540  1.0  -0.0612
  C  C1176  1  0.325300  0.086500  0.428360  1.0  -0.0471
  C  C1177  1  0.036400  0.215300  0.021480  1.0  -0.1493
  C  C1178  1  0.894000  0.472900  0.009100  1.0  -0.1167
  C  C1179  1  0.829300  0.150600  0.704740  1.0  -0.0341
  C  C1180  1  0.782400  0.597200  0.211360  1.0  -0.07
  C  C1181  1  0.859800  0.376600  0.547600  1.0  0.0447
  C  C1182  1  0.325300  0.238800  0.928360  1.0  -0.0477
  C  C1183  1  0.527100  0.106000  0.509100  1.0  -0.1152
  C  C1184  1  0.800500  0.982600  0.044130  1.0  -0.1168
  C  C1185  1  0.212700  0.204600  0.524000  1.0  -0.0226
  C  C1186  1  0.991900  0.204600  0.024000  1.0  -0.0232
  C  C1187  1  0.100000  0.910700  0.302460  1.0  0.0387
  C  C1188  1  0.321700  0.146500  0.630540  1.0  -0.0612
  C  C1189  1  0.929700  0.663600  0.872600  1.0  -0.0376
  C  C1190  1  0.179600  0.173400  0.280730  1.0  -0.0203
  C  C1191  1  0.875200  0.197500  0.399540  1.0  -0.0624
  C  C1192  1  0.782400  0.185200  0.711360  1.0  -0.0689
  C  C1193  1  0.458500  0.162000  0.029100  1.0  -0.1311
  C  C1194  1  0.854400  0.479400  0.292300  1.0  -0.0096
  C  C1195  1  0.178900  0.215300  0.521480  1.0  -0.1485
  C  C1196  1  0.830200  0.818100  0.056520  1.0  -0.0246
  C  C1197  1  0.805800  0.163200  0.117140  1.0  -0.1039
  C  C1198  1  0.861600  0.484500  0.785600  1.0  -0.0652
  C  C1199  1  0.890100  0.400300  0.805600  1.0  -0.0179
  C  C1200  1  0.606400  0.524400  0.311100  1.0  -0.0649
  C  C1201  1  0.800500  0.817900  0.544130  1.0  -0.1214
  C  C1202  1  0.866800  0.420700  0.288100  1.0  0.167
  C  C1203  1  0.585500  0.443500  0.544200  1.0  -0.0112
  C  C1204  1  0.854400  0.375000  0.792300  1.0  -0.0034
  C  C1205  1  0.157600  0.185900  0.319470  1.0  -0.0709
  C  C1206  1  0.840400  0.669400  0.684420  1.0  0.0456
  C  C1207  1  0.579300  0.133200  0.788100  1.0  0.1667
  C  C1208  1  0.565500  0.402700  0.277600  1.0  -0.2782
  C  C1209  1  0.824800  0.678300  0.630540  1.0  -0.0635
  C  C1210  1  0.879500  0.360500  0.534000  1.0  -0.1228
  C  C1211  1  0.549100  0.446600  0.302100  1.0  0.0004
  C  C1212  1  0.796200  0.897000  0.036500  1.0  -0.0331
  C  C1213  1  0.678700  0.849400  0.795260  1.0  -0.0334
  C  C1214  1  0.202000  0.230400  0.711080  1.0  0.7374
  C  C1215  1  0.113500  0.432700  0.962000  1.0  0.4593
  C  C1216  1  0.684400  0.846700  0.582030  1.0  -0.286
  C  C1217  1  0.376600  0.516800  0.452400  1.0  0.0426
  C  C1218  1  0.364200  0.869900  0.491900  1.0  -0.0167
  C  C1219  1  0.058600  0.726900  0.558250  1.0  -0.077
  C  C1220  1  0.188300  0.809900  0.842910  1.0  -0.0145
  C  C1221  1  0.212700  0.329000  0.655530  1.0  0.702
  C  C1222  1  0.163200  0.805800  0.382860  1.0  -0.1032
  C  C1223  1  0.189300  0.100000  0.697540  1.0  0.0376
  C  C1224  1  0.070300  0.733900  0.627400  1.0  -0.0415
  C  C1225  1  0.130100  0.494300  0.491900  1.0  -0.0156
  C  C1226  1  0.006200  0.826600  0.219270  1.0  -0.02
  C  C1227  1  0.122800  0.319700  0.064920  1.0  -0.0007
  C  C1228  1  0.787300  0.991900  0.976000  1.0  -0.021
  C  C1229  1  0.860800  0.776600  0.976600  1.0  -0.0721
  C  C1230  1  0.957600  0.779000  0.473200  1.0  -0.1017
  C  C1231  1  0.375000  0.520600  0.207700  1.0  -0.0062
  C  C1232  1  0.842400  0.814100  0.680530  1.0  -0.0676
  C  C1233  1  0.435900  0.873200  0.976200  1.0  -0.1139
  C  C1234  1  0.663900  0.725800  0.107310  1.0  -0.0877
  C  C1235  1  0.124800  0.802500  0.600460  1.0  -0.0601
  C  C1236  1  0.652200  0.847000  0.760180  1.0  0.7338
  C  C1237  1  0.938700  0.832000  0.932400  1.0  -0.3004
  C  C1238  1  0.140200  0.516800  0.952400  1.0  0.0405
  C  C1239  1  0.678300  0.824800  0.869460  1.0  -0.0642
  C  C1240  1  0.668300  0.726900  0.058250  1.0  -0.0767
  C  C1241  1  0.109500  0.669200  0.185100  1.0  -0.081
  C  C1242  1  0.437300  0.873200  0.476200  1.0  -0.1139
  C  C1243  1  0.170700  0.321300  0.795260  1.0  -0.0294
  C  C1244  1  0.805900  0.984900  0.183580  1.0  -0.0395
  C  C1245  1  0.327600  0.490900  0.209600  1.0  0.0019
  C  C1246  1  0.821400  0.779000  0.973200  1.0  -0.101
  C  C1247  1  0.179000  0.984900  0.683580  1.0  -0.0409
  C  C1248  1  0.238800  0.913500  0.071640  1.0  -0.0472
  C  C1249  1  0.177100  0.423100  0.468900  1.0  0.6957
  C  C1250  1  0.140200  0.623400  0.452400  1.0  0.0447
  C  C1251  1  0.274200  0.938100  0.107310  1.0  -0.0859
  C  C1252  1  0.202000  0.971600  0.211080  1.0  0.7377
  C  C1253  1  0.400300  0.510200  0.194400  1.0  -0.0149
  C  C1254  1  0.649200  0.802000  0.904120  1.0  0.7303
  C  C1255  1  0.223500  0.896700  0.031420  1.0  -0.21
  C  C1256  1  0.670400  0.894100  0.634020  1.0  -0.1967
  C  C1257  1  0.187900  0.076300  0.216870  1.0  0.0244
  C  C1258  1  0.943600  0.814100  0.196960  1.0  -0.0251
  C  C1259  1  0.193900  0.376200  0.821610  1.0  0.0484
  C  C1260  1  0.642600  0.805800  0.882860  1.0  -0.1085
  C  C1261  1  0.151800  0.739100  0.198100  1.0  0.5074
  C  C1262  1  0.519000  0.879500  0.466000  1.0  -0.1214
  C  C1263  1  0.146500  0.824800  0.369460  1.0  -0.0595
  C  C1264  1  0.189300  0.868900  0.044810  1.0  -0.0346
  C  C1265  1  0.586500  0.797100  0.856200  1.0  -0.0413
  C  C1266  1  0.305500  0.854800  0.698370  1.0  -0.036
  C  C1267  1  0.102500  0.549100  0.697900  1.0  -0.0057
  C  C1268  1  0.109500  0.440300  0.685100  1.0  -0.0816
  C  C1269  1  0.173000  0.332200  0.350020  1.0  0.0908
  C  C1270  1  0.775200  0.802700  0.951900  1.0  0.7061
  C  C1271  1  0.510900  0.830500  0.955600  1.0  -0.0673
  C  C1272  1  0.856400  0.055500  0.963870  1.0  -0.0164
  C  C1273  1  0.597200  0.814800  0.788640  1.0  -0.068
  C  C1274  1  0.175200  0.321700  0.369460  1.0  -0.0638
  C  C1275  1  0.817900  0.017400  0.455870  1.0  -0.1179
  C  C1276  1  0.775200  0.972500  0.451900  1.0  0.7076
  C  C1277  1  0.753000  0.920600  0.205420  1.0  0.7067
  C  C1278  1  0.195500  0.839500  0.282520  1.0  -0.1366
  C  C1279  1  0.684400  0.837700  0.082030  1.0  -0.2863
  C  C1280  1  0.623800  0.817700  0.821610  1.0  0.0463
  C  C1281  1  0.644000  0.839500  0.782520  1.0  -0.1359
  C  C1282  1  0.103300  0.326800  0.031420  1.0  -0.2012
  C  C1283  1  0.679600  0.810700  0.044810  1.0  -0.0341
  C  C1284  1  0.160500  0.356000  0.282520  1.0  -0.1353
  C  C1285  1  0.701300  0.845000  0.832870  1.0  -0.2517
  C  C1286  1  0.678300  0.853500  0.369460  1.0  -0.0597
  C  C1287  1  0.652200  0.805200  0.260180  1.0  0.7344
  C  C1288  1  0.223400  0.139200  0.476600  1.0  -0.0713
  C  C1289  1  0.963600  0.784700  0.978520  1.0  -0.1499
  C  C1290  1  0.962900  0.816600  0.441700  1.0  -0.0242
  C  C1291  1  0.900000  0.089300  0.697540  1.0  0.0381
  C  C1292  1  0.158800  0.520700  0.458200  1.0  0.0407
  C  C1293  1  0.194200  0.836800  0.882860  1.0  -0.103
  C  C1294  1  0.541500  0.703500  0.470900  1.0  -0.1314
  C  C1295  1  0.109900  0.510200  0.694400  1.0  -0.0179
  C  C1296  1  0.670400  0.776300  0.134020  1.0  -0.1967
  C  C1297  1  0.330800  0.440300  0.185100  1.0  -0.0822
  C  C1298  1  0.926100  0.817300  0.231290  1.0  -0.2703
  C  C1299  1  0.140500  0.461800  0.489700  1.0  -0.0851
  C  C1300  1  0.173000  0.840800  0.850020  1.0  0.0901
  C  C1301  1  0.669400  0.840400  0.815580  1.0  0.0459
  C  C1302  1  0.079400  0.832400  0.205420  1.0  0.7039
  C  C1303  1  0.787300  0.795400  0.476000  1.0  -0.0233
  C  C1304  1  0.361900  0.841200  0.458200  1.0  0.0375
  C  C1305  1  0.160500  0.804500  0.782520  1.0  -0.1373
  C  C1306  1  0.387800  0.864300  0.476300  1.0  -0.0941
  C  C1307  1  0.483200  0.623400  0.952400  1.0  0.0401
  C  C1308  1  0.962100  0.807700  0.722570  1.0  -0.0772
  C  C1309  1  0.180700  0.965500  0.458400  1.0  -0.1426
  C  C1310  1  0.888400  0.812100  0.216870  1.0  0.0229
  C  C1311  1  0.221000  0.042400  0.973200  1.0  -0.0993
  C  C1312  1  0.869900  0.061700  0.682410  1.0  -0.0914
  C  C1313  1  0.434500  0.837200  0.222400  1.0  -0.2847
  C  C1314  1  0.193900  0.817700  0.321610  1.0  0.0479
  C  C1315  1  0.962900  0.146300  0.941700  1.0  -0.0214
  C  C1316  1  0.538200  0.859500  0.989700  1.0  -0.0857
  C  C1317  1  0.319600  0.489100  0.955600  1.0  -0.0665
  C  C1318  1  0.891200  0.817300  0.731290  1.0  -0.2593
  C  C1319  1  0.168000  0.106700  0.932400  1.0  -0.2965
  C  C1320  1  0.103300  0.776500  0.531420  1.0  -0.2086
  C  C1321  1  0.145200  0.450700  0.698370  1.0  -0.0353
  C  C1322  1  0.400300  0.890100  0.694400  1.0  -0.0154
  C  C1323  1  0.196900  0.319700  0.564920  1.0  -0.0013
  C  C1324  1  0.439000  0.834100  0.943500  1.0  -0.292
  C  C1325  1  0.105900  0.776300  0.634020  1.0  -0.1964
  C  C1326  1  0.185200  0.402800  0.288640  1.0  -0.0685
  C  C1327  1  0.420700  0.866800  0.211900  1.0  0.1657
  C  C1328  1  0.153000  0.347800  0.260180  1.0  0.739
  C  C1329  1  0.265400  0.332400  0.538140  1.0  -0.0572
  C  C1330  1  0.167600  0.247000  0.205420  1.0  0.7059
  C  C1331  1  0.563500  0.683600  0.205500  1.0  0.6754
  C  C1332  1  0.971700  0.157600  0.680530  1.0  -0.0691
  C  C1333  1  0.109900  0.599700  0.194400  1.0  -0.0167
  C  C1334  1  0.089200  0.329100  0.093840  1.0  -0.0457
  C  C1335  1  0.086500  0.761200  0.571640  1.0  -0.0468
  C  C1336  1  0.033300  0.208200  0.703110  1.0  -0.082
  C  C1337  1  0.155000  0.298700  0.332870  1.0  -0.2638
  C  C1338  1  0.106000  0.578900  0.490900  1.0  -0.1161
  C  C1339  1  0.101600  0.613800  0.484400  1.0  -0.0254
  C  C1340  1  0.173400  0.179600  0.219270  1.0  -0.0197
  C  C1341  1  0.138400  0.515500  0.214400  1.0  -0.0637
  C  C1342  1  0.174900  0.966700  0.703110  1.0  -0.0863
  C  C1343  1  0.197600  0.027300  0.187320  1.0  -0.0472
  C  C1344  1  0.202900  0.789400  0.856200  1.0  -0.0441
  C  C1345  1  0.182700  0.073900  0.731290  1.0  -0.2734
  C  C1346  1  0.559700  0.669200  0.685100  1.0  -0.0817
  C  C1347  1  0.198000  0.847200  0.904120  1.0  0.7309
  C  C1348  1  0.512200  0.898400  0.484400  1.0  -0.0272
  C  C1349  1  0.162300  0.315600  0.582030  1.0  -0.2883
  C  C1350  1  0.437300  0.514100  0.686400  1.0  -0.0202
  C  C1351  1  0.188300  0.378400  0.342910  1.0  -0.0111
  C  C1352  1  0.446600  0.897500  0.697900  1.0  -0.0007
  C  C1353  1  0.185900  0.056400  0.696960  1.0  -0.032
  C  C1354  1  0.179600  0.036600  0.715840  1.0  -0.0236
  C  C1355  1  0.915800  0.139200  0.976600  1.0  -0.0696
  C  C1356  1  0.587300  0.848200  0.198100  1.0  0.5098
  C  C1357  1  0.923700  0.812100  0.716870  1.0  0.0236
  C  C1358  1  0.971700  0.814100  0.180530  1.0  -0.0727
  C  C1359  1  0.891200  0.073900  0.231290  1.0  -0.2679
  C  C1360  1  0.510900  0.680400  0.455600  1.0  -0.0656
  C  C1361  1  0.274200  0.336100  0.607310  1.0  -0.0838
  C  C1362  1  0.962100  0.154400  0.222570  1.0  -0.0773
  C  C1363  1  0.378200  0.470000  0.183200  1.0  -0.0771
  C  C1364  1  0.963600  0.178900  0.478520  1.0  -0.1481
  C  C1365  1  0.204600  0.991900  0.476000  1.0  -0.0208
  C  C1366  1  0.330800  0.890500  0.685100  1.0  -0.0808
  C  C1367  1  0.594600  0.805100  0.375800  1.0  -0.053
  C  C1368  1  0.943600  0.129500  0.696960  1.0  -0.0311
  C  C1369  1  0.567300  0.680800  0.962000  1.0  0.4609
  C  C1370  1  0.195500  0.356000  0.782520  1.0  -0.1351
  C  C1371  1  0.972700  0.802400  0.687320  1.0  -0.0394
  C  C1372  1  0.145600  0.520600  0.707700  1.0  -0.0037
  C  C1373  1  0.597200  0.782400  0.288640  1.0  -0.0689
  C  C1374  1  0.224000  0.414400  0.809400  1.0  0.0199
  C  C1375  1  0.421100  0.894000  0.990900  1.0  -0.1124
  C  C1376  1  0.122800  0.803100  0.564920  1.0  -0.0027
  C  C1377  1  0.820400  0.826600  0.719270  1.0  -0.0199
  C  C1378  1  0.744000  0.914200  0.957900  1.0  0.6645
  C  C1379  1  0.549300  0.854800  0.198370  1.0  -0.035
  C  C1380  1  0.133100  0.810600  0.620550  1.0  0.0232
  C  C1381  1  0.089200  0.760100  0.593840  1.0  -0.0428
  C  C1382  1  0.185900  0.028300  0.680530  1.0  -0.0706
  C  C1383  1  0.679600  0.868900  0.544810  1.0  -0.0355
  C  C1384  1  0.199100  0.143600  0.963870  1.0  -0.0144
  C  C1385  1  0.155000  0.856300  0.832870  1.0  -0.2642
  C  C1386  1  0.472900  0.578900  0.990900  1.0  -0.1156
  C  C1387  1  0.163200  0.357400  0.882860  1.0  -0.1034
  C  C1388  1  0.198900  0.185000  0.707500  1.0  -0.1197
  C  C1389  1  0.189400  0.866900  0.120550  1.0  0.0218
  C  C1390  1  0.541500  0.838000  0.970900  1.0  -0.1308
  C  C1391  1  0.377100  0.515500  0.714400  1.0  -0.0645
  C  C1392  1  0.594600  0.789500  0.875800  1.0  -0.0535
  C  C1393  1  0.183400  0.146300  0.441700  1.0  -0.0185
  C  C1394  1  0.519000  0.639500  0.966000  1.0  -0.1225
  C  C1395  1  0.012100  0.830200  0.943480  1.0  -0.0295
  C  C1396  1  0.446100  0.866800  0.711900  1.0  0.1661
  C  C1397  1  0.893500  0.815800  0.945970  1.0  -0.0327
  C  C1398  1  0.185900  0.129500  0.196960  1.0  -0.0308
  C  C1399  1  0.076800  0.562700  0.686400  1.0  -0.0194
  C  C1400  1  0.667600  0.933000  0.538140  1.0  -0.057
  C  C1401  1  0.649200  0.847200  0.404120  1.0  0.7304
  C  C1402  1  0.821100  0.784700  0.478520  1.0  -0.1506
  C  C1403  1  0.982600  0.182100  0.955870  1.0  -0.1213
  C  C1404  1  0.027500  0.224800  0.951900  1.0  0.7059
  C  C1405  1  0.171000  0.840400  0.315580  1.0  0.0461
  C  C1406  1  0.203800  0.100800  0.463500  1.0  -0.0342
  C  C1407  1  0.266100  0.336400  0.627400  1.0  -0.038
  C  C1408  1  0.146500  0.321700  0.869460  1.0  -0.0637
  C  C1409  1  0.189400  0.322500  0.620550  1.0  0.021
  C  C1410  1  0.549300  0.694500  0.698370  1.0  -0.0351
  C  C1411  1  0.058600  0.331700  0.058250  1.0  -0.0782
  C  C1412  1  0.217600  0.814800  0.288640  1.0  -0.0662
  C  C1413  1  0.476500  0.612200  0.476300  1.0  -0.0934
  C  C1414  1  0.082000  0.606400  0.688900  1.0  -0.0639
  C  C1415  1  0.260900  0.848200  0.698100  1.0  0.5069
  C  C1416  1  0.375000  0.854400  0.707700  1.0  -0.0084
  C  C1417  1  0.512200  0.613800  0.984400  1.0  -0.0261
  C  C1418  1  0.563500  0.879900  0.705500  1.0  0.6746
  C  C1419  1  0.860800  0.084200  0.476600  1.0  -0.0686
  C  C1420  1  0.182300  0.806100  0.821610  1.0  0.0479
  C  C1421  1  0.484500  0.622900  0.214400  1.0  -0.0648
  C  C1422  1  0.108900  0.783500  0.509750  1.0  0.7048
  C  C1423  1  0.076800  0.514100  0.186400  1.0  -0.0206
  C  C1424  1  0.194900  0.789500  0.375800  1.0  -0.0517
  C  C1425  1  0.393600  0.475600  0.688900  1.0  -0.0643
  C  C1426  1  0.246000  0.822900  0.468900  1.0  0.695
  C  C1427  1  0.509100  0.836700  0.209600  1.0  0.0029
  C  C1428  1  0.870500  0.814100  0.696960  1.0  -0.0242
  C  C1429  1  0.265400  0.933000  0.038140  1.0  -0.0561
  C  C1430  1  0.938700  0.106700  0.432400  1.0  -0.2975
  C  C1431  1  0.986100  0.801100  0.707500  1.0  -0.12
  C  C1432  1  0.158800  0.638100  0.958200  1.0  0.0411
  C  C1433  1  0.126800  0.564100  0.476200  1.0  -0.1156
  C  C1434  1  0.944500  0.800900  0.963870  1.0  -0.0176
  C  C1435  1  0.769600  0.971600  0.711080  1.0  0.7391
  C  C1436  1  0.621600  0.809900  0.342910  1.0  -0.0143
  C  C1437  1  0.923700  0.111600  0.216870  1.0  0.0231
  C  C1438  1  0.893300  0.832000  0.432400  1.0  -0.2992
  C  C1439  1  0.079400  0.247000  0.705420  1.0  0.7064
  C  C1440  1  0.198900  0.013900  0.207500  1.0  -0.1202
  C  C1441  1  0.900000  0.810700  0.197540  1.0  0.0407
  C  C1442  1  0.210600  0.797100  0.356200  1.0  -0.0412
  C  C1443  1  0.377100  0.861600  0.214400  1.0  -0.0637
  C  C1444  1  0.034500  0.215200  0.458400  1.0  -0.141
  C  C1445  1  0.162000  0.458500  0.470900  1.0  -0.1305
  C  C1446  1  0.189300  0.089300  0.197540  1.0  0.0382
  C  C1447  1  0.165900  0.604900  0.943500  1.0  -0.2922
  C  C1448  1  0.199500  0.017400  0.955870  1.0  -0.1177
  C  C1449  1  0.169500  0.489100  0.455600  1.0  -0.0681
  C  C1450  1  0.197500  0.875200  0.100460  1.0  -0.0604
  C  C1451  1  0.131100  0.810700  0.544810  1.0  -0.0343
  C  C1452  1  0.215300  0.178900  0.978520  1.0  -0.1494
  C  C1453  1  0.130100  0.635800  0.991900  1.0  -0.0154
  C  C1454  1  0.163300  0.672400  0.209600  1.0  0.0013
  C  C1455  1  0.106000  0.527100  0.990900  1.0  -0.1158
  C  C1456  1  0.223700  0.329600  0.634020  1.0  -0.1967
  C  C1457  1  0.435900  0.562700  0.476200  1.0  -0.1135
  C  C1458  1  0.138400  0.622900  0.714400  1.0  -0.0645
  C  C1459  1  0.899200  0.796200  0.963500  1.0  -0.0288
  C  C1460  1  0.223500  0.326800  0.531420  1.0  -0.201
  C  C1461  1  0.926100  0.108800  0.731290  1.0  -0.2688
  C  C1462  1  0.180700  0.215200  0.958400  1.0  -0.1425
  C  C1463  1  0.922300  0.815800  0.445970  1.0  -0.0307
  C  C1464  1  0.070300  0.336400  0.127400  1.0  -0.0387
  C  C1465  1  0.182700  0.108800  0.231290  1.0  -0.2689
  C  C1466  1  0.159600  0.330600  0.315580  1.0  0.0454
  C  C1467  1  0.817900  0.800500  0.955870  1.0  -0.1218
  C  C1468  1  0.446100  0.579300  0.211900  1.0  0.1669
  C  C1469  1  0.203800  0.103000  0.963500  1.0  -0.0314
  C  C1470  1  0.963400  0.820400  0.215840  1.0  -0.0239
  C  C1471  1  0.922300  0.106500  0.945970  1.0  -0.0335
  C  C1472  1  0.842400  0.028300  0.180530  1.0  -0.0717
  C  C1473  1  0.142000  0.585500  0.455800  1.0  -0.0112
  C  C1474  1  0.361900  0.520700  0.958200  1.0  0.04
  C  C1475  1  0.680300  0.803100  0.064920  1.0  -0.0006
  C  C1476  1  0.538200  0.678700  0.489700  1.0  -0.0858
  C  C1477  1  0.663900  0.938100  0.607310  1.0  -0.0818
  C  C1478  1  0.187900  0.111600  0.716870  1.0  0.0237
  C  C1479  1  0.677500  0.866900  0.620550  1.0  0.0224
  C  C1480  1  0.674700  0.761200  0.071640  1.0  -0.0482
  C  C1481  1  0.829700  0.802400  0.187320  1.0  -0.0403
  C  C1482  1  0.815000  0.801100  0.207500  1.0  -0.1199
  C  C1483  1  0.197500  0.322300  0.600460  1.0  -0.0611
  C  C1484  1  0.173400  0.993800  0.719270  1.0  -0.0189
  C  C1485  1  0.857000  0.820400  0.715840  1.0  -0.0247
  C  C1486  1  0.217600  0.402800  0.788640  1.0  -0.0685
  C  C1487  1  0.197300  0.972500  0.951900  1.0  0.7067
  C  C1488  1  0.296500  0.458500  0.970900  1.0  -0.1324
  C  C1489  1  0.159200  0.332200  0.850020  1.0  0.0903
  C  C1490  1  0.319600  0.830500  0.455600  1.0  -0.0666
  C  C1491  1  0.585600  0.809600  0.809400  1.0  0.017
  C  C1492  1  0.140500  0.678700  0.989700  1.0  -0.0865
  C  C1493  1  0.152800  0.350800  0.904120  1.0  0.7303
  C  C1494  1  0.067000  0.734600  0.538140  1.0  -0.0603
  C  C1495  1  0.623800  0.806100  0.321610  1.0  0.0471
  C  C1496  1  0.120100  0.436500  0.205500  1.0  0.6743
  C  C1497  1  0.966300  0.145100  0.446600  1.0  0.1218
  C  C1498  1  0.179600  0.143000  0.215840  1.0  -0.023
  C  C1499  1  0.085800  0.829800  0.957900  1.0  0.6639
  C  C1500  1  0.169500  0.680400  0.955600  1.0  -0.0659
  C  C1501  1  0.893300  0.061300  0.932400  1.0  -0.2977
  C  C1502  1  0.182300  0.376200  0.321610  1.0  0.0476
  C  C1503  1  0.112700  0.476200  0.202900  1.0  -0.1697
  C  C1504  1  0.204600  0.212700  0.976000  1.0  -0.0216
  C  C1505  1  0.784800  0.965500  0.958400  1.0  -0.1431
  C  C1506  1  0.150600  0.321300  0.295260  1.0  -0.03
  C  C1507  1  0.319200  0.886500  0.962000  1.0  0.4622
  C  C1508  1  0.530000  0.621800  0.683200  1.0  -0.0739
  C  C1509  1  0.476500  0.864300  0.976300  1.0  -0.093
  C  C1510  1  0.509100  0.672400  0.709600  1.0  0.0008
  C  C1511  1  0.162800  0.597300  0.222400  1.0  -0.2805
  C  C1512  1  0.319200  0.432700  0.462000  1.0  0.4604
  C  C1513  1  0.479400  0.625000  0.707700  1.0  -0.0111
  C  C1514  1  0.386200  0.898400  0.984400  1.0  -0.029
  C  C1515  1  0.489800  0.599700  0.694400  1.0  -0.0171
  C  C1516  1  0.363500  0.887300  0.202900  1.0  -0.171
  C  C1517  1  0.818100  0.830200  0.443480  1.0  -0.03
  C  C1518  1  0.133100  0.322500  0.120550  1.0  0.0226
  C  C1519  1  0.791800  0.966700  0.203110  1.0  -0.085
  C  C1520  1  0.124800  0.322300  0.100460  1.0  -0.0608
  C  C1521  1  0.168000  0.061300  0.432400  1.0  -0.2948
  C  C1522  1  0.805900  0.821000  0.683580  1.0  -0.0396
  C  C1523  1  0.818100  0.987900  0.943480  1.0  -0.0293
  C  C1524  1  0.194900  0.405400  0.875800  1.0  -0.0539
  C  C1525  1  0.202900  0.413500  0.356200  1.0  -0.0453
  C  C1526  1  0.791800  0.825100  0.703110  1.0  -0.0829
  C  C1527  1  0.091800  0.621800  0.183200  1.0  -0.0762
  C  C1528  1  0.437300  0.923200  0.186400  1.0  -0.0222
  C  C1529  1  0.196900  0.877200  0.064920  1.0  -0.0008
  C  C1530  1  0.677700  0.875200  0.600460  1.0  -0.0606
  C  C1531  1  0.450900  0.553400  0.697900  1.0  0.0028
  C  C1532  1  0.034500  0.819300  0.958400  1.0  -0.1431
  C  C1533  1  0.126800  0.562700  0.976200  1.0  -0.1131
  C  C1534  1  0.006200  0.179600  0.719270  1.0  -0.0192
  C  C1535  1  0.524400  0.606400  0.188900  1.0  -0.0641
  C  C1536  1  0.505700  0.869900  0.991900  1.0  -0.0181
  C  C1537  1  0.174900  0.208200  0.203110  1.0  -0.0817
  C  C1538  1  0.015100  0.821000  0.183580  1.0  -0.0405
  C  C1539  1  0.185200  0.782400  0.788640  1.0  -0.0672
  C  C1540  1  0.321300  0.461800  0.989700  1.0  -0.0854
  C  C1541  1  0.446600  0.549100  0.197900  1.0  -0.0057
  C  C1542  1  0.113500  0.680800  0.462000  1.0  0.4608
  C  C1543  1  0.133200  0.579300  0.711900  1.0  0.1664
  C  C1544  1  0.189300  0.320400  0.544810  1.0  -0.0379
  C  C1545  1  0.893500  0.077700  0.445970  1.0  -0.033
  C  C1546  1  0.239900  0.329100  0.593840  1.0  -0.0416
  C  C1547  1  0.484500  0.861600  0.714400  1.0  -0.0633
  C  C1548  1  0.191800  0.130100  0.682410  1.0  -0.0866
  C  C1549  1  0.360500  0.481000  0.466000  1.0  -0.1231
  C  C1550  1  0.150600  0.829300  0.795260  1.0  -0.0331
  C  C1551  1  0.015100  0.194100  0.683580  1.0  -0.042
  C  C1552  1  0.479300  0.638100  0.458200  1.0  0.0412
  C  C1553  1  0.915800  0.776600  0.476600  1.0  -0.0731
  C  C1554  1  0.061900  0.336100  0.107310  1.0  -0.0844
  C  C1555  1  0.434500  0.597300  0.722400  1.0  -0.2809
  C  C1556  1  0.769600  0.798000  0.211080  1.0  0.7384
  C  C1557  1  0.854900  0.821200  0.446600  1.0  0.1193
  C  C1558  1  0.120500  0.481000  0.966000  1.0  -0.1229
  C  C1559  1  0.972700  0.170300  0.187320  1.0  -0.0473
  C  C1560  1  0.576900  0.822900  0.968900  1.0  0.6955
  C  C1561  1  0.870500  0.056400  0.196960  1.0  -0.0244
  C  C1562  1  0.190100  0.811700  0.342910  1.0  -0.0146
  C  C1563  1  0.586500  0.789400  0.356200  1.0  -0.0462
  C  C1564  1  0.910700  0.100000  0.197540  1.0  0.0396
  C  C1565  1  0.178800  0.145100  0.946600  1.0  0.1229
  C  C1566  1  0.027500  0.802700  0.451900  1.0  0.7062
  C  C1567  1  0.472900  0.894000  0.490900  1.0  -0.1148
  C  C1568  1  0.489800  0.890100  0.194400  1.0  -0.0163
  C  C1569  1  0.485900  0.923200  0.686400  1.0  -0.0214
  C  C1570  1  0.162000  0.703500  0.970900  1.0  -0.1293
  C  C1571  1  0.587300  0.739100  0.698100  1.0  0.5078
  C  C1572  1  0.273100  0.941400  0.058250  1.0  -0.0763
  C  C1573  1  0.171000  0.330600  0.815580  1.0  0.0457
  C  C1574  1  0.266100  0.929700  0.127400  1.0  -0.0376
  C  C1575  1  0.668300  0.941400  0.558250  1.0  -0.0778
  C  C1576  1  0.102500  0.553400  0.197900  1.0  -1e-04
  C  C1577  1  0.108900  0.325400  0.009750  1.0  0.708
  C  C1578  1  0.938300  0.130100  0.182410  1.0  -0.0885
  C  C1579  1  0.185900  0.157600  0.180530  1.0  -0.0698
  C  C1580  1  0.145600  0.625000  0.207700  1.0  -0.0091
  C  C1581  1  0.159200  0.827000  0.350020  1.0  0.0901
  C  C1582  1  0.869900  0.808200  0.182410  1.0  -0.0936
  C  C1583  1  0.151800  0.412700  0.698100  1.0  0.5074
  C  C1584  1  0.402700  0.837200  0.722400  1.0  -0.2841
  C  C1585  1  0.784800  0.819300  0.458400  1.0  -0.1442
  C  C1586  1  0.143700  0.298700  0.832870  1.0  -0.254
  C  C1587  1  0.316400  0.879900  0.205500  1.0  0.6724
  C  C1588  1  0.443500  0.585500  0.955800  1.0  -0.0136
  C  C1589  1  0.169800  0.181900  0.943480  1.0  -0.0274
  C  C1590  1  0.163300  0.490900  0.709600  1.0  0.0026
  C  C1591  1  0.194800  0.347800  0.760180  1.0  0.7345
  C  C1592  1  0.479400  0.854400  0.207700  1.0  -0.008
  C  C1593  1  0.153000  0.805200  0.760180  1.0  0.7367
  C  C1594  1  0.479300  0.841200  0.958200  1.0  0.0402
  C  C1595  1  0.576900  0.754000  0.468900  1.0  0.6961
  C  C1596  1  0.395100  0.561000  0.943500  1.0  -0.2914
  C  C1597  1  0.437300  0.564100  0.976200  1.0  -0.1146
  C  C1598  1  0.567300  0.886500  0.462000  1.0  0.4589
  C  C1599  1  0.210600  0.413500  0.856200  1.0  -0.0446
  C  C1600  1  0.644000  0.804500  0.282520  1.0  -0.1365
  C  C1601  1  0.215300  0.036400  0.478520  1.0  -0.1486
  C  C1602  1  0.197600  0.170300  0.687320  1.0  -0.0434
  C  C1603  1  0.184200  0.077700  0.945970  1.0  -0.0315
  C  C1604  1  0.678700  0.829300  0.295260  1.0  -0.0326
  C  C1605  1  0.190400  0.776000  0.809400  1.0  0.0164
  C  C1606  1  0.673200  0.776500  0.031420  1.0  -0.2098
  C  C1607  1  0.857000  0.036600  0.215840  1.0  -0.0245
  C  C1608  1  0.845600  0.037900  0.722570  1.0  -0.077
  C  C1609  1  0.505700  0.635800  0.491900  1.0  -0.0152
  C  C1610  1  0.162300  0.846700  0.082030  1.0  -0.2843
  C  C1611  1  0.101600  0.487800  0.984400  1.0  -0.0265
  C  C1612  1  0.674600  0.783500  0.009750  1.0  0.7062
  C  C1613  1  0.421100  0.527100  0.490900  1.0  -0.1151
  C  C1614  1  0.169800  0.987900  0.443480  1.0  -0.0295
  C  C1615  1  0.142000  0.556500  0.955800  1.0  -0.0111
  C  C1616  1  0.216500  0.325400  0.509750  1.0  0.7074
  C  C1617  1  0.194200  0.357400  0.382860  1.0  -0.1033
  C  C1618  1  0.273100  0.331700  0.558250  1.0  -0.0752
  C  C1619  1  0.821100  0.036400  0.978520  1.0  -0.1496
  C  C1620  1  0.393600  0.918000  0.188900  1.0  -0.064
  C  C1621  1  0.143700  0.845000  0.332870  1.0  -0.2627
  C  C1622  1  0.854900  0.033700  0.946600  1.0  0.1244
  C  C1623  1  0.395100  0.834100  0.443500  1.0  -0.2907
  C  C1624  1  0.216500  0.891100  0.009750  1.0  0.7045
  C  C1625  1  0.897000  0.796200  0.463500  1.0  -0.0339
  C  C1626  1  0.175200  0.853500  0.869460  1.0  -0.0609
  C  C1627  1  0.028400  0.798000  0.711080  1.0  0.7372
  C  C1628  1  0.483200  0.859800  0.452400  1.0  0.0456
  C  C1629  1  0.670900  0.760100  0.093840  1.0  -0.038
  C  C1630  1  0.067000  0.332400  0.038140  1.0  -0.058
  C  C1631  1  0.701300  0.856300  0.332870  1.0  -0.2575
  C  C1632  1  0.170200  0.256000  0.957900  1.0  0.6699
  C  C1633  1  0.238800  0.325300  0.571640  1.0  -0.0466
  C  C1634  1  0.133200  0.553900  0.211900  1.0  0.1651
  C  C1635  1  0.135700  0.612200  0.976300  1.0  -0.0931
  C  C1636  1  0.184200  0.106500  0.445970  1.0  -0.032
  C  C1637  1  0.131100  0.320400  0.044810  1.0  -0.0363
  C  C1638  1  0.986100  0.185000  0.207500  1.0  -0.1208
  C  C1639  1  0.387800  0.523500  0.976300  1.0  -0.0943
  C  C1640  1  0.221000  0.178600  0.473200  1.0  -0.0983
  C  C1641  1  0.321300  0.859500  0.489700  1.0  -0.0867
  C  C1642  1  0.105900  0.329600  0.134020  1.0  -0.197
  C  C1643  1  0.376600  0.859800  0.952400  1.0  0.0424
  C  C1644  1  0.260900  0.412700  0.198100  1.0  0.5081
  C  C1645  1  0.982600  0.800500  0.455870  1.0  -0.121
  C  C1646  1  0.485900  0.562700  0.186400  1.0  -0.0204
  C  C1647  1  0.135700  0.523500  0.476300  1.0  -0.0927
  C  C1648  1  0.420700  0.553900  0.711900  1.0  0.1655
  C  C1649  1  0.667600  0.734600  0.038140  1.0  -0.0598
  C  C1650  1  0.386200  0.487800  0.484400  1.0  -0.0269
  C  C1651  1  0.179000  0.194100  0.183580  1.0  -0.0403
  C  C1652  1  0.671000  0.883700  0.655530  1.0  0.7037
  C  C1653  1  0.669400  0.829000  0.315580  1.0  0.0452
  C  C1654  1  0.120500  0.639500  0.466000  1.0  -0.1221
  C  C1655  1  0.821400  0.042400  0.473200  1.0  -0.098
  C  C1656  1  0.414500  0.858000  0.955800  1.0  -0.0133
  C  C1657  1  0.199500  0.182100  0.455870  1.0  -0.1219
  C  C1658  1  0.316400  0.436500  0.705500  1.0  0.6763
  C  C1659  1  0.899200  0.103000  0.463500  1.0  -0.0292
  C  C1660  1  0.670900  0.910800  0.593840  1.0  -0.0455
  C  C1661  1  0.170200  0.914200  0.457900  1.0  0.6693
  C  C1662  1  0.199100  0.055500  0.463870  1.0  -0.0167
  C  C1663  1  0.523800  0.636500  0.202900  1.0  -0.1706
  C  C1664  1  0.402700  0.565500  0.222400  1.0  -0.2826
  C  C1665  1  0.674600  0.891100  0.509750  1.0  0.7072
  C  C1666  1  0.364200  0.494300  0.991900  1.0  -0.0154
  C  C1667  1  0.414500  0.556500  0.455800  1.0  -0.0109
  C  C1668  1  0.443500  0.858000  0.455800  1.0  -0.0136
  C  C1669  1  0.091800  0.470000  0.683200  1.0  -0.0772
  C  C1670  1  0.033300  0.825100  0.203110  1.0  -0.0841
  C  C1671  1  0.677700  0.802500  0.100460  1.0  -0.0609
  C  C1672  1  0.820400  0.993800  0.219270  1.0  -0.0191
  C  C1673  1  0.957600  0.178600  0.973200  1.0  -0.0977
  C  C1674  1  0.210500  0.405400  0.375800  1.0  -0.0535
  C  C1675  1  0.116300  0.329000  0.155530  1.0  0.702
  C  C1676  1  0.853700  0.037100  0.441700  1.0  -0.0246
  C  C1677  1  0.963400  0.143000  0.715840  1.0  -0.0237
  C  C1678  1  0.559700  0.890500  0.185100  1.0  -0.0821
  C  C1679  1  0.674700  0.913500  0.571640  1.0  -0.0437
  C  C1680  1  0.744000  0.829800  0.457900  1.0  0.6638
  C  C1681  1  0.162800  0.565500  0.722400  1.0  -0.2831
  C  C1682  1  0.671000  0.787300  0.155530  1.0  0.7042
  C  C1683  1  0.897000  0.100800  0.963500  1.0  -0.0344
  C  C1684  1  0.223400  0.084200  0.976600  1.0  -0.0711
  C  C1685  1  0.966300  0.821200  0.946600  1.0  0.1218
  C  C1686  1  0.642600  0.836800  0.382860  1.0  -0.1033
  C  C1687  1  0.210500  0.805100  0.875800  1.0  -0.0514
  C  C1688  1  0.523800  0.887300  0.702900  1.0  -0.1692
  C  C1689  1  0.145200  0.694500  0.198370  1.0  -0.0345
  C  C1690  1  0.086500  0.325300  0.071640  1.0  -0.0455
  C  C1691  1  0.530000  0.908200  0.183200  1.0  -0.0818
  C  C1692  1  0.082000  0.475600  0.188900  1.0  -0.0632
  C  C1693  1  0.197300  0.224800  0.451900  1.0  0.7073
  C  C1694  1  0.153300  0.315600  0.082030  1.0  -0.2875
  C  C1695  1  0.246000  0.423100  0.968900  1.0  0.696
  C  C1696  1  0.116300  0.787300  0.655530  1.0  0.7043
  C  C1697  1  0.910700  0.810700  0.697540  1.0  0.0407
  C  C1698  1  0.177100  0.754000  0.968900  1.0  0.6953
  C  C1699  1  0.152800  0.802000  0.404120  1.0  0.7304
  C  C1700  1  0.305500  0.450700  0.198370  1.0  -0.0365
  C  C1701  1  0.223700  0.894100  0.134020  1.0  -0.1972
  C  C1702  1  0.153300  0.837700  0.582030  1.0  -0.2888
  C  C1703  1  0.028400  0.230400  0.211080  1.0  0.7367
  C  C1704  1  0.815000  0.013900  0.707500  1.0  -0.1196
  C  C1705  1  0.192300  0.154400  0.722570  1.0  -0.0778
  C  C1706  1  0.167600  0.920600  0.705420  1.0  0.7065
  C  C1707  1  0.450900  0.897500  0.197900  1.0  0.0015
  C  C1708  1  0.192300  0.037900  0.222570  1.0  -0.0768
  C  C1709  1  0.888400  0.076300  0.716870  1.0  0.0239
  C  C1710  1  0.680300  0.877200  0.564920  1.0  -0.0009
  C  C1711  1  0.856400  0.800900  0.463870  1.0  -0.0179
  C  C1712  1  0.663600  0.929700  0.627400  1.0  -0.0379
  C  C1713  1  0.120100  0.683600  0.705500  1.0  0.6748
  C  C1714  1  0.677500  0.810600  0.120550  1.0  0.0213
  C  C1715  1  0.194800  0.847000  0.260180  1.0  0.7395
  C  C1716  1  0.165900  0.561000  0.443500  1.0  -0.292
  C  C1717  1  0.753000  0.832400  0.705420  1.0  0.7044
  C  C1718  1  0.829700  0.027300  0.687320  1.0  -0.0486
  C  C1719  1  0.178800  0.033700  0.446600  1.0  0.1223
  C  C1720  1  0.845600  0.807700  0.222570  1.0  -0.078
  C  C1721  1  0.183400  0.037100  0.941700  1.0  -0.0235
  C  C1722  1  0.159600  0.829000  0.815580  1.0  0.0451
  C  C1723  1  0.938300  0.808200  0.682410  1.0  -0.0941
  C  C1724  1  0.170700  0.849400  0.295260  1.0  -0.0337
  C  C1725  1  0.190100  0.378400  0.842910  1.0  -0.0107
  C  C1726  1  0.239900  0.910800  0.093840  1.0  -0.0449
  C  C1727  1  0.085800  0.256000  0.457900  1.0  0.6698
  C  C1728  1  0.008100  0.212700  0.476000  1.0  -0.0219
  C  C1729  1  0.621600  0.811700  0.842910  1.0  -0.0136
  C  C1730  1  0.198000  0.350800  0.404120  1.0  0.7307
  C  C1731  1  0.224000  0.809600  0.309400  1.0  0.0204
  C  C1732  1  0.327600  0.836700  0.709600  1.0  0.0015
  C  C1733  1  0.663600  0.733900  0.127400  1.0  -0.0411
  C  C1734  1  0.008100  0.795400  0.976000  1.0  -0.0224
  C  C1735  1  0.673200  0.896700  0.531420  1.0  -0.2108
  C  C1736  1  0.296500  0.838000  0.470900  1.0  -0.1293
  C  C1737  1  0.190400  0.414400  0.309400  1.0  0.0176
  C  C1738  1  0.853700  0.816600  0.941700  1.0  -0.024
  C  C1739  1  0.363500  0.476200  0.702900  1.0  -0.1697
  C  C1740  1  0.667800  0.840800  0.350020  1.0  0.0898
  C  C1741  1  0.944500  0.143600  0.463870  1.0  -0.0164
  C  C1742  1  0.012100  0.181900  0.443480  1.0  -0.026
  C  C1743  1  0.360500  0.879500  0.966000  1.0  -0.122
  C  C1744  1  0.439000  0.604900  0.443500  1.0  -0.2914
  C  C1745  1  0.061900  0.725800  0.607310  1.0  -0.0871
  C  C1746  1  0.191800  0.061700  0.182410  1.0  -0.0896
  C  C1747  1  0.378200  0.908200  0.683200  1.0  -0.0762
  C  C1748  1  0.585600  0.776000  0.309400  1.0  0.0157
  C  C1749  1  0.667800  0.827000  0.850020  1.0  0.0899
  C  C1750  1  0.112700  0.636500  0.702900  1.0  -0.1715
  C  C1751  1  0.212700  0.883700  0.155530  1.0  0.7016
  C  C1752  1  0.524400  0.918000  0.688900  1.0  -0.0647
  O  O1753  1  0.707000  0.140900  0.054230  1.0  -0.5954
  O  O1754  1  0.821700  0.677600  0.495310  1.0  -0.5828
  O  O1755  1  0.326400  0.246700  0.001680  1.0  -0.6246
  O  O1756  1  0.899500  0.153500  0.778050  1.0  -0.6018
  O  O1757  1  0.865200  0.201200  0.291990  1.0  -1.1892
  O  O1758  1  0.254000  0.153500  0.278050  1.0  -0.6023
  O  O1759  1  0.913800  0.243300  0.333100  1.0  -0.622
  O  O1760  1  0.950800  0.180500  0.563440  1.0  -0.5609
  O  O1761  1  0.753300  0.079700  0.001680  1.0  -0.6268
  O  O1762  1  0.848100  0.670700  0.839920  1.0  -0.5546
  O  O1763  1  0.756700  0.086200  0.833100  1.0  -0.6226
  O  O1764  1  0.756700  0.670500  0.333100  1.0  -0.6222
  O  O1765  1  0.763300  0.182800  0.287700  1.0  -0.7333
  O  O1766  1  0.379300  0.237400  0.312670  1.0  -0.5913
  O  O1767  1  0.830700  0.613600  0.084780  1.0  -0.6182
  O  O1768  1  0.817600  0.052000  0.773190  1.0  -0.6099
  O  O1769  1  0.820900  0.719100  0.027260  1.0  -0.5751
  O  O1770  1  0.280900  0.101800  0.027260  1.0  -0.5738
  O  O1771  1  0.798800  0.134800  0.791990  1.0  -1.1899
  O  O1772  1  0.789200  0.748200  0.534210  1.0  -0.6334
  O  O1773  1  0.336000  0.201200  0.791990  1.0  -1.1894
  O  O1774  1  0.850200  0.743500  0.057730  1.0  -0.6124
  O  O1775  1  0.310300  0.129400  0.590150  1.0  -0.6002
  O  O1776  1  0.379300  0.141900  0.812670  1.0  -0.5895
  O  O1777  1  0.834700  0.617000  0.750780  1.0  -0.6307
  O  O1778  1  0.329300  0.151900  0.339920  1.0  -0.556
  O  O1779  1  0.782300  0.165300  0.750780  1.0  -0.6285
  O  O1780  1  0.433900  0.140900  0.554230  1.0  -0.5947
  O  O1781  1  0.826500  0.692500  0.245350  1.0  -0.5686
  O  O1782  1  0.871900  0.205600  0.542780  1.0  -1.2244
  O  O1783  1  0.773200  0.159900  0.519850  1.0  -0.5988
  O  O1784  1  0.913800  0.670500  0.833100  1.0  -0.6204
  O  O1785  1  0.336000  0.134800  0.291990  1.0  -1.19
  O  O1786  1  0.254000  0.100500  0.778050  1.0  -0.6034
  O  O1787  1  0.272600  0.171500  0.309320  1.0  -0.6218
  O  O1788  1  0.904400  0.302900  0.304000  1.0  -0.6707
  O  O1789  1  0.693800  0.092700  0.028520  1.0  -0.5847
  O  O1790  1  0.840100  0.226800  0.019850  1.0  -0.5965
  O  O1791  1  0.834700  0.217700  0.250780  1.0  -0.6319
  O  O1792  1  0.280900  0.179100  0.527260  1.0  -0.5747
  O  O1793  1  0.710900  0.148100  0.781700  1.0  -0.6057
  O  O1794  1  0.893300  0.743500  0.557730  1.0  -0.6128
  O  O1795  1  0.828500  0.101100  0.309320  1.0  -0.6215
  O  O1796  1  0.781800  0.741100  0.301550  1.0  -0.6214
  O  O1797  1  0.830700  0.217100  0.584780  1.0  -0.6194
  O  O1798  1  0.229700  0.180500  0.063440  1.0  -0.5609
  O  O1799  1  0.819100  0.129400  0.090150  1.0  -0.5993
  O  O1800  1  0.898900  0.727400  0.309320  1.0  -0.6223
  O  O1801  1  0.870600  0.180900  0.590150  1.0  -0.5991
  O  O1802  1  0.802000  0.574800  0.547060  1.0  -0.6364
  O  O1803  1  0.798800  0.664000  0.291990  1.0  -1.1893
  O  O1804  1  0.840100  0.613300  0.519850  1.0  -0.5976
  O  O1805  1  0.229700  0.049200  0.563440  1.0  -0.5599
  O  O1806  1  0.386400  0.169300  0.584780  1.0  -0.6182
  O  O1807  1  0.753300  0.673600  0.501680  1.0  -0.6261
  O  O1808  1  0.822600  0.670700  0.339920  1.0  -0.555
  O  O1809  1  0.865200  0.664000  0.791990  1.0  -1.1897
  O  O1810  1  0.821700  0.144100  0.995310  1.0  -0.5831
  O  O1811  1  0.950800  0.770300  0.063440  1.0  -0.5581
  O  O1812  1  0.437200  0.289100  0.781700  1.0  -0.6035
  O  O1813  1  0.820900  0.101800  0.527260  1.0  -0.5743
  O  O1814  1  0.398900  0.092700  0.528520  1.0  -0.5835
  O  O1815  1  0.859100  0.293000  0.554230  1.0  -0.5932
  O  O1816  1  0.256500  0.149800  0.557730  1.0  -0.6144
  O  O1817  1  0.920300  0.246700  0.501680  1.0  -0.625
  O  O1818  1  0.855900  0.178300  0.495310  1.0  -0.5826
  O  O1819  1  0.762600  0.141900  0.312670  1.0  -0.5892
  O  O1820  1  0.782300  0.617000  0.250780  1.0  -0.6309
  O  O1821  1  0.826500  0.134000  0.745350  1.0  -0.5704
  O  O1822  1  0.386700  0.159900  0.019850  1.0  -0.5979
  O  O1823  1  0.398500  0.302900  0.804000  1.0  -0.6717
  O  O1824  1  0.893300  0.149800  0.057730  1.0  -0.6138
  O  O1825  1  0.899500  0.746000  0.278050  1.0  -0.6043
  O  O1826  1  0.794400  0.128100  0.042780  1.0  -1.2262
  O  O1827  1  0.851900  0.562800  0.781700  1.0  -0.6012
  O  O1828  1  0.234400  0.182400  0.773190  1.0  -0.6078
  O  O1829  1  0.822600  0.151900  0.839920  1.0  -0.5557
  O  O1830  1  0.419500  0.236700  0.287700  1.0  -0.7289
  O  O1831  1  0.959000  0.748200  0.034210  1.0  -0.6326
  O  O1832  1  0.234400  0.052000  0.273190  1.0  -0.6089
  O  O1833  1  0.850200  0.106700  0.557730  1.0  -0.6122
  O  O1834  1  0.898200  0.179100  0.027260  1.0  -0.5746
  O  O1835  1  0.828500  0.727400  0.809320  1.0  -0.6229
  O  O1836  1  0.858100  0.237400  0.812670  1.0  -0.5907
  O  O1837  1  0.794400  0.666300  0.542780  1.0  -1.2262
  O  O1838  1  0.419500  0.182800  0.787700  1.0  -0.7341
  O  O1839  1  0.959300  0.218200  0.301550  1.0  -0.6185
  O  O1840  1  0.433900  0.293000  0.054230  1.0  -0.5926
  O  O1841  1  0.773200  0.613300  0.019850  1.0  -0.5988
  O  O1842  1  0.329500  0.086200  0.333100  1.0  -0.6221
  O  O1843  1  0.819500  0.049200  0.063440  1.0  -0.5597
  O  O1844  1  0.425200  0.198000  0.047060  1.0  -0.6378
  O  O1845  1  0.781800  0.040700  0.801550  1.0  -0.6219
  O  O1846  1  0.858100  0.620700  0.312670  1.0  -0.5916
  O  O1847  1  0.329300  0.177400  0.839920  1.0  -0.5557
  O  O1848  1  0.383000  0.165300  0.250780  1.0  -0.6282
  O  O1849  1  0.707000  0.566100  0.554230  1.0  -0.5952
  O  O1850  1  0.848100  0.177400  0.339920  1.0  -0.5561
  O  O1851  1  0.819100  0.689700  0.590150  1.0  -0.6014
  O  O1852  1  0.272600  0.101100  0.809320  1.0  -0.6205
  O  O1853  1  0.329500  0.243300  0.833100  1.0  -0.6222
  O  O1854  1  0.789200  0.041000  0.034210  1.0  -0.6316
  O  O1855  1  0.256500  0.106700  0.057730  1.0  -0.6121
  O  O1856  1  0.851900  0.289100  0.281700  1.0  -0.6034
  O  O1857  1  0.322400  0.144100  0.495310  1.0  -0.5829
  O  O1858  1  0.817200  0.236700  0.787700  1.0  -0.7316
  O  O1859  1  0.425200  0.227200  0.547060  1.0  -0.6366
  O  O1860  1  0.307500  0.173500  0.745350  1.0  -0.5681
  O  O1861  1  0.762600  0.620700  0.812670  1.0  -0.5927
  O  O1862  1  0.866000  0.173500  0.245350  1.0  -0.5701
  O  O1863  1  0.693800  0.601100  0.528520  1.0  -0.586
  O  O1864  1  0.819500  0.770300  0.563440  1.0  -0.5584
  O  O1865  1  0.697100  0.601500  0.304000  1.0  -0.6754
  O  O1866  1  0.386700  0.226800  0.519850  1.0  -0.5965
  O  O1867  1  0.383000  0.217700  0.750780  1.0  -0.6311
  O  O1868  1  0.258900  0.040700  0.301550  1.0  -0.6207
  O  O1869  1  0.763300  0.580500  0.787700  1.0  -0.7285
  O  O1870  1  0.898200  0.719100  0.527260  1.0  -0.5744
  O  O1871  1  0.904400  0.601500  0.804000  1.0  -0.6745
  O  O1872  1  0.920300  0.673600  0.001680  1.0  -0.6258
  O  O1873  1  0.697100  0.095600  0.804000  1.0  -0.673
  O  O1874  1  0.870600  0.689700  0.090150  1.0  -0.6014
  O  O1875  1  0.782900  0.169300  0.084780  1.0  -0.619
  O  O1876  1  0.258900  0.218200  0.801550  1.0  -0.6186
  O  O1877  1  0.782900  0.613600  0.584780  1.0  -0.6187
  O  O1878  1  0.251800  0.210800  0.034210  1.0  -0.628
  O  O1879  1  0.251800  0.041000  0.534210  1.0  -0.6314
  O  O1880  1  0.855900  0.677600  0.995310  1.0  -0.5837
  O  O1881  1  0.310300  0.180900  0.090150  1.0  -0.5999
  O  O1882  1  0.948000  0.182400  0.273190  1.0  -0.6075
  O  O1883  1  0.710900  0.562800  0.281700  1.0  -0.602
  O  O1884  1  0.948000  0.765600  0.773190  1.0  -0.6075
  O  O1885  1  0.817600  0.765600  0.273190  1.0  -0.6085
  O  O1886  1  0.802000  0.227200  0.047060  1.0  -0.6369
  O  O1887  1  0.326400  0.079700  0.501680  1.0  -0.6266
  O  O1888  1  0.898900  0.171500  0.809320  1.0  -0.6209
  O  O1889  1  0.333700  0.205600  0.042780  1.0  -1.2243
  O  O1890  1  0.907300  0.306200  0.528520  1.0  -0.582
  O  O1891  1  0.866000  0.692500  0.745350  1.0  -0.5687
  O  O1892  1  0.846500  0.746000  0.778050  1.0  -0.6051
  O  O1893  1  0.398900  0.306200  0.028520  1.0  -0.5818
  O  O1894  1  0.859100  0.566100  0.054230  1.0  -0.5949
  O  O1895  1  0.322400  0.178300  0.995310  1.0  -0.5817
  O  O1896  1  0.959000  0.210800  0.534210  1.0  -0.6275
  O  O1897  1  0.772800  0.198000  0.547060  1.0  -0.6382
  O  O1898  1  0.817200  0.580500  0.287700  1.0  -0.7303
  O  O1899  1  0.333700  0.128100  0.542780  1.0  -1.2262
  O  O1900  1  0.386400  0.217100  0.084780  1.0  -0.6187
  O  O1901  1  0.437200  0.148100  0.281700  1.0  -0.6047
  O  O1902  1  0.907300  0.601100  0.028520  1.0  -0.5856
  O  O1903  1  0.307500  0.134000  0.245350  1.0  -0.5687
  O  O1904  1  0.871900  0.666300  0.042780  1.0  -1.2264
  O  O1905  1  0.398500  0.095600  0.304000  1.0  -0.6731
  O  O1906  1  0.772800  0.574800  0.047060  1.0  -0.6363
  O  O1907  1  0.959300  0.741100  0.801550  1.0  -0.6207
  O  O1908  1  0.846500  0.100500  0.278050  1.0  -0.6032
  O  O1909  1  0.243300  0.913800  0.166900  1.0  -0.6219
  O  O1910  1  0.201200  0.865200  0.208010  1.0  -1.19
  O  O1911  1  0.180500  0.950800  0.936560  1.0  -0.5597
  O  O1912  1  0.210800  0.251800  0.465790  1.0  -0.6324
  O  O1913  1  0.620700  0.858100  0.187330  1.0  -0.5897
  O  O1914  1  0.178300  0.322400  0.504690  1.0  -0.5833
  O  O1915  1  0.210800  0.959000  0.965790  1.0  -0.631
  O  O1916  1  0.580500  0.817200  0.212300  1.0  -0.7343
  O  O1917  1  0.237400  0.858100  0.687330  1.0  -0.5892
  O  O1918  1  0.179100  0.898200  0.472740  1.0  -0.5745
  O  O1919  1  0.302900  0.398500  0.696000  1.0  -0.6721
  O  O1920  1  0.692500  0.866000  0.754650  1.0  -0.5702
  O  O1921  1  0.677600  0.821700  0.004690  1.0  -0.5829
  O  O1922  1  0.173500  0.866000  0.254650  1.0  -0.5685
  O  O1923  1  0.100500  0.846500  0.221950  1.0  -0.5997
  O  O1924  1  0.743500  0.893300  0.942270  1.0  -0.6117
  O  O1925  1  0.101100  0.272600  0.690680  1.0  -0.6212
  O  O1926  1  0.177400  0.848100  0.160080  1.0  -0.556
  O  O1927  1  0.689700  0.819100  0.909850  1.0  -0.5989
  O  O1928  1  0.106700  0.850200  0.942270  1.0  -0.6132
  O  O1929  1  0.149800  0.893300  0.442270  1.0  -0.6116
  O  O1930  1  0.613600  0.782900  0.915220  1.0  -0.619
  O  O1931  1  0.613300  0.773200  0.480150  1.0  -0.5954
  O  O1932  1  0.746000  0.899500  0.221950  1.0  -0.6023
  O  O1933  1  0.106700  0.256500  0.442270  1.0  -0.6113
  O  O1934  1  0.562800  0.851900  0.718300  1.0  -0.6041
  O  O1935  1  0.566100  0.707000  0.945770  1.0  -0.5937
  O  O1936  1  0.198000  0.772800  0.952940  1.0  -0.6357
  O  O1937  1  0.153500  0.254000  0.221950  1.0  -0.6029
  O  O1938  1  0.141900  0.762600  0.187330  1.0  -0.5903
  O  O1939  1  0.236700  0.817200  0.712300  1.0  -0.7356
  O  O1940  1  0.574800  0.802000  0.952940  1.0  -0.638
  O  O1941  1  0.620700  0.762600  0.687330  1.0  -0.5905
  O  O1942  1  0.289100  0.437200  0.718300  1.0  -0.6003
  O  O1943  1  0.179100  0.280900  0.972740  1.0  -0.5759
  O  O1944  1  0.601500  0.697100  0.196000  1.0  -0.6703
  O  O1945  1  0.692500  0.826500  0.254650  1.0  -0.5697
  O  O1946  1  0.741100  0.959300  0.698450  1.0  -0.6219
  O  O1947  1  0.217100  0.386400  0.415220  1.0  -0.6182
  O  O1948  1  0.040700  0.258900  0.198450  1.0  -0.6229
  O  O1949  1  0.293000  0.859100  0.945770  1.0  -0.5956
  O  O1950  1  0.159900  0.386700  0.480150  1.0  -0.598
  O  O1951  1  0.182400  0.234400  0.726810  1.0  -0.6072
  O  O1952  1  0.562800  0.710900  0.218300  1.0  -0.6027
  O  O1953  1  0.134000  0.307500  0.254650  1.0  -0.5675
  O  O1954  1  0.770300  0.819500  0.936560  1.0  -0.5604
  O  O1955  1  0.101800  0.280900  0.472740  1.0  -0.5767
  O  O1956  1  0.765600  0.817600  0.226810  1.0  -0.6077
  O  O1957  1  0.670700  0.848100  0.660080  1.0  -0.5558
  O  O1958  1  0.617000  0.834700  0.749220  1.0  -0.6289
  O  O1959  1  0.670500  0.913800  0.666900  1.0  -0.6225
  O  O1960  1  0.601100  0.693800  0.971480  1.0  -0.5822
  O  O1961  1  0.306200  0.907300  0.971480  1.0  -0.583
  O  O1962  1  0.049200  0.819500  0.436560  1.0  -0.5601
  O  O1963  1  0.226800  0.840100  0.480150  1.0  -0.5975
  O  O1964  1  0.128100  0.794400  0.457220  1.0  -1.2244
  O  O1965  1  0.177400  0.329300  0.660080  1.0  -0.5541
  O  O1966  1  0.765600  0.948000  0.726810  1.0  -0.61
  O  O1967  1  0.134800  0.798800  0.708010  1.0  -1.1891
  O  O1968  1  0.049200  0.229700  0.936560  1.0  -0.5591
  O  O1969  1  0.673600  0.753300  0.998320  1.0  -0.6257
  O  O1970  1  0.153500  0.899500  0.721950  1.0  -0.6022
  O  O1971  1  0.151900  0.822600  0.660080  1.0  -0.5551
  O  O1972  1  0.198000  0.425200  0.452940  1.0  -0.6358
  O  O1973  1  0.178300  0.855900  0.004690  1.0  -0.5847
  O  O1974  1  0.666300  0.794400  0.957220  1.0  -1.2245
  O  O1975  1  0.180900  0.310300  0.409850  1.0  -0.6006
  O  O1976  1  0.727400  0.898900  0.190680  1.0  -0.6194
  O  O1977  1  0.165300  0.782300  0.749220  1.0  -0.6292
  O  O1978  1  0.613300  0.840100  0.980150  1.0  -0.5982
  O  O1979  1  0.748200  0.959000  0.465790  1.0  -0.631
  O  O1980  1  0.218200  0.258900  0.698450  1.0  -0.6228
  O  O1981  1  0.182800  0.763300  0.212300  1.0  -0.7301
  O  O1982  1  0.052000  0.817600  0.726810  1.0  -0.6079
  O  O1983  1  0.129400  0.310300  0.909850  1.0  -0.6008
  O  O1984  1  0.101100  0.828500  0.190680  1.0  -0.6206
  O  O1985  1  0.079700  0.326400  0.998320  1.0  -0.6274
  O  O1986  1  0.052000  0.234400  0.226810  1.0  -0.6079
  O  O1987  1  0.134000  0.826500  0.754650  1.0  -0.5675
  O  O1988  1  0.182400  0.948000  0.226810  1.0  -0.6091
  O  O1989  1  0.040700  0.781800  0.698450  1.0  -0.6189
  O  O1990  1  0.141900  0.379300  0.687330  1.0  -0.5921
  O  O1991  1  0.574800  0.772800  0.452940  1.0  -0.6356
  O  O1992  1  0.613600  0.830700  0.415220  1.0  -0.6189
  O  O1993  1  0.169300  0.782900  0.415220  1.0  -0.6183
  O  O1994  1  0.134800  0.336000  0.208010  1.0  -1.1893
  O  O1995  1  0.727400  0.828500  0.690680  1.0  -0.6194
  O  O1996  1  0.217700  0.383000  0.749220  1.0  -0.6335
  O  O1997  1  0.159900  0.773200  0.980150  1.0  -0.5963
  O  O1998  1  0.227200  0.802000  0.452940  1.0  -0.6376
  O  O1999  1  0.217100  0.830700  0.915220  1.0  -0.6182
  O  O2000  1  0.227200  0.425200  0.952940  1.0  -0.6353
  O  O2001  1  0.144100  0.322400  0.004690  1.0  -0.5817
  O  O2002  1  0.580500  0.763300  0.712300  1.0  -0.7331
  O  O2003  1  0.689700  0.870600  0.409850  1.0  -0.5994
  O  O2004  1  0.246700  0.920300  0.998320  1.0  -0.6264
  O  O2005  1  0.148100  0.437200  0.218300  1.0  -0.6007
  O  O2006  1  0.289100  0.851900  0.218300  1.0  -0.6031
  O  O2007  1  0.129400  0.819100  0.409850  1.0  -0.5995
  O  O2008  1  0.165300  0.383000  0.249220  1.0  -0.634
  O  O2009  1  0.237400  0.379300  0.187330  1.0  -0.5922
  O  O2010  1  0.664000  0.798800  0.208010  1.0  -1.1889
  O  O2011  1  0.226800  0.386700  0.980150  1.0  -0.5975
  O  O2012  1  0.217700  0.834700  0.249220  1.0  -0.6282
  O  O2013  1  0.180500  0.229700  0.436560  1.0  -0.5576
  O  O2014  1  0.719100  0.820900  0.472740  1.0  -0.575
  O  O2015  1  0.601500  0.904400  0.696000  1.0  -0.6753
  O  O2016  1  0.041000  0.251800  0.965790  1.0  -0.6322
  O  O2017  1  0.169300  0.386400  0.915220  1.0  -0.6187
  O  O2018  1  0.086200  0.329500  0.166900  1.0  -0.6216
  O  O2019  1  0.601100  0.907300  0.471480  1.0  -0.5841
  O  O2020  1  0.770300  0.950800  0.436560  1.0  -0.5604
  O  O2021  1  0.666300  0.871900  0.457220  1.0  -1.2264
  O  O2022  1  0.100500  0.254000  0.721950  1.0  -0.6032
  O  O2023  1  0.140900  0.433900  0.945770  1.0  -0.5955
  O  O2024  1  0.218200  0.959300  0.198450  1.0  -0.6213
  O  O2025  1  0.243300  0.329500  0.666900  1.0  -0.6202
  O  O2026  1  0.246700  0.326400  0.498320  1.0  -0.6257
  O  O2027  1  0.743500  0.850200  0.442270  1.0  -0.6128
  O  O2028  1  0.149800  0.256500  0.942270  1.0  -0.6115
  O  O2029  1  0.670500  0.756700  0.166900  1.0  -0.6213
  O  O2030  1  0.670700  0.822600  0.160080  1.0  -0.5555
  O  O2031  1  0.205600  0.871900  0.957220  1.0  -1.2264
  O  O2032  1  0.741100  0.781800  0.198450  1.0  -0.6192
  O  O2033  1  0.673600  0.920300  0.498320  1.0  -0.6277
  O  O2034  1  0.171500  0.272600  0.190680  1.0  -0.621
  O  O2035  1  0.306200  0.398900  0.471480  1.0  -0.585
  O  O2036  1  0.293000  0.433900  0.445770  1.0  -0.5955
  O  O2037  1  0.079700  0.753300  0.498320  1.0  -0.6262
  O  O2038  1  0.140900  0.707000  0.445770  1.0  -0.593
  O  O2039  1  0.151900  0.329300  0.160080  1.0  -0.5546
  O  O2040  1  0.041000  0.789200  0.465790  1.0  -0.6281
  O  O2041  1  0.101800  0.820900  0.972740  1.0  -0.5749
  O  O2042  1  0.719100  0.898200  0.972740  1.0  -0.5754
  O  O2043  1  0.746000  0.846500  0.721950  1.0  -0.6003
  O  O2044  1  0.148100  0.710900  0.718300  1.0  -0.6023
  O  O2045  1  0.205600  0.333700  0.457220  1.0  -1.2267
  O  O2046  1  0.302900  0.904400  0.196000  1.0  -0.6746
  O  O2047  1  0.201200  0.336000  0.708010  1.0  -1.1896
  O  O2048  1  0.180900  0.870600  0.909850  1.0  -0.6001
  O  O2049  1  0.144100  0.821700  0.504690  1.0  -0.5817
  O  O2050  1  0.092700  0.398900  0.971480  1.0  -0.5849
  O  O2051  1  0.677600  0.855900  0.504690  1.0  -0.5838
  O  O2052  1  0.664000  0.865200  0.708010  1.0  -1.1898
  O  O2053  1  0.095600  0.398500  0.196000  1.0  -0.673
  O  O2054  1  0.092700  0.693800  0.471480  1.0  -0.582
  O  O2055  1  0.128100  0.333700  0.957220  1.0  -1.2266
  O  O2056  1  0.236700  0.419500  0.212300  1.0  -0.7307
  O  O2057  1  0.182800  0.419500  0.712300  1.0  -0.7296
  O  O2058  1  0.095600  0.697100  0.696000  1.0  -0.6715
  O  O2059  1  0.086200  0.756700  0.666900  1.0  -0.6212
  O  O2060  1  0.617000  0.782300  0.249220  1.0  -0.6296
  O  O2061  1  0.748200  0.789200  0.965790  1.0  -0.6282
  O  O2062  1  0.566100  0.859100  0.445770  1.0  -0.5962
  O  O2063  1  0.171500  0.898900  0.690680  1.0  -0.62
  O  O2064  1  0.173500  0.307500  0.754650  1.0  -0.5676
