# generated using pymatgen
data_Fe3H6C18O13
_symmetry_space_group_name_H-M   'P 1'
_cell_length_a   51.85930000
_cell_length_b   51.85930000
_cell_length_c   51.85930000
_cell_angle_alpha   60.00000000
_cell_angle_beta   60.00000000
_cell_angle_gamma   60.00000000
_symmetry_Int_Tables_number   1
_chemical_formula_structural   Fe3H6C18O13
_chemical_formula_sum   'Fe204 H408 C1224 O884'
_cell_volume   98619.98977936
_cell_formula_units_Z   68
loop_
 _symmetry_equiv_pos_site_id
 _symmetry_equiv_pos_as_xyz
  1  'x, y, z'
loop_
 _atom_site_type_symbol
 _atom_site_label
 _atom_site_symmetry_multiplicity
 _atom_site_fract_x
 _atom_site_fract_y
 _atom_site_fract_z
 _atom_site_occupancy
 _atom_site_charge
  Fe  Fe1  1  0.746050  0.408300  0.890700  1.0  1.2466
  Fe  Fe2  1  0.320400  0.664630  0.904220  1.0  1.2451
  Fe  Fe3  1  0.408300  0.746050  0.954940  1.0  1.245
  Fe  Fe4  1  0.664630  0.320400  0.110760  1.0  1.2436
  Fe  Fe5  1  0.890700  0.954940  0.746050  1.0  1.2536
  Fe  Fe6  1  0.904220  0.110760  0.320400  1.0  1.2412
  Fe  Fe7  1  0.954940  0.890700  0.408300  1.0  1.2514
  Fe  Fe8  1  0.110760  0.904220  0.664630  1.0  1.2393
  Fe  Fe9  1  0.890700  0.746050  0.408300  1.0  1.2471
  Fe  Fe10  1  0.904220  0.320400  0.664630  1.0  1.2328
  Fe  Fe11  1  0.954940  0.408300  0.746050  1.0  1.2502
  Fe  Fe12  1  0.110760  0.664630  0.320400  1.0  1.2424
  Fe  Fe13  1  0.746050  0.890700  0.954940  1.0  1.2474
  Fe  Fe14  1  0.320400  0.904220  0.110760  1.0  1.235
  Fe  Fe15  1  0.408300  0.954940  0.890700  1.0  1.2548
  Fe  Fe16  1  0.664630  0.110760  0.904220  1.0  1.2413
  Fe  Fe17  1  0.408300  0.890700  0.746050  1.0  1.2521
  Fe  Fe18  1  0.664630  0.904220  0.320400  1.0  1.2396
  Fe  Fe19  1  0.746050  0.954940  0.408300  1.0  1.2553
  Fe  Fe20  1  0.320400  0.110760  0.664630  1.0  1.2324
  Fe  Fe21  1  0.954940  0.746050  0.890700  1.0  1.2555
  Fe  Fe22  1  0.110760  0.320400  0.904220  1.0  1.2352
  Fe  Fe23  1  0.890700  0.408300  0.954940  1.0  1.2524
  Fe  Fe24  1  0.904220  0.664630  0.110760  1.0  1.2439
  Fe  Fe25  1  0.503950  0.841700  0.295060  1.0  1.2475
  Fe  Fe26  1  0.929600  0.585370  0.139240  1.0  1.2417
  Fe  Fe27  1  0.841700  0.503950  0.359300  1.0  1.247
  Fe  Fe28  1  0.585370  0.929600  0.345780  1.0  1.2391
  Fe  Fe29  1  0.359300  0.295060  0.841700  1.0  1.2515
  Fe  Fe30  1  0.345780  0.139240  0.585370  1.0  1.2409
  Fe  Fe31  1  0.295060  0.359300  0.503950  1.0  1.2531
  Fe  Fe32  1  0.139240  0.345780  0.929600  1.0  1.2441
  Fe  Fe33  1  0.359300  0.503950  0.295060  1.0  1.246
  Fe  Fe34  1  0.345780  0.929600  0.139240  1.0  1.2352
  Fe  Fe35  1  0.295060  0.841700  0.359300  1.0  1.2512
  Fe  Fe36  1  0.139240  0.585370  0.345780  1.0  1.241
  Fe  Fe37  1  0.503950  0.359300  0.841700  1.0  1.2472
  Fe  Fe38  1  0.929600  0.345780  0.585370  1.0  1.2375
  Fe  Fe39  1  0.841700  0.295060  0.503950  1.0  1.252
  Fe  Fe40  1  0.585370  0.139240  0.929600  1.0  1.2425
  Fe  Fe41  1  0.841700  0.359300  0.295060  1.0  1.256
  Fe  Fe42  1  0.585370  0.345780  0.139240  1.0  1.2428
  Fe  Fe43  1  0.503950  0.295060  0.359300  1.0  1.2508
  Fe  Fe44  1  0.929600  0.139240  0.345780  1.0  1.2357
  Fe  Fe45  1  0.295060  0.503950  0.841700  1.0  1.2501
  Fe  Fe46  1  0.139240  0.929600  0.585370  1.0  1.2356
  Fe  Fe47  1  0.359300  0.841700  0.503950  1.0  1.2563
  Fe  Fe48  1  0.345780  0.585370  0.929600  1.0  1.2415
  Fe  Fe49  1  0.503950  0.841700  0.359300  1.0  1.2477
  Fe  Fe50  1  0.929600  0.585370  0.345780  1.0  1.2407
  Fe  Fe51  1  0.841700  0.503950  0.295060  1.0  1.2459
  Fe  Fe52  1  0.585370  0.929600  0.139240  1.0  1.2405
  Fe  Fe53  1  0.359300  0.295060  0.503950  1.0  1.2524
  Fe  Fe54  1  0.345780  0.139240  0.929600  1.0  1.2405
  Fe  Fe55  1  0.295060  0.359300  0.841700  1.0  1.2519
  Fe  Fe56  1  0.139240  0.345780  0.585370  1.0  1.2445
  Fe  Fe57  1  0.359300  0.503950  0.841700  1.0  1.247
  Fe  Fe58  1  0.345780  0.929600  0.585370  1.0  1.2337
  Fe  Fe59  1  0.295060  0.841700  0.503950  1.0  1.2523
  Fe  Fe60  1  0.139240  0.585370  0.929600  1.0  1.2427
  Fe  Fe61  1  0.503950  0.359300  0.295060  1.0  1.2463
  Fe  Fe62  1  0.929600  0.345780  0.139240  1.0  1.2393
  Fe  Fe63  1  0.841700  0.295060  0.359300  1.0  1.2511
  Fe  Fe64  1  0.585370  0.139240  0.345780  1.0  1.2397
  Fe  Fe65  1  0.841700  0.359300  0.503950  1.0  1.2563
  Fe  Fe66  1  0.585370  0.345780  0.929600  1.0  1.2429
  Fe  Fe67  1  0.503950  0.295060  0.841700  1.0  1.2505
  Fe  Fe68  1  0.929600  0.139240  0.585370  1.0  1.2371
  Fe  Fe69  1  0.295060  0.503950  0.359300  1.0  1.2503
  Fe  Fe70  1  0.139240  0.929600  0.345780  1.0  1.2348
  Fe  Fe71  1  0.359300  0.841700  0.295060  1.0  1.2562
  Fe  Fe72  1  0.345780  0.585370  0.139240  1.0  1.2416
  Fe  Fe73  1  0.746050  0.408300  0.954940  1.0  1.2459
  Fe  Fe74  1  0.320400  0.664630  0.110760  1.0  1.2465
  Fe  Fe75  1  0.408300  0.746050  0.890700  1.0  1.247
  Fe  Fe76  1  0.664630  0.320400  0.904220  1.0  1.2418
  Fe  Fe77  1  0.890700  0.954940  0.408300  1.0  1.2555
  Fe  Fe78  1  0.904220  0.110760  0.664630  1.0  1.239
  Fe  Fe79  1  0.954940  0.890700  0.746050  1.0  1.2503
  Fe  Fe80  1  0.110760  0.904220  0.320400  1.0  1.2412
  Fe  Fe81  1  0.890700  0.746050  0.954940  1.0  1.2457
  Fe  Fe82  1  0.904220  0.320400  0.110760  1.0  1.2349
  Fe  Fe83  1  0.954940  0.408300  0.890700  1.0  1.2517
  Fe  Fe84  1  0.110760  0.664630  0.904220  1.0  1.2422
  Fe  Fe85  1  0.746050  0.890700  0.408300  1.0  1.2481
  Fe  Fe86  1  0.320400  0.904220  0.664630  1.0  1.2337
  Fe  Fe87  1  0.408300  0.954940  0.746050  1.0  1.253
  Fe  Fe88  1  0.664630  0.110760  0.320400  1.0  1.2418
  Fe  Fe89  1  0.408300  0.890700  0.954940  1.0  1.2525
  Fe  Fe90  1  0.664630  0.904220  0.110760  1.0  1.2393
  Fe  Fe91  1  0.746050  0.954940  0.890700  1.0  1.2559
  Fe  Fe92  1  0.320400  0.110760  0.904220  1.0  1.2331
  Fe  Fe93  1  0.954940  0.746050  0.408300  1.0  1.255
  Fe  Fe94  1  0.110760  0.320400  0.664630  1.0  1.2336
  Fe  Fe95  1  0.890700  0.408300  0.746050  1.0  1.2521
  Fe  Fe96  1  0.904220  0.664630  0.320400  1.0  1.2438
  Fe  Fe97  1  0.752880  0.612190  0.817460  1.0  1.2321
  Fe  Fe98  1  0.705270  0.474220  0.910260  1.0  1.2313
  Fe  Fe99  1  0.612190  0.752880  0.817460  1.0  1.2346
  Fe  Fe100  1  0.474220  0.705270  0.910260  1.0  1.2288
  Fe  Fe101  1  0.817460  0.817460  0.752880  1.0  1.239
  Fe  Fe102  1  0.910260  0.910260  0.705270  1.0  1.2207
  Fe  Fe103  1  0.817460  0.817460  0.612190  1.0  1.2368
  Fe  Fe104  1  0.910260  0.910260  0.474220  1.0  1.2198
  Fe  Fe105  1  0.817460  0.752880  0.612190  1.0  1.2344
  Fe  Fe106  1  0.910260  0.705270  0.474220  1.0  1.2249
  Fe  Fe107  1  0.817460  0.612190  0.752880  1.0  1.2292
  Fe  Fe108  1  0.910260  0.474220  0.705270  1.0  1.231
  Fe  Fe109  1  0.752880  0.817460  0.817460  1.0  1.2368
  Fe  Fe110  1  0.705270  0.910260  0.910260  1.0  1.2235
  Fe  Fe111  1  0.612190  0.817460  0.817460  1.0  1.2306
  Fe  Fe112  1  0.474220  0.910260  0.910260  1.0  1.2298
  Fe  Fe113  1  0.612190  0.817460  0.752880  1.0  1.2301
  Fe  Fe114  1  0.474220  0.910260  0.705270  1.0  1.2301
  Fe  Fe115  1  0.752880  0.817460  0.612190  1.0  1.2356
  Fe  Fe116  1  0.705270  0.910260  0.474220  1.0  1.2241
  Fe  Fe117  1  0.817460  0.752880  0.817460  1.0  1.2365
  Fe  Fe118  1  0.910260  0.705270  0.910260  1.0  1.2238
  Fe  Fe119  1  0.817460  0.612190  0.817460  1.0  1.2307
  Fe  Fe120  1  0.910260  0.474220  0.910260  1.0  1.2306
  Fe  Fe121  1  0.497120  0.637810  0.432540  1.0  1.2377
  Fe  Fe122  1  0.544730  0.775780  0.339740  1.0  1.2286
  Fe  Fe123  1  0.637810  0.497120  0.432540  1.0  1.2384
  Fe  Fe124  1  0.775780  0.544730  0.339740  1.0  1.2322
  Fe  Fe125  1  0.432540  0.432540  0.637810  1.0  1.2365
  Fe  Fe126  1  0.339740  0.339740  0.775780  1.0  1.2215
  Fe  Fe127  1  0.432540  0.432540  0.497120  1.0  1.2352
  Fe  Fe128  1  0.339740  0.339740  0.544730  1.0  1.2213
  Fe  Fe129  1  0.432540  0.497120  0.432540  1.0  1.2387
  Fe  Fe130  1  0.339740  0.544730  0.339740  1.0  1.2287
  Fe  Fe131  1  0.432540  0.637810  0.432540  1.0  1.231
  Fe  Fe132  1  0.339740  0.775780  0.339740  1.0  1.2249
  Fe  Fe133  1  0.497120  0.432540  0.637810  1.0  1.2363
  Fe  Fe134  1  0.544730  0.339740  0.775780  1.0  1.2246
  Fe  Fe135  1  0.637810  0.432540  0.497120  1.0  1.227
  Fe  Fe136  1  0.775780  0.339740  0.544730  1.0  1.2282
  Fe  Fe137  1  0.637810  0.432540  0.432540  1.0  1.2309
  Fe  Fe138  1  0.775780  0.339740  0.339740  1.0  1.2272
  Fe  Fe139  1  0.497120  0.432540  0.432540  1.0  1.2381
  Fe  Fe140  1  0.544730  0.339740  0.339740  1.0  1.2251
  Fe  Fe141  1  0.432540  0.497120  0.637810  1.0  1.236
  Fe  Fe142  1  0.339740  0.544730  0.775780  1.0  1.2288
  Fe  Fe143  1  0.432540  0.637810  0.497120  1.0  1.2267
  Fe  Fe144  1  0.339740  0.775780  0.544730  1.0  1.2262
  Fe  Fe145  1  0.530580  0.530580  0.969420  1.0  1.2351
  Fe  Fe146  1  0.969420  0.969420  0.530580  1.0  1.2328
  Fe  Fe147  1  0.969420  0.530580  0.530580  1.0  1.2274
  Fe  Fe148  1  0.530580  0.969420  0.969420  1.0  1.2301
  Fe  Fe149  1  0.530580  0.969420  0.530580  1.0  1.2297
  Fe  Fe150  1  0.969420  0.530580  0.969420  1.0  1.2304
  Fe  Fe151  1  0.719420  0.719420  0.280580  1.0  1.2327
  Fe  Fe152  1  0.280580  0.280580  0.719420  1.0  1.2351
  Fe  Fe153  1  0.280580  0.719420  0.280580  1.0  1.2297
  Fe  Fe154  1  0.719420  0.280580  0.719420  1.0  1.2304
  Fe  Fe155  1  0.719420  0.280580  0.280580  1.0  1.2274
  Fe  Fe156  1  0.280580  0.719420  0.719420  1.0  1.2301
  Fe  Fe157  1  0.490860  0.490860  0.976980  1.0  1.2698
  Fe  Fe158  1  0.490860  0.490860  0.041300  1.0  1.2715
  Fe  Fe159  1  0.976980  0.041300  0.490860  1.0  1.2651
  Fe  Fe160  1  0.041300  0.976980  0.490860  1.0  1.2753
  Fe  Fe161  1  0.976980  0.490860  0.490860  1.0  1.2704
  Fe  Fe162  1  0.041300  0.490860  0.490860  1.0  1.2754
  Fe  Fe163  1  0.490860  0.976980  0.041300  1.0  1.2625
  Fe  Fe164  1  0.490860  0.041300  0.976980  1.0  1.2744
  Fe  Fe165  1  0.490860  0.976980  0.490860  1.0  1.2703
  Fe  Fe166  1  0.490860  0.041300  0.490860  1.0  1.275
  Fe  Fe167  1  0.041300  0.490860  0.976980  1.0  1.2657
  Fe  Fe168  1  0.976980  0.490860  0.041300  1.0  1.2713
  Fe  Fe169  1  0.759140  0.759140  0.208700  1.0  1.2696
  Fe  Fe170  1  0.759140  0.759140  0.273020  1.0  1.2719
  Fe  Fe171  1  0.273020  0.208700  0.759140  1.0  1.2734
  Fe  Fe172  1  0.208700  0.273020  0.759140  1.0  1.2653
  Fe  Fe173  1  0.273020  0.759140  0.208700  1.0  1.2598
  Fe  Fe174  1  0.208700  0.759140  0.273020  1.0  1.2729
  Fe  Fe175  1  0.759140  0.273020  0.759140  1.0  1.272
  Fe  Fe176  1  0.759140  0.208700  0.759140  1.0  1.2734
  Fe  Fe177  1  0.759140  0.273020  0.208700  1.0  1.2688
  Fe  Fe178  1  0.759140  0.208700  0.273020  1.0  1.2643
  Fe  Fe179  1  0.208700  0.759140  0.759140  1.0  1.2739
  Fe  Fe180  1  0.273020  0.759140  0.759140  1.0  1.272
  Fe  Fe181  1  0.277360  0.625000  0.972640  1.0  1.2462
  Fe  Fe182  1  0.625000  0.277360  0.125000  1.0  1.2456
  Fe  Fe183  1  0.972640  0.125000  0.277360  1.0  1.2455
  Fe  Fe184  1  0.125000  0.972640  0.625000  1.0  1.2459
  Fe  Fe185  1  0.972640  0.277360  0.625000  1.0  1.2434
  Fe  Fe186  1  0.125000  0.625000  0.277360  1.0  1.2408
  Fe  Fe187  1  0.277360  0.972640  0.125000  1.0  1.2476
  Fe  Fe188  1  0.625000  0.125000  0.972640  1.0  1.2406
  Fe  Fe189  1  0.625000  0.972640  0.277360  1.0  1.2457
  Fe  Fe190  1  0.277360  0.125000  0.625000  1.0  1.2468
  Fe  Fe191  1  0.125000  0.277360  0.972640  1.0  1.246
  Fe  Fe192  1  0.972640  0.625000  0.125000  1.0  1.2452
  Fe  Fe193  1  0.972640  0.625000  0.277360  1.0  1.2455
  Fe  Fe194  1  0.625000  0.972640  0.125000  1.0  1.2459
  Fe  Fe195  1  0.277360  0.125000  0.972640  1.0  1.2462
  Fe  Fe196  1  0.125000  0.277360  0.625000  1.0  1.2456
  Fe  Fe197  1  0.277360  0.972640  0.625000  1.0  1.2476
  Fe  Fe198  1  0.125000  0.625000  0.972640  1.0  1.2407
  Fe  Fe199  1  0.972640  0.277360  0.125000  1.0  1.2434
  Fe  Fe200  1  0.625000  0.125000  0.277360  1.0  1.2409
  Fe  Fe201  1  0.625000  0.277360  0.972640  1.0  1.246
  Fe  Fe202  1  0.972640  0.125000  0.625000  1.0  1.2452
  Fe  Fe203  1  0.125000  0.972640  0.277360  1.0  1.2456
  Fe  Fe204  1  0.277360  0.625000  0.125000  1.0  1.2468
  H  H205  1  0.391380  0.532760  0.996400  1.0  0.1383
  H  H206  1  0.744780  0.532810  0.827470  1.0  0.138
  H  H207  1  0.671250  0.402700  0.889530  1.0  0.1464
  H  H208  1  0.569770  0.432360  0.926260  1.0  0.1307
  H  H209  1  0.618010  0.486310  0.915920  1.0  0.1416
  H  H210  1  0.712670  0.332230  0.018880  1.0  0.1346
  H  H211  1  0.532760  0.391380  0.079470  1.0  0.1333
  H  H212  1  0.532810  0.744780  0.894940  1.0  0.1407
  H  H213  1  0.402700  0.671250  0.036520  1.0  0.1468
  H  H214  1  0.432360  0.569770  0.071600  1.0  0.1345
  H  H215  1  0.486310  0.618010  0.979760  1.0  0.1389
  H  H216  1  0.332230  0.712670  0.936220  1.0  0.1372
  H  H217  1  0.996400  0.079470  0.391380  1.0  0.1359
  H  H218  1  0.827470  0.894940  0.744780  1.0  0.1402
  H  H219  1  0.889530  0.036520  0.671250  1.0  0.1458
  H  H220  1  0.926260  0.071600  0.569770  1.0  0.1338
  H  H221  1  0.915920  0.979760  0.618010  1.0  0.1397
  H  H222  1  0.018880  0.936220  0.712670  1.0  0.1385
  H  H223  1  0.079470  0.996400  0.532760  1.0  0.137
  H  H224  1  0.894940  0.827470  0.532810  1.0  0.1406
  H  H225  1  0.036520  0.889530  0.402700  1.0  0.1468
  H  H226  1  0.071600  0.926260  0.432360  1.0  0.1307
  H  H227  1  0.979760  0.915920  0.486310  1.0  0.1377
  H  H228  1  0.936220  0.018880  0.332230  1.0  0.1369
  H  H229  1  0.996400  0.391380  0.532760  1.0  0.1382
  H  H230  1  0.827470  0.744780  0.532810  1.0  0.1395
  H  H231  1  0.889530  0.671250  0.402700  1.0  0.1455
  H  H232  1  0.926260  0.569770  0.432360  1.0  0.1307
  H  H233  1  0.915920  0.618010  0.486310  1.0  0.138
  H  H234  1  0.018880  0.712670  0.332230  1.0  0.1336
  H  H235  1  0.079470  0.532760  0.391380  1.0  0.1323
  H  H236  1  0.894940  0.532810  0.744780  1.0  0.1397
  H  H237  1  0.036520  0.402700  0.671250  1.0  0.1466
  H  H238  1  0.071600  0.432360  0.569770  1.0  0.1323
  H  H239  1  0.979760  0.486310  0.618010  1.0  0.1424
  H  H240  1  0.936220  0.332230  0.712670  1.0  0.1365
  H  H241  1  0.391380  0.996400  0.079470  1.0  0.1368
  H  H242  1  0.744780  0.827470  0.894940  1.0  0.1391
  H  H243  1  0.671250  0.889530  0.036520  1.0  0.1462
  H  H244  1  0.569770  0.926260  0.071600  1.0  0.1322
  H  H245  1  0.618010  0.915920  0.979760  1.0  0.1392
  H  H246  1  0.712670  0.018880  0.936220  1.0  0.1356
  H  H247  1  0.532760  0.079470  0.996400  1.0  0.1366
  H  H248  1  0.532810  0.894940  0.827470  1.0  0.1389
  H  H249  1  0.402700  0.036520  0.889530  1.0  0.1469
  H  H250  1  0.432360  0.071600  0.926260  1.0  0.1293
  H  H251  1  0.486310  0.979760  0.915920  1.0  0.1377
  H  H252  1  0.332230  0.936220  0.018880  1.0  0.1371
  H  H253  1  0.532760  0.996400  0.391380  1.0  0.1364
  H  H254  1  0.532810  0.827470  0.744780  1.0  0.1399
  H  H255  1  0.402700  0.889530  0.671250  1.0  0.1455
  H  H256  1  0.432360  0.926260  0.569770  1.0  0.1313
  H  H257  1  0.486310  0.915920  0.618010  1.0  0.1388
  H  H258  1  0.332230  0.018880  0.712670  1.0  0.1348
  H  H259  1  0.391380  0.079470  0.532760  1.0  0.1335
  H  H260  1  0.744780  0.894940  0.532810  1.0  0.1392
  H  H261  1  0.671250  0.036520  0.402700  1.0  0.1447
  H  H262  1  0.569770  0.071600  0.432360  1.0  0.1331
  H  H263  1  0.618010  0.979760  0.486310  1.0  0.1415
  H  H264  1  0.712670  0.936220  0.332230  1.0  0.1373
  H  H265  1  0.079470  0.391380  0.996400  1.0  0.1348
  H  H266  1  0.894940  0.744780  0.827470  1.0  0.1408
  H  H267  1  0.036520  0.671250  0.889530  1.0  0.1468
  H  H268  1  0.071600  0.569770  0.926260  1.0  0.1325
  H  H269  1  0.979760  0.618010  0.915920  1.0  0.14
  H  H270  1  0.936220  0.712670  0.018880  1.0  0.1365
  H  H271  1  0.996400  0.532760  0.079470  1.0  0.1373
  H  H272  1  0.827470  0.532810  0.894940  1.0  0.1413
  H  H273  1  0.889530  0.402700  0.036520  1.0  0.145
  H  H274  1  0.926260  0.432360  0.071600  1.0  0.1302
  H  H275  1  0.915920  0.486310  0.979760  1.0  0.1395
  H  H276  1  0.018880  0.332230  0.936220  1.0  0.1375
  H  H277  1  0.858620  0.717240  0.170530  1.0  0.1349
  H  H278  1  0.505220  0.717190  0.355060  1.0  0.1389
  H  H279  1  0.578750  0.847300  0.213480  1.0  0.146
  H  H280  1  0.680230  0.817640  0.178400  1.0  0.1326
  H  H281  1  0.631990  0.763690  0.270240  1.0  0.1414
  H  H282  1  0.537330  0.917770  0.313780  1.0  0.1365
  H  H283  1  0.717240  0.858620  0.253600  1.0  0.1366
  H  H284  1  0.717190  0.505220  0.422530  1.0  0.1403
  H  H285  1  0.847300  0.578750  0.360470  1.0  0.1472
  H  H286  1  0.817640  0.680230  0.323740  1.0  0.1322
  H  H287  1  0.763690  0.631990  0.334080  1.0  0.1382
  H  H288  1  0.917770  0.537330  0.231120  1.0  0.1362
  H  H289  1  0.253600  0.170530  0.717240  1.0  0.1383
  H  H290  1  0.422530  0.355060  0.717190  1.0  0.1408
  H  H291  1  0.360470  0.213480  0.847300  1.0  0.1459
  H  H292  1  0.323740  0.178400  0.817640  1.0  0.1325
  H  H293  1  0.334080  0.270240  0.763690  1.0  0.1393
  H  H294  1  0.231120  0.313780  0.917770  1.0  0.1386
  H  H295  1  0.170530  0.253600  0.858620  1.0  0.1345
  H  H296  1  0.355060  0.422530  0.505220  1.0  0.1406
  H  H297  1  0.213480  0.360470  0.578750  1.0  0.1465
  H  H298  1  0.178400  0.323740  0.680230  1.0  0.1319
  H  H299  1  0.270240  0.334080  0.631990  1.0  0.139
  H  H300  1  0.313780  0.231120  0.537330  1.0  0.1368
  H  H301  1  0.253600  0.858620  0.170530  1.0  0.1364
  H  H302  1  0.422530  0.505220  0.355060  1.0  0.14
  H  H303  1  0.360470  0.578750  0.213480  1.0  0.1456
  H  H304  1  0.323740  0.680230  0.178400  1.0  0.1326
  H  H305  1  0.334080  0.631990  0.270240  1.0  0.1376
  H  H306  1  0.231120  0.537330  0.313780  1.0  0.1361
  H  H307  1  0.170530  0.717240  0.253600  1.0  0.1354
  H  H308  1  0.355060  0.717190  0.422530  1.0  0.1393
  H  H309  1  0.213480  0.847300  0.360470  1.0  0.1465
  H  H310  1  0.178400  0.817640  0.323740  1.0  0.129
  H  H311  1  0.270240  0.763690  0.334080  1.0  0.1409
  H  H312  1  0.313780  0.917770  0.231120  1.0  0.1362
  H  H313  1  0.858620  0.253600  0.717240  1.0  0.1389
  H  H314  1  0.505220  0.422530  0.717190  1.0  0.1395
  H  H315  1  0.578750  0.360470  0.847300  1.0  0.1455
  H  H316  1  0.680230  0.323740  0.817640  1.0  0.1308
  H  H317  1  0.631990  0.334080  0.763690  1.0  0.139
  H  H318  1  0.537330  0.231120  0.917770  1.0  0.1336
  H  H319  1  0.717240  0.170530  0.858620  1.0  0.1332
  H  H320  1  0.717190  0.355060  0.505220  1.0  0.1398
  H  H321  1  0.847300  0.213480  0.578750  1.0  0.1471
  H  H322  1  0.817640  0.178400  0.680230  1.0  0.1329
  H  H323  1  0.763690  0.270240  0.631990  1.0  0.1391
  H  H324  1  0.917770  0.313780  0.537330  1.0  0.1371
  H  H325  1  0.717240  0.253600  0.170530  1.0  0.1368
  H  H326  1  0.717190  0.422530  0.355060  1.0  0.1405
  H  H327  1  0.847300  0.360470  0.213480  1.0  0.1458
  H  H328  1  0.817640  0.323740  0.178400  1.0  0.1309
  H  H329  1  0.763690  0.334080  0.270240  1.0  0.1365
  H  H330  1  0.917770  0.231120  0.313780  1.0  0.1369
  H  H331  1  0.858620  0.170530  0.253600  1.0  0.1348
  H  H332  1  0.505220  0.355060  0.422530  1.0  0.1391
  H  H333  1  0.578750  0.213480  0.360470  1.0  0.1449
  H  H334  1  0.680230  0.178400  0.323740  1.0  0.1334
  H  H335  1  0.631990  0.270240  0.334080  1.0  0.1413
  H  H336  1  0.537330  0.313780  0.231120  1.0  0.1372
  H  H337  1  0.170530  0.858620  0.717240  1.0  0.1321
  H  H338  1  0.355060  0.505220  0.717190  1.0  0.1415
  H  H339  1  0.213480  0.578750  0.847300  1.0  0.1467
  H  H340  1  0.178400  0.680230  0.817640  1.0  0.133
  H  H341  1  0.270240  0.631990  0.763690  1.0  0.1404
  H  H342  1  0.313780  0.537330  0.917770  1.0  0.1372
  H  H343  1  0.253600  0.717240  0.858620  1.0  0.137
  H  H344  1  0.422530  0.717190  0.505220  1.0  0.1403
  H  H345  1  0.360470  0.847300  0.578750  1.0  0.1452
  H  H346  1  0.323740  0.817640  0.680230  1.0  0.1304
  H  H347  1  0.334080  0.763690  0.631990  1.0  0.1403
  H  H348  1  0.231120  0.917770  0.537330  1.0  0.1356
  H  H349  1  0.858620  0.717240  0.253600  1.0  0.1378
  H  H350  1  0.505220  0.717190  0.422530  1.0  0.1386
  H  H351  1  0.578750  0.847300  0.360470  1.0  0.1458
  H  H352  1  0.680230  0.817640  0.323740  1.0  0.1323
  H  H353  1  0.631990  0.763690  0.334080  1.0  0.1409
  H  H354  1  0.537330  0.917770  0.231120  1.0  0.1343
  H  H355  1  0.717240  0.858620  0.170530  1.0  0.1338
  H  H356  1  0.717190  0.505220  0.355060  1.0  0.1402
  H  H357  1  0.847300  0.578750  0.213480  1.0  0.1473
  H  H358  1  0.817640  0.680230  0.178400  1.0  0.1323
  H  H359  1  0.763690  0.631990  0.270240  1.0  0.1383
  H  H360  1  0.917770  0.537330  0.313780  1.0  0.1379
  H  H361  1  0.253600  0.170530  0.858620  1.0  0.1357
  H  H362  1  0.422530  0.355060  0.505220  1.0  0.1417
  H  H363  1  0.360470  0.213480  0.578750  1.0  0.1454
  H  H364  1  0.323740  0.178400  0.680230  1.0  0.1335
  H  H365  1  0.334080  0.270240  0.631990  1.0  0.1394
  H  H366  1  0.231120  0.313780  0.537330  1.0  0.1391
  H  H367  1  0.170530  0.253600  0.717240  1.0  0.1363
  H  H368  1  0.355060  0.422530  0.717190  1.0  0.14
  H  H369  1  0.213480  0.360470  0.847300  1.0  0.147
  H  H370  1  0.178400  0.323740  0.817640  1.0  0.1306
  H  H371  1  0.270240  0.334080  0.763690  1.0  0.1387
  H  H372  1  0.313780  0.231120  0.917770  1.0  0.1365
  H  H373  1  0.253600  0.858620  0.717240  1.0  0.139
  H  H374  1  0.422530  0.505220  0.717190  1.0  0.1403
  H  H375  1  0.360470  0.578750  0.847300  1.0  0.1448
  H  H376  1  0.323740  0.680230  0.817640  1.0  0.1327
  H  H377  1  0.334080  0.631990  0.763690  1.0  0.1381
  H  H378  1  0.231120  0.537330  0.917770  1.0  0.134
  H  H379  1  0.170530  0.717240  0.858620  1.0  0.1326
  H  H380  1  0.355060  0.717190  0.505220  1.0  0.1396
  H  H381  1  0.213480  0.847300  0.578750  1.0  0.1459
  H  H382  1  0.178400  0.817640  0.680230  1.0  0.1288
  H  H383  1  0.270240  0.763690  0.631990  1.0  0.1421
  H  H384  1  0.313780  0.917770  0.537330  1.0  0.1359
  H  H385  1  0.858620  0.253600  0.170530  1.0  0.1364
  H  H386  1  0.505220  0.422530  0.355060  1.0  0.1389
  H  H387  1  0.578750  0.360470  0.213480  1.0  0.1461
  H  H388  1  0.680230  0.323740  0.178400  1.0  0.1321
  H  H389  1  0.631990  0.334080  0.270240  1.0  0.1392
  H  H390  1  0.537330  0.231120  0.313780  1.0  0.1356
  H  H391  1  0.717240  0.170530  0.253600  1.0  0.1368
  H  H392  1  0.717190  0.355060  0.422530  1.0  0.1399
  H  H393  1  0.847300  0.213480  0.360470  1.0  0.1477
  H  H394  1  0.817640  0.178400  0.323740  1.0  0.1304
  H  H395  1  0.763690  0.270240  0.334080  1.0  0.1373
  H  H396  1  0.917770  0.313780  0.231120  1.0  0.1371
  H  H397  1  0.717240  0.253600  0.858620  1.0  0.137
  H  H398  1  0.717190  0.422530  0.505220  1.0  0.1398
  H  H399  1  0.847300  0.360470  0.578750  1.0  0.1461
  H  H400  1  0.817640  0.323740  0.680230  1.0  0.1329
  H  H401  1  0.763690  0.334080  0.631990  1.0  0.1385
  H  H402  1  0.917770  0.231120  0.537330  1.0  0.1353
  H  H403  1  0.858620  0.170530  0.717240  1.0  0.1334
  H  H404  1  0.505220  0.355060  0.717190  1.0  0.1391
  H  H405  1  0.578750  0.213480  0.847300  1.0  0.1454
  H  H406  1  0.680230  0.178400  0.817640  1.0  0.1314
  H  H407  1  0.631990  0.270240  0.763690  1.0  0.1412
  H  H408  1  0.537330  0.313780  0.917770  1.0  0.1371
  H  H409  1  0.170530  0.858620  0.253600  1.0  0.1337
  H  H410  1  0.355060  0.505220  0.422530  1.0  0.1412
  H  H411  1  0.213480  0.578750  0.360470  1.0  0.1461
  H  H412  1  0.178400  0.680230  0.323740  1.0  0.132
  H  H413  1  0.270240  0.631990  0.334080  1.0  0.1404
  H  H414  1  0.313780  0.537330  0.231120  1.0  0.1373
  H  H415  1  0.253600  0.717240  0.170530  1.0  0.1367
  H  H416  1  0.422530  0.717190  0.355060  1.0  0.1408
  H  H417  1  0.360470  0.847300  0.213480  1.0  0.1447
  H  H418  1  0.323740  0.817640  0.178400  1.0  0.1307
  H  H419  1  0.334080  0.763690  0.270240  1.0  0.1388
  H  H420  1  0.231120  0.917770  0.313780  1.0  0.1374
  H  H421  1  0.391380  0.532760  0.079470  1.0  0.1343
  H  H422  1  0.744780  0.532810  0.894940  1.0  0.1388
  H  H423  1  0.671250  0.402700  0.036520  1.0  0.146
  H  H424  1  0.569770  0.432360  0.071600  1.0  0.1303
  H  H425  1  0.618010  0.486310  0.979760  1.0  0.1408
  H  H426  1  0.712670  0.332230  0.936220  1.0  0.1363
  H  H427  1  0.532760  0.391380  0.996400  1.0  0.1372
  H  H428  1  0.532810  0.744780  0.827470  1.0  0.1402
  H  H429  1  0.402700  0.671250  0.889530  1.0  0.1473
  H  H430  1  0.432360  0.569770  0.926260  1.0  0.1349
  H  H431  1  0.486310  0.618010  0.915920  1.0  0.1394
  H  H432  1  0.332230  0.712670  0.018880  1.0  0.1358
  H  H433  1  0.996400  0.079470  0.532760  1.0  0.1387
  H  H434  1  0.827470  0.894940  0.532810  1.0  0.1412
  H  H435  1  0.889530  0.036520  0.402700  1.0  0.1453
  H  H436  1  0.926260  0.071600  0.432360  1.0  0.1314
  H  H437  1  0.915920  0.979760  0.486310  1.0  0.1382
  H  H438  1  0.018880  0.936220  0.332230  1.0  0.1391
  H  H439  1  0.079470  0.996400  0.391380  1.0  0.1345
  H  H440  1  0.894940  0.827470  0.744780  1.0  0.1399
  H  H441  1  0.036520  0.889530  0.671250  1.0  0.1471
  H  H442  1  0.071600  0.926260  0.569770  1.0  0.1328
  H  H443  1  0.979760  0.915920  0.618010  1.0  0.1391
  H  H444  1  0.936220  0.018880  0.712670  1.0  0.1362
  H  H445  1  0.996400  0.391380  0.079470  1.0  0.1368
  H  H446  1  0.827470  0.744780  0.894940  1.0  0.1401
  H  H447  1  0.889530  0.671250  0.036520  1.0  0.1449
  H  H448  1  0.926260  0.569770  0.071600  1.0  0.1321
  H  H449  1  0.915920  0.618010  0.979760  1.0  0.1376
  H  H450  1  0.018880  0.712670  0.936220  1.0  0.1356
  H  H451  1  0.079470  0.532760  0.996400  1.0  0.1368
  H  H452  1  0.894940  0.532810  0.827470  1.0  0.139
  H  H453  1  0.036520  0.402700  0.889530  1.0  0.1464
  H  H454  1  0.071600  0.432360  0.926260  1.0  0.1297
  H  H455  1  0.979760  0.486310  0.915920  1.0  0.1418
  H  H456  1  0.936220  0.332230  0.018880  1.0  0.1364
  H  H457  1  0.391380  0.996400  0.532760  1.0  0.1379
  H  H458  1  0.744780  0.827470  0.532810  1.0  0.1383
  H  H459  1  0.671250  0.889530  0.402700  1.0  0.1465
  H  H460  1  0.569770  0.926260  0.432360  1.0  0.1324
  H  H461  1  0.618010  0.915920  0.486310  1.0  0.1393
  H  H462  1  0.712670  0.018880  0.332230  1.0  0.1334
  H  H463  1  0.532760  0.079470  0.391380  1.0  0.1325
  H  H464  1  0.532810  0.894940  0.744780  1.0  0.1393
  H  H465  1  0.402700  0.036520  0.671250  1.0  0.1469
  H  H466  1  0.432360  0.071600  0.569770  1.0  0.13
  H  H467  1  0.486310  0.979760  0.618010  1.0  0.1394
  H  H468  1  0.332230  0.936220  0.712670  1.0  0.1373
  H  H469  1  0.532760  0.996400  0.079470  1.0  0.137
  H  H470  1  0.532810  0.827470  0.894940  1.0  0.1399
  H  H471  1  0.402700  0.889530  0.036520  1.0  0.1454
  H  H472  1  0.432360  0.926260  0.071600  1.0  0.1308
  H  H473  1  0.486310  0.915920  0.979760  1.0  0.1379
  H  H474  1  0.332230  0.018880  0.936220  1.0  0.1361
  H  H475  1  0.391380  0.079470  0.996400  1.0  0.1357
  H  H476  1  0.744780  0.894940  0.827470  1.0  0.139
  H  H477  1  0.671250  0.036520  0.889530  1.0  0.1452
  H  H478  1  0.569770  0.071600  0.926260  1.0  0.1321
  H  H479  1  0.618010  0.979760  0.915920  1.0  0.1409
  H  H480  1  0.712670  0.936220  0.018880  1.0  0.1372
  H  H481  1  0.079470  0.391380  0.532760  1.0  0.1322
  H  H482  1  0.894940  0.744780  0.532810  1.0  0.1414
  H  H483  1  0.036520  0.671250  0.402700  1.0  0.1461
  H  H484  1  0.071600  0.569770  0.432360  1.0  0.1311
  H  H485  1  0.979760  0.618010  0.486310  1.0  0.1401
  H  H486  1  0.936220  0.712670  0.332230  1.0  0.1366
  H  H487  1  0.996400  0.532760  0.391380  1.0  0.1367
  H  H488  1  0.827470  0.532810  0.744780  1.0  0.141
  H  H489  1  0.889530  0.402700  0.671250  1.0  0.1451
  H  H490  1  0.926260  0.432360  0.569770  1.0  0.1323
  H  H491  1  0.915920  0.486310  0.618010  1.0  0.1402
  H  H492  1  0.018880  0.332230  0.712670  1.0  0.1359
  H  H493  1  0.663640  0.279000  0.028680  1.0  0.1389
  H  H494  1  0.279000  0.663640  0.028680  1.0  0.1385
  H  H495  1  0.028680  0.028680  0.663640  1.0  0.1385
  H  H496  1  0.028680  0.028680  0.279000  1.0  0.138
  H  H497  1  0.028680  0.663640  0.279000  1.0  0.1368
  H  H498  1  0.028680  0.279000  0.663640  1.0  0.1398
  H  H499  1  0.663640  0.028680  0.028680  1.0  0.1377
  H  H500  1  0.279000  0.028680  0.028680  1.0  0.1353
  H  H501  1  0.279000  0.028680  0.663640  1.0  0.1356
  H  H502  1  0.663640  0.028680  0.279000  1.0  0.1374
  H  H503  1  0.028680  0.663640  0.028680  1.0  0.1372
  H  H504  1  0.028680  0.279000  0.028680  1.0  0.1398
  H  H505  1  0.586360  0.971000  0.221320  1.0  0.14
  H  H506  1  0.971000  0.586360  0.221320  1.0  0.1386
  H  H507  1  0.221320  0.221320  0.971000  1.0  0.137
  H  H508  1  0.221320  0.221320  0.586360  1.0  0.1388
  H  H509  1  0.221320  0.586360  0.221320  1.0  0.1375
  H  H510  1  0.221320  0.971000  0.221320  1.0  0.1403
  H  H511  1  0.586360  0.221320  0.971000  1.0  0.1367
  H  H512  1  0.971000  0.221320  0.586360  1.0  0.1353
  H  H513  1  0.971000  0.221320  0.221320  1.0  0.135
  H  H514  1  0.586360  0.221320  0.221320  1.0  0.1375
  H  H515  1  0.221320  0.586360  0.971000  1.0  0.1363
  H  H516  1  0.221320  0.971000  0.586360  1.0  0.1405
  H  H517  1  0.307190  0.586720  0.053050  1.0  0.1384
  H  H518  1  0.586720  0.307190  0.053050  1.0  0.1406
  H  H519  1  0.053050  0.053050  0.307190  1.0  0.1396
  H  H520  1  0.053050  0.053050  0.586720  1.0  0.1399
  H  H521  1  0.053050  0.307190  0.586720  1.0  0.14
  H  H522  1  0.053050  0.586720  0.307190  1.0  0.1394
  H  H523  1  0.307190  0.053050  0.053050  1.0  0.1387
  H  H524  1  0.586720  0.053050  0.053050  1.0  0.1404
  H  H525  1  0.586720  0.053050  0.307190  1.0  0.1401
  H  H526  1  0.307190  0.053050  0.586720  1.0  0.1381
  H  H527  1  0.053050  0.307190  0.053050  1.0  0.1409
  H  H528  1  0.053050  0.586720  0.053050  1.0  0.1393
  H  H529  1  0.942810  0.663280  0.196950  1.0  0.1399
  H  H530  1  0.663280  0.942810  0.196950  1.0  0.1418
  H  H531  1  0.196950  0.196950  0.663280  1.0  0.1391
  H  H532  1  0.196950  0.196950  0.942810  1.0  0.1398
  H  H533  1  0.196950  0.942810  0.196950  1.0  0.1402
  H  H534  1  0.196950  0.663280  0.196950  1.0  0.1395
  H  H535  1  0.942810  0.196950  0.663280  1.0  0.1398
  H  H536  1  0.663280  0.196950  0.942810  1.0  0.1406
  H  H537  1  0.663280  0.196950  0.196950  1.0  0.1401
  H  H538  1  0.942810  0.196950  0.196950  1.0  0.1383
  H  H539  1  0.196950  0.942810  0.663280  1.0  0.1408
  H  H540  1  0.196950  0.663280  0.942810  1.0  0.1397
  H  H541  1  0.691890  0.691890  0.774780  1.0  0.1358
  H  H542  1  0.691890  0.691890  0.841440  1.0  0.1357
  H  H543  1  0.774780  0.841440  0.691890  1.0  0.1351
  H  H544  1  0.841440  0.774780  0.691890  1.0  0.1369
  H  H545  1  0.774780  0.691890  0.691890  1.0  0.1378
  H  H546  1  0.841440  0.691890  0.691890  1.0  0.1363
  H  H547  1  0.691890  0.774780  0.841440  1.0  0.1382
  H  H548  1  0.691890  0.841440  0.774780  1.0  0.1373
  H  H549  1  0.691890  0.774780  0.691890  1.0  0.1384
  H  H550  1  0.691890  0.841440  0.691890  1.0  0.1372
  H  H551  1  0.841440  0.691890  0.774780  1.0  0.1357
  H  H552  1  0.774780  0.691890  0.841440  1.0  0.1379
  H  H553  1  0.558110  0.558110  0.408560  1.0  0.1353
  H  H554  1  0.558110  0.558110  0.475220  1.0  0.1359
  H  H555  1  0.475220  0.408560  0.558110  1.0  0.1361
  H  H556  1  0.408560  0.475220  0.558110  1.0  0.1363
  H  H557  1  0.475220  0.558110  0.408560  1.0  0.1376
  H  H558  1  0.408560  0.558110  0.475220  1.0  0.136
  H  H559  1  0.558110  0.475220  0.558110  1.0  0.137
  H  H560  1  0.558110  0.408560  0.558110  1.0  0.1366
  H  H561  1  0.558110  0.475220  0.408560  1.0  0.1369
  H  H562  1  0.558110  0.408560  0.475220  1.0  0.1371
  H  H563  1  0.408560  0.558110  0.558110  1.0  0.1356
  H  H564  1  0.475220  0.558110  0.558110  1.0  0.1374
  H  H565  1  0.843820  0.385410  0.843820  1.0  0.1379
  H  H566  1  0.800500  0.449400  0.800500  1.0  0.1404
  H  H567  1  0.385410  0.843820  0.926950  1.0  0.1371
  H  H568  1  0.449400  0.800500  0.949590  1.0  0.1385
  H  H569  1  0.843820  0.926950  0.843820  1.0  0.1374
  H  H570  1  0.800500  0.949590  0.800500  1.0  0.1401
  H  H571  1  0.926950  0.843820  0.385410  1.0  0.135
  H  H572  1  0.949590  0.800500  0.449400  1.0  0.1381
  H  H573  1  0.843820  0.843820  0.385410  1.0  0.1382
  H  H574  1  0.800500  0.800500  0.449400  1.0  0.1387
  H  H575  1  0.926950  0.385410  0.843820  1.0  0.136
  H  H576  1  0.949590  0.449400  0.800500  1.0  0.1394
  H  H577  1  0.843820  0.843820  0.926950  1.0  0.1391
  H  H578  1  0.800500  0.800500  0.949590  1.0  0.1394
  H  H579  1  0.385410  0.926950  0.843820  1.0  0.1371
  H  H580  1  0.449400  0.949590  0.800500  1.0  0.1417
  H  H581  1  0.385410  0.843820  0.843820  1.0  0.137
  H  H582  1  0.449400  0.800500  0.800500  1.0  0.1389
  H  H583  1  0.843820  0.926950  0.385410  1.0  0.1368
  H  H584  1  0.800500  0.949590  0.449400  1.0  0.1401
  H  H585  1  0.926950  0.843820  0.843820  1.0  0.1357
  H  H586  1  0.949590  0.800500  0.800500  1.0  0.138
  H  H587  1  0.843820  0.385410  0.926950  1.0  0.1376
  H  H588  1  0.800500  0.449400  0.949590  1.0  0.1405
  H  H589  1  0.406180  0.864590  0.323050  1.0  0.1364
  H  H590  1  0.449500  0.800600  0.300410  1.0  0.1406
  H  H591  1  0.864590  0.406180  0.406180  1.0  0.1368
  H  H592  1  0.800600  0.449500  0.449500  1.0  0.1387
  H  H593  1  0.406180  0.323050  0.864590  1.0  0.1375
  H  H594  1  0.449500  0.300410  0.800600  1.0  0.1395
  H  H595  1  0.323050  0.406180  0.406180  1.0  0.1354
  H  H596  1  0.300410  0.449500  0.449500  1.0  0.1373
  H  H597  1  0.406180  0.406180  0.323050  1.0  0.1382
  H  H598  1  0.449500  0.449500  0.300410  1.0  0.1385
  H  H599  1  0.323050  0.864590  0.406180  1.0  0.1359
  H  H600  1  0.300410  0.800600  0.449500  1.0  0.1398
  H  H601  1  0.406180  0.406180  0.864590  1.0  0.1395
  H  H602  1  0.449500  0.449500  0.800600  1.0  0.1397
  H  H603  1  0.864590  0.323050  0.406180  1.0  0.1375
  H  H604  1  0.800600  0.300410  0.449500  1.0  0.1415
  H  H605  1  0.864590  0.406180  0.323050  1.0  0.1367
  H  H606  1  0.800600  0.449500  0.300410  1.0  0.1386
  H  H607  1  0.406180  0.323050  0.406180  1.0  0.1369
  H  H608  1  0.449500  0.300410  0.449500  1.0  0.1399
  H  H609  1  0.323050  0.406180  0.864590  1.0  0.1353
  H  H610  1  0.300410  0.449500  0.800600  1.0  0.1367
  H  H611  1  0.406180  0.864590  0.406180  1.0  0.1373
  H  H612  1  0.449500  0.800600  0.449500  1.0  0.1411
  C  C613  1  0.378800  0.539590  0.017300  1.0  0.0114
  C  C614  1  0.346530  0.560280  0.022320  1.0  -0.1329
  C  C615  1  0.330960  0.574570  0.996910  1.0  0.7004
  C  C616  1  0.764030  0.521160  0.810690  1.0  -0.0286
  C  C617  1  0.769220  0.489510  0.816630  1.0  -0.1059
  C  C618  1  0.750510  0.471450  0.847580  1.0  0.758
  C  C619  1  0.648760  0.419900  0.897500  1.0  -0.0164
  C  C620  1  0.591370  0.436770  0.918150  1.0  -0.0388
  C  C621  1  0.648250  0.445380  0.900790  1.0  -0.0612
  C  C622  1  0.589620  0.463290  0.921200  1.0  -0.1179
  C  C623  1  0.618550  0.467210  0.912270  1.0  -0.0146
  C  C624  1  0.620860  0.414700  0.906790  1.0  -0.0746
  C  C625  1  0.558420  0.483820  0.938100  1.0  0.7389
  C  C626  1  0.622930  0.384130  0.908500  1.0  0.7465
  C  C627  1  0.678620  0.445720  0.897260  1.0  0.7616
  C  C628  1  0.706670  0.323350  0.008350  1.0  -0.0291
  C  C629  1  0.688090  0.303010  0.028470  1.0  -0.1257
  C  C630  1  0.296980  0.674450  0.964510  1.0  0.7077
  C  C631  1  0.539590  0.378800  0.064310  1.0  0.0122
  C  C632  1  0.560280  0.346530  0.070870  1.0  -0.1331
  C  C633  1  0.574570  0.330960  0.097560  1.0  0.7011
  C  C634  1  0.521160  0.764030  0.904120  1.0  -0.0338
  C  C635  1  0.489510  0.769220  0.924640  1.0  -0.105
  C  C636  1  0.471450  0.750510  0.930460  1.0  0.76
  C  C637  1  0.419900  0.648760  0.033840  1.0  -0.0163
  C  C638  1  0.436770  0.591370  0.053710  1.0  -0.0389
  C  C639  1  0.445380  0.648250  0.005580  1.0  -0.0611
  C  C640  1  0.463290  0.589620  0.025890  1.0  -0.1166
  C  C641  1  0.467210  0.618550  0.001980  1.0  -0.0222
  C  C642  1  0.414700  0.620860  0.057650  1.0  -0.0706
  C  C643  1  0.483820  0.558420  0.019660  1.0  0.7373
  C  C644  1  0.384130  0.622930  0.084450  1.0  0.7469
  C  C645  1  0.445720  0.678620  0.978400  1.0  0.7587
  C  C646  1  0.323350  0.706670  0.961630  1.0  -0.0329
  C  C647  1  0.303010  0.688090  0.980440  1.0  -0.1295
  C  C648  1  0.674450  0.296980  0.064060  1.0  0.7076
  C  C649  1  0.017300  0.064310  0.378800  1.0  0.0089
  C  C650  1  0.022320  0.070870  0.346530  1.0  -0.1324
  C  C651  1  0.996910  0.097560  0.330960  1.0  0.7002
  C  C652  1  0.810690  0.904120  0.764030  1.0  -0.0311
  C  C653  1  0.816630  0.924640  0.769220  1.0  -0.1045
  C  C654  1  0.847580  0.930460  0.750510  1.0  0.7568
  C  C655  1  0.897500  0.033840  0.648760  1.0  -0.0118
  C  C656  1  0.918150  0.053710  0.591370  1.0  -0.0422
  C  C657  1  0.900790  0.005580  0.648250  1.0  -0.0638
  C  C658  1  0.921200  0.025890  0.589620  1.0  -0.1197
  C  C659  1  0.912270  0.001980  0.618550  1.0  -0.0149
  C  C660  1  0.906790  0.057650  0.620860  1.0  -0.0754
  C  C661  1  0.938100  0.019660  0.558420  1.0  0.7361
  C  C662  1  0.908500  0.084450  0.622930  1.0  0.7473
  C  C663  1  0.897260  0.978400  0.678620  1.0  0.7587
  C  C664  1  0.008350  0.961630  0.706670  1.0  -0.0351
  C  C665  1  0.028470  0.980440  0.688090  1.0  -0.1289
  C  C666  1  0.964510  0.064060  0.296980  1.0  0.7064
  C  C667  1  0.064310  0.017300  0.539590  1.0  0.01
  C  C668  1  0.070870  0.022320  0.560280  1.0  -0.1316
  C  C669  1  0.097560  0.996910  0.574570  1.0  0.7018
  C  C670  1  0.904120  0.810690  0.521160  1.0  -0.0305
  C  C671  1  0.924640  0.816630  0.489510  1.0  -0.1027
  C  C672  1  0.930460  0.847580  0.471450  1.0  0.7593
  C  C673  1  0.033840  0.897500  0.419900  1.0  -0.0147
  C  C674  1  0.053710  0.918150  0.436770  1.0  -0.0368
  C  C675  1  0.005580  0.900790  0.445380  1.0  -0.0633
  C  C676  1  0.025890  0.921200  0.463290  1.0  -0.1167
  C  C677  1  0.001980  0.912270  0.467210  1.0  -0.0145
  C  C678  1  0.057650  0.906790  0.414700  1.0  -0.075
  C  C679  1  0.019660  0.938100  0.483820  1.0  0.7375
  C  C680  1  0.084450  0.908500  0.384130  1.0  0.7458
  C  C681  1  0.978400  0.897260  0.445720  1.0  0.7564
  C  C682  1  0.961630  0.008350  0.323350  1.0  -0.0359
  C  C683  1  0.980440  0.028470  0.303010  1.0  -0.1305
  C  C684  1  0.064060  0.964510  0.674450  1.0  0.7068
  C  C685  1  0.017300  0.378800  0.539590  1.0  0.0107
  C  C686  1  0.022320  0.346530  0.560280  1.0  -0.1328
  C  C687  1  0.996910  0.330960  0.574570  1.0  0.7001
  C  C688  1  0.810690  0.764030  0.521160  1.0  -0.0315
  C  C689  1  0.816630  0.769220  0.489510  1.0  -0.1071
  C  C690  1  0.847580  0.750510  0.471450  1.0  0.7578
  C  C691  1  0.897500  0.648760  0.419900  1.0  -0.0118
  C  C692  1  0.918150  0.591370  0.436770  1.0  -0.0404
  C  C693  1  0.900790  0.648250  0.445380  1.0  -0.0608
  C  C694  1  0.921200  0.589620  0.463290  1.0  -0.1183
  C  C695  1  0.912270  0.618550  0.467210  1.0  -0.0122
  C  C696  1  0.906790  0.620860  0.414700  1.0  -0.0755
  C  C697  1  0.938100  0.558420  0.483820  1.0  0.739
  C  C698  1  0.908500  0.622930  0.384130  1.0  0.7473
  C  C699  1  0.897260  0.678620  0.445720  1.0  0.7619
  C  C700  1  0.008350  0.706670  0.323350  1.0  -0.0288
  C  C701  1  0.028470  0.688090  0.303010  1.0  -0.1242
  C  C702  1  0.964510  0.296980  0.674450  1.0  0.7072
  C  C703  1  0.064310  0.539590  0.378800  1.0  0.0139
  C  C704  1  0.070870  0.560280  0.346530  1.0  -0.1319
  C  C705  1  0.097560  0.574570  0.330960  1.0  0.6989
  C  C706  1  0.904120  0.521160  0.764030  1.0  -0.0295
  C  C707  1  0.924640  0.489510  0.769220  1.0  -0.104
  C  C708  1  0.930460  0.471450  0.750510  1.0  0.7602
  C  C709  1  0.033840  0.419900  0.648760  1.0  -0.0148
  C  C710  1  0.053710  0.436770  0.591370  1.0  -0.0361
  C  C711  1  0.005580  0.445380  0.648250  1.0  -0.0614
  C  C712  1  0.025890  0.463290  0.589620  1.0  -0.1184
  C  C713  1  0.001980  0.467210  0.618550  1.0  -0.0253
  C  C714  1  0.057650  0.414700  0.620860  1.0  -0.0719
  C  C715  1  0.019660  0.483820  0.558420  1.0  0.7404
  C  C716  1  0.084450  0.384130  0.622930  1.0  0.7473
  C  C717  1  0.978400  0.445720  0.678620  1.0  0.7579
  C  C718  1  0.961630  0.323350  0.706670  1.0  -0.0336
  C  C719  1  0.980440  0.303010  0.688090  1.0  -0.1302
  C  C720  1  0.064060  0.674450  0.296980  1.0  0.7061
  C  C721  1  0.378800  0.017300  0.064310  1.0  0.0092
  C  C722  1  0.346530  0.022320  0.070870  1.0  -0.1318
  C  C723  1  0.330960  0.996910  0.097560  1.0  0.7008
  C  C724  1  0.764030  0.810690  0.904120  1.0  -0.0292
  C  C725  1  0.769220  0.816630  0.924640  1.0  -0.1059
  C  C726  1  0.750510  0.847580  0.930460  1.0  0.7582
  C  C727  1  0.648760  0.897500  0.033840  1.0  -0.0154
  C  C728  1  0.591370  0.918150  0.053710  1.0  -0.0403
  C  C729  1  0.648250  0.900790  0.005580  1.0  -0.0634
  C  C730  1  0.589620  0.921200  0.025890  1.0  -0.1199
  C  C731  1  0.618550  0.912270  0.001980  1.0  -0.0158
  C  C732  1  0.620860  0.906790  0.057650  1.0  -0.0749
  C  C733  1  0.558420  0.938100  0.019660  1.0  0.7329
  C  C734  1  0.622930  0.908500  0.084450  1.0  0.7463
  C  C735  1  0.678620  0.897260  0.978400  1.0  0.7555
  C  C736  1  0.706670  0.008350  0.961630  1.0  -0.0336
  C  C737  1  0.688090  0.028470  0.980440  1.0  -0.1267
  C  C738  1  0.296980  0.964510  0.064060  1.0  0.7069
  C  C739  1  0.539590  0.064310  0.017300  1.0  0.0108
  C  C740  1  0.560280  0.070870  0.022320  1.0  -0.1326
  C  C741  1  0.574570  0.097560  0.996910  1.0  0.7015
  C  C742  1  0.521160  0.904120  0.810690  1.0  -0.0291
  C  C743  1  0.489510  0.924640  0.816630  1.0  -0.1041
  C  C744  1  0.471450  0.930460  0.847580  1.0  0.7592
  C  C745  1  0.419900  0.033840  0.897500  1.0  -0.0155
  C  C746  1  0.436770  0.053710  0.918150  1.0  -0.0369
  C  C747  1  0.445380  0.005580  0.900790  1.0  -0.0627
  C  C748  1  0.463290  0.025890  0.921200  1.0  -0.1163
  C  C749  1  0.467210  0.001980  0.912270  1.0  -0.015
  C  C750  1  0.414700  0.057650  0.906790  1.0  -0.074
  C  C751  1  0.483820  0.019660  0.938100  1.0  0.7407
  C  C752  1  0.384130  0.084450  0.908500  1.0  0.7473
  C  C753  1  0.445720  0.978400  0.897260  1.0  0.7595
  C  C754  1  0.323350  0.961630  0.008350  1.0  -0.0369
  C  C755  1  0.303010  0.980440  0.028470  1.0  -0.1287
  C  C756  1  0.674450  0.064060  0.964510  1.0  0.7081
  C  C757  1  0.539590  0.017300  0.378800  1.0  0.011
  C  C758  1  0.560280  0.022320  0.346530  1.0  -0.1326
  C  C759  1  0.574570  0.996910  0.330960  1.0  0.7012
  C  C760  1  0.521160  0.810690  0.764030  1.0  -0.0293
  C  C761  1  0.489510  0.816630  0.769220  1.0  -0.1047
  C  C762  1  0.471450  0.847580  0.750510  1.0  0.7582
  C  C763  1  0.419900  0.897500  0.648760  1.0  -0.0149
  C  C764  1  0.436770  0.918150  0.591370  1.0  -0.0399
  C  C765  1  0.445380  0.900790  0.648250  1.0  -0.0624
  C  C766  1  0.463290  0.921200  0.589620  1.0  -0.1188
  C  C767  1  0.467210  0.912270  0.618550  1.0  -0.0126
  C  C768  1  0.414700  0.906790  0.620860  1.0  -0.0762
  C  C769  1  0.483820  0.938100  0.558420  1.0  0.7356
  C  C770  1  0.384130  0.908500  0.622930  1.0  0.7449
  C  C771  1  0.445720  0.897260  0.678620  1.0  0.7615
  C  C772  1  0.323350  0.008350  0.706670  1.0  -0.0296
  C  C773  1  0.303010  0.028470  0.688090  1.0  -0.1257
  C  C774  1  0.674450  0.964510  0.296980  1.0  0.7102
  C  C775  1  0.378800  0.064310  0.539590  1.0  0.0133
  C  C776  1  0.346530  0.070870  0.560280  1.0  -0.1329
  C  C777  1  0.330960  0.097560  0.574570  1.0  0.6978
  C  C778  1  0.764030  0.904120  0.521160  1.0  -0.0309
  C  C779  1  0.769220  0.924640  0.489510  1.0  -0.1061
  C  C780  1  0.750510  0.930460  0.471450  1.0  0.7611
  C  C781  1  0.648760  0.033840  0.419900  1.0  -0.0128
  C  C782  1  0.591370  0.053710  0.436770  1.0  -0.0392
  C  C783  1  0.648250  0.005580  0.445380  1.0  -0.0614
  C  C784  1  0.589620  0.025890  0.463290  1.0  -0.1181
  C  C785  1  0.618550  0.001980  0.467210  1.0  -0.0238
  C  C786  1  0.620860  0.057650  0.414700  1.0  -0.0699
  C  C787  1  0.558420  0.019660  0.483820  1.0  0.7369
  C  C788  1  0.622930  0.084450  0.384130  1.0  0.7467
  C  C789  1  0.678620  0.978400  0.445720  1.0  0.7583
  C  C790  1  0.706670  0.961630  0.323350  1.0  -0.0337
  C  C791  1  0.688090  0.980440  0.303010  1.0  -0.1284
  C  C792  1  0.296980  0.064060  0.674450  1.0  0.7073
  C  C793  1  0.064310  0.378800  0.017300  1.0  0.01
  C  C794  1  0.070870  0.346530  0.022320  1.0  -0.1326
  C  C795  1  0.097560  0.330960  0.996910  1.0  0.6994
  C  C796  1  0.904120  0.764030  0.810690  1.0  -0.0339
  C  C797  1  0.924640  0.769220  0.816630  1.0  -0.105
  C  C798  1  0.930460  0.750510  0.847580  1.0  0.7591
  C  C799  1  0.033840  0.648760  0.897500  1.0  -0.0138
  C  C800  1  0.053710  0.591370  0.918150  1.0  -0.042
  C  C801  1  0.005580  0.648250  0.900790  1.0  -0.0613
  C  C802  1  0.025890  0.589620  0.921200  1.0  -0.1206
  C  C803  1  0.001980  0.618550  0.912270  1.0  -0.016
  C  C804  1  0.057650  0.620860  0.906790  1.0  -0.0738
  C  C805  1  0.019660  0.558420  0.938100  1.0  0.7361
  C  C806  1  0.084450  0.622930  0.908500  1.0  0.7461
  C  C807  1  0.978400  0.678620  0.897260  1.0  0.7575
  C  C808  1  0.961630  0.706670  0.008350  1.0  -0.0328
  C  C809  1  0.980440  0.688090  0.028470  1.0  -0.1275
  C  C810  1  0.064060  0.296980  0.964510  1.0  0.7054
  C  C811  1  0.017300  0.539590  0.064310  1.0  0.0088
  C  C812  1  0.022320  0.560280  0.070870  1.0  -0.1321
  C  C813  1  0.996910  0.574570  0.097560  1.0  0.6996
  C  C814  1  0.810690  0.521160  0.904120  1.0  -0.0292
  C  C815  1  0.816630  0.489510  0.924640  1.0  -0.1038
  C  C816  1  0.847580  0.471450  0.930460  1.0  0.7584
  C  C817  1  0.897500  0.419900  0.033840  1.0  -0.0139
  C  C818  1  0.918150  0.436770  0.053710  1.0  -0.0378
  C  C819  1  0.900790  0.445380  0.005580  1.0  -0.0633
  C  C820  1  0.921200  0.463290  0.025890  1.0  -0.1182
  C  C821  1  0.912270  0.467210  0.001980  1.0  -0.0158
  C  C822  1  0.906790  0.414700  0.057650  1.0  -0.0753
  C  C823  1  0.938100  0.483820  0.019660  1.0  0.7393
  C  C824  1  0.908500  0.384130  0.084450  1.0  0.7468
  C  C825  1  0.897260  0.445720  0.978400  1.0  0.7586
  C  C826  1  0.008350  0.323350  0.961630  1.0  -0.0352
  C  C827  1  0.028470  0.303010  0.980440  1.0  -0.1295
  C  C828  1  0.964510  0.674450  0.064060  1.0  0.7077
  C  C829  1  0.871200  0.710410  0.185690  1.0  0.0122
  C  C830  1  0.903470  0.689720  0.179130  1.0  -0.132
  C  C831  1  0.919040  0.675430  0.152440  1.0  0.7012
  C  C832  1  0.485970  0.728840  0.345880  1.0  -0.027
  C  C833  1  0.480780  0.760490  0.325360  1.0  -0.1039
  C  C834  1  0.499490  0.778550  0.319540  1.0  0.7609
  C  C835  1  0.601240  0.830100  0.216160  1.0  -0.0159
  C  C836  1  0.658630  0.813230  0.196290  1.0  -0.0351
  C  C837  1  0.601750  0.804620  0.244420  1.0  -0.0637
  C  C838  1  0.660380  0.786710  0.224110  1.0  -0.1186
  C  C839  1  0.631450  0.782790  0.248020  1.0  -0.0196
  C  C840  1  0.629140  0.835300  0.192350  1.0  -0.0705
  C  C841  1  0.691580  0.766180  0.230340  1.0  0.737
  C  C842  1  0.627070  0.865870  0.165550  1.0  0.7458
  C  C843  1  0.571380  0.804280  0.271600  1.0  0.7572
  C  C844  1  0.543330  0.926650  0.288370  1.0  -0.0339
  C  C845  1  0.561910  0.946990  0.269560  1.0  -0.1284
  C  C846  1  0.953020  0.575550  0.185940  1.0  0.7078
  C  C847  1  0.710410  0.871200  0.232700  1.0  0.013
  C  C848  1  0.689720  0.903470  0.227680  1.0  -0.1326
  C  C849  1  0.675430  0.919040  0.253090  1.0  0.7014
  C  C850  1  0.728840  0.485970  0.439310  1.0  -0.0311
  C  C851  1  0.760490  0.480780  0.433370  1.0  -0.1048
  C  C852  1  0.778550  0.499490  0.402420  1.0  0.7577
  C  C853  1  0.830100  0.601240  0.352500  1.0  -0.0163
  C  C854  1  0.813230  0.658630  0.331850  1.0  -0.0404
  C  C855  1  0.804620  0.601750  0.349210  1.0  -0.0606
  C  C856  1  0.786710  0.660380  0.328800  1.0  -0.117
  C  C857  1  0.782790  0.631450  0.337730  1.0  -0.0126
  C  C858  1  0.835300  0.629140  0.343210  1.0  -0.0736
  C  C859  1  0.766180  0.691580  0.311900  1.0  0.7373
  C  C860  1  0.865870  0.627070  0.341500  1.0  0.7473
  C  C861  1  0.804280  0.571380  0.352740  1.0  0.7624
  C  C862  1  0.926650  0.543330  0.241650  1.0  -0.0303
  C  C863  1  0.946990  0.561910  0.221530  1.0  -0.1258
  C  C864  1  0.575550  0.953020  0.285490  1.0  0.7075
  C  C865  1  0.232700  0.185690  0.710410  1.0  0.0097
  C  C866  1  0.227680  0.179130  0.689720  1.0  -0.1333
  C  C867  1  0.253090  0.152440  0.675430  1.0  0.7002
  C  C868  1  0.439310  0.345880  0.728840  1.0  -0.0309
  C  C869  1  0.433370  0.325360  0.760490  1.0  -0.1046
  C  C870  1  0.402420  0.319540  0.778550  1.0  0.756
  C  C871  1  0.352500  0.216160  0.830100  1.0  -0.0115
  C  C872  1  0.331850  0.196290  0.813230  1.0  -0.0397
  C  C873  1  0.349210  0.244420  0.804620  1.0  -0.0629
  C  C874  1  0.328800  0.224110  0.786710  1.0  -0.1164
  C  C875  1  0.337730  0.248020  0.782790  1.0  -0.0122
  C  C876  1  0.343210  0.192350  0.835300  1.0  -0.0746
  C  C877  1  0.311900  0.230340  0.766180  1.0  0.7388
  C  C878  1  0.341500  0.165550  0.865870  1.0  0.7466
  C  C879  1  0.352740  0.271600  0.804280  1.0  0.7585
  C  C880  1  0.241650  0.288370  0.926650  1.0  -0.0357
  C  C881  1  0.221530  0.269560  0.946990  1.0  -0.1295
  C  C882  1  0.285490  0.185940  0.575550  1.0  0.7071
  C  C883  1  0.185690  0.232700  0.871200  1.0  0.0073
  C  C884  1  0.179130  0.227680  0.903470  1.0  -0.1323
  C  C885  1  0.152440  0.253090  0.919040  1.0  0.6996
  C  C886  1  0.345880  0.439310  0.485970  1.0  -0.0299
  C  C887  1  0.325360  0.433370  0.480780  1.0  -0.1046
  C  C888  1  0.319540  0.402420  0.499490  1.0  0.759
  C  C889  1  0.216160  0.352500  0.601240  1.0  -0.0138
  C  C890  1  0.196290  0.331850  0.658630  1.0  -0.0416
  C  C891  1  0.244420  0.349210  0.601750  1.0  -0.0624
  C  C892  1  0.224110  0.328800  0.660380  1.0  -0.1185
  C  C893  1  0.248020  0.337730  0.631450  1.0  -0.0125
  C  C894  1  0.192350  0.343210  0.629140  1.0  -0.074
  C  C895  1  0.230340  0.311900  0.691580  1.0  0.7342
  C  C896  1  0.165550  0.341500  0.627070  1.0  0.744
  C  C897  1  0.271600  0.352740  0.571380  1.0  0.7556
  C  C898  1  0.288370  0.241650  0.543330  1.0  -0.0345
  C  C899  1  0.269560  0.221530  0.561910  1.0  -0.1303
  C  C900  1  0.185940  0.285490  0.953020  1.0  0.7051
  C  C901  1  0.232700  0.871200  0.185690  1.0  0.0088
  C  C902  1  0.227680  0.903470  0.179130  1.0  -0.1329
  C  C903  1  0.253090  0.919040  0.152440  1.0  0.7012
  C  C904  1  0.439310  0.485970  0.345880  1.0  -0.032
  C  C905  1  0.433370  0.480780  0.325360  1.0  -0.105
  C  C906  1  0.402420  0.499490  0.319540  1.0  0.7568
  C  C907  1  0.352500  0.601240  0.216160  1.0  -0.0121
  C  C908  1  0.331850  0.658630  0.196290  1.0  -0.0406
  C  C909  1  0.349210  0.601750  0.244420  1.0  -0.0626
  C  C910  1  0.328800  0.660380  0.224110  1.0  -0.1185
  C  C911  1  0.337730  0.631450  0.248020  1.0  -0.0119
  C  C912  1  0.343210  0.629140  0.192350  1.0  -0.0717
  C  C913  1  0.311900  0.691580  0.230340  1.0  0.7348
  C  C914  1  0.341500  0.627070  0.165550  1.0  0.747
  C  C915  1  0.352740  0.571380  0.271600  1.0  0.7571
  C  C916  1  0.241650  0.543330  0.288370  1.0  -0.0345
  C  C917  1  0.221530  0.561910  0.269560  1.0  -0.1291
  C  C918  1  0.285490  0.953020  0.185940  1.0  0.7074
  C  C919  1  0.185690  0.710410  0.232700  1.0  0.0097
  C  C920  1  0.179130  0.689720  0.227680  1.0  -0.1317
  C  C921  1  0.152440  0.675430  0.253090  1.0  0.6977
  C  C922  1  0.345880  0.728840  0.439310  1.0  -0.0287
  C  C923  1  0.325360  0.760490  0.433370  1.0  -0.1056
  C  C924  1  0.319540  0.778550  0.402420  1.0  0.7584
  C  C925  1  0.216160  0.830100  0.352500  1.0  -0.0151
  C  C926  1  0.196290  0.813230  0.331850  1.0  -0.0368
  C  C927  1  0.244420  0.804620  0.349210  1.0  -0.0631
  C  C928  1  0.224110  0.786710  0.328800  1.0  -0.119
  C  C929  1  0.248020  0.782790  0.337730  1.0  -0.0144
  C  C930  1  0.192350  0.835300  0.343210  1.0  -0.0736
  C  C931  1  0.230340  0.766180  0.311900  1.0  0.7399
  C  C932  1  0.165550  0.865870  0.341500  1.0  0.7465
  C  C933  1  0.271600  0.804280  0.352740  1.0  0.7589
  C  C934  1  0.288370  0.926650  0.241650  1.0  -0.0339
  C  C935  1  0.269560  0.946990  0.221530  1.0  -0.1293
  C  C936  1  0.185940  0.575550  0.285490  1.0  0.7049
  C  C937  1  0.871200  0.232700  0.710410  1.0  0.0121
  C  C938  1  0.903470  0.227680  0.689720  1.0  -0.1313
  C  C939  1  0.919040  0.253090  0.675430  1.0  0.7001
  C  C940  1  0.485970  0.439310  0.728840  1.0  -0.0295
  C  C941  1  0.480780  0.433370  0.760490  1.0  -0.1059
  C  C942  1  0.499490  0.402420  0.778550  1.0  0.7591
  C  C943  1  0.601240  0.352500  0.830100  1.0  -0.0148
  C  C944  1  0.658630  0.331850  0.813230  1.0  -0.038
  C  C945  1  0.601750  0.349210  0.804620  1.0  -0.0611
  C  C946  1  0.660380  0.328800  0.786710  1.0  -0.1179
  C  C947  1  0.631450  0.337730  0.782790  1.0  -0.013
  C  C948  1  0.629140  0.343210  0.835300  1.0  -0.0755
  C  C949  1  0.691580  0.311900  0.766180  1.0  0.7373
  C  C950  1  0.627070  0.341500  0.865870  1.0  0.7465
  C  C951  1  0.571380  0.352740  0.804280  1.0  0.7601
  C  C952  1  0.543330  0.241650  0.926650  1.0  -0.0285
  C  C953  1  0.561910  0.221530  0.946990  1.0  -0.1254
  C  C954  1  0.953020  0.285490  0.575550  1.0  0.7088
  C  C955  1  0.710410  0.185690  0.871200  1.0  0.0149
  C  C956  1  0.689720  0.179130  0.903470  1.0  -0.1323
  C  C957  1  0.675430  0.152440  0.919040  1.0  0.7017
  C  C958  1  0.728840  0.345880  0.485970  1.0  -0.0264
  C  C959  1  0.760490  0.325360  0.480780  1.0  -0.1061
  C  C960  1  0.778550  0.319540  0.499490  1.0  0.7596
  C  C961  1  0.830100  0.216160  0.601240  1.0  -0.0152
  C  C962  1  0.813230  0.196290  0.658630  1.0  -0.0374
  C  C963  1  0.804620  0.244420  0.601750  1.0  -0.0633
  C  C964  1  0.786710  0.224110  0.660380  1.0  -0.1187
  C  C965  1  0.782790  0.248020  0.631450  1.0  -0.0174
  C  C966  1  0.835300  0.192350  0.629140  1.0  -0.073
  C  C967  1  0.766180  0.230340  0.691580  1.0  0.7383
  C  C968  1  0.865870  0.165550  0.627070  1.0  0.7474
  C  C969  1  0.804280  0.271600  0.571380  1.0  0.7575
  C  C970  1  0.926650  0.288370  0.543330  1.0  -0.0344
  C  C971  1  0.946990  0.269560  0.561910  1.0  -0.1265
  C  C972  1  0.575550  0.185940  0.953020  1.0  0.7063
  C  C973  1  0.710410  0.232700  0.185690  1.0  0.0104
  C  C974  1  0.689720  0.227680  0.179130  1.0  -0.1325
  C  C975  1  0.675430  0.253090  0.152440  1.0  0.7012
  C  C976  1  0.728840  0.439310  0.345880  1.0  -0.0309
  C  C977  1  0.760490  0.433370  0.325360  1.0  -0.1038
  C  C978  1  0.778550  0.402420  0.319540  1.0  0.7595
  C  C979  1  0.830100  0.352500  0.216160  1.0  -0.0153
  C  C980  1  0.813230  0.331850  0.196290  1.0  -0.037
  C  C981  1  0.804620  0.349210  0.244420  1.0  -0.0623
  C  C982  1  0.786710  0.328800  0.224110  1.0  -0.1177
  C  C983  1  0.782790  0.337730  0.248020  1.0  -0.0113
  C  C984  1  0.835300  0.343210  0.192350  1.0  -0.0743
  C  C985  1  0.766180  0.311900  0.230340  1.0  0.7365
  C  C986  1  0.865870  0.341500  0.165550  1.0  0.746
  C  C987  1  0.804280  0.352740  0.271600  1.0  0.757
  C  C988  1  0.926650  0.241650  0.288370  1.0  -0.0347
  C  C989  1  0.946990  0.221530  0.269560  1.0  -0.127
  C  C990  1  0.575550  0.285490  0.185940  1.0  0.7076
  C  C991  1  0.871200  0.185690  0.232700  1.0  0.0075
  C  C992  1  0.903470  0.179130  0.227680  1.0  -0.1336
  C  C993  1  0.919040  0.152440  0.253090  1.0  0.6978
  C  C994  1  0.485970  0.345880  0.439310  1.0  -0.0291
  C  C995  1  0.480780  0.325360  0.433370  1.0  -0.1049
  C  C996  1  0.499490  0.319540  0.402420  1.0  0.7589
  C  C997  1  0.601240  0.216160  0.352500  1.0  -0.0137
  C  C998  1  0.658630  0.196290  0.331850  1.0  -0.0425
  C  C999  1  0.601750  0.244420  0.349210  1.0  -0.0611
  C  C1000  1  0.660380  0.224110  0.328800  1.0  -0.1194
  C  C1001  1  0.631450  0.248020  0.337730  1.0  -0.0136
  C  C1002  1  0.629140  0.192350  0.343210  1.0  -0.0725
  C  C1003  1  0.691580  0.230340  0.311900  1.0  0.7334
  C  C1004  1  0.627070  0.165550  0.341500  1.0  0.7462
  C  C1005  1  0.571380  0.271600  0.352740  1.0  0.7569
  C  C1006  1  0.543330  0.288370  0.241650  1.0  -0.0348
  C  C1007  1  0.561910  0.269560  0.221530  1.0  -0.1288
  C  C1008  1  0.953020  0.185940  0.285490  1.0  0.7079
  C  C1009  1  0.185690  0.871200  0.710410  1.0  0.0122
  C  C1010  1  0.179130  0.903470  0.689720  1.0  -0.1322
  C  C1011  1  0.152440  0.919040  0.675430  1.0  0.6984
  C  C1012  1  0.345880  0.485970  0.728840  1.0  -0.0287
  C  C1013  1  0.325360  0.480780  0.760490  1.0  -0.1059
  C  C1014  1  0.319540  0.499490  0.778550  1.0  0.759
  C  C1015  1  0.216160  0.601240  0.830100  1.0  -0.0148
  C  C1016  1  0.196290  0.658630  0.813230  1.0  -0.0391
  C  C1017  1  0.244420  0.601750  0.804620  1.0  -0.0621
  C  C1018  1  0.224110  0.660380  0.786710  1.0  -0.1192
  C  C1019  1  0.248020  0.631450  0.782790  1.0  -0.0176
  C  C1020  1  0.192350  0.629140  0.835300  1.0  -0.0718
  C  C1021  1  0.230340  0.691580  0.766180  1.0  0.7393
  C  C1022  1  0.165550  0.627070  0.865870  1.0  0.7468
  C  C1023  1  0.271600  0.571380  0.804280  1.0  0.7572
  C  C1024  1  0.288370  0.543330  0.926650  1.0  -0.0331
  C  C1025  1  0.269560  0.561910  0.946990  1.0  -0.1291
  C  C1026  1  0.185940  0.953020  0.575550  1.0  0.7047
  C  C1027  1  0.232700  0.710410  0.871200  1.0  0.0137
  C  C1028  1  0.227680  0.689720  0.903470  1.0  -0.1322
  C  C1029  1  0.253090  0.675430  0.919040  1.0  0.7005
  C  C1030  1  0.439310  0.728840  0.485970  1.0  -0.0286
  C  C1031  1  0.433370  0.760490  0.480780  1.0  -0.1044
  C  C1032  1  0.402420  0.778550  0.499490  1.0  0.7585
  C  C1033  1  0.352500  0.830100  0.601240  1.0  -0.0135
  C  C1034  1  0.331850  0.813230  0.658630  1.0  -0.0397
  C  C1035  1  0.349210  0.804620  0.601750  1.0  -0.0623
  C  C1036  1  0.328800  0.786710  0.660380  1.0  -0.1198
  C  C1037  1  0.337730  0.782790  0.631450  1.0  -0.0164
  C  C1038  1  0.343210  0.835300  0.629140  1.0  -0.0757
  C  C1039  1  0.311900  0.766180  0.691580  1.0  0.7366
  C  C1040  1  0.341500  0.865870  0.627070  1.0  0.7474
  C  C1041  1  0.352740  0.804280  0.571380  1.0  0.762
  C  C1042  1  0.241650  0.926650  0.543330  1.0  -0.0295
  C  C1043  1  0.221530  0.946990  0.561910  1.0  -0.1257
  C  C1044  1  0.285490  0.575550  0.953020  1.0  0.7074
  C  C1045  1  0.871200  0.710410  0.232700  1.0  0.0114
  C  C1046  1  0.903470  0.689720  0.227680  1.0  -0.1325
  C  C1047  1  0.919040  0.675430  0.253090  1.0  0.7015
  C  C1048  1  0.485970  0.728840  0.439310  1.0  -0.0279
  C  C1049  1  0.480780  0.760490  0.433370  1.0  -0.1036
  C  C1050  1  0.499490  0.778550  0.402420  1.0  0.7589
  C  C1051  1  0.601240  0.830100  0.352500  1.0  -0.0164
  C  C1052  1  0.658630  0.813230  0.331850  1.0  -0.0386
  C  C1053  1  0.601750  0.804620  0.349210  1.0  -0.0613
  C  C1054  1  0.660380  0.786710  0.328800  1.0  -0.1177
  C  C1055  1  0.631450  0.782790  0.337730  1.0  -0.0155
  C  C1056  1  0.629140  0.835300  0.343210  1.0  -0.073
  C  C1057  1  0.691580  0.766180  0.311900  1.0  0.7331
  C  C1058  1  0.627070  0.865870  0.341500  1.0  0.7464
  C  C1059  1  0.571380  0.804280  0.352740  1.0  0.761
  C  C1060  1  0.543330  0.926650  0.241650  1.0  -0.0294
  C  C1061  1  0.561910  0.946990  0.221530  1.0  -0.1257
  C  C1062  1  0.953020  0.575550  0.285490  1.0  0.7082
  C  C1063  1  0.710410  0.871200  0.185690  1.0  0.0137
  C  C1064  1  0.689720  0.903470  0.179130  1.0  -0.1319
  C  C1065  1  0.675430  0.919040  0.152440  1.0  0.7013
  C  C1066  1  0.728840  0.485970  0.345880  1.0  -0.0303
  C  C1067  1  0.760490  0.480780  0.325360  1.0  -0.1049
  C  C1068  1  0.778550  0.499490  0.319540  1.0  0.7592
  C  C1069  1  0.830100  0.601240  0.216160  1.0  -0.0161
  C  C1070  1  0.813230  0.658630  0.196290  1.0  -0.0367
  C  C1071  1  0.804620  0.601750  0.244420  1.0  -0.0629
  C  C1072  1  0.786710  0.660380  0.224110  1.0  -0.1167
  C  C1073  1  0.782790  0.631450  0.248020  1.0  -0.0167
  C  C1074  1  0.835300  0.629140  0.192350  1.0  -0.0719
  C  C1075  1  0.766180  0.691580  0.230340  1.0  0.7347
  C  C1076  1  0.865870  0.627070  0.165550  1.0  0.747
  C  C1077  1  0.804280  0.571380  0.271600  1.0  0.7588
  C  C1078  1  0.926650  0.543330  0.288370  1.0  -0.0344
  C  C1079  1  0.946990  0.561910  0.269560  1.0  -0.128
  C  C1080  1  0.575550  0.953020  0.185940  1.0  0.7072
  C  C1081  1  0.232700  0.185690  0.871200  1.0  0.0088
  C  C1082  1  0.227680  0.179130  0.903470  1.0  -0.1331
  C  C1083  1  0.253090  0.152440  0.919040  1.0  0.6999
  C  C1084  1  0.439310  0.345880  0.485970  1.0  -0.0299
  C  C1085  1  0.433370  0.325360  0.480780  1.0  -0.1041
  C  C1086  1  0.402420  0.319540  0.499490  1.0  0.7572
  C  C1087  1  0.352500  0.216160  0.601240  1.0  -0.0116
  C  C1088  1  0.331850  0.196290  0.658630  1.0  -0.0429
  C  C1089  1  0.349210  0.244420  0.601750  1.0  -0.0629
  C  C1090  1  0.328800  0.224110  0.660380  1.0  -0.1191
  C  C1091  1  0.337730  0.248020  0.631450  1.0  -0.0127
  C  C1092  1  0.343210  0.192350  0.629140  1.0  -0.0753
  C  C1093  1  0.311900  0.230340  0.691580  1.0  0.7354
  C  C1094  1  0.341500  0.165550  0.627070  1.0  0.7477
  C  C1095  1  0.352740  0.271600  0.571380  1.0  0.7581
  C  C1096  1  0.241650  0.288370  0.543330  1.0  -0.0353
  C  C1097  1  0.221530  0.269560  0.561910  1.0  -0.1307
  C  C1098  1  0.285490  0.185940  0.953020  1.0  0.7064
  C  C1099  1  0.185690  0.232700  0.710410  1.0  0.0083
  C  C1100  1  0.179130  0.227680  0.689720  1.0  -0.1324
  C  C1101  1  0.152440  0.253090  0.675430  1.0  0.6999
  C  C1102  1  0.345880  0.439310  0.728840  1.0  -0.0311
  C  C1103  1  0.325360  0.433370  0.760490  1.0  -0.1055
  C  C1104  1  0.319540  0.402420  0.778550  1.0  0.7582
  C  C1105  1  0.216160  0.352500  0.830100  1.0  -0.0144
  C  C1106  1  0.196290  0.331850  0.813230  1.0  -0.0376
  C  C1107  1  0.244420  0.349210  0.804620  1.0  -0.0625
  C  C1108  1  0.224110  0.328800  0.786710  1.0  -0.1176
  C  C1109  1  0.248020  0.337730  0.782790  1.0  -0.0119
  C  C1110  1  0.192350  0.343210  0.835300  1.0  -0.0742
  C  C1111  1  0.230340  0.311900  0.766180  1.0  0.7342
  C  C1112  1  0.165550  0.341500  0.865870  1.0  0.7433
  C  C1113  1  0.271600  0.352740  0.804280  1.0  0.756
  C  C1114  1  0.288370  0.241650  0.926650  1.0  -0.0347
  C  C1115  1  0.269560  0.221530  0.946990  1.0  -0.1292
  C  C1116  1  0.185940  0.285490  0.575550  1.0  0.7057
  C  C1117  1  0.232700  0.871200  0.710410  1.0  0.0118
  C  C1118  1  0.227680  0.903470  0.689720  1.0  -0.1324
  C  C1119  1  0.253090  0.919040  0.675430  1.0  0.7017
  C  C1120  1  0.439310  0.485970  0.728840  1.0  -0.0311
  C  C1121  1  0.433370  0.480780  0.760490  1.0  -0.1059
  C  C1122  1  0.402420  0.499490  0.778550  1.0  0.7574
  C  C1123  1  0.352500  0.601240  0.830100  1.0  -0.012
  C  C1124  1  0.331850  0.658630  0.813230  1.0  -0.0391
  C  C1125  1  0.349210  0.601750  0.804620  1.0  -0.0607
  C  C1126  1  0.328800  0.660380  0.786710  1.0  -0.116
  C  C1127  1  0.337730  0.631450  0.782790  1.0  -0.0122
  C  C1128  1  0.343210  0.629140  0.835300  1.0  -0.074
  C  C1129  1  0.311900  0.691580  0.766180  1.0  0.7344
  C  C1130  1  0.341500  0.627070  0.865870  1.0  0.7477
  C  C1131  1  0.352740  0.571380  0.804280  1.0  0.7613
  C  C1132  1  0.241650  0.543330  0.926650  1.0  -0.0305
  C  C1133  1  0.221530  0.561910  0.946990  1.0  -0.1262
  C  C1134  1  0.285490  0.953020  0.575550  1.0  0.7075
  C  C1135  1  0.185690  0.710410  0.871200  1.0  0.0132
  C  C1136  1  0.179130  0.689720  0.903470  1.0  -0.1314
  C  C1137  1  0.152440  0.675430  0.919040  1.0  0.6981
  C  C1138  1  0.345880  0.728840  0.485970  1.0  -0.0257
  C  C1139  1  0.325360  0.760490  0.480780  1.0  -0.1049
  C  C1140  1  0.319540  0.778550  0.499490  1.0  0.7592
  C  C1141  1  0.216160  0.830100  0.601240  1.0  -0.0155
  C  C1142  1  0.196290  0.813230  0.658630  1.0  -0.036
  C  C1143  1  0.244420  0.804620  0.601750  1.0  -0.0639
  C  C1144  1  0.224110  0.786710  0.660380  1.0  -0.1183
  C  C1145  1  0.248020  0.782790  0.631450  1.0  -0.019
  C  C1146  1  0.192350  0.835300  0.629140  1.0  -0.073
  C  C1147  1  0.230340  0.766180  0.691580  1.0  0.7354
  C  C1148  1  0.165550  0.865870  0.627070  1.0  0.7467
  C  C1149  1  0.271600  0.804280  0.571380  1.0  0.7572
  C  C1150  1  0.288370  0.926650  0.543330  1.0  -0.0321
  C  C1151  1  0.269560  0.946990  0.561910  1.0  -0.1285
  C  C1152  1  0.185940  0.575550  0.953020  1.0  0.7048
  C  C1153  1  0.871200  0.232700  0.185690  1.0  0.0091
  C  C1154  1  0.903470  0.227680  0.179130  1.0  -0.1321
  C  C1155  1  0.919040  0.253090  0.152440  1.0  0.6997
  C  C1156  1  0.485970  0.439310  0.345880  1.0  -0.0299
  C  C1157  1  0.480780  0.433370  0.325360  1.0  -0.1049
  C  C1158  1  0.499490  0.402420  0.319540  1.0  0.7593
  C  C1159  1  0.601240  0.352500  0.216160  1.0  -0.0144
  C  C1160  1  0.658630  0.331850  0.196290  1.0  -0.0395
  C  C1161  1  0.601750  0.349210  0.244420  1.0  -0.0626
  C  C1162  1  0.660380  0.328800  0.224110  1.0  -0.1191
  C  C1163  1  0.631450  0.337730  0.248020  1.0  -0.0125
  C  C1164  1  0.629140  0.343210  0.192350  1.0  -0.0743
  C  C1165  1  0.691580  0.311900  0.230340  1.0  0.7337
  C  C1166  1  0.627070  0.341500  0.165550  1.0  0.746
  C  C1167  1  0.571380  0.352740  0.271600  1.0  0.7556
  C  C1168  1  0.543330  0.241650  0.288370  1.0  -0.0325
  C  C1169  1  0.561910  0.221530  0.269560  1.0  -0.1289
  C  C1170  1  0.953020  0.285490  0.185940  1.0  0.7085
  C  C1171  1  0.710410  0.185690  0.232700  1.0  0.0119
  C  C1172  1  0.689720  0.179130  0.227680  1.0  -0.1322
  C  C1173  1  0.675430  0.152440  0.253090  1.0  0.702
  C  C1174  1  0.728840  0.345880  0.439310  1.0  -0.0295
  C  C1175  1  0.760490  0.325360  0.433370  1.0  -0.1058
  C  C1176  1  0.778550  0.319540  0.402420  1.0  0.7581
  C  C1177  1  0.830100  0.216160  0.352500  1.0  -0.0141
  C  C1178  1  0.813230  0.196290  0.331850  1.0  -0.039
  C  C1179  1  0.804620  0.244420  0.349210  1.0  -0.0621
  C  C1180  1  0.786710  0.224110  0.328800  1.0  -0.1189
  C  C1181  1  0.782790  0.248020  0.337730  1.0  -0.0127
  C  C1182  1  0.835300  0.192350  0.343210  1.0  -0.0745
  C  C1183  1  0.766180  0.230340  0.311900  1.0  0.7352
  C  C1184  1  0.865870  0.165550  0.341500  1.0  0.7477
  C  C1185  1  0.804280  0.271600  0.352740  1.0  0.7591
  C  C1186  1  0.926650  0.288370  0.241650  1.0  -0.0352
  C  C1187  1  0.946990  0.269560  0.221530  1.0  -0.1275
  C  C1188  1  0.575550  0.185940  0.285490  1.0  0.7067
  C  C1189  1  0.710410  0.232700  0.871200  1.0  0.0135
  C  C1190  1  0.689720  0.227680  0.903470  1.0  -0.1329
  C  C1191  1  0.675430  0.253090  0.919040  1.0  0.7011
  C  C1192  1  0.728840  0.439310  0.485970  1.0  -0.0296
  C  C1193  1  0.760490  0.433370  0.480780  1.0  -0.1051
  C  C1194  1  0.778550  0.402420  0.499490  1.0  0.7597
  C  C1195  1  0.830100  0.352500  0.601240  1.0  -0.015
  C  C1196  1  0.813230  0.331850  0.658630  1.0  -0.0402
  C  C1197  1  0.804620  0.349210  0.601750  1.0  -0.0613
  C  C1198  1  0.786710  0.328800  0.660380  1.0  -0.1187
  C  C1199  1  0.782790  0.337730  0.631450  1.0  -0.0121
  C  C1200  1  0.835300  0.343210  0.629140  1.0  -0.076
  C  C1201  1  0.766180  0.311900  0.691580  1.0  0.7327
  C  C1202  1  0.865870  0.341500  0.627070  1.0  0.7463
  C  C1203  1  0.804280  0.352740  0.571380  1.0  0.7601
  C  C1204  1  0.926650  0.241650  0.543330  1.0  -0.0292
  C  C1205  1  0.946990  0.221530  0.561910  1.0  -0.1242
  C  C1206  1  0.575550  0.285490  0.953020  1.0  0.7088
  C  C1207  1  0.871200  0.185690  0.710410  1.0  0.0124
  C  C1208  1  0.903470  0.179130  0.689720  1.0  -0.1331
  C  C1209  1  0.919040  0.152440  0.675430  1.0  0.6983
  C  C1210  1  0.485970  0.345880  0.728840  1.0  -0.0259
  C  C1211  1  0.480780  0.325360  0.760490  1.0  -0.1063
  C  C1212  1  0.499490  0.319540  0.778550  1.0  0.7599
  C  C1213  1  0.601240  0.216160  0.830100  1.0  -0.0134
  C  C1214  1  0.658630  0.196290  0.813230  1.0  -0.0391
  C  C1215  1  0.601750  0.244420  0.804620  1.0  -0.0616
  C  C1216  1  0.660380  0.224110  0.786710  1.0  -0.1177
  C  C1217  1  0.631450  0.248020  0.782790  1.0  -0.0189
  C  C1218  1  0.629140  0.192350  0.835300  1.0  -0.0713
  C  C1219  1  0.691580  0.230340  0.766180  1.0  0.7339
  C  C1220  1  0.627070  0.165550  0.865870  1.0  0.7475
  C  C1221  1  0.571380  0.271600  0.804280  1.0  0.7566
  C  C1222  1  0.543330  0.288370  0.926650  1.0  -0.0344
  C  C1223  1  0.561910  0.269560  0.946990  1.0  -0.1286
  C  C1224  1  0.953020  0.185940  0.575550  1.0  0.7076
  C  C1225  1  0.185690  0.871200  0.232700  1.0  0.0083
  C  C1226  1  0.179130  0.903470  0.227680  1.0  -0.1323
  C  C1227  1  0.152440  0.919040  0.253090  1.0  0.6983
  C  C1228  1  0.345880  0.485970  0.439310  1.0  -0.0315
  C  C1229  1  0.325360  0.480780  0.433370  1.0  -0.1049
  C  C1230  1  0.319540  0.499490  0.402420  1.0  0.7593
  C  C1231  1  0.216160  0.601240  0.352500  1.0  -0.0149
  C  C1232  1  0.196290  0.658630  0.331850  1.0  -0.0425
  C  C1233  1  0.244420  0.601750  0.349210  1.0  -0.062
  C  C1234  1  0.224110  0.660380  0.328800  1.0  -0.1197
  C  C1235  1  0.248020  0.631450  0.337730  1.0  -0.0127
  C  C1236  1  0.192350  0.629140  0.343210  1.0  -0.0731
  C  C1237  1  0.230340  0.691580  0.311900  1.0  0.7351
  C  C1238  1  0.165550  0.627070  0.341500  1.0  0.7458
  C  C1239  1  0.271600  0.571380  0.352740  1.0  0.7573
  C  C1240  1  0.288370  0.543330  0.241650  1.0  -0.0343
  C  C1241  1  0.269560  0.561910  0.221530  1.0  -0.1295
  C  C1242  1  0.185940  0.953020  0.285490  1.0  0.7056
  C  C1243  1  0.232700  0.710410  0.185690  1.0  0.0095
  C  C1244  1  0.227680  0.689720  0.179130  1.0  -0.132
  C  C1245  1  0.253090  0.675430  0.152440  1.0  0.7004
  C  C1246  1  0.439310  0.728840  0.345880  1.0  -0.0302
  C  C1247  1  0.433370  0.760490  0.325360  1.0  -0.1035
  C  C1248  1  0.402420  0.778550  0.319540  1.0  0.7577
  C  C1249  1  0.352500  0.830100  0.216160  1.0  -0.0134
  C  C1250  1  0.331850  0.813230  0.196290  1.0  -0.0367
  C  C1251  1  0.349210  0.804620  0.244420  1.0  -0.0633
  C  C1252  1  0.328800  0.786710  0.224110  1.0  -0.1186
  C  C1253  1  0.337730  0.782790  0.248020  1.0  -0.0146
  C  C1254  1  0.343210  0.835300  0.192350  1.0  -0.0746
  C  C1255  1  0.311900  0.766180  0.230340  1.0  0.7327
  C  C1256  1  0.341500  0.865870  0.165550  1.0  0.7468
  C  C1257  1  0.352740  0.804280  0.271600  1.0  0.7588
  C  C1258  1  0.241650  0.926650  0.288370  1.0  -0.0344
  C  C1259  1  0.221530  0.946990  0.269560  1.0  -0.1282
  C  C1260  1  0.285490  0.575550  0.185940  1.0  0.7066
  C  C1261  1  0.378800  0.539590  0.064310  1.0  0.0126
  C  C1262  1  0.346530  0.560280  0.070870  1.0  -0.1327
  C  C1263  1  0.330960  0.574570  0.097560  1.0  0.6999
  C  C1264  1  0.764030  0.521160  0.904120  1.0  -0.0307
  C  C1265  1  0.769220  0.489510  0.924640  1.0  -0.1051
  C  C1266  1  0.750510  0.471450  0.930460  1.0  0.7589
  C  C1267  1  0.648760  0.419900  0.033840  1.0  -0.0161
  C  C1268  1  0.591370  0.436770  0.053710  1.0  -0.0367
  C  C1269  1  0.648250  0.445380  0.005580  1.0  -0.0609
  C  C1270  1  0.589620  0.463290  0.025890  1.0  -0.1158
  C  C1271  1  0.618550  0.467210  0.001980  1.0  -0.0239
  C  C1272  1  0.620860  0.414700  0.057650  1.0  -0.0699
  C  C1273  1  0.558420  0.483820  0.019660  1.0  0.7353
  C  C1274  1  0.622930  0.384130  0.084450  1.0  0.7466
  C  C1275  1  0.678620  0.445720  0.978400  1.0  0.7572
  C  C1276  1  0.706670  0.323350  0.961630  1.0  -0.0331
  C  C1277  1  0.688090  0.303010  0.980440  1.0  -0.1284
  C  C1278  1  0.296980  0.674450  0.064060  1.0  0.7072
  C  C1279  1  0.539590  0.378800  0.017300  1.0  0.0123
  C  C1280  1  0.560280  0.346530  0.022320  1.0  -0.1337
  C  C1281  1  0.574570  0.330960  0.996910  1.0  0.7014
  C  C1282  1  0.521160  0.764030  0.810690  1.0  -0.0323
  C  C1283  1  0.489510  0.769220  0.816630  1.0  -0.1055
  C  C1284  1  0.471450  0.750510  0.847580  1.0  0.7592
  C  C1285  1  0.419900  0.648760  0.897500  1.0  -0.016
  C  C1286  1  0.436770  0.591370  0.918150  1.0  -0.0408
  C  C1287  1  0.445380  0.648250  0.900790  1.0  -0.0612
  C  C1288  1  0.463290  0.589620  0.921200  1.0  -0.1167
  C  C1289  1  0.467210  0.618550  0.912270  1.0  -0.0131
  C  C1290  1  0.414700  0.620860  0.906790  1.0  -0.074
  C  C1291  1  0.483820  0.558420  0.938100  1.0  0.7347
  C  C1292  1  0.384130  0.622930  0.908500  1.0  0.7465
  C  C1293  1  0.445720  0.678620  0.897260  1.0  0.7635
  C  C1294  1  0.323350  0.706670  0.008350  1.0  -0.029
  C  C1295  1  0.303010  0.688090  0.028470  1.0  -0.1259
  C  C1296  1  0.674450  0.296980  0.964510  1.0  0.7081
  C  C1297  1  0.017300  0.064310  0.539590  1.0  0.0087
  C  C1298  1  0.022320  0.070870  0.560280  1.0  -0.1326
  C  C1299  1  0.996910  0.097560  0.574570  1.0  0.7005
  C  C1300  1  0.810690  0.904120  0.521160  1.0  -0.0296
  C  C1301  1  0.816630  0.924640  0.489510  1.0  -0.1037
  C  C1302  1  0.847580  0.930460  0.471450  1.0  0.7576
  C  C1303  1  0.897500  0.033840  0.419900  1.0  -0.0113
  C  C1304  1  0.918150  0.053710  0.436770  1.0  -0.0392
  C  C1305  1  0.900790  0.005580  0.445380  1.0  -0.0638
  C  C1306  1  0.921200  0.025890  0.463290  1.0  -0.1179
  C  C1307  1  0.912270  0.001980  0.467210  1.0  -0.0141
  C  C1308  1  0.906790  0.057650  0.414700  1.0  -0.075
  C  C1309  1  0.938100  0.019660  0.483820  1.0  0.7356
  C  C1310  1  0.908500  0.084450  0.384130  1.0  0.7475
  C  C1311  1  0.897260  0.978400  0.445720  1.0  0.76
  C  C1312  1  0.008350  0.961630  0.323350  1.0  -0.0364
  C  C1313  1  0.028470  0.980440  0.303010  1.0  -0.1305
  C  C1314  1  0.964510  0.064060  0.674450  1.0  0.7067
  C  C1315  1  0.064310  0.017300  0.378800  1.0  0.0105
  C  C1316  1  0.070870  0.022320  0.346530  1.0  -0.1315
  C  C1317  1  0.097560  0.996910  0.330960  1.0  0.7017
  C  C1318  1  0.904120  0.810690  0.764030  1.0  -0.0306
  C  C1319  1  0.924640  0.816630  0.769220  1.0  -0.103
  C  C1320  1  0.930460  0.847580  0.750510  1.0  0.7589
  C  C1321  1  0.033840  0.897500  0.648760  1.0  -0.0145
  C  C1322  1  0.053710  0.918150  0.591370  1.0  -0.0403
  C  C1323  1  0.005580  0.900790  0.648250  1.0  -0.0631
  C  C1324  1  0.025890  0.921200  0.589620  1.0  -0.1189
  C  C1325  1  0.001980  0.912270  0.618550  1.0  -0.016
  C  C1326  1  0.057650  0.906790  0.620860  1.0  -0.0746
  C  C1327  1  0.019660  0.938100  0.558420  1.0  0.7336
  C  C1328  1  0.084450  0.908500  0.622930  1.0  0.7455
  C  C1329  1  0.978400  0.897260  0.678620  1.0  0.7554
  C  C1330  1  0.961630  0.008350  0.706670  1.0  -0.0348
  C  C1331  1  0.980440  0.028470  0.688090  1.0  -0.1288
  C  C1332  1  0.064060  0.964510  0.296980  1.0  0.7063
  C  C1333  1  0.017300  0.378800  0.064310  1.0  0.0085
  C  C1334  1  0.022320  0.346530  0.070870  1.0  -0.1315
  C  C1335  1  0.996910  0.330960  0.097560  1.0  0.7006
  C  C1336  1  0.810690  0.764030  0.904120  1.0  -0.0323
  C  C1337  1  0.816630  0.769220  0.924640  1.0  -0.1057
  C  C1338  1  0.847580  0.750510  0.930460  1.0  0.7585
  C  C1339  1  0.897500  0.648760  0.033840  1.0  -0.0124
  C  C1340  1  0.918150  0.591370  0.053710  1.0  -0.0417
  C  C1341  1  0.900790  0.648250  0.005580  1.0  -0.0628
  C  C1342  1  0.921200  0.589620  0.025890  1.0  -0.1196
  C  C1343  1  0.912270  0.618550  0.001980  1.0  -0.0145
  C  C1344  1  0.906790  0.620860  0.057650  1.0  -0.0743
  C  C1345  1  0.938100  0.558420  0.019660  1.0  0.7354
  C  C1346  1  0.908500  0.622930  0.084450  1.0  0.7467
  C  C1347  1  0.897260  0.678620  0.978400  1.0  0.7575
  C  C1348  1  0.008350  0.706670  0.961630  1.0  -0.0333
  C  C1349  1  0.028470  0.688090  0.980440  1.0  -0.127
  C  C1350  1  0.964510  0.296980  0.064060  1.0  0.7064
  C  C1351  1  0.064310  0.539590  0.017300  1.0  0.0099
  C  C1352  1  0.070870  0.560280  0.022320  1.0  -0.1325
  C  C1353  1  0.097560  0.574570  0.996910  1.0  0.699
  C  C1354  1  0.904120  0.521160  0.810690  1.0  -0.0298
  C  C1355  1  0.924640  0.489510  0.816630  1.0  -0.103
  C  C1356  1  0.930460  0.471450  0.847580  1.0  0.7586
  C  C1357  1  0.033840  0.419900  0.897500  1.0  -0.0155
  C  C1358  1  0.053710  0.436770  0.918150  1.0  -0.0354
  C  C1359  1  0.005580  0.445380  0.900790  1.0  -0.062
  C  C1360  1  0.025890  0.463290  0.921200  1.0  -0.1183
  C  C1361  1  0.001980  0.467210  0.912270  1.0  -0.0162
  C  C1362  1  0.057650  0.414700  0.906790  1.0  -0.0742
  C  C1363  1  0.019660  0.483820  0.938100  1.0  0.737
  C  C1364  1  0.084450  0.384130  0.908500  1.0  0.7463
  C  C1365  1  0.978400  0.445720  0.897260  1.0  0.7582
  C  C1366  1  0.961630  0.323350  0.008350  1.0  -0.0345
  C  C1367  1  0.980440  0.303010  0.028470  1.0  -0.1295
  C  C1368  1  0.064060  0.674450  0.964510  1.0  0.7068
  C  C1369  1  0.378800  0.017300  0.539590  1.0  0.0123
  C  C1370  1  0.346530  0.022320  0.560280  1.0  -0.1329
  C  C1371  1  0.330960  0.996910  0.574570  1.0  0.7003
  C  C1372  1  0.764030  0.810690  0.521160  1.0  -0.029
  C  C1373  1  0.769220  0.816630  0.489510  1.0  -0.1076
  C  C1374  1  0.750510  0.847580  0.471450  1.0  0.7575
  C  C1375  1  0.648760  0.897500  0.419900  1.0  -0.0155
  C  C1376  1  0.591370  0.918150  0.436770  1.0  -0.039
  C  C1377  1  0.648250  0.900790  0.445380  1.0  -0.062
  C  C1378  1  0.589620  0.921200  0.463290  1.0  -0.1183
  C  C1379  1  0.618550  0.912270  0.467210  1.0  -0.0135
  C  C1380  1  0.620860  0.906790  0.414700  1.0  -0.0756
  C  C1381  1  0.558420  0.938100  0.483820  1.0  0.7329
  C  C1382  1  0.622930  0.908500  0.384130  1.0  0.7463
  C  C1383  1  0.678620  0.897260  0.445720  1.0  0.7601
  C  C1384  1  0.706670  0.008350  0.323350  1.0  -0.0291
  C  C1385  1  0.688090  0.028470  0.303010  1.0  -0.1241
  C  C1386  1  0.296980  0.964510  0.674450  1.0  0.7081
  C  C1387  1  0.539590  0.064310  0.378800  1.0  0.0137
  C  C1388  1  0.560280  0.070870  0.346530  1.0  -0.1325
  C  C1389  1  0.574570  0.097560  0.330960  1.0  0.701
  C  C1390  1  0.521160  0.904120  0.764030  1.0  -0.0297
  C  C1391  1  0.489510  0.924640  0.769220  1.0  -0.1054
  C  C1392  1  0.471450  0.930460  0.750510  1.0  0.7613
  C  C1393  1  0.419900  0.033840  0.648760  1.0  -0.0145
  C  C1394  1  0.436770  0.053710  0.591370  1.0  -0.0369
  C  C1395  1  0.445380  0.005580  0.648250  1.0  -0.0616
  C  C1396  1  0.463290  0.025890  0.589620  1.0  -0.1159
  C  C1397  1  0.467210  0.001980  0.618550  1.0  -0.0233
  C  C1398  1  0.414700  0.057650  0.620860  1.0  -0.0712
  C  C1399  1  0.483820  0.019660  0.558420  1.0  0.7367
  C  C1400  1  0.384130  0.084450  0.622930  1.0  0.7488
  C  C1401  1  0.445720  0.978400  0.678620  1.0  0.7592
  C  C1402  1  0.323350  0.961630  0.706670  1.0  -0.0353
  C  C1403  1  0.303010  0.980440  0.688090  1.0  -0.1295
  C  C1404  1  0.674450  0.064060  0.296980  1.0  0.7077
  C  C1405  1  0.539590  0.017300  0.064310  1.0  0.0095
  C  C1406  1  0.560280  0.022320  0.070870  1.0  -0.1327
  C  C1407  1  0.574570  0.996910  0.097560  1.0  0.7013
  C  C1408  1  0.521160  0.810690  0.904120  1.0  -0.0299
  C  C1409  1  0.489510  0.816630  0.924640  1.0  -0.1033
  C  C1410  1  0.471450  0.847580  0.930460  1.0  0.7586
  C  C1411  1  0.419900  0.897500  0.033840  1.0  -0.0149
  C  C1412  1  0.436770  0.918150  0.053710  1.0  -0.0371
  C  C1413  1  0.445380  0.900790  0.005580  1.0  -0.0641
  C  C1414  1  0.463290  0.921200  0.025890  1.0  -0.1201
  C  C1415  1  0.467210  0.912270  0.001980  1.0  -0.0143
  C  C1416  1  0.414700  0.906790  0.057650  1.0  -0.075
  C  C1417  1  0.483820  0.938100  0.019660  1.0  0.7326
  C  C1418  1  0.384130  0.908500  0.084450  1.0  0.7444
  C  C1419  1  0.445720  0.897260  0.978400  1.0  0.7571
  C  C1420  1  0.323350  0.008350  0.961630  1.0  -0.0347
  C  C1421  1  0.303010  0.028470  0.980440  1.0  -0.1294
  C  C1422  1  0.674450  0.964510  0.064060  1.0  0.7112
  C  C1423  1  0.378800  0.064310  0.017300  1.0  0.0103
  C  C1424  1  0.346530  0.070870  0.022320  1.0  -0.1331
  C  C1425  1  0.330960  0.097560  0.996910  1.0  0.6984
  C  C1426  1  0.764030  0.904120  0.810690  1.0  -0.0284
  C  C1427  1  0.769220  0.924640  0.816630  1.0  -0.1053
  C  C1428  1  0.750510  0.930460  0.847580  1.0  0.7584
  C  C1429  1  0.648760  0.033840  0.897500  1.0  -0.0128
  C  C1430  1  0.591370  0.053710  0.918150  1.0  -0.0433
  C  C1431  1  0.648250  0.005580  0.900790  1.0  -0.0623
  C  C1432  1  0.589620  0.025890  0.921200  1.0  -0.1201
  C  C1433  1  0.618550  0.001980  0.912270  1.0  -0.0171
  C  C1434  1  0.620860  0.057650  0.906790  1.0  -0.0724
  C  C1435  1  0.558420  0.019660  0.938100  1.0  0.7342
  C  C1436  1  0.622930  0.084450  0.908500  1.0  0.7472
  C  C1437  1  0.678620  0.978400  0.897260  1.0  0.7577
  C  C1438  1  0.706670  0.961630  0.008350  1.0  -0.0342
  C  C1439  1  0.688090  0.980440  0.028470  1.0  -0.1278
  C  C1440  1  0.296980  0.064060  0.964510  1.0  0.7067
  C  C1441  1  0.064310  0.378800  0.539590  1.0  0.0139
  C  C1442  1  0.070870  0.346530  0.560280  1.0  -0.133
  C  C1443  1  0.097560  0.330960  0.574570  1.0  0.6986
  C  C1444  1  0.904120  0.764030  0.521160  1.0  -0.0357
  C  C1445  1  0.924640  0.769220  0.489510  1.0  -0.1061
  C  C1446  1  0.930460  0.750510  0.471450  1.0  0.7611
  C  C1447  1  0.033840  0.648760  0.419900  1.0  -0.0135
  C  C1448  1  0.053710  0.591370  0.436770  1.0  -0.0378
  C  C1449  1  0.005580  0.648250  0.445380  1.0  -0.0606
  C  C1450  1  0.025890  0.589620  0.463290  1.0  -0.1164
  C  C1451  1  0.001980  0.618550  0.467210  1.0  -0.0234
  C  C1452  1  0.057650  0.620860  0.414700  1.0  -0.0711
  C  C1453  1  0.019660  0.558420  0.483820  1.0  0.7356
  C  C1454  1  0.084450  0.622930  0.384130  1.0  0.7453
  C  C1455  1  0.978400  0.678620  0.445720  1.0  0.7584
  C  C1456  1  0.961630  0.706670  0.323350  1.0  -0.0323
  C  C1457  1  0.980440  0.688090  0.303010  1.0  -0.1281
  C  C1458  1  0.064060  0.296980  0.674450  1.0  0.7058
  C  C1459  1  0.017300  0.539590  0.378800  1.0  0.0115
  C  C1460  1  0.022320  0.560280  0.346530  1.0  -0.1318
  C  C1461  1  0.996910  0.574570  0.330960  1.0  0.6997
  C  C1462  1  0.810690  0.521160  0.764030  1.0  -0.0288
  C  C1463  1  0.816630  0.489510  0.769220  1.0  -0.1045
  C  C1464  1  0.847580  0.471450  0.750510  1.0  0.7586
  C  C1465  1  0.897500  0.419900  0.648760  1.0  -0.0138
  C  C1466  1  0.918150  0.436770  0.591370  1.0  -0.0396
  C  C1467  1  0.900790  0.445380  0.648250  1.0  -0.0613
  C  C1468  1  0.921200  0.463290  0.589620  1.0  -0.1181
  C  C1469  1  0.912270  0.467210  0.618550  1.0  -0.0145
  C  C1470  1  0.906790  0.414700  0.620860  1.0  -0.0763
  C  C1471  1  0.938100  0.483820  0.558420  1.0  0.7357
  C  C1472  1  0.908500  0.384130  0.622930  1.0  0.7477
  C  C1473  1  0.897260  0.445720  0.678620  1.0  0.762
  C  C1474  1  0.008350  0.323350  0.706670  1.0  -0.0293
  C  C1475  1  0.028470  0.303010  0.688090  1.0  -0.1277
  C  C1476  1  0.964510  0.674450  0.296980  1.0  0.7065
  C  C1477  1  0.839810  0.384150  0.888020  1.0  -0.1308
  C  C1478  1  0.804250  0.389230  0.903260  1.0  0.7102
  C  C1479  1  0.679050  0.293100  0.013920  1.0  -0.0156
  C  C1480  1  0.715810  0.334310  0.974940  1.0  -0.1124
  C  C1481  1  0.730810  0.360430  0.954380  1.0  0.7182
  C  C1482  1  0.384150  0.839810  0.888020  1.0  -0.1291
  C  C1483  1  0.389230  0.804250  0.903260  1.0  0.7154
  C  C1484  1  0.293100  0.679050  0.013920  1.0  -0.014
  C  C1485  1  0.334310  0.715810  0.974940  1.0  -0.1132
  C  C1486  1  0.360430  0.730810  0.954380  1.0  0.7182
  C  C1487  1  0.888020  0.888020  0.839810  1.0  -0.1304
  C  C1488  1  0.903260  0.903260  0.804250  1.0  0.7142
  C  C1489  1  0.013920  0.013920  0.679050  1.0  -0.0194
  C  C1490  1  0.974940  0.974940  0.715810  1.0  -0.1132
  C  C1491  1  0.954380  0.954380  0.730810  1.0  0.7136
  C  C1492  1  0.888020  0.888020  0.384150  1.0  -0.1332
  C  C1493  1  0.903260  0.903260  0.389230  1.0  0.7145
  C  C1494  1  0.013920  0.013920  0.293100  1.0  -0.0166
  C  C1495  1  0.974940  0.974940  0.334310  1.0  -0.1144
  C  C1496  1  0.954380  0.954380  0.360430  1.0  0.7153
  C  C1497  1  0.888020  0.839810  0.384150  1.0  -0.1302
  C  C1498  1  0.903260  0.804250  0.389230  1.0  0.7167
  C  C1499  1  0.013920  0.679050  0.293100  1.0  -0.0134
  C  C1500  1  0.974940  0.715810  0.334310  1.0  -0.1114
  C  C1501  1  0.954380  0.730810  0.360430  1.0  0.7194
  C  C1502  1  0.888020  0.384150  0.839810  1.0  -0.1302
  C  C1503  1  0.903260  0.389230  0.804250  1.0  0.7122
  C  C1504  1  0.013920  0.293100  0.679050  1.0  -0.0153
  C  C1505  1  0.974940  0.334310  0.715810  1.0  -0.1147
  C  C1506  1  0.954380  0.360430  0.730810  1.0  0.7182
  C  C1507  1  0.839810  0.888020  0.888020  1.0  -0.1308
  C  C1508  1  0.804250  0.903260  0.903260  1.0  0.7143
  C  C1509  1  0.679050  0.013920  0.013920  1.0  -0.0189
  C  C1510  1  0.715810  0.974940  0.974940  1.0  -0.1105
  C  C1511  1  0.730810  0.954380  0.954380  1.0  0.72
  C  C1512  1  0.384150  0.888020  0.888020  1.0  -0.1337
  C  C1513  1  0.389230  0.903260  0.903260  1.0  0.7164
  C  C1514  1  0.293100  0.013920  0.013920  1.0  -0.0167
  C  C1515  1  0.334310  0.974940  0.974940  1.0  -0.1153
  C  C1516  1  0.360430  0.954380  0.954380  1.0  0.7192
  C  C1517  1  0.384150  0.888020  0.839810  1.0  -0.1296
  C  C1518  1  0.389230  0.903260  0.804250  1.0  0.7162
  C  C1519  1  0.293100  0.013920  0.679050  1.0  -0.0135
  C  C1520  1  0.334310  0.974940  0.715810  1.0  -0.1139
  C  C1521  1  0.360430  0.954380  0.730810  1.0  0.7194
  C  C1522  1  0.839810  0.888020  0.384150  1.0  -0.1293
  C  C1523  1  0.804250  0.903260  0.389230  1.0  0.7142
  C  C1524  1  0.679050  0.013920  0.293100  1.0  -0.0127
  C  C1525  1  0.715810  0.974940  0.334310  1.0  -0.1105
  C  C1526  1  0.730810  0.954380  0.360430  1.0  0.7206
  C  C1527  1  0.888020  0.839810  0.888020  1.0  -0.1315
  C  C1528  1  0.903260  0.804250  0.903260  1.0  0.7163
  C  C1529  1  0.013920  0.679050  0.013920  1.0  -0.0192
  C  C1530  1  0.974940  0.715810  0.974940  1.0  -0.1112
  C  C1531  1  0.954380  0.730810  0.954380  1.0  0.7192
  C  C1532  1  0.888020  0.384150  0.888020  1.0  -0.134
  C  C1533  1  0.903260  0.389230  0.903260  1.0  0.7127
  C  C1534  1  0.013920  0.293100  0.013920  1.0  -0.0171
  C  C1535  1  0.974940  0.334310  0.974940  1.0  -0.1157
  C  C1536  1  0.954380  0.360430  0.954380  1.0  0.718
  C  C1537  1  0.410190  0.865850  0.361980  1.0  -0.1292
  C  C1538  1  0.445750  0.860770  0.346740  1.0  0.7116
  C  C1539  1  0.570950  0.956900  0.236080  1.0  -0.017
  C  C1540  1  0.534190  0.915690  0.275060  1.0  -0.1121
  C  C1541  1  0.519190  0.889570  0.295620  1.0  0.7183
  C  C1542  1  0.865850  0.410190  0.361980  1.0  -0.1271
  C  C1543  1  0.860770  0.445750  0.346740  1.0  0.7152
  C  C1544  1  0.956900  0.570950  0.236080  1.0  -0.0149
  C  C1545  1  0.915690  0.534190  0.275060  1.0  -0.1121
  C  C1546  1  0.889570  0.519190  0.295620  1.0  0.7176
  C  C1547  1  0.361980  0.361980  0.865850  1.0  -0.1339
  C  C1548  1  0.346740  0.346740  0.860770  1.0  0.7127
  C  C1549  1  0.236080  0.236080  0.956900  1.0  -0.017
  C  C1550  1  0.275060  0.275060  0.915690  1.0  -0.1129
  C  C1551  1  0.295620  0.295620  0.889570  1.0  0.7152
  C  C1552  1  0.361980  0.361980  0.410190  1.0  -0.1335
  C  C1553  1  0.346740  0.346740  0.445750  1.0  0.7142
  C  C1554  1  0.236080  0.236080  0.570950  1.0  -0.0182
  C  C1555  1  0.275060  0.275060  0.534190  1.0  -0.114
  C  C1556  1  0.295620  0.295620  0.519190  1.0  0.7162
  C  C1557  1  0.361980  0.410190  0.361980  1.0  -0.1331
  C  C1558  1  0.346740  0.445750  0.346740  1.0  0.716
  C  C1559  1  0.236080  0.570950  0.236080  1.0  -0.0179
  C  C1560  1  0.275060  0.534190  0.275060  1.0  -0.1144
  C  C1561  1  0.295620  0.519190  0.295620  1.0  0.7183
  C  C1562  1  0.361980  0.865850  0.361980  1.0  -0.1343
  C  C1563  1  0.346740  0.860770  0.346740  1.0  0.713
  C  C1564  1  0.236080  0.956900  0.236080  1.0  -0.0166
  C  C1565  1  0.275060  0.915690  0.275060  1.0  -0.1124
  C  C1566  1  0.295620  0.889570  0.295620  1.0  0.7188
  C  C1567  1  0.410190  0.361980  0.865850  1.0  -0.1307
  C  C1568  1  0.445750  0.346740  0.860770  1.0  0.7152
  C  C1569  1  0.570950  0.236080  0.956900  1.0  -0.0149
  C  C1570  1  0.534190  0.275060  0.915690  1.0  -0.1127
  C  C1571  1  0.519190  0.295620  0.889570  1.0  0.7196
  C  C1572  1  0.865850  0.361980  0.410190  1.0  -0.1288
  C  C1573  1  0.860770  0.346740  0.445750  1.0  0.7156
  C  C1574  1  0.956900  0.236080  0.570950  1.0  -0.0139
  C  C1575  1  0.915690  0.275060  0.534190  1.0  -0.1136
  C  C1576  1  0.889570  0.295620  0.519190  1.0  0.7204
  C  C1577  1  0.865850  0.361980  0.361980  1.0  -0.1329
  C  C1578  1  0.860770  0.346740  0.346740  1.0  0.7148
  C  C1579  1  0.956900  0.236080  0.236080  1.0  -0.0148
  C  C1580  1  0.915690  0.275060  0.275060  1.0  -0.1124
  C  C1581  1  0.889570  0.295620  0.295620  1.0  0.7213
  C  C1582  1  0.410190  0.361980  0.361980  1.0  -0.134
  C  C1583  1  0.445750  0.346740  0.346740  1.0  0.7156
  C  C1584  1  0.570950  0.236080  0.236080  1.0  -0.0171
  C  C1585  1  0.534190  0.275060  0.275060  1.0  -0.1124
  C  C1586  1  0.519190  0.295620  0.295620  1.0  0.7198
  C  C1587  1  0.361980  0.410190  0.865850  1.0  -0.1293
  C  C1588  1  0.346740  0.445750  0.860770  1.0  0.7157
  C  C1589  1  0.236080  0.570950  0.956900  1.0  -0.0163
  C  C1590  1  0.275060  0.534190  0.915690  1.0  -0.1142
  C  C1591  1  0.295620  0.519190  0.889570  1.0  0.7177
  C  C1592  1  0.361980  0.865850  0.410190  1.0  -0.1296
  C  C1593  1  0.346740  0.860770  0.445750  1.0  0.7132
  C  C1594  1  0.236080  0.956900  0.570950  1.0  -0.017
  C  C1595  1  0.275060  0.915690  0.534190  1.0  -0.1138
  C  C1596  1  0.295620  0.889570  0.519190  1.0  0.7185
  C  C1597  1  0.431980  0.510020  0.029000  1.0  0.6928
  C  C1598  1  0.395760  0.528840  0.037700  1.0  -0.1363
  C  C1599  1  0.331060  0.570120  0.049410  1.0  0.0035
  C  C1600  1  0.510020  0.431980  0.029000  1.0  0.6945
  C  C1601  1  0.528840  0.395760  0.037700  1.0  -0.1347
  C  C1602  1  0.570120  0.331060  0.049410  1.0  0.0025
  C  C1603  1  0.029000  0.029000  0.431980  1.0  0.6958
  C  C1604  1  0.037700  0.037700  0.395760  1.0  -0.1368
  C  C1605  1  0.049410  0.049410  0.331060  1.0  0.006
  C  C1606  1  0.029000  0.029000  0.510020  1.0  0.696
  C  C1607  1  0.037700  0.037700  0.528840  1.0  -0.1318
  C  C1608  1  0.049410  0.049410  0.570120  1.0  0.0055
  C  C1609  1  0.029000  0.431980  0.510020  1.0  0.695
  C  C1610  1  0.037700  0.395760  0.528840  1.0  -0.135
  C  C1611  1  0.049410  0.331060  0.570120  1.0  0.0019
  C  C1612  1  0.029000  0.510020  0.431980  1.0  0.6944
  C  C1613  1  0.037700  0.528840  0.395760  1.0  -0.1353
  C  C1614  1  0.049410  0.570120  0.331060  1.0  0.0047
  C  C1615  1  0.431980  0.029000  0.029000  1.0  0.6937
  C  C1616  1  0.395760  0.037700  0.037700  1.0  -0.1358
  C  C1617  1  0.331060  0.049410  0.049410  1.0  0.0033
  C  C1618  1  0.510020  0.029000  0.029000  1.0  0.6966
  C  C1619  1  0.528840  0.037700  0.037700  1.0  -0.1313
  C  C1620  1  0.570120  0.049410  0.049410  1.0  0.0044
  C  C1621  1  0.510020  0.029000  0.431980  1.0  0.6951
  C  C1622  1  0.528840  0.037700  0.395760  1.0  -0.1357
  C  C1623  1  0.570120  0.049410  0.331060  1.0  0.0049
  C  C1624  1  0.431980  0.029000  0.510020  1.0  0.6944
  C  C1625  1  0.395760  0.037700  0.528840  1.0  -0.137
  C  C1626  1  0.331060  0.049410  0.570120  1.0  0.0028
  C  C1627  1  0.029000  0.431980  0.029000  1.0  0.695
  C  C1628  1  0.037700  0.395760  0.037700  1.0  -0.1342
  C  C1629  1  0.049410  0.331060  0.049410  1.0  0.0022
  C  C1630  1  0.029000  0.510020  0.029000  1.0  0.6944
  C  C1631  1  0.037700  0.528840  0.037700  1.0  -0.1319
  C  C1632  1  0.049410  0.570120  0.049410  1.0  0.0045
  C  C1633  1  0.818020  0.739980  0.221000  1.0  0.6933
  C  C1634  1  0.854240  0.721160  0.212300  1.0  -0.1349
  C  C1635  1  0.918940  0.679880  0.200590  1.0  0.0036
  C  C1636  1  0.739980  0.818020  0.221000  1.0  0.6942
  C  C1637  1  0.721160  0.854240  0.212300  1.0  -0.134
  C  C1638  1  0.679880  0.918940  0.200590  1.0  0.002
  C  C1639  1  0.221000  0.221000  0.739980  1.0  0.6941
  C  C1640  1  0.212300  0.212300  0.721160  1.0  -0.1338
  C  C1641  1  0.200590  0.200590  0.679880  1.0  0.0055
  C  C1642  1  0.221000  0.221000  0.818020  1.0  0.6943
  C  C1643  1  0.212300  0.212300  0.854240  1.0  -0.1373
  C  C1644  1  0.200590  0.200590  0.918940  1.0  0.005
  C  C1645  1  0.221000  0.818020  0.221000  1.0  0.6944
  C  C1646  1  0.212300  0.854240  0.212300  1.0  -0.1364
  C  C1647  1  0.200590  0.918940  0.200590  1.0  0.0016
  C  C1648  1  0.221000  0.739980  0.221000  1.0  0.6954
  C  C1649  1  0.212300  0.721160  0.212300  1.0  -0.1317
  C  C1650  1  0.200590  0.679880  0.200590  1.0  0.0021
  C  C1651  1  0.818020  0.221000  0.739980  1.0  0.6922
  C  C1652  1  0.854240  0.212300  0.721160  1.0  -0.1368
  C  C1653  1  0.918940  0.200590  0.679880  1.0  0.0054
  C  C1654  1  0.739980  0.221000  0.818020  1.0  0.696
  C  C1655  1  0.721160  0.212300  0.854240  1.0  -0.1354
  C  C1656  1  0.679880  0.200590  0.918940  1.0  0.0053
  C  C1657  1  0.739980  0.221000  0.221000  1.0  0.6962
  C  C1658  1  0.721160  0.212300  0.212300  1.0  -0.1319
  C  C1659  1  0.679880  0.200590  0.200590  1.0  0.0042
  C  C1660  1  0.818020  0.221000  0.221000  1.0  0.6925
  C  C1661  1  0.854240  0.212300  0.212300  1.0  -0.1375
  C  C1662  1  0.918940  0.200590  0.200590  1.0  0.0041
  C  C1663  1  0.221000  0.818020  0.739980  1.0  0.6939
  C  C1664  1  0.212300  0.854240  0.721160  1.0  -0.1353
  C  C1665  1  0.200590  0.918940  0.679880  1.0  0.0026
  C  C1666  1  0.221000  0.739980  0.818020  1.0  0.6958
  C  C1667  1  0.212300  0.721160  0.854240  1.0  -0.1358
  C  C1668  1  0.200590  0.679880  0.918940  1.0  0.0034
  C  C1669  1  0.703380  0.703380  0.750180  1.0  -0.019
  C  C1670  1  0.703380  0.703380  0.843060  1.0  -0.019
  C  C1671  1  0.750180  0.843060  0.703380  1.0  -0.019
  C  C1672  1  0.843060  0.750180  0.703380  1.0  -0.0195
  C  C1673  1  0.750180  0.703380  0.703380  1.0  -0.0201
  C  C1674  1  0.843060  0.703380  0.703380  1.0  -0.0186
  C  C1675  1  0.703380  0.750180  0.843060  1.0  -0.0204
  C  C1676  1  0.703380  0.843060  0.750180  1.0  -0.0213
  C  C1677  1  0.703380  0.750180  0.703380  1.0  -0.0197
  C  C1678  1  0.703380  0.843060  0.703380  1.0  -0.0208
  C  C1679  1  0.843060  0.703380  0.750180  1.0  -0.0188
  C  C1680  1  0.750180  0.703380  0.843060  1.0  -0.0191
  C  C1681  1  0.546620  0.546620  0.406940  1.0  -0.0205
  C  C1682  1  0.546620  0.546620  0.499820  1.0  -0.0186
  C  C1683  1  0.499820  0.406940  0.546620  1.0  -0.0148
  C  C1684  1  0.406940  0.499820  0.546620  1.0  -0.0138
  C  C1685  1  0.499820  0.546620  0.406940  1.0  -0.0148
  C  C1686  1  0.406940  0.546620  0.499820  1.0  -0.0142
  C  C1687  1  0.546620  0.499820  0.546620  1.0  -0.0195
  C  C1688  1  0.546620  0.406940  0.546620  1.0  -0.0212
  C  C1689  1  0.546620  0.499820  0.406940  1.0  -0.0148
  C  C1690  1  0.546620  0.406940  0.499820  1.0  -0.0158
  C  C1691  1  0.406940  0.546620  0.546620  1.0  -0.0204
  C  C1692  1  0.499820  0.546620  0.546620  1.0  -0.0198
  C  C1693  1  0.856320  0.384000  0.856320  1.0  -0.0054
  C  C1694  1  0.783150  0.567670  0.783150  1.0  0.7484
  C  C1695  1  0.784950  0.537050  0.784950  1.0  -0.0953
  C  C1696  1  0.795430  0.474090  0.795430  1.0  -0.0103
  C  C1697  1  0.384000  0.856320  0.903350  1.0  -0.0038
  C  C1698  1  0.567670  0.783150  0.866040  1.0  0.7488
  C  C1699  1  0.537050  0.784950  0.893040  1.0  -0.0977
  C  C1700  1  0.474090  0.795430  0.935050  1.0  -0.0139
  C  C1701  1  0.856320  0.903350  0.856320  1.0  -0.0054
  C  C1702  1  0.783150  0.866040  0.783150  1.0  0.7518
  C  C1703  1  0.784950  0.893040  0.784950  1.0  -0.0991
  C  C1704  1  0.795430  0.935050  0.795430  1.0  -0.0161
  C  C1705  1  0.903350  0.856320  0.384000  1.0  -0.0036
  C  C1706  1  0.866040  0.783150  0.567670  1.0  0.7502
  C  C1707  1  0.893040  0.784950  0.537050  1.0  -0.0988
  C  C1708  1  0.935050  0.795430  0.474090  1.0  -0.0128
  C  C1709  1  0.856320  0.856320  0.384000  1.0  -0.0044
  C  C1710  1  0.783150  0.783150  0.567670  1.0  0.7467
  C  C1711  1  0.784950  0.784950  0.537050  1.0  -0.096
  C  C1712  1  0.795430  0.795430  0.474090  1.0  -0.0101
  C  C1713  1  0.903350  0.384000  0.856320  1.0  -0.0017
  C  C1714  1  0.866040  0.567670  0.783150  1.0  0.7506
  C  C1715  1  0.893040  0.537050  0.784950  1.0  -0.097
  C  C1716  1  0.935050  0.474090  0.795430  1.0  -0.0124
  C  C1717  1  0.856320  0.856320  0.903350  1.0  -0.0046
  C  C1718  1  0.783150  0.783150  0.866040  1.0  0.7511
  C  C1719  1  0.784950  0.784950  0.893040  1.0  -0.0981
  C  C1720  1  0.795430  0.795430  0.935050  1.0  -0.0127
  C  C1721  1  0.384000  0.903350  0.856320  1.0  -0.0029
  C  C1722  1  0.567670  0.866040  0.783150  1.0  0.7509
  C  C1723  1  0.537050  0.893040  0.784950  1.0  -0.0969
  C  C1724  1  0.474090  0.935050  0.795430  1.0  -0.016
  C  C1725  1  0.384000  0.856320  0.856320  1.0  -0.0022
  C  C1726  1  0.567670  0.783150  0.783150  1.0  0.7465
  C  C1727  1  0.537050  0.784950  0.784950  1.0  -0.0954
  C  C1728  1  0.474090  0.795430  0.795430  1.0  -0.0098
  C  C1729  1  0.856320  0.903350  0.384000  1.0  -0.0033
  C  C1730  1  0.783150  0.866040  0.567670  1.0  0.7509
  C  C1731  1  0.784950  0.893040  0.537050  1.0  -0.0992
  C  C1732  1  0.795430  0.935050  0.474090  1.0  -0.0162
  C  C1733  1  0.903350  0.856320  0.856320  1.0  -0.0029
  C  C1734  1  0.866040  0.783150  0.783150  1.0  0.7507
  C  C1735  1  0.893040  0.784950  0.784950  1.0  -0.0986
  C  C1736  1  0.935050  0.795430  0.795430  1.0  -0.0122
  C  C1737  1  0.856320  0.384000  0.903350  1.0  -0.0038
  C  C1738  1  0.783150  0.567670  0.866040  1.0  0.7508
  C  C1739  1  0.784950  0.537050  0.893040  1.0  -0.0978
  C  C1740  1  0.795430  0.474090  0.935050  1.0  -0.0139
  C  C1741  1  0.393680  0.866000  0.346650  1.0  -0.0033
  C  C1742  1  0.466850  0.682330  0.383960  1.0  0.7505
  C  C1743  1  0.465050  0.712950  0.356960  1.0  -0.0979
  C  C1744  1  0.454570  0.775910  0.314950  1.0  -0.0103
  C  C1745  1  0.866000  0.393680  0.393680  1.0  -0.0048
  C  C1746  1  0.682330  0.466850  0.466850  1.0  0.7457
  C  C1747  1  0.712950  0.465050  0.465050  1.0  -0.0958
  C  C1748  1  0.775910  0.454570  0.454570  1.0  -0.0101
  C  C1749  1  0.393680  0.346650  0.866000  1.0  -0.0042
  C  C1750  1  0.466850  0.383960  0.682330  1.0  0.7495
  C  C1751  1  0.465050  0.356960  0.712950  1.0  -0.0992
  C  C1752  1  0.454570  0.314950  0.775910  1.0  -0.0135
  C  C1753  1  0.346650  0.393680  0.393680  1.0  -0.0061
  C  C1754  1  0.383960  0.466850  0.466850  1.0  0.753
  C  C1755  1  0.356960  0.465050  0.465050  1.0  -0.0992
  C  C1756  1  0.314950  0.454570  0.454570  1.0  -0.0112
  C  C1757  1  0.393680  0.393680  0.346650  1.0  -0.0049
  C  C1758  1  0.466850  0.466850  0.383960  1.0  0.752
  C  C1759  1  0.465050  0.465050  0.356960  1.0  -0.0976
  C  C1760  1  0.454570  0.454570  0.314950  1.0  -0.0122
  C  C1761  1  0.346650  0.866000  0.393680  1.0  -0.0022
  C  C1762  1  0.383960  0.682330  0.466850  1.0  0.7505
  C  C1763  1  0.356960  0.712950  0.465050  1.0  -0.0985
  C  C1764  1  0.314950  0.775910  0.454570  1.0  -0.009
  C  C1765  1  0.393680  0.393680  0.866000  1.0  -0.0042
  C  C1766  1  0.466850  0.466850  0.682330  1.0  0.7473
  C  C1767  1  0.465050  0.465050  0.712950  1.0  -0.095
  C  C1768  1  0.454570  0.454570  0.775910  1.0  -0.0102
  C  C1769  1  0.866000  0.346650  0.393680  1.0  -0.0037
  C  C1770  1  0.682330  0.383960  0.466850  1.0  0.7494
  C  C1771  1  0.712950  0.356960  0.465050  1.0  -0.0973
  C  C1772  1  0.775910  0.314950  0.454570  1.0  -0.0126
  C  C1773  1  0.866000  0.393680  0.346650  1.0  -0.0013
  C  C1774  1  0.682330  0.466850  0.383960  1.0  0.7484
  C  C1775  1  0.712950  0.465050  0.356960  1.0  -0.0985
  C  C1776  1  0.775910  0.454570  0.314950  1.0  -0.01
  C  C1777  1  0.393680  0.346650  0.393680  1.0  -0.0046
  C  C1778  1  0.466850  0.383960  0.466850  1.0  0.751
  C  C1779  1  0.465050  0.356960  0.465050  1.0  -0.0991
  C  C1780  1  0.454570  0.314950  0.454570  1.0  -0.015
  C  C1781  1  0.346650  0.393680  0.866000  1.0  -0.0026
  C  C1782  1  0.383960  0.466850  0.682330  1.0  0.7513
  C  C1783  1  0.356960  0.465050  0.712950  1.0  -0.0992
  C  C1784  1  0.314950  0.454570  0.775910  1.0  -0.0098
  C  C1785  1  0.393680  0.866000  0.393680  1.0  -0.0035
  C  C1786  1  0.466850  0.682330  0.466850  1.0  0.747
  C  C1787  1  0.465050  0.712950  0.465050  1.0  -0.0954
  C  C1788  1  0.454570  0.775910  0.454570  1.0  -0.0101
  C  C1789  1  0.734940  0.687460  0.734940  1.0  -0.095
  C  C1790  1  0.753490  0.656780  0.753490  1.0  0.7541
  C  C1791  1  0.687460  0.734940  0.842660  1.0  -0.094
  C  C1792  1  0.656780  0.753490  0.836230  1.0  0.7493
  C  C1793  1  0.734940  0.842660  0.734940  1.0  -0.0966
  C  C1794  1  0.753490  0.836230  0.753490  1.0  0.7532
  C  C1795  1  0.842660  0.734940  0.687460  1.0  -0.0935
  C  C1796  1  0.836230  0.753490  0.656780  1.0  0.7503
  C  C1797  1  0.734940  0.734940  0.687460  1.0  -0.0943
  C  C1798  1  0.753490  0.753490  0.656780  1.0  0.7548
  C  C1799  1  0.842660  0.687460  0.734940  1.0  -0.0938
  C  C1800  1  0.836230  0.656780  0.753490  1.0  0.7501
  C  C1801  1  0.734940  0.734940  0.842660  1.0  -0.0955
  C  C1802  1  0.753490  0.753490  0.836230  1.0  0.7541
  C  C1803  1  0.687460  0.842660  0.734940  1.0  -0.0961
  C  C1804  1  0.656780  0.836230  0.753490  1.0  0.7462
  C  C1805  1  0.687460  0.734940  0.734940  1.0  -0.0943
  C  C1806  1  0.656780  0.753490  0.753490  1.0  0.7545
  C  C1807  1  0.734940  0.842660  0.687460  1.0  -0.0964
  C  C1808  1  0.753490  0.836230  0.656780  1.0  0.749
  C  C1809  1  0.842660  0.734940  0.734940  1.0  -0.0935
  C  C1810  1  0.836230  0.753490  0.753490  1.0  0.7545
  C  C1811  1  0.734940  0.687460  0.842660  1.0  -0.0953
  C  C1812  1  0.753490  0.656780  0.836230  1.0  0.7489
  C  C1813  1  0.515060  0.562540  0.407340  1.0  -0.0979
  C  C1814  1  0.496510  0.593220  0.413770  1.0  0.7508
  C  C1815  1  0.562540  0.515060  0.515060  1.0  -0.0919
  C  C1816  1  0.593220  0.496510  0.496510  1.0  0.7531
  C  C1817  1  0.515060  0.407340  0.562540  1.0  -0.0998
  C  C1818  1  0.496510  0.413770  0.593220  1.0  0.749
  C  C1819  1  0.407340  0.515060  0.515060  1.0  -0.1002
  C  C1820  1  0.413770  0.496510  0.496510  1.0  0.7546
  C  C1821  1  0.515060  0.515060  0.407340  1.0  -0.0979
  C  C1822  1  0.496510  0.496510  0.413770  1.0  0.7532
  C  C1823  1  0.407340  0.562540  0.515060  1.0  -0.0984
  C  C1824  1  0.413770  0.593220  0.496510  1.0  0.7502
  C  C1825  1  0.515060  0.515060  0.562540  1.0  -0.0924
  C  C1826  1  0.496510  0.496510  0.593220  1.0  0.7529
  C  C1827  1  0.562540  0.407340  0.515060  1.0  -0.0995
  C  C1828  1  0.593220  0.413770  0.496510  1.0  0.7476
  C  C1829  1  0.562540  0.515060  0.407340  1.0  -0.0972
  C  C1830  1  0.593220  0.496510  0.413770  1.0  0.7506
  C  C1831  1  0.515060  0.407340  0.515060  1.0  -0.1008
  C  C1832  1  0.496510  0.413770  0.496510  1.0  0.7528
  C  C1833  1  0.407340  0.515060  0.562540  1.0  -0.0986
  C  C1834  1  0.413770  0.496510  0.593220  1.0  0.7506
  C  C1835  1  0.515060  0.562540  0.515060  1.0  -0.093
  C  C1836  1  0.496510  0.593220  0.496510  1.0  0.7529
  O  O1837  1  0.761480  0.579600  0.804490  1.0  -0.6017
  O  O1838  1  0.739770  0.644800  0.782770  1.0  -0.6082
  O  O1839  1  0.558910  0.505150  0.943150  1.0  -0.5755
  O  O1840  1  0.446920  0.502940  0.003610  1.0  -0.6094
  O  O1841  1  0.532940  0.478300  0.948220  1.0  -0.6
  O  O1842  1  0.729990  0.485750  0.867290  1.0  -0.6045
  O  O1843  1  0.677450  0.467550  0.902750  1.0  -0.5809
  O  O1844  1  0.756900  0.442270  0.853860  1.0  -0.5995
  O  O1845  1  0.789590  0.392140  0.887630  1.0  -0.5976
  O  O1846  1  0.736200  0.371650  0.924640  1.0  -0.6215
  O  O1847  1  0.704130  0.423120  0.890820  1.0  -0.602
  O  O1848  1  0.281300  0.655360  0.980680  1.0  -0.6112
  O  O1849  1  0.302490  0.594200  0.000540  1.0  -0.6223
  O  O1850  1  0.309720  0.681410  0.934740  1.0  -0.6071
  O  O1851  1  0.347650  0.567440  0.971600  1.0  -0.5926
  O  O1852  1  0.332600  0.652700  0.870010  1.0  -0.5963
  O  O1853  1  0.362940  0.649910  0.902390  1.0  -0.5852
  O  O1854  1  0.579600  0.761480  0.854430  1.0  -0.6058
  O  O1855  1  0.644800  0.739770  0.832660  1.0  -0.606
  O  O1856  1  0.505150  0.558910  0.992790  1.0  -0.5748
  O  O1857  1  0.502940  0.446920  0.046530  1.0  -0.6096
  O  O1858  1  0.478300  0.532940  0.040530  1.0  -0.5865
  O  O1859  1  0.485750  0.729990  0.916980  1.0  -0.6007
  O  O1860  1  0.467550  0.677450  0.952240  1.0  -0.5864
  O  O1861  1  0.442270  0.756900  0.946970  1.0  -0.5994
  O  O1862  1  0.392140  0.789590  0.930640  1.0  -0.5975
  O  O1863  1  0.371650  0.736200  0.967510  1.0  -0.6214
  O  O1864  1  0.423120  0.704130  0.981930  1.0  -0.6001
  O  O1865  1  0.655360  0.281300  0.082670  1.0  -0.6139
  O  O1866  1  0.594200  0.302490  0.102770  1.0  -0.6251
  O  O1867  1  0.681410  0.309720  0.074130  1.0  -0.6067
  O  O1868  1  0.567440  0.347650  0.113310  1.0  -0.5944
  O  O1869  1  0.652700  0.332600  0.144700  1.0  -0.5973
  O  O1870  1  0.649910  0.362940  0.084770  1.0  -0.5844
  O  O1871  1  0.804490  0.854430  0.761480  1.0  -0.5987
  O  O1872  1  0.782770  0.832660  0.739770  1.0  -0.6061
  O  O1873  1  0.943150  0.992790  0.558910  1.0  -0.5834
  O  O1874  1  0.003610  0.046530  0.446920  1.0  -0.6109
  O  O1875  1  0.948220  0.040530  0.532940  1.0  -0.588
  O  O1876  1  0.867290  0.916980  0.729990  1.0  -0.5938
  O  O1877  1  0.902750  0.952240  0.677450  1.0  -0.5819
  O  O1878  1  0.853860  0.946970  0.756900  1.0  -0.6005
  O  O1879  1  0.887630  0.930640  0.789590  1.0  -0.5975
  O  O1880  1  0.924640  0.967510  0.736200  1.0  -0.6259
  O  O1881  1  0.890820  0.981930  0.704130  1.0  -0.6041
  O  O1882  1  0.980680  0.082670  0.281300  1.0  -0.6136
  O  O1883  1  0.000540  0.102770  0.302490  1.0  -0.622
  O  O1884  1  0.934740  0.074130  0.309720  1.0  -0.6072
  O  O1885  1  0.971600  0.113310  0.347650  1.0  -0.5919
  O  O1886  1  0.870010  0.144700  0.332600  1.0  -0.5994
  O  O1887  1  0.902390  0.084770  0.362940  1.0  -0.5838
  O  O1888  1  0.854430  0.804490  0.579600  1.0  -0.6005
  O  O1889  1  0.832660  0.782770  0.644800  1.0  -0.5859
  O  O1890  1  0.992790  0.943150  0.505150  1.0  -0.5749
  O  O1891  1  0.046530  0.003610  0.502940  1.0  -0.6137
  O  O1892  1  0.040530  0.948220  0.478300  1.0  -0.5881
  O  O1893  1  0.916980  0.867290  0.485750  1.0  -0.5939
  O  O1894  1  0.952240  0.902750  0.467550  1.0  -0.5804
  O  O1895  1  0.946970  0.853860  0.442270  1.0  -0.6001
  O  O1896  1  0.930640  0.887630  0.392140  1.0  -0.6003
  O  O1897  1  0.967510  0.924640  0.371650  1.0  -0.6232
  O  O1898  1  0.981930  0.890820  0.423120  1.0  -0.6028
  O  O1899  1  0.082670  0.980680  0.655360  1.0  -0.6147
  O  O1900  1  0.102770  0.000540  0.594200  1.0  -0.6227
  O  O1901  1  0.074130  0.934740  0.681410  1.0  -0.6105
  O  O1902  1  0.113310  0.971600  0.567440  1.0  -0.592
  O  O1903  1  0.144700  0.870010  0.652700  1.0  -0.5975
  O  O1904  1  0.084770  0.902390  0.649910  1.0  -0.5843
  O  O1905  1  0.804490  0.761480  0.579600  1.0  -0.603
  O  O1906  1  0.782770  0.739770  0.644800  1.0  -0.6088
  O  O1907  1  0.943150  0.558910  0.505150  1.0  -0.5715
  O  O1908  1  0.003610  0.446920  0.502940  1.0  -0.6119
  O  O1909  1  0.948220  0.532940  0.478300  1.0  -0.5994
  O  O1910  1  0.867290  0.729990  0.485750  1.0  -0.6049
  O  O1911  1  0.902750  0.677450  0.467550  1.0  -0.5806
  O  O1912  1  0.853860  0.756900  0.442270  1.0  -0.5999
  O  O1913  1  0.887630  0.789590  0.392140  1.0  -0.5985
  O  O1914  1  0.924640  0.736200  0.371650  1.0  -0.625
  O  O1915  1  0.890820  0.704130  0.423120  1.0  -0.6057
  O  O1916  1  0.980680  0.281300  0.655360  1.0  -0.6133
  O  O1917  1  0.000540  0.302490  0.594200  1.0  -0.6229
  O  O1918  1  0.934740  0.309720  0.681410  1.0  -0.6076
  O  O1919  1  0.971600  0.347650  0.567440  1.0  -0.593
  O  O1920  1  0.870010  0.332600  0.652700  1.0  -0.5951
  O  O1921  1  0.902390  0.362940  0.649910  1.0  -0.5863
  O  O1922  1  0.854430  0.579600  0.761480  1.0  -0.6001
  O  O1923  1  0.832660  0.644800  0.739770  1.0  -0.6021
  O  O1924  1  0.992790  0.505150  0.558910  1.0  -0.5723
  O  O1925  1  0.046530  0.502940  0.446920  1.0  -0.6125
  O  O1926  1  0.040530  0.478300  0.532940  1.0  -0.5883
  O  O1927  1  0.916980  0.485750  0.729990  1.0  -0.5981
  O  O1928  1  0.952240  0.467550  0.677450  1.0  -0.5857
  O  O1929  1  0.946970  0.442270  0.756900  1.0  -0.5993
  O  O1930  1  0.930640  0.392140  0.789590  1.0  -0.5988
  O  O1931  1  0.967510  0.371650  0.736200  1.0  -0.6221
  O  O1932  1  0.981930  0.423120  0.704130  1.0  -0.6007
  O  O1933  1  0.082670  0.655360  0.281300  1.0  -0.6194
  O  O1934  1  0.102770  0.594200  0.302490  1.0  -0.6266
  O  O1935  1  0.074130  0.681410  0.309720  1.0  -0.6087
  O  O1936  1  0.113310  0.567440  0.347650  1.0  -0.5958
  O  O1937  1  0.144700  0.652700  0.332600  1.0  -0.5956
  O  O1938  1  0.084770  0.649910  0.362940  1.0  -0.5837
  O  O1939  1  0.761480  0.804490  0.854430  1.0  -0.6022
  O  O1940  1  0.739770  0.782770  0.832660  1.0  -0.6079
  O  O1941  1  0.558910  0.943150  0.992790  1.0  -0.5782
  O  O1942  1  0.446920  0.003610  0.046530  1.0  -0.6103
  O  O1943  1  0.532940  0.948220  0.040530  1.0  -0.5873
  O  O1944  1  0.729990  0.867290  0.916980  1.0  -0.5969
  O  O1945  1  0.677450  0.902750  0.952240  1.0  -0.5799
  O  O1946  1  0.756900  0.853860  0.946970  1.0  -0.6009
  O  O1947  1  0.789590  0.887630  0.930640  1.0  -0.5997
  O  O1948  1  0.736200  0.924640  0.967510  1.0  -0.6232
  O  O1949  1  0.704130  0.890820  0.981930  1.0  -0.6044
  O  O1950  1  0.281300  0.980680  0.082670  1.0  -0.6143
  O  O1951  1  0.302490  0.000540  0.102770  1.0  -0.6243
  O  O1952  1  0.309720  0.934740  0.074130  1.0  -0.6094
  O  O1953  1  0.347650  0.971600  0.113310  1.0  -0.5928
  O  O1954  1  0.332600  0.870010  0.144700  1.0  -0.5954
  O  O1955  1  0.362940  0.902390  0.084770  1.0  -0.584
  O  O1956  1  0.579600  0.854430  0.804490  1.0  -0.5983
  O  O1957  1  0.644800  0.832660  0.782770  1.0  -0.5842
  O  O1958  1  0.505150  0.992790  0.943150  1.0  -0.5744
  O  O1959  1  0.502940  0.046530  0.003610  1.0  -0.6141
  O  O1960  1  0.478300  0.040530  0.948220  1.0  -0.5862
  O  O1961  1  0.485750  0.916980  0.867290  1.0  -0.5971
  O  O1962  1  0.467550  0.952240  0.902750  1.0  -0.5819
  O  O1963  1  0.442270  0.946970  0.853860  1.0  -0.5997
  O  O1964  1  0.392140  0.930640  0.887630  1.0  -0.5981
  O  O1965  1  0.371650  0.967510  0.924640  1.0  -0.6245
  O  O1966  1  0.423120  0.981930  0.890820  1.0  -0.6035
  O  O1967  1  0.655360  0.082670  0.980680  1.0  -0.6164
  O  O1968  1  0.594200  0.102770  0.000540  1.0  -0.6245
  O  O1969  1  0.681410  0.074130  0.934740  1.0  -0.6045
  O  O1970  1  0.567440  0.113310  0.971600  1.0  -0.5925
  O  O1971  1  0.652700  0.144700  0.870010  1.0  -0.5979
  O  O1972  1  0.649910  0.084770  0.902390  1.0  -0.5816
  O  O1973  1  0.579600  0.804490  0.761480  1.0  -0.6011
  O  O1974  1  0.644800  0.782770  0.739770  1.0  -0.6084
  O  O1975  1  0.505150  0.943150  0.558910  1.0  -0.5736
  O  O1976  1  0.502940  0.003610  0.446920  1.0  -0.6136
  O  O1977  1  0.478300  0.948220  0.532940  1.0  -0.5975
  O  O1978  1  0.485750  0.867290  0.729990  1.0  -0.603
  O  O1979  1  0.467550  0.902750  0.677450  1.0  -0.583
  O  O1980  1  0.442270  0.853860  0.756900  1.0  -0.5996
  O  O1981  1  0.392140  0.887630  0.789590  1.0  -0.5995
  O  O1982  1  0.371650  0.924640  0.736200  1.0  -0.6273
  O  O1983  1  0.423120  0.890820  0.704130  1.0  -0.6038
  O  O1984  1  0.655360  0.980680  0.281300  1.0  -0.6154
  O  O1985  1  0.594200  0.000540  0.302490  1.0  -0.6238
  O  O1986  1  0.681410  0.934740  0.309720  1.0  -0.6089
  O  O1987  1  0.567440  0.971600  0.347650  1.0  -0.5926
  O  O1988  1  0.652700  0.870010  0.332600  1.0  -0.5956
  O  O1989  1  0.649910  0.902390  0.362940  1.0  -0.5848
  O  O1990  1  0.761480  0.854430  0.579600  1.0  -0.6058
  O  O1991  1  0.739770  0.832660  0.644800  1.0  -0.6062
  O  O1992  1  0.558910  0.992790  0.505150  1.0  -0.5738
  O  O1993  1  0.446920  0.046530  0.502940  1.0  -0.6108
  O  O1994  1  0.532940  0.040530  0.478300  1.0  -0.5868
  O  O1995  1  0.729990  0.916980  0.485750  1.0  -0.5975
  O  O1996  1  0.677450  0.952240  0.467550  1.0  -0.5863
  O  O1997  1  0.756900  0.946970  0.442270  1.0  -0.6
  O  O1998  1  0.789590  0.930640  0.392140  1.0  -0.5982
  O  O1999  1  0.736200  0.967510  0.371650  1.0  -0.6242
  O  O2000  1  0.704130  0.981930  0.423120  1.0  -0.6038
  O  O2001  1  0.281300  0.082670  0.655360  1.0  -0.6124
  O  O2002  1  0.302490  0.102770  0.594200  1.0  -0.6254
  O  O2003  1  0.309720  0.074130  0.681410  1.0  -0.6079
  O  O2004  1  0.347650  0.113310  0.567440  1.0  -0.5952
  O  O2005  1  0.332600  0.144700  0.652700  1.0  -0.5955
  O  O2006  1  0.362940  0.084770  0.649910  1.0  -0.5857
  O  O2007  1  0.854430  0.761480  0.804490  1.0  -0.6017
  O  O2008  1  0.832660  0.739770  0.782770  1.0  -0.6061
  O  O2009  1  0.992790  0.558910  0.943150  1.0  -0.58
  O  O2010  1  0.046530  0.446920  0.003610  1.0  -0.6103
  O  O2011  1  0.040530  0.532940  0.948220  1.0  -0.588
  O  O2012  1  0.916980  0.729990  0.867290  1.0  -0.5969
  O  O2013  1  0.952240  0.677450  0.902750  1.0  -0.5821
  O  O2014  1  0.946970  0.756900  0.853860  1.0  -0.6005
  O  O2015  1  0.930640  0.789590  0.887630  1.0  -0.5981
  O  O2016  1  0.967510  0.736200  0.924640  1.0  -0.6225
  O  O2017  1  0.981930  0.704130  0.890820  1.0  -0.6009
  O  O2018  1  0.082670  0.281300  0.980680  1.0  -0.6152
  O  O2019  1  0.102770  0.302490  0.000540  1.0  -0.6243
  O  O2020  1  0.074130  0.309720  0.934740  1.0  -0.6074
  O  O2021  1  0.113310  0.347650  0.971600  1.0  -0.5956
  O  O2022  1  0.144700  0.332600  0.870010  1.0  -0.5979
  O  O2023  1  0.084770  0.362940  0.902390  1.0  -0.5849
  O  O2024  1  0.804490  0.579600  0.854430  1.0  -0.5991
  O  O2025  1  0.782770  0.644800  0.832660  1.0  -0.5865
  O  O2026  1  0.943150  0.505150  0.992790  1.0  -0.5737
  O  O2027  1  0.003610  0.502940  0.046530  1.0  -0.6148
  O  O2028  1  0.948220  0.478300  0.040530  1.0  -0.584
  O  O2029  1  0.867290  0.485750  0.916980  1.0  -0.5997
  O  O2030  1  0.902750  0.467550  0.952240  1.0  -0.5813
  O  O2031  1  0.853860  0.442270  0.946970  1.0  -0.6007
  O  O2032  1  0.887630  0.392140  0.930640  1.0  -0.5991
  O  O2033  1  0.924640  0.371650  0.967510  1.0  -0.6257
  O  O2034  1  0.890820  0.423120  0.981930  1.0  -0.6021
  O  O2035  1  0.980680  0.655360  0.082670  1.0  -0.6138
  O  O2036  1  0.000540  0.594200  0.102770  1.0  -0.623
  O  O2037  1  0.934740  0.681410  0.074130  1.0  -0.6089
  O  O2038  1  0.971600  0.567440  0.113310  1.0  -0.5926
  O  O2039  1  0.870010  0.652700  0.144700  1.0  -0.5972
  O  O2040  1  0.902390  0.649910  0.084770  1.0  -0.5864
  O  O2041  1  0.488520  0.670400  0.395570  1.0  -0.6056
  O  O2042  1  0.510230  0.605200  0.417340  1.0  -0.6059
  O  O2043  1  0.691090  0.744850  0.257210  1.0  -0.5756
  O  O2044  1  0.803080  0.747060  0.203470  1.0  -0.6097
  O  O2045  1  0.717060  0.771700  0.209470  1.0  -0.5888
  O  O2046  1  0.520010  0.764250  0.333020  1.0  -0.6018
  O  O2047  1  0.572550  0.782450  0.297760  1.0  -0.5852
  O  O2048  1  0.493100  0.807730  0.303030  1.0  -0.6002
  O  O2049  1  0.460410  0.857860  0.319360  1.0  -0.5987
  O  O2050  1  0.513800  0.878350  0.282490  1.0  -0.6223
  O  O2051  1  0.545870  0.826880  0.268070  1.0  -0.6017
  O  O2052  1  0.968700  0.594640  0.167330  1.0  -0.6122
  O  O2053  1  0.947510  0.655800  0.147230  1.0  -0.6233
  O  O2054  1  0.940280  0.568590  0.175870  1.0  -0.6066
  O  O2055  1  0.902350  0.682560  0.136690  1.0  -0.5922
  O  O2056  1  0.917400  0.597300  0.105300  1.0  -0.5981
  O  O2057  1  0.887060  0.600090  0.165230  1.0  -0.5859
  O  O2058  1  0.670400  0.488520  0.445510  1.0  -0.6016
  O  O2059  1  0.605200  0.510230  0.467230  1.0  -0.6082
  O  O2060  1  0.744850  0.691090  0.306850  1.0  -0.5751
  O  O2061  1  0.747060  0.803080  0.246390  1.0  -0.6098
  O  O2062  1  0.771700  0.717060  0.301780  1.0  -0.5991
  O  O2063  1  0.764250  0.520010  0.382710  1.0  -0.6065
  O  O2064  1  0.782450  0.572550  0.347250  1.0  -0.5812
  O  O2065  1  0.807730  0.493100  0.396140  1.0  -0.5997
  O  O2066  1  0.857860  0.460410  0.362370  1.0  -0.5979
  O  O2067  1  0.878350  0.513800  0.325360  1.0  -0.6202
  O  O2068  1  0.826880  0.545870  0.359180  1.0  -0.6005
  O  O2069  1  0.594640  0.968700  0.269320  1.0  -0.6138
  O  O2070  1  0.655800  0.947510  0.249460  1.0  -0.6247
  O  O2071  1  0.568590  0.940280  0.315260  1.0  -0.6089
  O  O2072  1  0.682560  0.902350  0.278400  1.0  -0.5927
  O  O2073  1  0.597300  0.917400  0.379990  1.0  -0.5981
  O  O2074  1  0.600090  0.887060  0.347610  1.0  -0.583
  O  O2075  1  0.445510  0.395570  0.670400  1.0  -0.6005
  O  O2076  1  0.467230  0.417340  0.605200  1.0  -0.5848
  O  O2077  1  0.306850  0.257210  0.744850  1.0  -0.5735
  O  O2078  1  0.246390  0.203470  0.747060  1.0  -0.6146
  O  O2079  1  0.301780  0.209470  0.771700  1.0  -0.5864
  O  O2080  1  0.382710  0.333020  0.764250  1.0  -0.5959
  O  O2081  1  0.347250  0.297760  0.782450  1.0  -0.5829
  O  O2082  1  0.396140  0.303030  0.807730  1.0  -0.5996
  O  O2083  1  0.362370  0.319360  0.857860  1.0  -0.597
  O  O2084  1  0.325360  0.282490  0.878350  1.0  -0.6253
  O  O2085  1  0.359180  0.268070  0.826880  1.0  -0.6036
  O  O2086  1  0.269320  0.167330  0.594640  1.0  -0.6144
  O  O2087  1  0.249460  0.147230  0.655800  1.0  -0.624
  O  O2088  1  0.315260  0.175870  0.568590  1.0  -0.6074
  O  O2089  1  0.278400  0.136690  0.682560  1.0  -0.5938
  O  O2090  1  0.379990  0.105300  0.597300  1.0  -0.5961
  O  O2091  1  0.347610  0.165230  0.600090  1.0  -0.5826
  O  O2092  1  0.395570  0.445510  0.488520  1.0  -0.6009
  O  O2093  1  0.417340  0.467230  0.510230  1.0  -0.6074
  O  O2094  1  0.257210  0.306850  0.691090  1.0  -0.5816
  O  O2095  1  0.203470  0.246390  0.803080  1.0  -0.6118
  O  O2096  1  0.209470  0.301780  0.717060  1.0  -0.5891
  O  O2097  1  0.333020  0.382710  0.520010  1.0  -0.5923
  O  O2098  1  0.297760  0.347250  0.572550  1.0  -0.581
  O  O2099  1  0.303030  0.396140  0.493100  1.0  -0.6
  O  O2100  1  0.319360  0.362370  0.460410  1.0  -0.5988
  O  O2101  1  0.282490  0.325360  0.513800  1.0  -0.625
  O  O2102  1  0.268070  0.359180  0.545870  1.0  -0.6019
  O  O2103  1  0.167330  0.269320  0.968700  1.0  -0.6139
  O  O2104  1  0.147230  0.249460  0.947510  1.0  -0.6236
  O  O2105  1  0.175870  0.315260  0.940280  1.0  -0.6093
  O  O2106  1  0.136690  0.278400  0.902350  1.0  -0.592
  O  O2107  1  0.105300  0.379990  0.917400  1.0  -0.5958
  O  O2108  1  0.165230  0.347610  0.887060  1.0  -0.5843
  O  O2109  1  0.445510  0.488520  0.395570  1.0  -0.6014
  O  O2110  1  0.467230  0.510230  0.417340  1.0  -0.6058
  O  O2111  1  0.306850  0.691090  0.257210  1.0  -0.5789
  O  O2112  1  0.246390  0.803080  0.203470  1.0  -0.612
  O  O2113  1  0.301780  0.717060  0.209470  1.0  -0.5866
  O  O2114  1  0.382710  0.520010  0.333020  1.0  -0.5984
  O  O2115  1  0.347250  0.572550  0.297760  1.0  -0.5812
  O  O2116  1  0.396140  0.493100  0.303030  1.0  -0.5992
  O  O2117  1  0.362370  0.460410  0.319360  1.0  -0.5986
  O  O2118  1  0.325360  0.513800  0.282490  1.0  -0.6234
  O  O2119  1  0.359180  0.545870  0.268070  1.0  -0.6031
  O  O2120  1  0.269320  0.968700  0.167330  1.0  -0.6133
  O  O2121  1  0.249460  0.947510  0.147230  1.0  -0.6245
  O  O2122  1  0.315260  0.940280  0.175870  1.0  -0.6075
  O  O2123  1  0.278400  0.902350  0.136690  1.0  -0.5941
  O  O2124  1  0.379990  0.917400  0.105300  1.0  -0.5945
  O  O2125  1  0.347610  0.887060  0.165230  1.0  -0.5854
  O  O2126  1  0.395570  0.670400  0.445510  1.0  -0.5995
  O  O2127  1  0.417340  0.605200  0.467230  1.0  -0.5822
  O  O2128  1  0.257210  0.744850  0.306850  1.0  -0.5728
  O  O2129  1  0.203470  0.747060  0.246390  1.0  -0.6148
  O  O2130  1  0.209470  0.771700  0.301780  1.0  -0.5878
  O  O2131  1  0.333020  0.764250  0.382710  1.0  -0.5992
  O  O2132  1  0.297760  0.782450  0.347250  1.0  -0.5816
  O  O2133  1  0.303030  0.807730  0.396140  1.0  -0.6011
  O  O2134  1  0.319360  0.857860  0.362370  1.0  -0.5988
  O  O2135  1  0.282490  0.878350  0.325360  1.0  -0.6228
  O  O2136  1  0.268070  0.826880  0.359180  1.0  -0.6052
  O  O2137  1  0.167330  0.594640  0.269320  1.0  -0.6184
  O  O2138  1  0.147230  0.655800  0.249460  1.0  -0.6269
  O  O2139  1  0.175870  0.568590  0.315260  1.0  -0.6097
  O  O2140  1  0.136690  0.682560  0.278400  1.0  -0.5942
  O  O2141  1  0.105300  0.597300  0.379990  1.0  -0.5962
  O  O2142  1  0.165230  0.600090  0.347610  1.0  -0.5843
  O  O2143  1  0.488520  0.445510  0.670400  1.0  -0.6011
  O  O2144  1  0.510230  0.467230  0.605200  1.0  -0.6075
  O  O2145  1  0.691090  0.306850  0.744850  1.0  -0.5718
  O  O2146  1  0.803080  0.246390  0.747060  1.0  -0.6108
  O  O2147  1  0.717060  0.301780  0.771700  1.0  -0.5993
  O  O2148  1  0.520010  0.382710  0.764250  1.0  -0.6016
  O  O2149  1  0.572550  0.347250  0.782450  1.0  -0.5813
  O  O2150  1  0.493100  0.396140  0.807730  1.0  -0.5978
  O  O2151  1  0.460410  0.362370  0.857860  1.0  -0.5993
  O  O2152  1  0.513800  0.325360  0.878350  1.0  -0.6252
  O  O2153  1  0.545870  0.359180  0.826880  1.0  -0.6042
  O  O2154  1  0.968700  0.269320  0.594640  1.0  -0.6149
  O  O2155  1  0.947510  0.249460  0.655800  1.0  -0.6234
  O  O2156  1  0.940280  0.315260  0.568590  1.0  -0.6083
  O  O2157  1  0.902350  0.278400  0.682560  1.0  -0.5922
  O  O2158  1  0.917400  0.379990  0.597300  1.0  -0.5944
  O  O2159  1  0.887060  0.347610  0.600090  1.0  -0.5851
  O  O2160  1  0.670400  0.395570  0.488520  1.0  -0.6024
  O  O2161  1  0.605200  0.417340  0.510230  1.0  -0.6061
  O  O2162  1  0.744850  0.257210  0.691090  1.0  -0.5737
  O  O2163  1  0.747060  0.203470  0.803080  1.0  -0.6088
  O  O2164  1  0.771700  0.209470  0.717060  1.0  -0.5881
  O  O2165  1  0.764250  0.333020  0.520010  1.0  -0.5982
  O  O2166  1  0.782450  0.297760  0.572550  1.0  -0.5856
  O  O2167  1  0.807730  0.303030  0.493100  1.0  -0.5998
  O  O2168  1  0.857860  0.319360  0.460410  1.0  -0.5978
  O  O2169  1  0.878350  0.282490  0.513800  1.0  -0.6227
  O  O2170  1  0.826880  0.268070  0.545870  1.0  -0.6037
  O  O2171  1  0.594640  0.167330  0.968700  1.0  -0.6176
  O  O2172  1  0.655800  0.147230  0.947510  1.0  -0.6236
  O  O2173  1  0.568590  0.175870  0.940280  1.0  -0.6062
  O  O2174  1  0.682560  0.136690  0.902350  1.0  -0.5917
  O  O2175  1  0.597300  0.105300  0.917400  1.0  -0.5974
  O  O2176  1  0.600090  0.165230  0.887060  1.0  -0.5836
  O  O2177  1  0.670400  0.445510  0.395570  1.0  -0.5995
  O  O2178  1  0.605200  0.467230  0.417340  1.0  -0.5872
  O  O2179  1  0.744850  0.306850  0.257210  1.0  -0.5732
  O  O2180  1  0.747060  0.246390  0.203470  1.0  -0.6161
  O  O2181  1  0.771700  0.301780  0.209470  1.0  -0.5844
  O  O2182  1  0.764250  0.382710  0.333020  1.0  -0.6
  O  O2183  1  0.782450  0.347250  0.297760  1.0  -0.5809
  O  O2184  1  0.807730  0.396140  0.303030  1.0  -0.5976
  O  O2185  1  0.857860  0.362370  0.319360  1.0  -0.5973
  O  O2186  1  0.878350  0.325360  0.282490  1.0  -0.6258
  O  O2187  1  0.826880  0.359180  0.268070  1.0  -0.6036
  O  O2188  1  0.594640  0.269320  0.167330  1.0  -0.6154
  O  O2189  1  0.655800  0.249460  0.147230  1.0  -0.6224
  O  O2190  1  0.568590  0.315260  0.175870  1.0  -0.6108
  O  O2191  1  0.682560  0.278400  0.136690  1.0  -0.5902
  O  O2192  1  0.597300  0.379990  0.105300  1.0  -0.5964
  O  O2193  1  0.600090  0.347610  0.165230  1.0  -0.5846
  O  O2194  1  0.488520  0.395570  0.445510  1.0  -0.6024
  O  O2195  1  0.510230  0.417340  0.467230  1.0  -0.6067
  O  O2196  1  0.691090  0.257210  0.306850  1.0  -0.5835
  O  O2197  1  0.803080  0.203470  0.246390  1.0  -0.6099
  O  O2198  1  0.717060  0.209470  0.301780  1.0  -0.5862
  O  O2199  1  0.520010  0.333020  0.382710  1.0  -0.5953
  O  O2200  1  0.572550  0.297760  0.347250  1.0  -0.5821
  O  O2201  1  0.493100  0.303030  0.396140  1.0  -0.6007
  O  O2202  1  0.460410  0.319360  0.362370  1.0  -0.5972
  O  O2203  1  0.513800  0.282490  0.325360  1.0  -0.6245
  O  O2204  1  0.545870  0.268070  0.359180  1.0  -0.6032
  O  O2205  1  0.968700  0.167330  0.269320  1.0  -0.6129
  O  O2206  1  0.947510  0.147230  0.249460  1.0  -0.6256
  O  O2207  1  0.940280  0.175870  0.315260  1.0  -0.6061
  O  O2208  1  0.902350  0.136690  0.278400  1.0  -0.5948
  O  O2209  1  0.917400  0.105300  0.379990  1.0  -0.5973
  O  O2210  1  0.887060  0.165230  0.347610  1.0  -0.5862
  O  O2211  1  0.395570  0.488520  0.670400  1.0  -0.6046
  O  O2212  1  0.417340  0.510230  0.605200  1.0  -0.6064
  O  O2213  1  0.257210  0.691090  0.744850  1.0  -0.5742
  O  O2214  1  0.203470  0.803080  0.747060  1.0  -0.6099
  O  O2215  1  0.209470  0.717060  0.771700  1.0  -0.5881
  O  O2216  1  0.333020  0.520010  0.764250  1.0  -0.5987
  O  O2217  1  0.297760  0.572550  0.782450  1.0  -0.5875
  O  O2218  1  0.303030  0.493100  0.807730  1.0  -0.5995
  O  O2219  1  0.319360  0.460410  0.857860  1.0  -0.5989
  O  O2220  1  0.282490  0.513800  0.878350  1.0  -0.6248
  O  O2221  1  0.268070  0.545870  0.826880  1.0  -0.6019
  O  O2222  1  0.167330  0.968700  0.594640  1.0  -0.6148
  O  O2223  1  0.147230  0.947510  0.655800  1.0  -0.624
  O  O2224  1  0.175870  0.940280  0.568590  1.0  -0.6064
  O  O2225  1  0.136690  0.902350  0.682560  1.0  -0.5943
  O  O2226  1  0.105300  0.917400  0.597300  1.0  -0.5967
  O  O2227  1  0.165230  0.887060  0.600090  1.0  -0.5841
  O  O2228  1  0.445510  0.670400  0.488520  1.0  -0.6005
  O  O2229  1  0.467230  0.605200  0.510230  1.0  -0.6077
  O  O2230  1  0.306850  0.744850  0.691090  1.0  -0.5737
  O  O2231  1  0.246390  0.747060  0.803080  1.0  -0.6102
  O  O2232  1  0.301780  0.771700  0.717060  1.0  -0.5973
  O  O2233  1  0.382710  0.764250  0.520010  1.0  -0.6042
  O  O2234  1  0.347250  0.782450  0.572550  1.0  -0.5824
  O  O2235  1  0.396140  0.807730  0.493100  1.0  -0.6004
  O  O2236  1  0.362370  0.857860  0.460410  1.0  -0.5994
  O  O2237  1  0.325360  0.878350  0.513800  1.0  -0.624
  O  O2238  1  0.359180  0.826880  0.545870  1.0  -0.6037
  O  O2239  1  0.269320  0.594640  0.968700  1.0  -0.6113
  O  O2240  1  0.249460  0.655800  0.947510  1.0  -0.6238
  O  O2241  1  0.315260  0.568590  0.940280  1.0  -0.609
  O  O2242  1  0.278400  0.682560  0.902350  1.0  -0.5941
  O  O2243  1  0.379990  0.597300  0.917400  1.0  -0.5946
  O  O2244  1  0.347610  0.600090  0.887060  1.0  -0.5862
  O  O2245  1  0.488520  0.670400  0.445510  1.0  -0.6007
  O  O2246  1  0.510230  0.605200  0.467230  1.0  -0.6076
  O  O2247  1  0.691090  0.744850  0.306850  1.0  -0.5813
  O  O2248  1  0.803080  0.747060  0.246390  1.0  -0.6109
  O  O2249  1  0.717060  0.771690  0.301780  1.0  -0.6049
  O  O2250  1  0.520010  0.764250  0.382710  1.0  -0.6042
  O  O2251  1  0.572550  0.782450  0.347250  1.0  -0.5808
  O  O2252  1  0.493100  0.807730  0.396140  1.0  -0.5983
  O  O2253  1  0.460410  0.857860  0.362370  1.0  -0.5996
  O  O2254  1  0.513800  0.878350  0.325360  1.0  -0.6209
  O  O2255  1  0.545870  0.826880  0.359180  1.0  -0.6016
  O  O2256  1  0.968700  0.594640  0.269320  1.0  -0.6123
  O  O2257  1  0.947510  0.655800  0.249460  1.0  -0.6233
  O  O2258  1  0.940280  0.568590  0.315260  1.0  -0.6089
  O  O2259  1  0.902350  0.682560  0.278400  1.0  -0.5932
  O  O2260  1  0.917400  0.597300  0.379990  1.0  -0.5979
  O  O2261  1  0.887060  0.600090  0.347610  1.0  -0.5857
  O  O2262  1  0.670400  0.488520  0.395570  1.0  -0.6045
  O  O2263  1  0.605200  0.510230  0.417340  1.0  -0.6064
  O  O2264  1  0.744850  0.691090  0.257210  1.0  -0.5822
  O  O2265  1  0.747060  0.803080  0.203470  1.0  -0.6077
  O  O2266  1  0.771690  0.717060  0.209470  1.0  -0.6041
  O  O2267  1  0.764250  0.520010  0.333020  1.0  -0.6026
  O  O2268  1  0.782450  0.572550  0.297760  1.0  -0.586
  O  O2269  1  0.807730  0.493100  0.303030  1.0  -0.6008
  O  O2270  1  0.857860  0.460410  0.319360  1.0  -0.5967
  O  O2271  1  0.878350  0.513800  0.282490  1.0  -0.6208
  O  O2272  1  0.826880  0.545870  0.268070  1.0  -0.6012
  O  O2273  1  0.594640  0.968700  0.167330  1.0  -0.6137
  O  O2274  1  0.655800  0.947510  0.147230  1.0  -0.6249
  O  O2275  1  0.568590  0.940280  0.175870  1.0  -0.6069
  O  O2276  1  0.682560  0.902350  0.136690  1.0  -0.5919
  O  O2277  1  0.597300  0.917400  0.105300  1.0  -0.5983
  O  O2278  1  0.600090  0.887060  0.165230  1.0  -0.5833
  O  O2279  1  0.445510  0.395570  0.488520  1.0  -0.6008
  O  O2280  1  0.467230  0.417340  0.510230  1.0  -0.6057
  O  O2281  1  0.306850  0.257210  0.691090  1.0  -0.582
  O  O2282  1  0.246390  0.203470  0.803080  1.0  -0.6099
  O  O2283  1  0.301780  0.209470  0.717060  1.0  -0.6019
  O  O2284  1  0.382710  0.333020  0.520010  1.0  -0.5919
  O  O2285  1  0.347250  0.297760  0.572550  1.0  -0.581
  O  O2286  1  0.396140  0.303030  0.493100  1.0  -0.5997
  O  O2287  1  0.362370  0.319360  0.460410  1.0  -0.5961
  O  O2288  1  0.325360  0.282490  0.513800  1.0  -0.6246
  O  O2289  1  0.359180  0.268070  0.545870  1.0  -0.6023
  O  O2290  1  0.269320  0.167330  0.968700  1.0  -0.6138
  O  O2291  1  0.249460  0.147230  0.947510  1.0  -0.6233
  O  O2292  1  0.315260  0.175870  0.940280  1.0  -0.6073
  O  O2293  1  0.278400  0.136690  0.902350  1.0  -0.5944
  O  O2294  1  0.379990  0.105300  0.917400  1.0  -0.5967
  O  O2295  1  0.347610  0.165230  0.887060  1.0  -0.5843
  O  O2296  1  0.395570  0.445510  0.670400  1.0  -0.6019
  O  O2297  1  0.417340  0.467230  0.605200  1.0  -0.5875
  O  O2298  1  0.257210  0.306850  0.744850  1.0  -0.581
  O  O2299  1  0.203470  0.246390  0.747060  1.0  -0.6154
  O  O2300  1  0.209470  0.301780  0.771690  1.0  -0.598
  O  O2301  1  0.333020  0.382710  0.764250  1.0  -0.5956
  O  O2302  1  0.297760  0.347250  0.782450  1.0  -0.5825
  O  O2303  1  0.303030  0.396140  0.807730  1.0  -0.5987
  O  O2304  1  0.319360  0.362370  0.857860  1.0  -0.5999
  O  O2305  1  0.282490  0.325360  0.878350  1.0  -0.6264
  O  O2306  1  0.268070  0.359180  0.826880  1.0  -0.603
  O  O2307  1  0.167330  0.269320  0.594640  1.0  -0.614
  O  O2308  1  0.147230  0.249460  0.655800  1.0  -0.6232
  O  O2309  1  0.175870  0.315260  0.568590  1.0  -0.6088
  O  O2310  1  0.136690  0.278400  0.682560  1.0  -0.5915
  O  O2311  1  0.105300  0.379990  0.597300  1.0  -0.596
  O  O2312  1  0.165230  0.347610  0.600090  1.0  -0.5837
  O  O2313  1  0.445510  0.488520  0.670400  1.0  -0.6013
  O  O2314  1  0.467230  0.510230  0.605200  1.0  -0.6082
  O  O2315  1  0.306850  0.691090  0.744850  1.0  -0.5786
  O  O2316  1  0.246390  0.803080  0.747060  1.0  -0.6101
  O  O2317  1  0.301780  0.717060  0.771690  1.0  -0.6025
  O  O2318  1  0.382710  0.520010  0.764250  1.0  -0.6017
  O  O2319  1  0.347250  0.572550  0.782450  1.0  -0.5816
  O  O2320  1  0.396140  0.493100  0.807730  1.0  -0.5984
  O  O2321  1  0.362370  0.460410  0.857860  1.0  -0.599
  O  O2322  1  0.325360  0.513800  0.878350  1.0  -0.6232
  O  O2323  1  0.359180  0.545870  0.826880  1.0  -0.6035
  O  O2324  1  0.269320  0.968700  0.594640  1.0  -0.6149
  O  O2325  1  0.249460  0.947510  0.655800  1.0  -0.625
  O  O2326  1  0.315260  0.940280  0.568590  1.0  -0.6078
  O  O2327  1  0.278400  0.902350  0.682560  1.0  -0.5941
  O  O2328  1  0.379990  0.917400  0.597300  1.0  -0.5932
  O  O2329  1  0.347610  0.887060  0.600090  1.0  -0.5839
  O  O2330  1  0.395570  0.670400  0.488520  1.0  -0.6031
  O  O2331  1  0.417340  0.605200  0.510230  1.0  -0.6044
  O  O2332  1  0.257210  0.744850  0.691090  1.0  -0.5806
  O  O2333  1  0.203470  0.747060  0.803080  1.0  -0.6099
  O  O2334  1  0.209470  0.771690  0.717060  1.0  -0.6034
  O  O2335  1  0.333020  0.764250  0.520010  1.0  -0.6002
  O  O2336  1  0.297760  0.782450  0.572550  1.0  -0.586
  O  O2337  1  0.303030  0.807730  0.493100  1.0  -0.6021
  O  O2338  1  0.319360  0.857860  0.460410  1.0  -0.5983
  O  O2339  1  0.282490  0.878350  0.513800  1.0  -0.6235
  O  O2340  1  0.268070  0.826880  0.545870  1.0  -0.6042
  O  O2341  1  0.167330  0.594640  0.968700  1.0  -0.6149
  O  O2342  1  0.147230  0.655800  0.947510  1.0  -0.623
  O  O2343  1  0.175870  0.568590  0.940280  1.0  -0.6073
  O  O2344  1  0.136690  0.682560  0.902350  1.0  -0.5945
  O  O2345  1  0.105300  0.597300  0.917400  1.0  -0.5971
  O  O2346  1  0.165230  0.600090  0.887060  1.0  -0.5838
  O  O2347  1  0.488520  0.445510  0.395570  1.0  -0.602
  O  O2348  1  0.510230  0.467230  0.417340  1.0  -0.6056
  O  O2349  1  0.691090  0.306850  0.257210  1.0  -0.578
  O  O2350  1  0.803080  0.246390  0.203470  1.0  -0.6124
  O  O2351  1  0.717060  0.301780  0.209470  1.0  -0.6011
  O  O2352  1  0.520010  0.382710  0.333020  1.0  -0.5985
  O  O2353  1  0.572550  0.347250  0.297760  1.0  -0.5808
  O  O2354  1  0.493100  0.396140  0.303030  1.0  -0.6004
  O  O2355  1  0.460410  0.362370  0.319360  1.0  -0.598
  O  O2356  1  0.513800  0.325360  0.282490  1.0  -0.6257
  O  O2357  1  0.545870  0.359180  0.268070  1.0  -0.6044
  O  O2358  1  0.968700  0.269320  0.167330  1.0  -0.6128
  O  O2359  1  0.947510  0.249460  0.147230  1.0  -0.6242
  O  O2360  1  0.940280  0.315260  0.175870  1.0  -0.6087
  O  O2361  1  0.902350  0.278400  0.136690  1.0  -0.5918
  O  O2362  1  0.917400  0.379990  0.105300  1.0  -0.5959
  O  O2363  1  0.887060  0.347610  0.165230  1.0  -0.5849
  O  O2364  1  0.670400  0.395570  0.445510  1.0  -0.5993
  O  O2365  1  0.605200  0.417340  0.467230  1.0  -0.5847
  O  O2366  1  0.744850  0.257210  0.306850  1.0  -0.5816
  O  O2367  1  0.747060  0.203470  0.246390  1.0  -0.6145
  O  O2368  1  0.771690  0.209470  0.301780  1.0  -0.5954
  O  O2369  1  0.764250  0.333020  0.382710  1.0  -0.5974
  O  O2370  1  0.782450  0.297760  0.347250  1.0  -0.5815
  O  O2371  1  0.807730  0.303030  0.396140  1.0  -0.599
  O  O2372  1  0.857860  0.319360  0.362370  1.0  -0.5981
  O  O2373  1  0.878350  0.282490  0.325360  1.0  -0.6232
  O  O2374  1  0.826880  0.268070  0.359180  1.0  -0.6045
  O  O2375  1  0.594640  0.167330  0.269320  1.0  -0.6204
  O  O2376  1  0.655800  0.147230  0.249460  1.0  -0.6267
  O  O2377  1  0.568590  0.175870  0.315260  1.0  -0.6086
  O  O2378  1  0.682560  0.136690  0.278400  1.0  -0.5919
  O  O2379  1  0.597300  0.105300  0.379990  1.0  -0.5973
  O  O2380  1  0.600090  0.165230  0.347610  1.0  -0.5836
  O  O2381  1  0.670400  0.445510  0.488520  1.0  -0.5994
  O  O2382  1  0.605200  0.467230  0.510230  1.0  -0.6074
  O  O2383  1  0.744850  0.306850  0.691090  1.0  -0.5789
  O  O2384  1  0.747060  0.246390  0.803080  1.0  -0.6124
  O  O2385  1  0.771690  0.301780  0.717060  1.0  -0.6017
  O  O2386  1  0.764250  0.382710  0.520010  1.0  -0.604
  O  O2387  1  0.782450  0.347250  0.572550  1.0  -0.581
  O  O2388  1  0.807730  0.396140  0.493100  1.0  -0.5974
  O  O2389  1  0.857860  0.362370  0.460410  1.0  -0.5985
  O  O2390  1  0.878350  0.325360  0.513800  1.0  -0.6253
  O  O2391  1  0.826880  0.359180  0.545870  1.0  -0.6037
  O  O2392  1  0.594640  0.269320  0.968700  1.0  -0.6155
  O  O2393  1  0.655800  0.249460  0.947510  1.0  -0.6227
  O  O2394  1  0.568590  0.315260  0.940280  1.0  -0.611
  O  O2395  1  0.682560  0.278400  0.902350  1.0  -0.5909
  O  O2396  1  0.597300  0.379990  0.917400  1.0  -0.5948
  O  O2397  1  0.600090  0.347610  0.887060  1.0  -0.5855
  O  O2398  1  0.488520  0.395570  0.670400  1.0  -0.6067
  O  O2399  1  0.510230  0.417340  0.605200  1.0  -0.607
  O  O2400  1  0.691090  0.257210  0.744850  1.0  -0.5816
  O  O2401  1  0.803080  0.203470  0.747060  1.0  -0.6087
  O  O2402  1  0.717060  0.209470  0.771690  1.0  -0.6017
  O  O2403  1  0.520010  0.333020  0.764250  1.0  -0.5978
  O  O2404  1  0.572550  0.297760  0.782450  1.0  -0.5866
  O  O2405  1  0.493100  0.303030  0.807730  1.0  -0.6013
  O  O2406  1  0.460410  0.319360  0.857860  1.0  -0.5969
  O  O2407  1  0.513800  0.282490  0.878350  1.0  -0.625
  O  O2408  1  0.545870  0.268070  0.826880  1.0  -0.6035
  O  O2409  1  0.968700  0.167330  0.594640  1.0  -0.6129
  O  O2410  1  0.947510  0.147230  0.655800  1.0  -0.6257
  O  O2411  1  0.940280  0.175870  0.568590  1.0  -0.6052
  O  O2412  1  0.902350  0.136690  0.682560  1.0  -0.5941
  O  O2413  1  0.917400  0.105300  0.597300  1.0  -0.5971
  O  O2414  1  0.887060  0.165230  0.600090  1.0  -0.5861
  O  O2415  1  0.395570  0.488520  0.445510  1.0  -0.6024
  O  O2416  1  0.417340  0.510230  0.467230  1.0  -0.6074
  O  O2417  1  0.257210  0.691090  0.306850  1.0  -0.5832
  O  O2418  1  0.203470  0.803080  0.246390  1.0  -0.6098
  O  O2419  1  0.209470  0.717060  0.301780  1.0  -0.6013
  O  O2420  1  0.333020  0.520010  0.382710  1.0  -0.5968
  O  O2421  1  0.297760  0.572550  0.347250  1.0  -0.5823
  O  O2422  1  0.303030  0.493100  0.396140  1.0  -0.5999
  O  O2423  1  0.319360  0.460410  0.362370  1.0  -0.5988
  O  O2424  1  0.282490  0.513800  0.325360  1.0  -0.6245
  O  O2425  1  0.268070  0.545870  0.359180  1.0  -0.6021
  O  O2426  1  0.167330  0.968700  0.269320  1.0  -0.6146
  O  O2427  1  0.147230  0.947510  0.249460  1.0  -0.6249
  O  O2428  1  0.175870  0.940280  0.315260  1.0  -0.6076
  O  O2429  1  0.136690  0.902350  0.278400  1.0  -0.5953
  O  O2430  1  0.105300  0.917400  0.379990  1.0  -0.596
  O  O2431  1  0.165230  0.887060  0.347610  1.0  -0.5839
  O  O2432  1  0.445510  0.670400  0.395570  1.0  -0.6002
  O  O2433  1  0.467230  0.605200  0.417340  1.0  -0.5866
  O  O2434  1  0.306850  0.744850  0.257210  1.0  -0.5814
  O  O2435  1  0.246390  0.747060  0.203470  1.0  -0.6156
  O  O2436  1  0.301780  0.771690  0.209470  1.0  -0.5938
  O  O2437  1  0.382710  0.764250  0.333020  1.0  -0.6006
  O  O2438  1  0.347250  0.782450  0.297760  1.0  -0.5822
  O  O2439  1  0.396140  0.807730  0.303030  1.0  -0.5995
  O  O2440  1  0.362370  0.857860  0.319360  1.0  -0.5988
  O  O2441  1  0.325360  0.878350  0.282490  1.0  -0.6245
  O  O2442  1  0.359180  0.826880  0.268070  1.0  -0.6044
  O  O2443  1  0.269320  0.594640  0.167330  1.0  -0.6117
  O  O2444  1  0.249460  0.655800  0.147230  1.0  -0.6231
  O  O2445  1  0.315260  0.568590  0.175870  1.0  -0.6088
  O  O2446  1  0.278400  0.682560  0.136690  1.0  -0.5931
  O  O2447  1  0.379990  0.597300  0.105300  1.0  -0.5955
  O  O2448  1  0.347610  0.600090  0.165230  1.0  -0.5851
  O  O2449  1  0.761480  0.579600  0.854430  1.0  -0.6046
  O  O2450  1  0.739770  0.644800  0.832660  1.0  -0.6054
  O  O2451  1  0.558910  0.505150  0.992790  1.0  -0.5806
  O  O2452  1  0.446920  0.502940  0.046530  1.0  -0.6107
  O  O2453  1  0.532940  0.478310  0.040530  1.0  -0.6031
  O  O2454  1  0.729990  0.485750  0.916980  1.0  -0.6002
  O  O2455  1  0.677450  0.467550  0.952240  1.0  -0.5846
  O  O2456  1  0.756900  0.442270  0.946970  1.0  -0.5988
  O  O2457  1  0.789590  0.392140  0.930640  1.0  -0.599
  O  O2458  1  0.736200  0.371650  0.967510  1.0  -0.6198
  O  O2459  1  0.704130  0.423120  0.981930  1.0  -0.6001
  O  O2460  1  0.281300  0.655360  0.082670  1.0  -0.6114
  O  O2461  1  0.302490  0.594200  0.102770  1.0  -0.6225
  O  O2462  1  0.309720  0.681410  0.074130  1.0  -0.6076
  O  O2463  1  0.347650  0.567440  0.113310  1.0  -0.5954
  O  O2464  1  0.332600  0.652700  0.144700  1.0  -0.5965
  O  O2465  1  0.362940  0.649910  0.084770  1.0  -0.5845
  O  O2466  1  0.579600  0.761480  0.804490  1.0  -0.6037
  O  O2467  1  0.644800  0.739770  0.782770  1.0  -0.6098
  O  O2468  1  0.505150  0.558910  0.943150  1.0  -0.5826
  O  O2469  1  0.502940  0.446920  0.003610  1.0  -0.6093
  O  O2470  1  0.478310  0.532940  0.948220  1.0  -0.6053
  O  O2471  1  0.485750  0.729990  0.867290  1.0  -0.6048
  O  O2472  1  0.467550  0.677450  0.902750  1.0  -0.5837
  O  O2473  1  0.442270  0.756900  0.853860  1.0  -0.6007
  O  O2474  1  0.392140  0.789590  0.887630  1.0  -0.5963
  O  O2475  1  0.371650  0.736200  0.924640  1.0  -0.622
  O  O2476  1  0.423120  0.704130  0.890820  1.0  -0.6016
  O  O2477  1  0.655360  0.281300  0.980680  1.0  -0.6139
  O  O2478  1  0.594200  0.302490  0.000540  1.0  -0.6245
  O  O2479  1  0.681410  0.309720  0.934740  1.0  -0.6056
  O  O2480  1  0.567440  0.347650  0.971600  1.0  -0.5929
  O  O2481  1  0.652700  0.332600  0.870010  1.0  -0.5965
  O  O2482  1  0.649910  0.362940  0.902390  1.0  -0.5839
  O  O2483  1  0.804490  0.854430  0.579600  1.0  -0.5993
  O  O2484  1  0.782770  0.832660  0.644800  1.0  -0.5856
  O  O2485  1  0.943150  0.992790  0.505150  1.0  -0.5835
  O  O2486  1  0.003610  0.046530  0.502940  1.0  -0.6147
  O  O2487  1  0.948220  0.040530  0.478310  1.0  -0.597
  O  O2488  1  0.867290  0.916980  0.485750  1.0  -0.5954
  O  O2489  1  0.902750  0.952240  0.467550  1.0  -0.5809
  O  O2490  1  0.853860  0.946970  0.442270  1.0  -0.6008
  O  O2491  1  0.887630  0.930640  0.392140  1.0  -0.5976
  O  O2492  1  0.924640  0.967510  0.371650  1.0  -0.625
  O  O2493  1  0.890820  0.981930  0.423120  1.0  -0.6043
  O  O2494  1  0.980680  0.082670  0.655360  1.0  -0.6146
  O  O2495  1  0.000540  0.102770  0.594200  1.0  -0.6222
  O  O2496  1  0.934740  0.074130  0.681410  1.0  -0.6081
  O  O2497  1  0.971600  0.113310  0.567440  1.0  -0.5919
  O  O2498  1  0.870010  0.144700  0.652700  1.0  -0.5987
  O  O2499  1  0.902390  0.084770  0.649910  1.0  -0.5842
  O  O2500  1  0.854430  0.804490  0.761480  1.0  -0.5992
  O  O2501  1  0.832660  0.782770  0.739770  1.0  -0.6064
  O  O2502  1  0.992790  0.943150  0.558910  1.0  -0.5802
  O  O2503  1  0.046530  0.003610  0.446920  1.0  -0.6113
  O  O2504  1  0.040530  0.948220  0.532940  1.0  -0.6027
  O  O2505  1  0.916980  0.867290  0.729990  1.0  -0.5937
  O  O2506  1  0.952240  0.902750  0.677450  1.0  -0.582
  O  O2507  1  0.946970  0.853860  0.756900  1.0  -0.6003
  O  O2508  1  0.930640  0.887630  0.789590  1.0  -0.6006
  O  O2509  1  0.967510  0.924640  0.736200  1.0  -0.624
  O  O2510  1  0.981930  0.890820  0.704130  1.0  -0.6026
  O  O2511  1  0.082670  0.980680  0.281300  1.0  -0.6142
  O  O2512  1  0.102770  0.000540  0.302490  1.0  -0.6232
  O  O2513  1  0.074130  0.934740  0.309720  1.0  -0.6098
  O  O2514  1  0.113310  0.971600  0.347650  1.0  -0.5927
  O  O2515  1  0.144700  0.870010  0.332600  1.0  -0.5978
  O  O2516  1  0.084770  0.902390  0.362940  1.0  -0.5835
  O  O2517  1  0.804490  0.761480  0.854430  1.0  -0.6018
  O  O2518  1  0.782770  0.739770  0.832660  1.0  -0.6059
  O  O2519  1  0.943150  0.558910  0.992790  1.0  -0.5792
  O  O2520  1  0.003610  0.446920  0.046530  1.0  -0.6094
  O  O2521  1  0.948220  0.532940  0.040530  1.0  -0.6011
  O  O2522  1  0.867290  0.729990  0.916980  1.0  -0.5985
  O  O2523  1  0.902750  0.677450  0.952240  1.0  -0.5802
  O  O2524  1  0.853860  0.756900  0.946970  1.0  -0.5995
  O  O2525  1  0.887630  0.789590  0.930640  1.0  -0.5989
  O  O2526  1  0.924640  0.736200  0.967510  1.0  -0.6245
  O  O2527  1  0.890820  0.704130  0.981930  1.0  -0.6045
  O  O2528  1  0.980680  0.281300  0.082670  1.0  -0.6142
  O  O2529  1  0.000540  0.302490  0.102770  1.0  -0.6224
  O  O2530  1  0.934740  0.309720  0.074130  1.0  -0.6076
  O  O2531  1  0.971600  0.347650  0.113310  1.0  -0.5927
  O  O2532  1  0.870010  0.332600  0.144700  1.0  -0.5956
  O  O2533  1  0.902390  0.362940  0.084770  1.0  -0.585
  O  O2534  1  0.854430  0.579600  0.804490  1.0  -0.5983
  O  O2535  1  0.832660  0.644800  0.782770  1.0  -0.5833
  O  O2536  1  0.992790  0.505150  0.943150  1.0  -0.5795
  O  O2537  1  0.046530  0.502940  0.003610  1.0  -0.6145
  O  O2538  1  0.040530  0.478310  0.948220  1.0  -0.5973
  O  O2539  1  0.916980  0.485750  0.867290  1.0  -0.5995
  O  O2540  1  0.952240  0.467550  0.902750  1.0  -0.582
  O  O2541  1  0.946970  0.442270  0.853860  1.0  -0.5993
  O  O2542  1  0.930640  0.392140  0.887630  1.0  -0.5987
  O  O2543  1  0.967510  0.371650  0.924640  1.0  -0.6222
  O  O2544  1  0.981930  0.423120  0.890820  1.0  -0.6014
  O  O2545  1  0.082670  0.655360  0.980680  1.0  -0.6165
  O  O2546  1  0.102770  0.594200  0.000540  1.0  -0.6229
  O  O2547  1  0.074130  0.681410  0.934740  1.0  -0.6083
  O  O2548  1  0.113310  0.567440  0.971600  1.0  -0.5926
  O  O2549  1  0.144700  0.652700  0.870010  1.0  -0.5968
  O  O2550  1  0.084770  0.649910  0.902390  1.0  -0.5834
  O  O2551  1  0.761480  0.804490  0.579600  1.0  -0.6035
  O  O2552  1  0.739770  0.782770  0.644800  1.0  -0.6103
  O  O2553  1  0.558910  0.943150  0.505150  1.0  -0.5779
  O  O2554  1  0.446920  0.003610  0.502940  1.0  -0.6122
  O  O2555  1  0.532940  0.948220  0.478310  1.0  -0.602
  O  O2556  1  0.729990  0.867290  0.485750  1.0  -0.6028
  O  O2557  1  0.677450  0.902750  0.467550  1.0  -0.5804
  O  O2558  1  0.756900  0.853860  0.442270  1.0  -0.6011
  O  O2559  1  0.789590  0.887630  0.392140  1.0  -0.5991
  O  O2560  1  0.736200  0.924640  0.371650  1.0  -0.6232
  O  O2561  1  0.704130  0.890820  0.423120  1.0  -0.6056
  O  O2562  1  0.281300  0.980680  0.655360  1.0  -0.6135
  O  O2563  1  0.302490  0.000540  0.594200  1.0  -0.624
  O  O2564  1  0.309720  0.934740  0.681410  1.0  -0.6094
  O  O2565  1  0.347650  0.971600  0.567440  1.0  -0.5927
  O  O2566  1  0.332600  0.870010  0.652700  1.0  -0.5945
  O  O2567  1  0.362940  0.902390  0.649910  1.0  -0.5849
  O  O2568  1  0.579600  0.854430  0.761480  1.0  -0.6007
  O  O2569  1  0.644800  0.832660  0.739770  1.0  -0.6043
  O  O2570  1  0.505150  0.992790  0.558910  1.0  -0.5815
  O  O2571  1  0.502940  0.046530  0.446920  1.0  -0.6107
  O  O2572  1  0.478310  0.040530  0.532940  1.0  -0.6019
  O  O2573  1  0.485750  0.916980  0.729990  1.0  -0.5951
  O  O2574  1  0.467550  0.952240  0.677450  1.0  -0.5852
  O  O2575  1  0.442270  0.946970  0.756900  1.0  -0.5997
  O  O2576  1  0.392140  0.930640  0.789590  1.0  -0.599
  O  O2577  1  0.371650  0.967510  0.736200  1.0  -0.6237
  O  O2578  1  0.423120  0.981930  0.704130  1.0  -0.6027
  O  O2579  1  0.655360  0.082670  0.281300  1.0  -0.6204
  O  O2580  1  0.594200  0.102770  0.302490  1.0  -0.6279
  O  O2581  1  0.681410  0.074130  0.309720  1.0  -0.606
  O  O2582  1  0.567440  0.113310  0.347650  1.0  -0.5944
  O  O2583  1  0.652700  0.144700  0.332600  1.0  -0.5963
  O  O2584  1  0.649910  0.084770  0.362940  1.0  -0.5827
  O  O2585  1  0.579600  0.804490  0.854430  1.0  -0.6002
  O  O2586  1  0.644800  0.782770  0.832660  1.0  -0.5865
  O  O2587  1  0.505150  0.943150  0.992790  1.0  -0.5788
  O  O2588  1  0.502940  0.003610  0.046530  1.0  -0.6152
  O  O2589  1  0.478310  0.948220  0.040530  1.0  -0.5947
  O  O2590  1  0.485750  0.867290  0.916980  1.0  -0.6
  O  O2591  1  0.467550  0.902750  0.952240  1.0  -0.5826
  O  O2592  1  0.442270  0.853860  0.946970  1.0  -0.5993
  O  O2593  1  0.392140  0.887630  0.930640  1.0  -0.5994
  O  O2594  1  0.371650  0.924640  0.967510  1.0  -0.6262
  O  O2595  1  0.423120  0.890820  0.981930  1.0  -0.6035
  O  O2596  1  0.655360  0.980680  0.082670  1.0  -0.6156
  O  O2597  1  0.594200  0.000540  0.102770  1.0  -0.6239
  O  O2598  1  0.681410  0.934740  0.074130  1.0  -0.6088
  O  O2599  1  0.567440  0.971600  0.113310  1.0  -0.5925
  O  O2600  1  0.652700  0.870010  0.144700  1.0  -0.5962
  O  O2601  1  0.649910  0.902390  0.084770  1.0  -0.5847
  O  O2602  1  0.761480  0.854430  0.804490  1.0  -0.6008
  O  O2603  1  0.739770  0.832660  0.782770  1.0  -0.6064
  O  O2604  1  0.558910  0.992790  0.943150  1.0  -0.5821
  O  O2605  1  0.446920  0.046530  0.003610  1.0  -0.6104
  O  O2606  1  0.532940  0.040530  0.948220  1.0  -0.6003
  O  O2607  1  0.729990  0.916980  0.867290  1.0  -0.5963
  O  O2608  1  0.677450  0.952240  0.902750  1.0  -0.582
  O  O2609  1  0.756900  0.946970  0.853860  1.0  -0.6006
  O  O2610  1  0.789590  0.930640  0.887630  1.0  -0.5974
  O  O2611  1  0.736200  0.967510  0.924640  1.0  -0.6234
  O  O2612  1  0.704130  0.981930  0.890820  1.0  -0.6034
  O  O2613  1  0.281300  0.082670  0.980680  1.0  -0.6119
  O  O2614  1  0.302490  0.102770  0.000540  1.0  -0.6261
  O  O2615  1  0.309720  0.074130  0.934740  1.0  -0.6067
  O  O2616  1  0.347650  0.113310  0.971600  1.0  -0.5945
  O  O2617  1  0.332600  0.144700  0.870010  1.0  -0.5974
  O  O2618  1  0.362940  0.084770  0.902390  1.0  -0.5857
  O  O2619  1  0.854430  0.761480  0.579600  1.0  -0.6049
  O  O2620  1  0.832660  0.739770  0.644800  1.0  -0.6045
  O  O2621  1  0.992790  0.558910  0.505150  1.0  -0.5814
  O  O2622  1  0.046530  0.446920  0.502940  1.0  -0.6113
  O  O2623  1  0.040530  0.532940  0.478310  1.0  -0.6027
  O  O2624  1  0.916980  0.729990  0.485750  1.0  -0.5976
  O  O2625  1  0.952240  0.677450  0.467550  1.0  -0.5863
  O  O2626  1  0.946970  0.756900  0.442270  1.0  -0.5995
  O  O2627  1  0.930640  0.789590  0.392140  1.0  -0.5986
  O  O2628  1  0.967510  0.736200  0.371650  1.0  -0.6228
  O  O2629  1  0.981930  0.704130  0.423120  1.0  -0.6004
  O  O2630  1  0.082670  0.281300  0.655360  1.0  -0.6152
  O  O2631  1  0.102770  0.302490  0.594200  1.0  -0.6244
  O  O2632  1  0.074130  0.309720  0.681410  1.0  -0.6084
  O  O2633  1  0.113310  0.347650  0.567440  1.0  -0.5953
  O  O2634  1  0.144700  0.332600  0.652700  1.0  -0.5959
  O  O2635  1  0.084770  0.362940  0.649910  1.0  -0.5854
  O  O2636  1  0.804490  0.579600  0.761480  1.0  -0.5999
  O  O2637  1  0.782770  0.644800  0.739770  1.0  -0.6085
  O  O2638  1  0.943150  0.505150  0.558910  1.0  -0.5824
  O  O2639  1  0.003610  0.502940  0.446920  1.0  -0.6118
  O  O2640  1  0.948220  0.478310  0.532940  1.0  -0.6023
  O  O2641  1  0.867290  0.485750  0.729990  1.0  -0.6044
  O  O2642  1  0.902750  0.467550  0.677450  1.0  -0.582
  O  O2643  1  0.853860  0.442270  0.756900  1.0  -0.6015
  O  O2644  1  0.887630  0.392140  0.789590  1.0  -0.5985
  O  O2645  1  0.924640  0.371650  0.736200  1.0  -0.6264
  O  O2646  1  0.890820  0.423120  0.704130  1.0  -0.6026
  O  O2647  1  0.980680  0.655360  0.281300  1.0  -0.6129
  O  O2648  1  0.000540  0.594200  0.302490  1.0  -0.6228
  O  O2649  1  0.934740  0.681410  0.309720  1.0  -0.6087
  O  O2650  1  0.971600  0.567440  0.347650  1.0  -0.5932
  O  O2651  1  0.870010  0.652700  0.332600  1.0  -0.5971
  O  O2652  1  0.902390  0.649910  0.362940  1.0  -0.5864
  O  O2653  1  0.732450  0.430270  0.918640  1.0  -0.9924
  O  O2654  1  0.430270  0.732450  0.918640  1.0  -0.9924
  O  O2655  1  0.918640  0.918640  0.732450  1.0  -0.9876
  O  O2656  1  0.918640  0.918640  0.430270  1.0  -0.9836
  O  O2657  1  0.918640  0.732450  0.430270  1.0  -0.9922
  O  O2658  1  0.918640  0.430270  0.732450  1.0  -0.9916
  O  O2659  1  0.732450  0.918640  0.918640  1.0  -0.9877
  O  O2660  1  0.430270  0.918640  0.918640  1.0  -0.9837
  O  O2661  1  0.430270  0.918640  0.732450  1.0  -0.9915
  O  O2662  1  0.732450  0.918640  0.430270  1.0  -0.9923
  O  O2663  1  0.918640  0.732450  0.918640  1.0  -0.9876
  O  O2664  1  0.918640  0.430270  0.918640  1.0  -0.9837
  O  O2665  1  0.517550  0.819730  0.331360  1.0  -0.9919
  O  O2666  1  0.819730  0.517550  0.331360  1.0  -0.9919
  O  O2667  1  0.331360  0.331360  0.819730  1.0  -0.9828
  O  O2668  1  0.331360  0.331360  0.517550  1.0  -0.988
  O  O2669  1  0.331360  0.517550  0.331360  1.0  -0.9881
  O  O2670  1  0.331360  0.819730  0.331360  1.0  -0.9832
  O  O2671  1  0.517550  0.331360  0.819730  1.0  -0.9913
  O  O2672  1  0.819730  0.331360  0.517550  1.0  -0.9923
  O  O2673  1  0.819730  0.331360  0.331360  1.0  -0.9831
  O  O2674  1  0.517550  0.331360  0.331360  1.0  -0.9881
  O  O2675  1  0.331360  0.517550  0.819730  1.0  -0.9915
  O  O2676  1  0.331360  0.819730  0.517550  1.0  -0.9924
  O  O2677  1  0.504110  0.504110  0.995890  1.0  -1.0201
  O  O2678  1  0.995890  0.995890  0.504110  1.0  -1.0248
  O  O2679  1  0.995890  0.504110  0.504110  1.0  -1.0195
  O  O2680  1  0.504110  0.995890  0.995890  1.0  -1.0245
  O  O2681  1  0.504110  0.995890  0.504110  1.0  -1.0198
  O  O2682  1  0.995890  0.504110  0.995890  1.0  -1.0242
  O  O2683  1  0.745890  0.745890  0.254110  1.0  -1.0195
  O  O2684  1  0.254110  0.254110  0.745890  1.0  -1.0253
  O  O2685  1  0.254110  0.745890  0.254110  1.0  -1.0251
  O  O2686  1  0.745890  0.254110  0.745890  1.0  -1.0189
  O  O2687  1  0.745890  0.254110  0.254110  1.0  -1.0248
  O  O2688  1  0.254110  0.745890  0.745890  1.0  -1.0192
  O  O2689  1  0.314540  0.625000  0.935460  1.0  -1.0023
  O  O2690  1  0.625000  0.314540  0.125000  1.0  -1.0062
  O  O2691  1  0.935460  0.125000  0.314540  1.0  -1.0063
  O  O2692  1  0.125000  0.935460  0.625000  1.0  -1.0063
  O  O2693  1  0.935460  0.314540  0.625000  1.0  -1.0042
  O  O2694  1  0.125000  0.625000  0.314540  1.0  -1.0063
  O  O2695  1  0.314540  0.935460  0.125000  1.0  -1.0072
  O  O2696  1  0.625000  0.125000  0.935460  1.0  -1.0057
  O  O2697  1  0.625000  0.935460  0.314540  1.0  -1.0029
  O  O2698  1  0.314540  0.125000  0.625000  1.0  -1.006
  O  O2699  1  0.125000  0.314540  0.935460  1.0  -1.0062
  O  O2700  1  0.935460  0.625000  0.125000  1.0  -1.0063
  O  O2701  1  0.935460  0.625000  0.314540  1.0  -1.0028
  O  O2702  1  0.625000  0.935460  0.125000  1.0  -1.0063
  O  O2703  1  0.314540  0.125000  0.935460  1.0  -1.0058
  O  O2704  1  0.125000  0.314540  0.625000  1.0  -1.0062
  O  O2705  1  0.314540  0.935460  0.625000  1.0  -1.0037
  O  O2706  1  0.125000  0.625000  0.935460  1.0  -1.0058
  O  O2707  1  0.935460  0.314540  0.125000  1.0  -1.0076
  O  O2708  1  0.625000  0.125000  0.314540  1.0  -1.0062
  O  O2709  1  0.625000  0.314540  0.935460  1.0  -1.0027
  O  O2710  1  0.935460  0.125000  0.625000  1.0  -1.0062
  O  O2711  1  0.125000  0.935460  0.314540  1.0  -1.0064
  O  O2712  1  0.314540  0.625000  0.125000  1.0  -1.0062
  O  O2713  1  0.795940  0.612180  0.795940  1.0  -0.986
  O  O2714  1  0.612180  0.795940  0.795940  1.0  -0.9861
  O  O2715  1  0.795940  0.795940  0.795940  1.0  -0.9635
  O  O2716  1  0.795940  0.795940  0.612180  1.0  -0.9869
  O  O2717  1  0.454060  0.637820  0.454060  1.0  -0.9869
  O  O2718  1  0.637820  0.454060  0.454060  1.0  -0.9866
  O  O2719  1  0.454060  0.454060  0.637820  1.0  -0.986
  O  O2720  1  0.454060  0.454060  0.454060  1.0  -0.9641
