# generated using pymatgen
data_La4B4H184C149(N2O11)3
_symmetry_space_group_name_H-M   'P 1'
_cell_length_a   18.48350000
_cell_length_b   27.14720000
_cell_length_c   37.92700000
_cell_angle_alpha   90.00000000
_cell_angle_beta   90.00000000
_cell_angle_gamma   90.00000000
_symmetry_Int_Tables_number   1
_chemical_formula_structural   La4B4H184C149(N2O11)3
_chemical_formula_sum   'La16 B16 H736 C596 N24 O132'
_cell_volume   19030.83071080
_cell_formula_units_Z   4
loop_
 _symmetry_equiv_pos_site_id
 _symmetry_equiv_pos_as_xyz
  1  'x, y, z'
loop_
 _atom_site_type_symbol
 _atom_site_label
 _atom_site_symmetry_multiplicity
 _atom_site_fract_x
 _atom_site_fract_y
 _atom_site_fract_z
 _atom_site_occupancy
 _atom_site_charge
  La  La1  1  0.373810  0.259130  0.976610  1.0  2.1841
  La  La2  1  0.126190  0.759130  0.523390  1.0  2.1835
  La  La3  1  0.873810  0.759130  0.023390  1.0  2.184
  La  La4  1  0.619480  0.748510  0.900570  1.0  2.1867
  La  La5  1  0.626190  0.740870  0.023390  1.0  2.1835
  La  La6  1  0.619480  0.251490  0.599430  1.0  2.1866
  La  La7  1  0.880520  0.751490  0.900570  1.0  2.1894
  La  La8  1  0.873810  0.240870  0.476610  1.0  2.1842
  La  La9  1  0.880520  0.248510  0.599430  1.0  2.1891
  La  La10  1  0.119480  0.751490  0.400570  1.0  2.1868
  La  La11  1  0.126190  0.240870  0.976610  1.0  2.1835
  La  La12  1  0.626190  0.259130  0.476610  1.0  2.1837
  La  La13  1  0.380520  0.748510  0.400570  1.0  2.1892
  La  La14  1  0.119480  0.248510  0.099430  1.0  2.1865
  La  La15  1  0.373810  0.740870  0.523390  1.0  2.1842
  La  La16  1  0.380520  0.251490  0.099430  1.0  2.1892
  B  B17  1  0.255800  0.936600  0.967500  1.0  0.3955
  B  B18  1  0.750000  0.250000  0.825000  1.0  0.3898
  B  B19  1  0.250000  0.750000  0.175000  1.0  0.3896
  B  B20  1  0.250000  0.250000  0.325000  1.0  0.3898
  B  B21  1  0.755800  0.436600  0.032500  1.0  0.3953
  B  B22  1  0.744200  0.063400  0.032500  1.0  0.3959
  B  B23  1  0.744200  0.936600  0.467500  1.0  0.3958
  B  B24  1  0.250000  0.750000  0.753200  1.0  0.3938
  B  B25  1  0.255800  0.063400  0.532500  1.0  0.3955
  B  B26  1  0.750000  0.750000  0.675000  1.0  0.3896
  B  B27  1  0.250000  0.250000  0.746800  1.0  0.3935
  B  B28  1  0.244200  0.563400  0.967500  1.0  0.3961
  B  B29  1  0.750000  0.750000  0.253200  1.0  0.3938
  B  B30  1  0.755800  0.563400  0.467500  1.0  0.3957
  B  B31  1  0.244200  0.436600  0.532500  1.0  0.3956
  B  B32  1  0.750000  0.250000  0.246800  1.0  0.3935
  H  H33  1  0.728300  0.356500  0.187000  1.0  0.1259
  H  H34  1  0.290800  0.635600  0.472500  1.0  0.1212
  H  H35  1  0.226600  0.804200  0.108500  1.0  0.1255
  H  H36  1  0.271600  0.151600  0.492100  1.0  0.1147
  H  H37  1  0.756200  0.152100  0.379900  1.0  0.1204
  H  H38  1  0.650800  0.173600  0.796700  1.0  0.1232
  H  H39  1  0.653100  0.800200  0.220600  1.0  0.1075
  H  H40  1  0.858200  0.481000  0.397800  1.0  0.0984
  H  H41  1  0.367700  0.827800  0.059900  1.0  0.1154
  H  H42  1  0.675900  0.095600  0.394700  1.0  0.1045
  H  H43  1  0.472800  0.617300  0.099600  1.0  0.1085
  H  H44  1  0.618500  0.208700  0.101500  1.0  0.1146
  H  H45  1  0.824100  0.404400  0.394700  1.0  0.1051
  H  H46  1  0.403000  0.485400  0.581400  1.0  0.1053
  H  H47  1  0.550000  0.835000  0.568600  1.0  0.1112
  H  H48  1  0.881500  0.708700  0.398500  1.0  0.1158
  H  H49  1  0.367700  0.172200  0.440100  1.0  0.1152
  H  H50  1  0.608200  0.131800  0.913000  1.0  0.1079
  H  H51  1  0.292700  0.855500  0.893300  1.0  0.108
  H  H52  1  0.891000  0.842900  0.680700  1.0  0.1108
  H  H53  1  0.064900  0.732700  0.925500  1.0  0.1152
  H  H54  1  0.005000  0.401400  0.967000  1.0  0.1178
  H  H55  1  0.444600  0.276600  0.492800  1.0  0.1202
  H  H56  1  0.842400  0.524300  0.512400  1.0  0.1025
  H  H57  1  0.148900  0.904600  0.468300  1.0  0.12
  H  H58  1  0.267600  0.864700  0.286800  1.0  0.1219
  H  H59  1  0.463500  0.191900  0.203800  1.0  0.1186
  H  H60  1  0.773400  0.195800  0.891500  1.0  0.1264
  H  H61  1  0.184900  0.862100  0.697200  1.0  0.1198
  H  H62  1  0.771700  0.143500  0.187000  1.0  0.1262
  H  H63  1  0.851100  0.095400  0.531700  1.0  0.1197
  H  H64  1  0.709200  0.635600  0.972500  1.0  0.1217
  H  H65  1  0.387900  0.966500  0.434200  1.0  0.1099
  H  H66  1  0.112100  0.533500  0.434200  1.0  0.109
  H  H67  1  0.069500  0.708800  0.718200  1.0  0.12
  H  H68  1  0.972800  0.117300  0.900400  1.0  0.1115
  H  H69  1  0.719600  0.183100  0.203000  1.0  0.1202
  H  H70  1  0.334900  0.687800  0.202500  1.0  0.1094
  H  H71  1  0.061800  0.860200  0.065500  1.0  0.1057
  H  H72  1  0.351100  0.595400  0.468300  1.0  0.1204
  H  H73  1  0.314400  0.540800  0.022400  1.0  0.1109
  H  H74  1  0.748100  0.844800  0.635200  1.0  0.1197
  H  H75  1  0.153100  0.300200  0.779400  1.0  0.1073
  H  H76  1  0.150800  0.673600  0.203300  1.0  0.1231
  H  H77  1  0.597000  0.514600  0.418600  1.0  0.1042
  H  H78  1  0.273400  0.695800  0.108500  1.0  0.1259
  H  H79  1  0.152700  0.654900  0.288000  1.0  0.1266
  H  H80  1  0.379900  0.619000  0.540400  1.0  0.0798
  H  H81  1  0.815100  0.137900  0.302800  1.0  0.1197
  H  H82  1  0.226600  0.195800  0.391500  1.0  0.1259
  H  H83  1  0.488700  0.920500  0.362200  1.0  0.1286
  H  H84  1  0.989000  0.374000  0.613300  1.0  0.1255
  H  H85  1  0.272300  0.149400  0.297600  1.0  0.1172
  H  H86  1  0.722400  0.590000  0.948000  1.0  0.11
  H  H87  1  0.336600  0.879200  0.433600  1.0  0.1076
  H  H88  1  0.751900  0.655200  0.635200  1.0  0.1201
  H  H89  1  0.981900  0.937800  0.011000  1.0  0.0977
  H  H90  1  0.549000  0.019900  0.591600  1.0  0.1361
  H  H91  1  0.780400  0.316900  0.203000  1.0  0.1205
  H  H92  1  0.044100  0.917800  0.433300  1.0  0.1317
  H  H93  1  0.346900  0.800200  0.720600  1.0  0.1088
  H  H94  1  0.438200  0.360200  0.434500  1.0  0.103
  H  H95  1  0.229100  0.880900  0.035100  1.0  0.1193
  H  H96  1  0.997200  0.181200  0.325300  1.0  0.1134
  H  H97  1  0.104600  0.409900  0.916800  1.0  0.1132
  H  H98  1  0.271700  0.356500  0.687000  1.0  0.1257
  H  H99  1  0.922700  0.084900  0.924400  1.0  0.0971
  H  H100  1  0.141800  0.519000  0.602200  1.0  0.0987
  H  H101  1  0.555400  0.276600  0.992800  1.0  0.1186
  H  H102  1  0.688100  0.363100  0.350600  1.0  0.1145
  H  H103  1  0.011300  0.938300  0.905600  1.0  0.1091
  H  H104  1  0.015200  0.116500  0.096900  1.0  0.1205
  H  H105  1  0.950000  0.665000  0.568600  1.0  0.1116
  H  H106  1  0.834900  0.812200  0.702500  1.0  0.1101
  H  H107  1  0.343100  0.310600  0.623800  1.0  0.1092
  H  H108  1  0.364000  0.552600  0.893900  1.0  0.1111
  H  H109  1  0.464300  0.929900  0.500300  1.0  0.1164
  H  H110  1  0.290300  0.675000  0.030700  1.0  0.1191
  H  H111  1  0.011000  0.626000  0.386700  1.0  0.1256
  H  H112  1  0.984800  0.883500  0.903100  1.0  0.1211
  H  H113  1  0.555400  0.723400  0.507200  1.0  0.1178
  H  H114  1  0.728400  0.848400  0.507900  1.0  0.114
  H  H115  1  0.839300  0.171600  0.271300  1.0  0.1223
  H  H116  1  0.888900  0.443300  0.961900  1.0  0.1124
  H  H117  1  0.130200  0.143100  0.644800  1.0  0.1148
  H  H118  1  0.650800  0.826400  0.703300  1.0  0.122
  H  H119  1  0.511000  0.126000  0.613300  1.0  0.1263
  H  H120  1  0.814400  0.959200  0.522400  1.0  0.1117
  H  H121  1  0.903000  0.014600  0.081400  1.0  0.1042
  H  H122  1  0.767600  0.364700  0.713200  1.0  0.1217
  H  H123  1  0.153100  0.699800  0.720600  1.0  0.11
  H  H124  1  0.511300  0.438300  0.094400  1.0  0.1078
  H  H125  1  0.995000  0.598600  0.033000  1.0  0.1183
  H  H126  1  0.324100  0.095600  0.894700  1.0  0.1048
  H  H127  1  0.536500  0.808100  0.796200  1.0  0.1171
  H  H128  1  0.049000  0.519900  0.408400  1.0  0.1355
  H  H129  1  0.185600  0.040800  0.477600  1.0  0.1116
  H  H130  1  0.400400  0.165500  0.758700  1.0  0.1162
  H  H131  1  0.777600  0.910000  0.948000  1.0  0.1103
  H  H132  1  0.064900  0.267300  0.574500  1.0  0.1149
  H  H133  1  0.772300  0.350600  0.797600  1.0  0.1179
  H  H134  1  0.280400  0.816900  0.797000  1.0  0.1209
  H  H135  1  0.297700  0.021500  0.601300  1.0  0.1131
  H  H136  1  0.660700  0.671600  0.228700  1.0  0.1242
  H  H137  1  0.664200  0.328100  0.381300  1.0  0.1184
  H  H138  1  0.391000  0.342900  0.319300  1.0  0.1099
  H  H139  1  0.481900  0.437800  0.989000  1.0  0.0964
  H  H140  1  0.702300  0.021500  0.101300  1.0  0.1134
  H  H141  1  0.525800  0.534400  0.540300  1.0  0.1081
  H  H142  1  0.451000  0.980100  0.408400  1.0  0.1354
  H  H143  1  0.073900  0.821700  0.873100  1.0  0.1204
  H  H144  1  0.612100  0.033500  0.565800  1.0  0.1102
  H  H145  1  0.891000  0.157100  0.819300  1.0  0.1082
  H  H146  1  0.611100  0.943300  0.538100  1.0  0.1147
  H  H147  1  0.038800  0.437500  0.064200  1.0  0.1182
  H  H148  1  0.630200  0.643100  0.355200  1.0  0.1149
  H  H149  1  0.559000  0.466600  0.459200  1.0  0.112
  H  H150  1  0.555800  0.238500  0.726400  1.0  0.1211
  H  H151  1  0.430500  0.208800  0.781800  1.0  0.1186
  H  H152  1  0.790300  0.825000  0.530700  1.0  0.1191
  H  H153  1  0.849200  0.673600  0.703300  1.0  0.122
  H  H154  1  0.290600  0.499800  0.049100  1.0  0.1112
  H  H155  1  0.664200  0.671900  0.118700  1.0  0.1191
  H  H156  1  0.049000  0.480100  0.091600  1.0  0.1342
  H  H157  1  0.228300  0.856500  0.813000  1.0  0.1258
  H  H158  1  0.451000  0.019900  0.091600  1.0  0.1367
  H  H159  1  0.290800  0.364400  0.027500  1.0  0.1193
  H  H160  1  0.582000  0.306000  0.790400  1.0  0.1113
  H  H161  1  0.335800  0.328100  0.881300  1.0  0.1187
  H  H162  1  0.941000  0.966600  0.040800  1.0  0.1095
  H  H163  1  0.044100  0.082200  0.066700  1.0  0.1322
  H  H164  1  0.109000  0.157100  0.319300  1.0  0.1082
  H  H165  1  0.941000  0.033400  0.459200  1.0  0.108
  H  H166  1  0.256200  0.652100  0.620100  1.0  0.1209
  H  H167  1  0.002800  0.181200  0.825300  1.0  0.1121
  H  H168  1  0.488700  0.561700  0.905600  1.0  0.1079
  H  H169  1  0.561000  0.124600  0.646600  1.0  0.1285
  H  H170  1  0.663400  0.120800  0.566400  1.0  0.1068
  H  H171  1  0.435100  0.232700  0.574500  1.0  0.1184
  H  H172  1  0.339300  0.671600  0.728700  1.0  0.1228
  H  H173  1  0.152700  0.345100  0.212000  1.0  0.128
  H  H174  1  0.011000  0.374000  0.113300  1.0  0.1258
  H  H175  1  0.612100  0.966500  0.934200  1.0  0.1095
  H  H176  1  0.599600  0.834500  0.241300  1.0  0.117
  H  H177  1  0.077300  0.915100  0.075600  1.0  0.098
  H  H178  1  0.550000  0.165000  0.931400  1.0  0.11
  H  H179  1  0.311900  0.363100  0.850600  1.0  0.1146
  H  H180  1  0.120100  0.119000  0.959600  1.0  0.0791
  H  H181  1  0.474200  0.465600  0.459700  1.0  0.1071
  H  H182  1  0.379900  0.381000  0.959600  1.0  0.0801
  H  H183  1  0.843100  0.810600  0.376200  1.0  0.1089
  H  H184  1  0.935100  0.267300  0.074500  1.0  0.1175
  H  H185  1  0.441000  0.533400  0.540800  1.0  0.1099
  H  H186  1  0.636700  0.505600  0.971800  1.0  0.1231
  H  H187  1  0.256200  0.347900  0.879900  1.0  0.1198
  H  H188  1  0.266700  0.375500  0.580900  1.0  0.1126
  H  H189  1  0.157600  0.524300  0.012400  1.0  0.1033
  H  H190  1  0.229100  0.119100  0.464900  1.0  0.1186
  H  H191  1  0.444200  0.722500  0.661700  1.0  0.1121
  H  H192  1  0.618500  0.791300  0.398500  1.0  0.1161
  H  H193  1  0.363300  0.494400  0.028200  1.0  0.1227
  H  H194  1  0.270900  0.619100  0.035100  1.0  0.1192
  H  H195  1  0.260300  0.349300  0.772600  1.0  0.118
  H  H196  1  0.073900  0.178300  0.626900  1.0  0.1201
  H  H197  1  0.824100  0.595600  0.105300  1.0  0.1057
  H  H198  1  0.393200  0.300000  0.464500  1.0  0.1359
  H  H199  1  0.972800  0.882700  0.599600  1.0  0.1084
  H  H200  1  0.922700  0.915100  0.575600  1.0  0.1001
  H  H201  1  0.981900  0.062200  0.489000  1.0  0.0964
  H  H202  1  0.743800  0.652100  0.120100  1.0  0.121
  H  H203  1  0.641800  0.019000  0.397800  1.0  0.0984
  H  H204  1  0.061000  0.375400  0.146600  1.0  0.1278
  H  H205  1  0.155200  0.635800  0.577400  1.0  0.121
  H  H206  1  0.290600  0.500200  0.450900  1.0  0.1114
  H  H207  1  0.222400  0.910000  0.448000  1.0  0.1101
  H  H208  1  0.849200  0.326400  0.796700  1.0  0.1221
  H  H209  1  0.266700  0.624500  0.919100  1.0  0.1128
  H  H210  1  0.648500  0.236600  0.068400  1.0  0.1222
  H  H211  1  0.754000  0.319500  0.080400  1.0  0.1078
  H  H212  1  0.864000  0.052600  0.106100  1.0  0.1128
  H  H213  1  0.718700  0.844900  0.596400  1.0  0.1061
  H  H214  1  0.446700  0.873800  0.505300  1.0  0.1128
  H  H215  1  0.319000  0.477900  0.578700  1.0  0.1144
  H  H216  1  0.611100  0.056700  0.961900  1.0  0.1129
  H  H217  1  0.014200  0.305600  0.243700  1.0  0.1125
  H  H218  1  0.444200  0.761500  0.273600  1.0  0.1205
  H  H219  1  0.555800  0.761500  0.773600  1.0  0.121
  H  H220  1  0.227700  0.649400  0.202400  1.0  0.1163
  H  H221  1  0.732400  0.864700  0.786800  1.0  0.121
  H  H222  1  0.139400  0.769400  0.004200  1.0  0.1172
  H  H223  1  0.188100  0.136900  0.850600  1.0  0.1147
  H  H224  1  0.059000  0.033400  0.959200  1.0  0.1119
  H  H225  1  0.564900  0.767300  0.425500  1.0  0.1147
  H  H226  1  0.108200  0.631800  0.087000  1.0  0.1079
  H  H227  1  0.324100  0.904400  0.605300  1.0  0.1057
  H  H228  1  0.685600  0.459200  0.977600  1.0  0.1109
  H  H229  1  0.944600  0.223400  0.992800  1.0  0.1224
  H  H230  1  0.209400  0.999800  0.450900  1.0  0.1113
  H  H231  1  0.964300  0.429900  0.499700  1.0  0.1174
  H  H232  1  0.175900  0.595600  0.605300  1.0  0.1063
  H  H233  1  0.381500  0.208700  0.601500  1.0  0.1143
  H  H234  1  0.835800  0.828100  0.118700  1.0  0.1191
  H  H235  1  0.395400  0.909900  0.583200  1.0  0.115
  H  H236  1  0.511300  0.561700  0.405600  1.0  0.1075
  H  H237  1  0.120100  0.881000  0.540400  1.0  0.0793
  H  H238  1  0.985800  0.305600  0.743700  1.0  0.1128
  H  H239  1  0.728400  0.151600  0.992100  1.0  0.1131
  H  H240  1  0.082000  0.194000  0.290400  1.0  0.1109
  H  H241  1  0.688100  0.636900  0.149400  1.0  0.1162
  H  H242  1  0.351500  0.236600  0.568400  1.0  0.1222
  H  H243  1  0.254000  0.819500  0.919600  1.0  0.1081
  H  H244  1  0.270900  0.380900  0.464900  1.0  0.1192
  H  H245  1  0.290300  0.325000  0.469300  1.0  0.1183
  H  H246  1  0.251900  0.844800  0.135200  1.0  0.1195
  H  H247  1  0.961200  0.562500  0.935800  1.0  0.1192
  H  H248  1  0.228400  0.348400  0.492100  1.0  0.1129
  H  H249  1  0.036500  0.691900  0.296200  1.0  0.1185
  H  H250  1  0.536500  0.191900  0.703800  1.0  0.1181
  H  H251  1  0.726600  0.304200  0.891500  1.0  0.1258
  H  H252  1  0.748100  0.155200  0.864800  1.0  0.1198
  H  H253  1  0.722400  0.410000  0.552000  1.0  0.1114
  H  H254  1  0.538800  0.062500  0.564200  1.0  0.1182
  H  H255  1  0.655200  0.864200  0.077400  1.0  0.1213
  H  H256  1  0.209400  0.000200  0.049100  1.0  0.1111
  H  H257  1  0.104600  0.590100  0.583200  1.0  0.1147
  H  H258  1  0.846900  0.699800  0.220600  1.0  0.1101
  H  H259  1  0.729100  0.380900  0.964900  1.0  0.1191
  H  H260  1  0.955900  0.082200  0.566700  1.0  0.1313
  H  H261  1  0.620100  0.619000  0.040400  1.0  0.0794
  H  H262  1  0.561800  0.360200  0.934500  1.0  0.1034
  H  H263  1  0.781300  0.344900  0.903600  1.0  0.1061
  H  H264  1  0.527900  0.682400  0.135300  1.0  0.1318
  H  H265  1  0.656900  0.689400  0.376200  1.0  0.1083
  H  H266  1  0.951000  0.480100  0.591600  1.0  0.1343
  H  H267  1  0.927000  0.521200  0.511200  1.0  0.1092
  H  H268  1  0.790800  0.135600  0.527500  1.0  0.1208
  H  H269  1  0.053300  0.626200  0.505300  1.0  0.1135
  H  H270  1  0.851500  0.736600  0.431600  1.0  0.1216
  H  H271  1  0.964300  0.570100  0.000300  1.0  0.1155
  H  H272  1  0.773400  0.804200  0.608500  1.0  0.1262
  H  H273  1  0.011300  0.061700  0.594400  1.0  0.1085
  H  H274  1  0.709200  0.364400  0.527500  1.0  0.1191
  H  H275  1  0.767600  0.635300  0.786800  1.0  0.1216
  H  H276  1  0.846900  0.300200  0.279400  1.0  0.1082
  H  H277  1  0.792700  0.644500  0.393300  1.0  0.1074
  H  H278  1  0.209700  0.825000  0.030700  1.0  0.1197
  H  H279  1  0.160700  0.828400  0.728700  1.0  0.1229
  H  H280  1  0.346900  0.199800  0.779400  1.0  0.1095
  H  H281  1  0.207300  0.644500  0.893300  1.0  0.1069
  H  H282  1  0.055800  0.777500  0.661700  1.0  0.1116
  H  H283  1  0.770900  0.880900  0.535100  1.0  0.1188
  H  H284  1  0.222400  0.090000  0.052000  1.0  0.1112
  H  H285  1  0.655200  0.135800  0.422600  1.0  0.1207
  H  H286  1  0.564900  0.232700  0.074500  1.0  0.115
  H  H287  1  0.368700  0.971600  0.920800  1.0  0.1315
  H  H288  1  0.681000  0.477900  0.078700  1.0  0.1142
  H  H289  1  0.163400  0.620800  0.433600  1.0  0.1069
  H  H290  1  0.718700  0.155100  0.903600  1.0  0.1057
  H  H291  1  0.319000  0.522100  0.921300  1.0  0.1144
  H  H292  1  0.292700  0.144500  0.606700  1.0  0.1088
  H  H293  1  0.760200  0.315000  0.162900  1.0  0.1129
  H  H294  1  0.489000  0.874000  0.386700  1.0  0.1253
  H  H295  1  0.136000  0.052600  0.606100  1.0  0.113
  H  H296  1  0.315100  0.362100  0.802800  1.0  0.1193
  H  H297  1  0.036500  0.308100  0.203800  1.0  0.1171
  H  H298  1  0.573900  0.321700  0.126900  1.0  0.1202
  H  H299  1  0.636000  0.447400  0.106100  1.0  0.1132
  H  H300  1  0.887900  0.533500  0.934200  1.0  0.109
  H  H301  1  0.972100  0.817600  0.135300  1.0  0.1323
  H  H302  1  0.707300  0.144500  0.106700  1.0  0.1088
  H  H303  1  0.472100  0.682400  0.635300  1.0  0.132
  H  H304  1  0.218700  0.344900  0.403600  1.0  0.1063
  H  H305  1  0.766700  0.875500  0.419100  1.0  0.1136
  H  H306  1  0.790300  0.175000  0.969300  1.0  0.1197
  H  H307  1  0.027200  0.882700  0.099600  1.0  0.1075
  H  H308  1  0.847300  0.654900  0.788000  1.0  0.1272
  H  H309  1  0.544100  0.582200  0.933300  1.0  0.132
  H  H310  1  0.656900  0.310600  0.123800  1.0  0.1088
  H  H311  1  0.280400  0.183100  0.703000  1.0  0.1209
  H  H312  1  0.636000  0.552600  0.393900  1.0  0.1111
  H  H313  1  0.604600  0.090100  0.416800  1.0  0.1127
  H  H314  1  0.472800  0.382700  0.400400  1.0  0.1106
  H  H315  1  0.351500  0.763400  0.931600  1.0  0.1218
  H  H316  1  0.349200  0.826400  0.203300  1.0  0.1223
  H  H317  1  0.727700  0.850600  0.702400  1.0  0.1186
  H  H318  1  0.164200  0.171900  0.881300  1.0  0.1191
  H  H319  1  0.360600  0.730600  0.004200  1.0  0.117
  H  H320  1  0.035700  0.570100  0.500300  1.0  0.1155
  H  H321  1  0.648900  0.595400  0.968300  1.0  0.12
  H  H322  1  0.988700  0.938300  0.405600  1.0  0.1096
  H  H323  1  0.267600  0.135300  0.213200  1.0  0.1215
  H  H324  1  0.111100  0.556700  0.038100  1.0  0.114
  H  H325  1  0.108200  0.368200  0.413000  1.0  0.1099
  H  H326  1  0.248100  0.344800  0.364800  1.0  0.1207
  H  H327  1  0.660700  0.328400  0.271300  1.0  0.1227
  H  H328  1  0.391800  0.131800  0.413000  1.0  0.1085
  H  H329  1  0.050000  0.665000  0.068600  1.0  0.1107
  H  H330  1  0.464300  0.070100  0.999700  1.0  0.1157
  H  H331  1  0.395400  0.090100  0.916800  1.0  0.1157
  H  H332  1  0.160700  0.171600  0.771300  1.0  0.1236
  H  H333  1  0.944200  0.738500  0.773600  1.0  0.1207
  H  H334  1  0.059000  0.966600  0.540800  1.0  0.1113
  H  H335  1  0.461200  0.062500  0.064200  1.0  0.1184
  H  H336  1  0.867700  0.327800  0.940100  1.0  0.1156
  H  H337  1  0.944200  0.777500  0.161700  1.0  0.1124
  H  H338  1  0.495000  0.901400  0.533000  1.0  0.1183
  H  H339  1  0.418000  0.306000  0.290400  1.0  0.1106
  H  H340  1  0.790600  0.999800  0.950900  1.0  0.1115
  H  H341  1  0.272300  0.850600  0.202400  1.0  0.1189
  H  H342  1  0.879900  0.881000  0.040400  1.0  0.08
  H  H343  1  0.422700  0.415100  0.424400  1.0  0.0978
  H  H344  1  0.888900  0.556700  0.538100  1.0  0.1133
  H  H345  1  0.323400  0.859500  0.234800  1.0  0.0954
  H  H346  1  0.893200  0.200000  0.964500  1.0  0.1357
  H  H347  1  0.815100  0.862100  0.197200  1.0  0.1198
  H  H348  1  0.184900  0.137900  0.802800  1.0  0.1196
  H  H349  1  0.707300  0.855500  0.393300  1.0  0.107
  H  H350  1  0.118500  0.291300  0.601500  1.0  0.1147
  H  H351  1  0.553300  0.873800  0.005300  1.0  0.1125
  H  H352  1  0.444200  0.277500  0.838300  1.0  0.1122
  H  H353  1  0.132300  0.672200  0.059900  1.0  0.1146
  H  H354  1  0.639400  0.269400  0.995800  1.0  0.1176
  H  H355  1  0.864000  0.947400  0.393900  1.0  0.1119
  H  H356  1  0.069500  0.291200  0.781800  1.0  0.1205
  H  H357  1  0.218700  0.655100  0.096400  1.0  0.1052
  H  H358  1  0.985800  0.694400  0.756300  1.0  0.1143
  H  H359  1  0.527200  0.617300  0.599600  1.0  0.1078
  H  H360  1  0.657600  0.975700  0.512400  1.0  0.1029
  H  H361  1  0.756200  0.847900  0.120100  1.0  0.1207
  H  H362  1  0.709400  0.500200  0.950900  1.0  0.1113
  H  H363  1  0.728300  0.643500  0.313000  1.0  0.1261
  H  H364  1  0.391000  0.657100  0.180700  1.0  0.1077
  H  H365  1  0.663400  0.879200  0.933600  1.0  0.1074
  H  H366  1  0.481900  0.562200  0.511000  1.0  0.0971
  H  H367  1  0.676600  0.859500  0.734800  1.0  0.0961
  H  H368  1  0.652700  0.845100  0.788000  1.0  0.1275
  H  H369  1  0.489000  0.126000  0.113300  1.0  0.1256
  H  H370  1  0.335800  0.671900  0.618700  1.0  0.1193
  H  H371  1  0.246000  0.319500  0.580400  1.0  0.1077
  H  H372  1  0.018100  0.937800  0.511000  1.0  0.0975
  H  H373  1  0.505000  0.901400  0.033000  1.0  0.1195
  H  H374  1  0.202300  0.478500  0.601300  1.0  0.1137
  H  H375  1  0.474200  0.534400  0.040300  1.0  0.1071
  H  H376  1  0.271600  0.848400  0.007900  1.0  0.1157
  H  H377  1  0.963500  0.691900  0.796200  1.0  0.1176
  H  H378  1  0.648500  0.763400  0.431600  1.0  0.1223
  H  H379  1  0.684900  0.362100  0.302800  1.0  0.119
  H  H380  1  0.963500  0.308100  0.703800  1.0  0.12
  H  H381  1  0.248100  0.655200  0.135200  1.0  0.1202
  H  H382  1  0.549000  0.980100  0.908400  1.0  0.1352
  H  H383  1  0.497200  0.318800  0.825300  1.0  0.1137
  H  H384  1  0.927000  0.478800  0.988800  1.0  0.1082
  H  H385  1  0.097000  0.985400  0.918600  1.0  0.1047
  H  H386  1  0.502800  0.681200  0.174700  1.0  0.1117
  H  H387  1  0.599600  0.165500  0.258700  1.0  0.1153
  H  H388  1  0.260200  0.815000  0.837100  1.0  0.1136
  H  H389  1  0.739700  0.349300  0.272600  1.0  0.1189
  H  H390  1  0.239700  0.150700  0.772600  1.0  0.1186
  H  H391  1  0.653100  0.199800  0.279400  1.0  0.1096
  H  H392  1  0.360600  0.269400  0.495800  1.0  0.1175
  H  H393  1  0.887900  0.466500  0.565800  1.0  0.1111
  H  H394  1  0.781300  0.655100  0.596400  1.0  0.1049
  H  H395  1  0.488700  0.438300  0.594400  1.0  0.1081
  H  H396  1  0.561000  0.875400  0.853400  1.0  0.1279
  H  H397  1  0.260300  0.650700  0.727400  1.0  0.1186
  H  H398  1  0.733300  0.375500  0.080900  1.0  0.1133
  H  H399  1  0.771600  0.348400  0.992100  1.0  0.1147
  H  H400  1  0.766700  0.124500  0.080900  1.0  0.1127
  H  H401  1  0.495000  0.098600  0.967000  1.0  0.1178
  H  H402  1  0.136700  0.994400  0.471800  1.0  0.1227
  H  H403  1  0.984800  0.116500  0.596900  1.0  0.1208
  H  H404  1  0.544100  0.417800  0.566700  1.0  0.1324
  H  H405  1  0.334900  0.312200  0.297500  1.0  0.1104
  H  H406  1  0.055400  0.776600  0.007200  1.0  0.1189
  H  H407  1  0.388900  0.943300  0.038100  1.0  0.1138
  H  H408  1  0.311900  0.636900  0.649400  1.0  0.1159
  H  H409  1  0.746000  0.819500  0.419600  1.0  0.1079
  H  H410  1  0.232400  0.635300  0.286800  1.0  0.1218
  H  H411  1  0.930500  0.708800  0.218200  1.0  0.1196
  H  H412  1  0.206900  0.668600  0.318200  1.0  0.1161
  H  H413  1  0.780400  0.683100  0.297000  1.0  0.121
  H  H414  1  0.727700  0.149400  0.797600  1.0  0.1171
  H  H415  1  0.811900  0.136900  0.350600  1.0  0.1146
  H  H416  1  0.577300  0.415100  0.924400  1.0  0.0996
  H  H417  1  0.939000  0.375400  0.646600  1.0  0.1279
  H  H418  1  0.843100  0.189400  0.123800  1.0  0.1088
  H  H419  1  0.631300  0.028400  0.079200  1.0  0.1303
  H  H420  1  0.944200  0.222500  0.338300  1.0  0.1125
  H  H421  1  0.511300  0.920500  0.862200  1.0  0.1283
  H  H422  1  0.202300  0.521500  0.898700  1.0  0.1118
  H  H423  1  0.455900  0.582200  0.433300  1.0  0.1311
  H  H424  1  0.271700  0.643500  0.813000  1.0  0.1253
  H  H425  1  0.797700  0.478500  0.101300  1.0  0.1133
  H  H426  1  0.219600  0.316900  0.703000  1.0  0.1198
  H  H427  1  0.136000  0.947400  0.893900  1.0  0.1117
  H  H428  1  0.869800  0.143100  0.144800  1.0  0.1151
  H  H429  1  0.439000  0.875400  0.353400  1.0  0.1285
  H  H430  1  0.002800  0.818800  0.674700  1.0  0.1112
  H  H431  1  0.858200  0.519000  0.102200  1.0  0.0978
  H  H432  1  0.254000  0.180500  0.580400  1.0  0.1084
  H  H433  1  0.400400  0.834500  0.741300  1.0  0.117
  H  H434  1  0.819000  0.022100  0.078700  1.0  0.1148
  H  H435  1  0.181000  0.022100  0.578700  1.0  0.1149
  H  H436  1  0.111100  0.443300  0.461900  1.0  0.1126
  H  H437  1  0.706900  0.831400  0.818200  1.0  0.1162
  H  H438  1  0.336600  0.120800  0.066400  1.0  0.1079
  H  H439  1  0.760300  0.849300  0.227400  1.0  0.1181
  H  H440  1  0.209700  0.175000  0.469300  1.0  0.1205
  H  H441  1  0.233300  0.124500  0.580900  1.0  0.1127
  H  H442  1  0.944200  0.261500  0.726400  1.0  0.1209
  H  H443  1  0.895400  0.409900  0.416800  1.0  0.1157
  H  H444  1  0.293100  0.168600  0.181800  1.0  0.1167
  H  H445  1  0.099600  0.334500  0.758700  1.0  0.1173
  H  H446  1  0.141800  0.481000  0.897800  1.0  0.0982
  H  H447  1  0.148500  0.263400  0.568400  1.0  0.1218
  H  H448  1  0.136700  0.005600  0.028200  1.0  0.1235
  H  H449  1  0.055800  0.738500  0.273600  1.0  0.1209
  H  H450  1  0.860600  0.769400  0.504200  1.0  0.1175
  H  H451  1  0.525800  0.465600  0.959700  1.0  0.108
  H  H452  1  0.665100  0.687800  0.702500  1.0  0.1111
  H  H453  1  0.630200  0.356900  0.144800  1.0  0.1135
  H  H454  1  0.387900  0.033500  0.065800  1.0  0.1108
  H  H455  1  0.790800  0.864400  0.972500  1.0  0.1195
  H  H456  1  0.243800  0.152100  0.879900  1.0  0.121
  H  H457  1  0.323400  0.140500  0.265200  1.0  0.0959
  H  H458  1  0.900400  0.665500  0.241300  1.0  0.1166
  H  H459  1  0.393200  0.700000  0.035500  1.0  0.1371
  H  H460  1  0.175900  0.404400  0.894700  1.0  0.1044
  H  H461  1  0.418000  0.694000  0.209600  1.0  0.1107
  H  H462  1  0.239800  0.315000  0.662900  1.0  0.113
  H  H463  1  0.277600  0.410000  0.052000  1.0  0.1116
  H  H464  1  0.926100  0.821700  0.373100  1.0  0.1211
  H  H465  1  0.836600  0.379200  0.566400  1.0  0.1082
  H  H466  1  0.005000  0.598600  0.533000  1.0  0.1178
  H  H467  1  0.430500  0.791200  0.718200  1.0  0.1191
  H  H468  1  0.760200  0.685000  0.337100  1.0  0.1134
  H  H469  1  0.951000  0.519900  0.908400  1.0  0.1359
  H  H470  1  0.342400  0.975700  0.012400  1.0  0.1024
  H  H471  1  0.444200  0.238500  0.226400  1.0  0.1211
  H  H472  1  0.685600  0.540800  0.522400  1.0  0.1119
  H  H473  1  0.511000  0.874000  0.886700  1.0  0.1256
  H  H474  1  0.209200  0.135600  0.027500  1.0  0.1214
  H  H475  1  0.573000  0.978800  0.511200  1.0  0.1078
  H  H476  1  0.743800  0.347900  0.379900  1.0  0.1204
  H  H477  1  0.961200  0.437500  0.564200  1.0  0.1183
  H  H478  1  0.518100  0.562200  0.011000  1.0  0.0971
  H  H479  1  0.239700  0.849300  0.727400  1.0  0.119
  H  H480  1  0.739800  0.185000  0.162900  1.0  0.1131
  H  H481  1  0.082000  0.806000  0.209600  1.0  0.1111
  H  H482  1  0.893200  0.800000  0.535500  1.0  0.1377
  H  H483  1  0.702300  0.978500  0.398700  1.0  0.1122
  H  H484  1  0.851100  0.904600  0.968300  1.0  0.1206
  H  H485  1  0.097000  0.014600  0.581400  1.0  0.1059
  H  H486  1  0.472100  0.317600  0.864700  1.0  0.1328
  H  H487  1  0.364000  0.447400  0.606100  1.0  0.1133
  H  H488  1  0.014200  0.694400  0.256300  1.0  0.1132
  H  H489  1  0.150800  0.326400  0.296700  1.0  0.122
  H  H490  1  0.641800  0.981000  0.102200  1.0  0.0993
  H  H491  1  0.055400  0.223400  0.492800  1.0  0.1186
  H  H492  1  0.435100  0.767300  0.925500  1.0  0.1175
  H  H493  1  0.444600  0.723400  0.007200  1.0  0.1203
  H  H494  1  0.339300  0.328400  0.771300  1.0  0.1219
  H  H495  1  0.344800  0.864200  0.577400  1.0  0.1211
  H  H496  1  0.851500  0.263400  0.068400  1.0  0.1218
  H  H497  1  0.946700  0.373800  0.494700  1.0  0.1125
  H  H498  1  0.281300  0.155100  0.403600  1.0  0.1056
  H  H499  1  0.938200  0.139800  0.934500  1.0  0.1033
  H  H500  1  0.974200  0.034400  0.959700  1.0  0.1063
  H  H501  1  0.631300  0.971600  0.420800  1.0  0.1301
  H  H502  1  0.344800  0.135800  0.922600  1.0  0.1205
  H  H503  1  0.358200  0.019000  0.897800  1.0  0.0986
  H  H504  1  0.358200  0.981000  0.602200  1.0  0.0983
  H  H505  1  0.130200  0.856900  0.855200  1.0  0.1139
  H  H506  1  0.455900  0.417800  0.066700  1.0  0.1314
  H  H507  1  0.511300  0.079500  0.637800  1.0  0.1276
  H  H508  1  0.754000  0.680500  0.419600  1.0  0.1085
  H  H509  1  0.157600  0.475700  0.487600  1.0  0.1037
  H  H510  1  0.025800  0.965600  0.040300  1.0  0.108
  H  H511  1  0.869800  0.856900  0.355200  1.0  0.1141
  H  H512  1  0.055800  0.261500  0.226400  1.0  0.1215
  H  H513  1  0.988700  0.061700  0.094400  1.0  0.1087
  H  H514  1  0.895400  0.590100  0.083200  1.0  0.1149
  H  H515  1  0.632300  0.827800  0.559900  1.0  0.115
  H  H516  1  0.381500  0.791300  0.898500  1.0  0.1162
  H  H517  1  0.050000  0.335000  0.431400  1.0  0.1101
  H  H518  1  0.860600  0.230600  0.995800  1.0  0.1179
  H  H519  1  0.518100  0.437800  0.489000  1.0  0.0964
  H  H520  1  0.930500  0.291200  0.281800  1.0  0.1187
  H  H521  1  0.604600  0.909900  0.083200  1.0  0.1151
  H  H522  1  0.793100  0.331400  0.681800  1.0  0.1166
  H  H523  1  0.609000  0.657100  0.680700  1.0  0.1079
  H  H524  1  0.239800  0.685000  0.837100  1.0  0.1128
  H  H525  1  0.463500  0.808100  0.296200  1.0  0.1173
  H  H526  1  0.502800  0.318800  0.325300  1.0  0.113
  H  H527  1  0.772300  0.649400  0.702400  1.0  0.1165
  H  H528  1  0.461200  0.937500  0.435800  1.0  0.1189
  H  H529  1  0.935100  0.732700  0.425500  1.0  0.1187
  H  H530  1  0.314400  0.459200  0.477600  1.0  0.1083
  H  H531  1  0.176600  0.640500  0.234800  1.0  0.0963
  H  H532  1  0.514200  0.805600  0.756300  1.0  0.1136
  H  H533  1  0.665100  0.312200  0.797500  1.0  0.1104
  H  H534  1  0.606800  0.700000  0.535500  1.0  0.1374
  H  H535  1  0.228400  0.651600  0.007900  1.0  0.1145
  H  H536  1  0.207300  0.355500  0.606700  1.0  0.1083
  H  H537  1  0.363300  0.505600  0.471800  1.0  0.1251
  H  H538  1  0.681000  0.522100  0.421300  1.0  0.1154
  H  H539  1  0.569500  0.208800  0.281800  1.0  0.1199
  H  H540  1  0.426100  0.678300  0.873100  1.0  0.1218
  H  H541  1  0.251900  0.155200  0.364800  1.0  0.1196
  H  H542  1  0.228300  0.143500  0.687000  1.0  0.1264
  H  H543  1  0.918000  0.806000  0.709600  1.0  0.1102
  H  H544  1  0.946700  0.626200  0.005300  1.0  0.112
  H  H545  1  0.823400  0.640500  0.734800  1.0  0.0962
  H  H546  1  0.577300  0.584900  0.575600  1.0  0.0977
  H  H547  1  0.148900  0.095400  0.031700  1.0  0.1191
  H  H548  1  0.488700  0.079500  0.137800  1.0  0.1284
  H  H549  1  0.369800  0.643100  0.855200  1.0  0.1153
  H  H550  1  0.485800  0.194400  0.243700  1.0  0.1137
  H  H551  1  0.891800  0.368200  0.913000  1.0  0.109
  H  H552  1  0.974200  0.965600  0.540300  1.0  0.1071
  H  H553  1  0.163400  0.379200  0.066400  1.0  0.1072
  H  H554  1  0.027200  0.117300  0.400400  1.0  0.1114
  H  H555  1  0.011300  0.579500  0.362200  1.0  0.1273
  H  H556  1  0.771600  0.651600  0.507900  1.0  0.1159
  H  H557  1  0.582000  0.694000  0.709600  1.0  0.1123
  H  H558  1  0.484800  0.383500  0.096900  1.0  0.1206
  H  H559  1  0.450000  0.165000  0.431400  1.0  0.1113
  H  H560  1  0.620100  0.381000  0.459600  1.0  0.0794
  H  H561  1  0.732400  0.135300  0.713200  1.0  0.1215
  H  H562  1  0.819000  0.977900  0.421300  1.0  0.1149
  H  H563  1  0.099600  0.665500  0.741300  1.0  0.1152
  H  H564  1  0.018100  0.062200  0.989000  1.0  0.0966
  H  H565  1  0.439000  0.124600  0.146600  1.0  0.1286
  H  H566  1  0.844800  0.364200  0.422600  1.0  0.1202
  H  H567  1  0.369800  0.356900  0.644800  1.0  0.1136
  H  H568  1  0.053300  0.373800  0.994700  1.0  0.1122
  H  H569  1  0.232400  0.364700  0.213200  1.0  0.121
  H  H570  1  0.709700  0.675000  0.530700  1.0  0.12
  H  H571  1  0.293100  0.831400  0.318200  1.0  0.1158
  H  H572  1  0.515200  0.616500  0.903100  1.0  0.1212
  H  H573  1  0.422700  0.584900  0.075600  1.0  0.099
  H  H574  1  0.015200  0.883500  0.403100  1.0  0.1209
  H  H575  1  0.746000  0.180500  0.080400  1.0  0.1083
  H  H576  1  0.109000  0.842900  0.180700  1.0  0.1111
  H  H577  1  0.535700  0.070100  0.499700  1.0  0.1168
  H  H578  1  0.719600  0.816900  0.297000  1.0  0.1214
  H  H579  1  0.793100  0.668600  0.818200  1.0  0.1156
  H  H580  1  0.555800  0.722500  0.161700  1.0  0.1112
  H  H581  1  0.555800  0.277500  0.338300  1.0  0.1114
  H  H582  1  0.771700  0.856500  0.313000  1.0  0.1257
  H  H583  1  0.351100  0.404600  0.031700  1.0  0.12
  H  H584  1  0.606800  0.300000  0.964500  1.0  0.1349
  H  H585  1  0.131300  0.471600  0.579200  1.0  0.1299
  H  H586  1  0.814400  0.040800  0.977600  1.0  0.1116
  H  H587  1  0.608200  0.868200  0.587000  1.0  0.1077
  H  H588  1  0.632300  0.172200  0.940100  1.0  0.1151
  H  H589  1  0.709400  0.499800  0.549100  1.0  0.1111
  H  H590  1  0.077300  0.084900  0.424400  1.0  0.0987
  H  H591  1  0.561800  0.639800  0.565500  1.0  0.1045
  H  H592  1  0.514200  0.194400  0.743700  1.0  0.1129
  H  H593  1  0.347300  0.845100  0.288000  1.0  0.1276
  H  H594  1  0.609000  0.342900  0.819300  1.0  0.1102
  H  H595  1  0.388900  0.056700  0.461900  1.0  0.1126
  H  H596  1  0.181000  0.977900  0.921300  1.0  0.1155
  H  H597  1  0.684900  0.637900  0.197200  1.0  0.1197
  H  H598  1  0.739800  0.815000  0.337100  1.0  0.1134
  H  H599  1  0.485800  0.805600  0.256300  1.0  0.1143
  H  H600  1  0.891800  0.631800  0.587000  1.0  0.1083
  H  H601  1  0.073000  0.521200  0.011200  1.0  0.1081
  H  H602  1  0.527200  0.382700  0.900400  1.0  0.11
  H  H603  1  0.027900  0.817600  0.635300  1.0  0.132
  H  H604  1  0.709700  0.325000  0.969300  1.0  0.1188
  H  H605  1  0.842400  0.475700  0.987600  1.0  0.1033
  H  H606  1  0.847300  0.345100  0.712000  1.0  0.1286
  H  H607  1  0.347300  0.154900  0.212000  1.0  0.1266
  H  H608  1  0.676600  0.140500  0.765200  1.0  0.0962
  H  H609  1  0.139400  0.230600  0.495800  1.0  0.117
  H  H610  1  0.652700  0.154900  0.712000  1.0  0.1264
  H  H611  1  0.038800  0.562500  0.435800  1.0  0.119
  H  H612  1  0.156900  0.810600  0.876200  1.0  0.1087
  H  H613  1  0.538800  0.937500  0.935800  1.0  0.1189
  H  H614  1  0.972100  0.182400  0.364700  1.0  0.132
  H  H615  1  0.342400  0.024300  0.487600  1.0  0.1025
  H  H616  1  0.176600  0.359500  0.265200  1.0  0.0966
  H  H617  1  0.427000  0.978800  0.011200  1.0  0.1091
  H  H618  1  0.131300  0.528400  0.920800  1.0  0.1312
  H  H619  1  0.995000  0.401400  0.467000  1.0  0.1177
  H  H620  1  0.206900  0.331400  0.181800  1.0  0.1165
  H  H621  1  0.219600  0.683100  0.797000  1.0  0.1198
  H  H622  1  0.706900  0.168600  0.681800  1.0  0.1166
  H  H623  1  0.233300  0.875500  0.919100  1.0  0.114
  H  H624  1  0.777600  0.090000  0.552000  1.0  0.1116
  H  H625  1  0.011300  0.420500  0.137800  1.0  0.1281
  H  H626  1  0.156900  0.189400  0.623800  1.0  0.1085
  H  H627  1  0.636700  0.494400  0.528200  1.0  0.1222
  H  H628  1  0.559000  0.533400  0.040800  1.0  0.1109
  H  H629  1  0.938200  0.860200  0.565500  1.0  0.1057
  H  H630  1  0.823400  0.359500  0.765200  1.0  0.0957
  H  H631  1  0.648900  0.404600  0.531700  1.0  0.1193
  H  H632  1  0.569500  0.791200  0.218200  1.0  0.1207
  H  H633  1  0.797700  0.521500  0.398700  1.0  0.1122
  H  H634  1  0.867700  0.672200  0.559900  1.0  0.115
  H  H635  1  0.944600  0.776600  0.507200  1.0  0.1213
  H  H636  1  0.035700  0.429900  0.999700  1.0  0.1173
  H  H637  1  0.726600  0.695800  0.608500  1.0  0.1259
  H  H638  1  0.391800  0.868200  0.087000  1.0  0.1079
  H  H639  1  0.273400  0.304200  0.391500  1.0  0.1264
  H  H640  1  0.997200  0.818800  0.174700  1.0  0.112
  H  H641  1  0.863300  0.994400  0.971800  1.0  0.1248
  H  H642  1  0.839300  0.828400  0.228700  1.0  0.1225
  H  H643  1  0.770900  0.119100  0.964900  1.0  0.1189
  H  H644  1  0.155200  0.364200  0.922600  1.0  0.1199
  H  H645  1  0.185600  0.959200  0.022400  1.0  0.1116
  H  H646  1  0.297700  0.978500  0.898700  1.0  0.1124
  H  H647  1  0.403000  0.514600  0.918600  1.0  0.104
  H  H648  1  0.739700  0.650700  0.227400  1.0  0.1192
  H  H649  1  0.260200  0.185000  0.662900  1.0  0.1134
  H  H650  1  0.989000  0.626000  0.886700  1.0  0.1253
  H  H651  1  0.246000  0.680500  0.919600  1.0  0.1083
  H  H652  1  0.027900  0.182400  0.864700  1.0  0.1327
  H  H653  1  0.061800  0.139800  0.434500  1.0  0.1031
  H  H654  1  0.243800  0.847900  0.620100  1.0  0.1207
  H  H655  1  0.188100  0.863100  0.649400  1.0  0.1146
  H  H656  1  0.441000  0.466600  0.959200  1.0  0.1105
  H  H657  1  0.073000  0.478800  0.488800  1.0  0.107
  H  H658  1  0.535700  0.929900  0.000300  1.0  0.1161
  H  H659  1  0.106800  0.200000  0.464500  1.0  0.1345
  H  H660  1  0.343100  0.689400  0.876200  1.0  0.1085
  H  H661  1  0.868700  0.528400  0.420800  1.0  0.1317
  H  H662  1  0.132300  0.327800  0.440100  1.0  0.1155
  H  H663  1  0.926100  0.178300  0.126900  1.0  0.121
  H  H664  1  0.844800  0.635800  0.077400  1.0  0.1202
  H  H665  1  0.484800  0.616500  0.403100  1.0  0.1212
  H  H666  1  0.165100  0.187800  0.297500  1.0  0.111
  H  H667  1  0.061000  0.624600  0.353400  1.0  0.127
  H  H668  1  0.811900  0.863100  0.149400  1.0  0.1147
  H  H669  1  0.527900  0.317600  0.364700  1.0  0.1332
  H  H670  1  0.903000  0.985400  0.418600  1.0  0.1053
  H  H671  1  0.427000  0.021200  0.488800  1.0  0.1084
  H  H672  1  0.597000  0.485400  0.081400  1.0  0.1063
  H  H673  1  0.863300  0.005600  0.528200  1.0  0.1227
  H  H674  1  0.450000  0.835000  0.068600  1.0  0.1113
  H  H675  1  0.834900  0.187800  0.797500  1.0  0.11
  H  H676  1  0.025800  0.034400  0.459700  1.0  0.1074
  H  H677  1  0.106800  0.800000  0.035500  1.0  0.1369
  H  H678  1  0.112100  0.466500  0.065800  1.0  0.11
  H  H679  1  0.879900  0.119000  0.459600  1.0  0.0798
  H  H680  1  0.751900  0.344800  0.864800  1.0  0.1201
  H  H681  1  0.573900  0.678300  0.373100  1.0  0.1207
  H  H682  1  0.164200  0.828100  0.618700  1.0  0.1192
  H  H683  1  0.209200  0.864400  0.472500  1.0  0.1194
  H  H684  1  0.939000  0.624600  0.853400  1.0  0.1277
  H  H685  1  0.955900  0.917800  0.933300  1.0  0.1308
  H  H686  1  0.368700  0.028400  0.579200  1.0  0.1304
  H  H687  1  0.918000  0.194000  0.790400  1.0  0.1106
  H  H688  1  0.729100  0.619100  0.535100  1.0  0.1196
  H  H689  1  0.792700  0.355500  0.106700  1.0  0.1085
  H  H690  1  0.505000  0.098600  0.467000  1.0  0.1179
  H  H691  1  0.165100  0.812200  0.202500  1.0  0.1106
  H  H692  1  0.950000  0.335000  0.931400  1.0  0.1105
  H  H693  1  0.315100  0.637900  0.697200  1.0  0.1194
  H  H694  1  0.760300  0.150700  0.272600  1.0  0.1181
  H  H695  1  0.988700  0.579500  0.862200  1.0  0.1286
  H  H696  1  0.446700  0.126200  0.994700  1.0  0.112
  H  H697  1  0.675900  0.904400  0.105300  1.0  0.1061
  H  H698  1  0.573000  0.021200  0.988800  1.0  0.1074
  H  H699  1  0.515200  0.383500  0.596900  1.0  0.1202
  H  H700  1  0.868700  0.471600  0.079200  1.0  0.1303
  H  H701  1  0.148500  0.736600  0.931600  1.0  0.122
  H  H702  1  0.900400  0.334500  0.258700  1.0  0.117
  H  H703  1  0.118500  0.708700  0.898500  1.0  0.1158
  H  H704  1  0.790600  0.000200  0.549100  1.0  0.1113
  H  H705  1  0.227700  0.350600  0.297600  1.0  0.1178
  H  H706  1  0.277600  0.590000  0.448000  1.0  0.1101
  H  H707  1  0.553300  0.126200  0.494700  1.0  0.1132
  H  H708  1  0.733300  0.624500  0.419100  1.0  0.1126
  H  H709  1  0.836600  0.620800  0.933600  1.0  0.1072
  H  H710  1  0.657600  0.024300  0.987600  1.0  0.1034
  H  H711  1  0.497200  0.681200  0.674700  1.0  0.1131
  H  H712  1  0.281300  0.844900  0.096400  1.0  0.1058
  H  H713  1  0.835800  0.171900  0.381300  1.0  0.1196
  H  H714  1  0.988700  0.420500  0.637800  1.0  0.1275
  H  H715  1  0.426100  0.321700  0.626900  1.0  0.1208
  H  H716  1  0.438200  0.639800  0.065500  1.0  0.1051
  H  H717  1  0.349200  0.173600  0.296700  1.0  0.1215
  H  H718  1  0.055800  0.222500  0.838300  1.0  0.1114
  H  H719  1  0.639400  0.730600  0.504200  1.0  0.1175
  H  H720  1  0.881500  0.291300  0.101500  1.0  0.1145
  H  H721  1  0.010300  0.920900  0.279800  1.0  0.1446
  H  H722  1  0.149700  0.885500  0.342300  1.0  0.1358
  H  H723  1  0.018000  0.873900  0.256100  1.0  0.1511
  H  H724  1  0.981500  0.870000  0.293300  1.0  0.1349
  H  H725  1  0.066900  0.877600  0.349300  1.0  0.1231
  H  H726  1  0.094900  0.928400  0.335200  1.0  0.139
  H  H727  1  0.982000  0.873900  0.756100  1.0  0.1511
  H  H728  1  0.850300  0.885500  0.842300  1.0  0.1381
  H  H729  1  0.933100  0.877600  0.849300  1.0  0.1239
  H  H730  1  0.989700  0.920900  0.779800  1.0  0.1453
  H  H731  1  0.018500  0.870000  0.793300  1.0  0.1355
  H  H732  1  0.905100  0.928400  0.835200  1.0  0.1391
  H  H733  1  0.981500  0.130000  0.206700  1.0  0.1362
  H  H734  1  0.010300  0.079100  0.220200  1.0  0.1454
  H  H735  1  0.094900  0.071600  0.164800  1.0  0.1377
  H  H736  1  0.018000  0.126100  0.243900  1.0  0.1512
  H  H737  1  0.149700  0.114500  0.157700  1.0  0.1364
  H  H738  1  0.066900  0.122400  0.150700  1.0  0.1243
  H  H739  1  0.489700  0.420900  0.220200  1.0  0.1445
  H  H740  1  0.518500  0.370000  0.206700  1.0  0.135
  H  H741  1  0.433100  0.377600  0.150700  1.0  0.1241
  H  H742  1  0.405100  0.428400  0.164800  1.0  0.1391
  H  H743  1  0.350300  0.385500  0.157700  1.0  0.1377
  H  H744  1  0.482000  0.373900  0.243900  1.0  0.1523
  H  H745  1  0.982000  0.126100  0.743900  1.0  0.1513
  H  H746  1  0.989700  0.079100  0.720200  1.0  0.1458
  H  H747  1  0.018500  0.130000  0.706700  1.0  0.1355
  H  H748  1  0.850300  0.114500  0.657700  1.0  0.1393
  H  H749  1  0.905100  0.071600  0.664800  1.0  0.1366
  H  H750  1  0.933100  0.122400  0.650700  1.0  0.1251
  H  H751  1  0.518000  0.373900  0.743900  1.0  0.1522
  H  H752  1  0.649700  0.385500  0.657700  1.0  0.1353
  H  H753  1  0.510300  0.420900  0.720200  1.0  0.144
  H  H754  1  0.566900  0.377600  0.650700  1.0  0.1235
  H  H755  1  0.481500  0.370000  0.706700  1.0  0.135
  H  H756  1  0.594900  0.428400  0.664800  1.0  0.1389
  H  H757  1  0.566900  0.622400  0.849300  1.0  0.1236
  H  H758  1  0.510300  0.579100  0.779800  1.0  0.1445
  H  H759  1  0.481500  0.630000  0.793300  1.0  0.1351
  H  H760  1  0.518000  0.626100  0.756100  1.0  0.1506
  H  H761  1  0.594900  0.571600  0.835200  1.0  0.1378
  H  H762  1  0.649700  0.614500  0.842300  1.0  0.1367
  H  H763  1  0.433100  0.622400  0.349300  1.0  0.1249
  H  H764  1  0.518500  0.630000  0.293300  1.0  0.1351
  H  H765  1  0.350300  0.614500  0.342300  1.0  0.1391
  H  H766  1  0.482000  0.626100  0.256100  1.0  0.1508
  H  H767  1  0.489700  0.579100  0.279800  1.0  0.1454
  H  H768  1  0.405100  0.571600  0.335200  1.0  0.1366
  C  C769  1  0.250000  0.250000  0.169320  1.0  0.6828
  C  C770  1  0.325500  0.757500  0.154630  1.0  -0.0681
  C  C771  1  0.766500  0.675600  0.615700  1.0  -0.3586
  C  C772  1  0.525600  0.224400  0.400000  1.0  0.6593
  C  C773  1  0.148000  0.623000  0.410300  1.0  0.1419
  C  C774  1  0.124000  0.078810  0.555330  1.0  0.0804
  C  C775  1  0.611900  0.915530  0.487130  1.0  0.056
  C  C776  1  0.185600  0.006000  0.472980  1.0  -0.3597
  C  C777  1  0.250000  0.250000  0.209240  1.0  -0.0901
  C  C778  1  0.016000  0.689900  0.465210  1.0  0.6651
  C  C779  1  0.821400  0.908280  0.468120  1.0  0.0603
  C  C780  1  0.112700  0.265900  0.733720  1.0  0.0657
  C  C781  1  0.846100  0.398800  0.417270  1.0  -0.3597
  C  C782  1  0.796600  0.837000  0.134000  1.0  -0.3881
  C  C783  1  0.185600  0.994000  0.027020  1.0  -0.3598
  C  C784  1  0.927000  0.546400  0.920500  1.0  -0.1842
  C  C785  1  0.455300  0.768900  0.118530  1.0  -0.0857
  C  C786  1  0.516600  0.677500  0.963400  1.0  0.703
  C  C787  1  0.233500  0.675600  0.115700  1.0  -0.3593
  C  C788  1  0.702200  0.162500  0.706650  1.0  -0.3526
  C  C789  1  0.242700  0.177400  0.686120  1.0  -0.3566
  C  C790  1  0.153900  0.398800  0.917270  1.0  -0.361
  C  C791  1  0.273500  0.521280  0.503090  1.0  0.0348
  C  C792  1  0.016600  0.177500  0.036600  1.0  0.7031
  C  C793  1  0.240600  0.495890  0.530570  1.0  -0.0204
  C  C794  1  0.041600  0.110600  0.424200  1.0  -0.1489
  C  C795  1  0.955300  0.268900  0.881470  1.0  -0.0856
  C  C796  1  0.298200  0.021470  0.943920  1.0  0.0369
  C  C797  1  0.984700  0.202200  0.344700  1.0  -0.3836
  C  C798  1  0.674500  0.242500  0.845370  1.0  -0.0698
  C  C799  1  0.447500  0.647380  0.964860  1.0  -0.1142
  C  C800  1  0.703400  0.663000  0.134000  1.0  -0.3874
  C  C801  1  0.224000  0.346280  0.974980  1.0  0.6906
  C  C802  1  0.107100  0.839710  0.988310  1.0  0.0546
  C  C803  1  0.750000  0.250000  0.669320  1.0  0.6828
  C  C804  1  0.446300  0.734100  0.818110  1.0  -0.069
  C  C805  1  0.898300  0.208200  0.989000  1.0  -0.3363
  C  C806  1  0.169200  0.637130  0.944360  1.0  0.055
  C  C807  1  0.983400  0.177500  0.536600  1.0  0.7024
  C  C808  1  0.776600  0.709300  0.735600  1.0  0.0443
  C  C809  1  0.750000  0.750000  0.211370  1.0  -0.0433
  C  C810  1  0.685600  0.494000  0.972980  1.0  -0.3595
  C  C811  1  0.392900  0.339710  0.511690  1.0  0.0547
  C  C812  1  0.272200  0.147640  0.583510  1.0  -0.3612
  C  C813  1  0.051400  0.385150  0.512970  1.0  0.034
  C  C814  1  0.276600  0.209300  0.264400  1.0  0.0452
  C  C815  1  0.830800  0.637130  0.444360  1.0  0.0541
  C  C816  1  0.669500  0.791200  0.627170  1.0  0.0586
  C  C817  1  0.773500  0.978720  0.003090  1.0  0.035
  C  C818  1  0.997100  0.090200  0.581000  1.0  -0.3737
  C  C819  1  0.073000  0.453600  0.079500  1.0  -0.1863
  C  C820  1  0.958400  0.110600  0.924200  1.0  -0.1467
  C  C821  1  0.901900  0.664200  0.578100  1.0  -0.342
  C  C822  1  0.825100  0.760180  0.274920  1.0  -0.06
  C  C823  1  0.334100  0.004900  0.587680  1.0  -0.371
  C  C824  1  0.821400  0.091720  0.031880  1.0  0.0599
  C  C825  1  0.725000  0.708800  0.192800  1.0  0.0365
  C  C826  1  0.974400  0.275600  0.400000  1.0  0.6591
  C  C827  1  0.947500  0.147380  0.035140  1.0  -0.1145
  C  C828  1  0.450300  0.735200  0.145990  1.0  0.0389
  C  C829  1  0.619600  0.676700  0.361100  1.0  -0.3559
  C  C830  1  0.742700  0.322600  0.186120  1.0  -0.3553
  C  C831  1  0.330500  0.208800  0.372830  1.0  0.0605
  C  C832  1  0.389700  0.215990  0.577040  1.0  -0.3528
  C  C833  1  0.240600  0.504110  0.969430  1.0  -0.0203
  C  C834  1  0.323500  0.289100  0.694850  1.0  0.0357
  C  C835  1  0.691700  0.164000  0.782670  1.0  -0.3742
  C  C836  1  0.517200  0.101100  0.491560  1.0  -0.3671
  C  C837  1  0.111900  0.584470  0.987130  1.0  0.0557
  C  C838  1  0.946300  0.234100  0.181890  1.0  -0.0689
  C  C839  1  0.169500  0.708800  0.127170  1.0  0.0607
  C  C840  1  0.750000  0.750000  0.138330  1.0  -0.1493
  C  C841  1  0.613600  0.042700  0.985160  1.0  -0.3475
  C  C842  1  0.823500  0.210900  0.194850  1.0  0.0349
  C  C843  1  0.678600  0.408280  0.031880  1.0  0.0611
  C  C844  1  0.742700  0.677400  0.313880  1.0  -0.3567
  C  C845  1  0.493000  0.262000  0.155600  1.0  0.6937
  C  C846  1  0.750000  0.750000  0.830680  1.0  0.68
  C  C847  1  0.250000  0.750000  0.450500  1.0  0.9455
  C  C848  1  0.608300  0.198580  0.266620  1.0  -0.3253
  C  C849  1  0.392900  0.660290  0.988310  1.0  0.0546
  C  C850  1  0.997100  0.909800  0.919000  1.0  -0.3721
  C  C851  1  0.920500  0.870700  0.052900  1.0  0.2404
  C  C852  1  0.202200  0.662500  0.293350  1.0  -0.3513
  C  C853  1  0.772200  0.647640  0.416490  1.0  -0.361
  C  C854  1  0.771000  0.402160  0.473370  1.0  -0.103
  C  C855  1  0.250000  0.250000  0.283180  1.0  -0.0597
  C  C856  1  0.016000  0.310100  0.034790  1.0  0.6651
  C  C857  1  0.775000  0.791200  0.192800  1.0  0.0365
  C  C858  1  0.613600  0.957300  0.514840  1.0  -0.3473
  C  C859  1  0.015300  0.797800  0.655300  1.0  -0.3824
  C  C860  1  0.773500  0.021280  0.496910  1.0  0.0356
  C  C861  1  0.750000  0.250000  0.709240  1.0  -0.0901
  C  C862  1  0.825100  0.239820  0.225080  1.0  -0.0614
  C  C863  1  0.948600  0.385150  0.012970  1.0  0.0341
  C  C864  1  0.979600  0.286790  0.722490  1.0  -0.3716
  C  C865  1  0.864400  0.961800  0.417020  1.0  -0.3206
  C  C866  1  0.950200  0.343630  0.034400  1.0  -0.1017
  C  C867  1  0.250000  0.750000  0.330680  1.0  0.68
  C  C868  1  0.276000  0.846280  0.525020  1.0  0.6907
  C  C869  1  0.114600  0.770600  0.164040  1.0  0.0672
  C  C870  1  0.334100  0.995100  0.912320  1.0  -0.3714
  C  C871  1  0.025600  0.724400  0.600000  1.0  0.6588
  C  C872  1  0.330500  0.791200  0.127170  1.0  0.0574
  C  C873  1  0.053700  0.765900  0.818110  1.0  -0.0693
  C  C874  1  0.052000  0.263060  0.712130  1.0  0.0471
  C  C875  1  0.982800  0.601100  0.008440  1.0  -0.3669
  C  C876  1  0.420500  0.370700  0.947100  1.0  0.2398
  C  C877  1  0.296600  0.337000  0.866000  1.0  -0.3881
  C  C878  1  0.618000  0.688200  0.691800  1.0  -0.3271
  C  C879  1  0.614600  0.270600  0.835960  1.0  0.0672
  C  C880  1  0.635600  0.538200  0.417020  1.0  -0.3213
  C  C881  1  0.176500  0.789100  0.805150  1.0  0.0357
  C  C882  1  0.607100  0.339710  0.011690  1.0  0.0541
  C  C883  1  0.678600  0.591720  0.468120  1.0  0.0603
  C  C884  1  0.484700  0.297800  0.844700  1.0  -0.3813
  C  C885  1  0.891700  0.698580  0.233380  1.0  -0.3279
  C  C886  1  0.401900  0.164200  0.421900  1.0  -0.342
  C  C887  1  0.276600  0.790700  0.235600  1.0  0.0438
  C  C888  1  0.541600  0.610600  0.575800  1.0  -0.1491
  C  C889  1  0.225300  0.145800  0.481410  1.0  -0.3808
  C  C890  1  0.808300  0.336000  0.782670  1.0  -0.3739
  C  C891  1  0.226500  0.021280  0.996910  1.0  0.0362
  C  C892  1  0.750000  0.750000  0.950500  1.0  0.9455
  C  C893  1  0.830500  0.708800  0.627170  1.0  0.0578
  C  C894  1  0.060900  0.893360  0.943040  1.0  0.0345
  C  C895  1  0.757300  0.822600  0.313880  1.0  -0.3565
  C  C896  1  0.314400  0.506000  0.027020  1.0  -0.3591
  C  C897  1  0.676500  0.289100  0.194850  1.0  0.0358
  C  C898  1  0.108300  0.698580  0.733380  1.0  -0.327
  C  C899  1  0.993000  0.762000  0.844400  1.0  0.6932
  C  C900  1  0.798200  0.521470  0.056080  1.0  0.037
  C  C901  1  0.701800  0.021470  0.443920  1.0  0.0359
  C  C902  1  0.648000  0.877000  0.910300  1.0  0.1399
  C  C903  1  0.750000  0.250000  0.402150  1.0  0.6913
  C  C904  1  0.201800  0.521470  0.556080  1.0  0.0352
  C  C905  1  0.551400  0.885150  0.487030  1.0  0.034
  C  C906  1  0.385400  0.270600  0.335960  1.0  0.0686
  C  C907  1  0.275000  0.708800  0.692800  1.0  0.0364
  C  C908  1  0.891300  0.332490  0.055740  1.0  0.0518
  C  C909  1  0.229000  0.402160  0.973370  1.0  -0.1032
  C  C910  1  0.384100  0.708100  0.826750  1.0  0.0494
  C  C911  1  0.515300  0.297800  0.344700  1.0  -0.3811
  C  C912  1  0.482800  0.101100  0.991560  1.0  -0.3673
  C  C913  1  0.724000  0.153720  0.474980  1.0  0.6913
  C  C914  1  0.757300  0.177400  0.186120  1.0  -0.3563
  C  C915  1  0.191700  0.664000  0.217330  1.0  -0.3748
  C  C916  1  0.232300  0.927750  0.501120  1.0  0.0455
  C  C917  1  0.732300  0.427750  0.498880  1.0  0.0449
  C  C918  1  0.460000  0.105300  0.127900  1.0  -0.2382
  C  C919  1  0.725300  0.354200  0.981410  1.0  -0.3804
  C  C920  1  0.984700  0.797800  0.155300  1.0  -0.385
  C  C921  1  0.670100  0.367540  0.010060  1.0  0.0661
  C  C922  1  0.516000  0.810100  0.965210  1.0  0.6649
  C  C923  1  0.560900  0.606640  0.443040  1.0  0.0334
  C  C924  1  0.774200  0.207900  0.343850  1.0  0.0511
  C  C925  1  0.960000  0.605300  0.872100  1.0  -0.2411
  C  C926  1  0.427000  0.953600  0.420500  1.0  -0.1832
  C  C927  1  0.729000  0.097840  0.473370  1.0  -0.1024
  C  C928  1  0.502900  0.590200  0.919000  1.0  -0.3733
  C  C929  1  0.892900  0.839710  0.488310  1.0  0.0555
  C  C930  1  0.274500  0.791000  0.272610  1.0  0.012
  C  C931  1  0.484000  0.810100  0.465210  1.0  0.6647
  C  C932  1  0.200200  0.837100  0.713500  1.0  -0.3748
  C  C933  1  0.044700  0.731100  0.118530  1.0  -0.086
  C  C934  1  0.882000  0.188200  0.808200  1.0  -0.3278
  C  C935  1  0.200100  0.101100  0.030530  1.0  -0.3726
  C  C936  1  0.225500  0.291000  0.227390  1.0  0.0102
  C  C937  1  0.776600  0.290700  0.764400  1.0  0.044
  C  C938  1  0.450300  0.264800  0.354010  1.0  0.0377
  C  C939  1  0.886400  0.457300  0.985160  1.0  -0.3486
  C  C940  1  0.395400  0.796900  0.109120  1.0  0.0409
  C  C941  1  0.610300  0.215990  0.077040  1.0  -0.3524
  C  C942  1  0.898300  0.791800  0.511000  1.0  -0.3355
  C  C943  1  0.049700  0.235200  0.354010  1.0  0.0418
  C  C944  1  0.740600  0.995890  0.469430  1.0  -0.0203
  C  C945  1  0.982800  0.053000  0.464500  1.0  -0.162
  C  C946  1  0.846100  0.601200  0.082730  1.0  -0.36
  C  C947  1  0.391300  0.167510  0.555740  1.0  0.0515
  C  C948  1  0.007000  0.238000  0.155600  1.0  0.6936
  C  C949  1  0.115900  0.791900  0.826750  1.0  0.0475
  C  C950  1  0.864400  0.038200  0.082980  1.0  -0.3211
  C  C951  1  0.299800  0.337100  0.786500  1.0  -0.3755
  C  C952  1  0.115900  0.208100  0.673250  1.0  0.0516
  C  C953  1  0.540000  0.105300  0.627900  1.0  -0.2375
  C  C954  1  0.549700  0.264800  0.854010  1.0  0.0408
  C  C955  1  0.170100  0.132460  0.510060  1.0  0.0665
  C  C956  1  0.553700  0.734100  0.318110  1.0  -0.0691
  C  C957  1  0.040000  0.394700  0.127900  1.0  -0.238
  C  C958  1  0.329900  0.367540  0.510060  1.0  0.0658
  C  C959  1  0.020400  0.286790  0.222490  1.0  -0.3702
  C  C960  1  0.799800  0.162900  0.286500  1.0  -0.3761
  C  C961  1  0.225000  0.208800  0.807200  1.0  0.037
  C  C962  1  0.799900  0.101100  0.530530  1.0  -0.3732
  C  C963  1  0.984000  0.689900  0.965210  1.0  0.6647
  C  C964  1  0.700200  0.662900  0.213500  1.0  -0.3747
  C  C965  1  0.113600  0.457300  0.485160  1.0  -0.3478
  C  C966  1  0.624000  0.578810  0.444670  1.0  0.0785
  C  C967  1  0.507000  0.738000  0.844400  1.0  0.6936
  C  C968  1  0.482800  0.447000  0.964500  1.0  -0.1621
  C  C969  1  0.724000  0.846280  0.025020  1.0  0.6907
  C  C970  1  0.170100  0.867540  0.989940  1.0  0.0666
  C  C971  1  0.388100  0.084470  0.512870  1.0  0.0548
  C  C972  1  0.624000  0.421190  0.055330  1.0  0.0803
  C  C973  1  0.549800  0.156370  0.034400  1.0  -0.1019
  C  C974  1  0.887300  0.265900  0.233720  1.0  0.0682
  C  C975  1  0.174500  0.742500  0.154630  1.0  -0.0693
  C  C976  1  0.330800  0.137130  0.555640  1.0  0.0546
  C  C977  1  0.108700  0.332490  0.555740  1.0  0.0513
  C  C978  1  0.250000  0.750000  0.711370  1.0  -0.0433
  C  C979  1  0.665900  0.995100  0.412320  1.0  -0.3702
  C  C980  1  0.598100  0.164200  0.921900  1.0  -0.3425
  C  C981  1  0.174900  0.239820  0.725080  1.0  -0.0616
  C  C982  1  0.376000  0.578810  0.944670  1.0  0.0792
  C  C983  1  0.950200  0.656370  0.465600  1.0  -0.1021
  C  C984  1  0.165900  0.495100  0.587680  1.0  -0.3719
  C  C985  1  0.274700  0.354200  0.481410  1.0  -0.3798
  C  C986  1  0.696000  0.072450  0.445890  1.0  0.0474
  C  C987  1  0.051400  0.614850  0.987030  1.0  0.0342
  C  C988  1  0.108300  0.301420  0.766620  1.0  -0.3254
  C  C989  1  0.352000  0.123000  0.089700  1.0  0.1439
  C  C990  1  0.446300  0.265900  0.681890  1.0  -0.0693
  C  C991  1  0.610300  0.784010  0.422960  1.0  -0.3539
  C  C992  1  0.227800  0.647640  0.916490  1.0  -0.3621
  C  C993  1  0.552500  0.352620  0.035140  1.0  -0.1141
  C  C994  1  0.329900  0.632460  0.989940  1.0  0.071
  C  C995  1  0.948000  0.736940  0.287870  1.0  0.0473
  C  C996  1  0.608300  0.801420  0.233380  1.0  -0.3269
  C  C997  1  0.670800  0.904390  0.465790  1.0  -0.0245
  C  C998  1  0.482800  0.898900  0.508440  1.0  -0.3669
  C  C999  1  0.798200  0.478530  0.443920  1.0  0.0365
  C  C1000  1  0.829900  0.867540  0.489940  1.0  0.0659
  C  C1001  1  0.892900  0.160290  0.011690  1.0  0.0534
  C  C1002  1  0.880400  0.823300  0.361100  1.0  -0.3556
  C  C1003  1  0.391700  0.198580  0.766620  1.0  -0.3234
  C  C1004  1  0.119600  0.176700  0.638900  1.0  -0.3564
  C  C1005  1  0.552000  0.236940  0.212130  1.0  0.0484
  C  C1006  1  0.804000  0.427550  0.445890  1.0  0.0489
  C  C1007  1  0.196000  0.572450  0.554110  1.0  0.0488
  C  C1008  1  0.885400  0.770600  0.664040  1.0  0.0679
  C  C1009  1  0.297800  0.837500  0.293350  1.0  -0.3508
  C  C1010  1  0.299900  0.398900  0.030530  1.0  -0.3733
  C  C1011  1  0.676500  0.710900  0.305150  1.0  0.0343
  C  C1012  1  0.380400  0.323300  0.638900  1.0  -0.3562
  C  C1013  1  0.017200  0.398900  0.991560  1.0  -0.3671
  C  C1014  1  0.274500  0.209000  0.227390  1.0  0.01
  C  C1015  1  0.750000  0.750000  0.716820  1.0  -0.0599
  C  C1016  1  0.669500  0.208800  0.872830  1.0  0.0575
  C  C1017  1  0.974400  0.724400  0.100000  1.0  0.6588
  C  C1018  1  0.178600  0.091720  0.531880  1.0  0.0606
  C  C1019  1  0.796600  0.163000  0.366000  1.0  -0.3887
  C  C1020  1  0.775000  0.208800  0.307200  1.0  0.0375
  C  C1021  1  0.376000  0.421190  0.555330  1.0  0.0807
  C  C1022  1  0.049800  0.656370  0.965600  1.0  -0.102
  C  C1023  1  0.517200  0.447000  0.464500  1.0  -0.1624
  C  C1024  1  0.750000  0.750000  0.097850  1.0  0.6906
  C  C1025  1  0.200200  0.162900  0.786500  1.0  -0.3753
  C  C1026  1  0.598100  0.835800  0.578100  1.0  -0.3415
  C  C1027  1  0.002900  0.090200  0.081000  1.0  -0.3739
  C  C1028  1  0.740600  0.004110  0.030570  1.0  -0.0203
  C  C1029  1  0.732300  0.572250  0.001120  1.0  0.0456
  C  C1030  1  0.308300  0.836000  0.217330  1.0  -0.3741
  C  C1031  1  0.118000  0.188200  0.308200  1.0  -0.3284
  C  C1032  1  0.223400  0.709300  0.235600  1.0  0.0437
  C  C1033  1  0.653900  0.898800  0.082730  1.0  -0.3605
  C  C1034  1  0.888100  0.415530  0.012870  1.0  0.054
  C  C1035  1  0.266500  0.175600  0.384300  1.0  -0.3559
  C  C1036  1  0.507000  0.262000  0.655600  1.0  0.6937
  C  C1037  1  0.250000  0.250000  0.902150  1.0  0.6913
  C  C1038  1  0.114600  0.229400  0.335960  1.0  0.067
  C  C1039  1  0.516600  0.322500  0.536600  1.0  0.7029
  C  C1040  1  0.958400  0.889400  0.575800  1.0  -0.1482
  C  C1041  1  0.274200  0.292100  0.843850  1.0  0.0511
  C  C1042  1  0.670800  0.095610  0.034210  1.0  -0.0251
  C  C1043  1  0.891300  0.667510  0.444260  1.0  0.05
  C  C1044  1  0.725800  0.292100  0.343850  1.0  0.0511
  C  C1045  1  0.203400  0.837000  0.634000  1.0  -0.3883
  C  C1046  1  0.797800  0.337500  0.706650  1.0  -0.3528
  C  C1047  1  0.901900  0.335800  0.921900  1.0  -0.3431
  C  C1048  1  0.614600  0.729400  0.664040  1.0  0.0672
  C  C1049  1  0.729000  0.902160  0.026630  1.0  -0.1034
  C  C1050  1  0.733500  0.175600  0.884300  1.0  -0.3594
  C  C1051  1  0.701800  0.978530  0.056080  1.0  0.0352
  C  C1052  1  0.364400  0.538200  0.917020  1.0  -0.3214
  C  C1053  1  0.517200  0.553000  0.035500  1.0  -0.1603
  C  C1054  1  0.223400  0.290700  0.264400  1.0  0.0441
  C  C1055  1  0.814400  0.994000  0.527020  1.0  -0.3595
  C  C1056  1  0.104600  0.296900  0.390880  1.0  0.041
  C  C1057  1  0.696000  0.927550  0.054110  1.0  0.049
  C  C1058  1  0.552000  0.763060  0.287870  1.0  0.047
  C  C1059  1  0.233500  0.324400  0.384300  1.0  -0.3566
  C  C1060  1  0.888100  0.584470  0.487130  1.0  0.0556
  C  C1061  1  0.947500  0.852620  0.464860  1.0  -0.1146
  C  C1062  1  0.685600  0.506000  0.527020  1.0  -0.3585
  C  C1063  1  0.950300  0.764800  0.645990  1.0  0.0374
  C  C1064  1  0.052500  0.852620  0.964860  1.0  -0.1138
  C  C1065  1  0.608700  0.832490  0.444260  1.0  0.0503
  C  C1066  1  0.385400  0.729400  0.164040  1.0  0.0676
  C  C1067  1  0.119600  0.823300  0.861100  1.0  -0.3553
  C  C1068  1  0.380400  0.676700  0.861100  1.0  -0.356
  C  C1069  1  0.774700  0.145800  0.981410  1.0  -0.3802
  C  C1070  1  0.325100  0.260180  0.725080  1.0  -0.0609
  C  C1071  1  0.017200  0.947000  0.535500  1.0  -0.1632
  C  C1072  1  0.321400  0.591720  0.968120  1.0  0.0596
  C  C1073  1  0.299900  0.601100  0.469470  1.0  -0.3729
  C  C1074  1  0.946300  0.765900  0.318110  1.0  -0.0694
  C  C1075  1  0.329200  0.904390  0.965790  1.0  -0.0246
  C  C1076  1  0.169500  0.291200  0.372830  1.0  0.0588
  C  C1077  1  0.398300  0.291800  0.489000  1.0  -0.3363
  C  C1078  1  0.174500  0.257500  0.345370  1.0  -0.0697
  C  C1079  1  0.804000  0.572450  0.054110  1.0  0.0501
  C  C1080  1  0.148000  0.377000  0.089700  1.0  0.1424
  C  C1081  1  0.387300  0.234100  0.733720  1.0  0.0672
  C  C1082  1  0.700200  0.337100  0.286500  1.0  -0.3753
  C  C1083  1  0.314400  0.494000  0.472980  1.0  -0.3598
  C  C1084  1  0.271000  0.902160  0.526630  1.0  -0.1032
  C  C1085  1  0.483400  0.677500  0.463400  1.0  0.7024
  C  C1086  1  0.515300  0.702200  0.155300  1.0  -0.3855
  C  C1087  1  0.225500  0.709000  0.272610  1.0  0.0116
  C  C1088  1  0.111900  0.415530  0.512870  1.0  0.0552
  C  C1089  1  0.382000  0.688200  0.191800  1.0  -0.3276
  C  C1090  1  0.044700  0.268900  0.381470  1.0  -0.0862
  C  C1091  1  0.135600  0.961800  0.917020  1.0  -0.3202
  C  C1092  1  0.448600  0.114850  0.512970  1.0  0.0351
  C  C1093  1  0.271000  0.097840  0.973370  1.0  -0.1024
  C  C1094  1  0.352000  0.877000  0.410300  1.0  0.142
  C  C1095  1  0.830500  0.291200  0.872830  1.0  0.0579
  C  C1096  1  0.814400  0.006000  0.972980  1.0  -0.3602
  C  C1097  1  0.196000  0.427550  0.945890  1.0  0.0482
  C  C1098  1  0.073000  0.546400  0.420500  1.0  -0.1842
  C  C1099  1  0.170800  0.595610  0.965790  1.0  -0.0248
  C  C1100  1  0.619600  0.323300  0.138900  1.0  -0.3561
  C  C1101  1  0.551400  0.114850  0.012970  1.0  0.0352
  C  C1102  1  0.876000  0.921190  0.444670  1.0  0.079
  C  C1103  1  0.203400  0.163000  0.866000  1.0  -0.3885
  C  C1104  1  0.766500  0.324400  0.884300  1.0  -0.3597
  C  C1105  1  0.427000  0.046400  0.079500  1.0  -0.1856
  C  C1106  1  0.540000  0.894700  0.872100  1.0  -0.2387
  C  C1107  1  0.691700  0.836000  0.717330  1.0  -0.3729
  C  C1108  1  0.225800  0.792100  0.656150  1.0  0.0514
  C  C1109  1  0.250000  0.750000  0.216820  1.0  -0.0599
  C  C1110  1  0.298200  0.978530  0.556080  1.0  0.0364
  C  C1111  1  0.891700  0.301420  0.266620  1.0  -0.3251
  C  C1112  1  0.703400  0.337000  0.366000  1.0  -0.3879
  C  C1113  1  0.388100  0.915530  0.987130  1.0  0.0539
  C  C1114  1  0.250000  0.250000  0.049500  1.0  0.9455
  C  C1115  1  0.020400  0.713210  0.277510  1.0  -0.3708
  C  C1116  1  0.386400  0.042700  0.485160  1.0  -0.3485
  C  C1117  1  0.607100  0.660290  0.488310  1.0  0.0532
  C  C1118  1  0.079500  0.129300  0.947100  1.0  0.2414
  C  C1119  1  0.601700  0.291800  0.989000  1.0  -0.3357
  C  C1120  1  0.750000  0.250000  0.361670  1.0  -0.1498
  C  C1121  1  0.889700  0.284010  0.077040  1.0  -0.3536
  C  C1122  1  0.635600  0.461800  0.082980  1.0  -0.3209
  C  C1123  1  0.257300  0.322600  0.686120  1.0  -0.3555
  C  C1124  1  0.516000  0.189900  0.534790  1.0  0.6655
  C  C1125  1  0.458400  0.389400  0.424200  1.0  -0.1466
  C  C1126  1  0.549700  0.735200  0.645990  1.0  0.0381
  C  C1127  1  0.346100  0.101200  0.917270  1.0  -0.362
  C  C1128  1  0.304000  0.927550  0.554110  1.0  0.0497
  C  C1129  1  0.612700  0.234100  0.233720  1.0  0.0665
  C  C1130  1  0.455300  0.231100  0.381470  1.0  -0.0856
  C  C1131  1  0.266500  0.824400  0.115700  1.0  -0.3597
  C  C1132  1  0.391300  0.832490  0.944260  1.0  0.0505
  C  C1133  1  0.771000  0.597840  0.026630  1.0  -0.1024
  C  C1134  1  0.153900  0.601200  0.582730  1.0  -0.3597
  C  C1135  1  0.053700  0.234100  0.681890  1.0  -0.0689
  C  C1136  1  0.052000  0.736940  0.787870  1.0  0.0475
  C  C1137  1  0.015300  0.202200  0.844700  1.0  -0.3853
  C  C1138  1  0.259400  0.004110  0.530570  1.0  -0.0196
  C  C1139  1  0.852000  0.623000  0.910300  1.0  0.1424
  C  C1140  1  0.272200  0.852360  0.916490  1.0  -0.3611
  C  C1141  1  0.101700  0.791800  0.011000  1.0  -0.3351
  C  C1142  1  0.474400  0.775600  0.600000  1.0  0.6591
  C  C1143  1  0.982800  0.947000  0.035500  1.0  -0.1622
  C  C1144  1  0.774500  0.291000  0.727390  1.0  0.0103
  C  C1145  1  0.825500  0.257500  0.845370  1.0  -0.0685
  C  C1146  1  0.484700  0.702200  0.655300  1.0  -0.3828
  C  C1147  1  0.700100  0.601100  0.969470  1.0  -0.3727
  C  C1148  1  0.448000  0.236940  0.712130  1.0  0.0471
  C  C1149  1  0.927000  0.453600  0.579500  1.0  -0.1864
  C  C1150  1  0.939100  0.893360  0.443040  1.0  0.0339
  C  C1151  1  0.493000  0.738000  0.344400  1.0  0.6929
  C  C1152  1  0.726500  0.478720  0.496910  1.0  0.0343
  C  C1153  1  0.834100  0.504900  0.412320  1.0  -0.371
  C  C1154  1  0.201800  0.478530  0.943920  1.0  0.0349
  C  C1155  1  0.702200  0.837500  0.793350  1.0  -0.3519
  C  C1156  1  0.517200  0.898900  0.008440  1.0  -0.3662
  C  C1157  1  0.882000  0.811800  0.691800  1.0  -0.3281
  C  C1158  1  0.887300  0.734100  0.266280  1.0  0.0672
  C  C1159  1  0.225800  0.207900  0.843850  1.0  0.0515
  C  C1160  1  0.750000  0.250000  0.288630  1.0  -0.0426
  C  C1161  1  0.733500  0.824400  0.615700  1.0  -0.3593
  C  C1162  1  0.098100  0.664200  0.078100  1.0  -0.341
  C  C1163  1  0.834100  0.495100  0.087680  1.0  -0.3715
  C  C1164  1  0.767700  0.927750  0.001120  1.0  0.0463
  C  C1165  1  0.950300  0.235200  0.854010  1.0  0.0425
  C  C1166  1  0.948000  0.263060  0.212130  1.0  0.0471
  C  C1167  1  0.774700  0.854200  0.518590  1.0  -0.38
  C  C1168  1  0.364400  0.461800  0.582980  1.0  -0.321
  C  C1169  1  0.257300  0.677400  0.813880  1.0  -0.3565
  C  C1170  1  0.447500  0.352620  0.535140  1.0  -0.1148
  C  C1171  1  0.108700  0.667510  0.944260  1.0  0.0505
  C  C1172  1  0.669200  0.862870  0.444360  1.0  0.0546
  C  C1173  1  0.479600  0.786790  0.277510  1.0  -0.371
  C  C1174  1  0.726500  0.521280  0.003090  1.0  0.0345
  C  C1175  1  0.939100  0.106640  0.056960  1.0  0.0327
  C  C1176  1  0.825500  0.742500  0.654630  1.0  -0.0682
  C  C1177  1  0.993000  0.238000  0.655600  1.0  0.6934
  C  C1178  1  0.448600  0.885150  0.987030  1.0  0.0379
  C  C1179  1  0.483400  0.322500  0.036600  1.0  0.7026
  C  C1180  1  0.759400  0.495890  0.030570  1.0  -0.0197
  C  C1181  1  0.017200  0.601100  0.508440  1.0  -0.3663
  C  C1182  1  0.579500  0.629300  0.052900  1.0  0.242
  C  C1183  1  0.250000  0.750000  0.290760  1.0  -0.0891
  C  C1184  1  0.759400  0.504110  0.469430  1.0  -0.0195
  C  C1185  1  0.017200  0.053000  0.964500  1.0  -0.1623
  C  C1186  1  0.808300  0.664000  0.717330  1.0  -0.376
  C  C1187  1  0.604600  0.796900  0.609120  1.0  0.0429
  C  C1188  1  0.823500  0.789100  0.305150  1.0  0.0365
  C  C1189  1  0.202200  0.337500  0.206650  1.0  -0.3537
  C  C1190  1  0.346100  0.898800  0.582730  1.0  -0.3605
  C  C1191  1  0.176500  0.210900  0.694850  1.0  0.0343
  C  C1192  1  0.541600  0.389400  0.924200  1.0  -0.1478
  C  C1193  1  0.259400  0.995890  0.969430  1.0  -0.0195
  C  C1194  1  0.799900  0.898900  0.969470  1.0  -0.3727
  C  C1195  1  0.420500  0.629300  0.552900  1.0  0.2399
  C  C1196  1  0.552500  0.647380  0.464860  1.0  -0.1135
  C  C1197  1  0.750000  0.750000  0.790760  1.0  -0.0891
  C  C1198  1  0.118000  0.811800  0.191800  1.0  -0.3273
  C  C1199  1  0.274700  0.645800  0.018590  1.0  -0.3801
  C  C1200  1  0.601700  0.708200  0.511000  1.0  -0.3357
  C  C1201  1  0.497100  0.409800  0.081000  1.0  -0.3735
  C  C1202  1  0.274200  0.707900  0.656150  1.0  0.0511
  C  C1203  1  0.615900  0.291900  0.173250  1.0  0.0531
  C  C1204  1  0.482800  0.553000  0.535500  1.0  -0.1606
  C  C1205  1  0.242700  0.822600  0.813880  1.0  -0.3563
  C  C1206  1  0.884100  0.208100  0.173250  1.0  0.0474
  C  C1207  1  0.384100  0.291900  0.673250  1.0  0.0473
  C  C1208  1  0.895400  0.296900  0.890880  1.0  0.0404
  C  C1209  1  0.880400  0.176700  0.138900  1.0  -0.3564
  C  C1210  1  0.955300  0.731100  0.618530  1.0  -0.0854
  C  C1211  1  0.104600  0.703100  0.109120  1.0  0.041
  C  C1212  1  0.200100  0.898900  0.469470  1.0  -0.3726
  C  C1213  1  0.016600  0.822500  0.463400  1.0  0.7029
  C  C1214  1  0.296600  0.663000  0.634000  1.0  -0.3885
  C  C1215  1  0.107100  0.160290  0.511690  1.0  0.0541
  C  C1216  1  0.227800  0.352360  0.583510  1.0  -0.3633
  C  C1217  1  0.665900  0.004900  0.087680  1.0  -0.3717
  C  C1218  1  0.110300  0.715990  0.922960  1.0  -0.3524
  C  C1219  1  0.330800  0.862870  0.944360  1.0  0.0546
  C  C1220  1  0.275000  0.291200  0.807200  1.0  0.0363
  C  C1221  1  0.232300  0.072250  0.998880  1.0  0.0466
  C  C1222  1  0.191700  0.336000  0.282670  1.0  -0.3726
  C  C1223  1  0.799800  0.837100  0.213500  1.0  -0.3749
  C  C1224  1  0.098100  0.335800  0.421900  1.0  -0.3417
  C  C1225  1  0.386400  0.957300  0.014840  1.0  -0.3465
  C  C1226  1  0.612700  0.765900  0.266280  1.0  0.0675
  C  C1227  1  0.389700  0.784010  0.922960  1.0  -0.3539
  C  C1228  1  0.669200  0.137130  0.055640  1.0  0.0547
  C  C1229  1  0.458400  0.610600  0.075800  1.0  -0.1483
  C  C1230  1  0.439100  0.606640  0.943040  1.0  0.0338
  C  C1231  1  0.174900  0.760180  0.774920  1.0  -0.0603
  C  C1232  1  0.250000  0.250000  0.788630  1.0  -0.0426
  C  C1233  1  0.829200  0.595610  0.465790  1.0  -0.0248
  C  C1234  1  0.225000  0.791200  0.692800  1.0  0.0372
  C  C1235  1  0.573000  0.046400  0.579500  1.0  -0.1852
  C  C1236  1  0.276000  0.153720  0.974980  1.0  0.6913
  C  C1237  1  0.618000  0.311800  0.808200  1.0  -0.3284
  C  C1238  1  0.178600  0.908280  0.968120  1.0  0.0609
  C  C1239  1  0.049800  0.343630  0.534400  1.0  -0.1015
  C  C1240  1  0.544700  0.768900  0.618530  1.0  -0.0862
  C  C1241  1  0.323500  0.710900  0.805150  1.0  0.0333
  C  C1242  1  0.041600  0.889400  0.075800  1.0  -0.1485
  C  C1243  1  0.007000  0.762000  0.344400  1.0  0.6937
  C  C1244  1  0.579500  0.370700  0.447100  1.0  0.2412
  C  C1245  1  0.398300  0.708200  0.011000  1.0  -0.3361
  C  C1246  1  0.889700  0.715990  0.422960  1.0  -0.3527
  C  C1247  1  0.250000  0.750000  0.597850  1.0  0.6906
  C  C1248  1  0.670100  0.632460  0.489940  1.0  0.0664
  C  C1249  1  0.876000  0.078810  0.055330  1.0  0.0803
  C  C1250  1  0.776000  0.346280  0.474980  1.0  0.6906
  C  C1251  1  0.520400  0.213210  0.722490  1.0  -0.3706
  C  C1252  1  0.049700  0.764800  0.145990  1.0  0.0377
  C  C1253  1  0.391700  0.801420  0.733380  1.0  -0.3267
  C  C1254  1  0.553700  0.265900  0.181890  1.0  -0.0691
  C  C1255  1  0.608700  0.167510  0.055740  1.0  0.0514
  C  C1256  1  0.250000  0.250000  0.861670  1.0  -0.1498
  C  C1257  1  0.948600  0.614850  0.487030  1.0  0.0348
  C  C1258  1  0.727800  0.147640  0.083510  1.0  -0.3626
  C  C1259  1  0.984000  0.310100  0.534790  1.0  0.6649
  C  C1260  1  0.225300  0.854200  0.018590  1.0  -0.38
  C  C1261  1  0.774500  0.709000  0.772610  1.0  0.0115
  C  C1262  1  0.299800  0.662900  0.713500  1.0  -0.3753
  C  C1263  1  0.401900  0.835800  0.078100  1.0  -0.3411
  C  C1264  1  0.829900  0.132460  0.010060  1.0  0.0654
  C  C1265  1  0.653900  0.101200  0.417270  1.0  -0.3605
  C  C1266  1  0.829200  0.404390  0.034210  1.0  -0.0246
  C  C1267  1  0.060900  0.106640  0.556960  1.0  0.0339
  C  C1268  1  0.727800  0.852360  0.416490  1.0  -0.3623
  C  C1269  1  0.040000  0.605300  0.372100  1.0  -0.2392
  C  C1270  1  0.382000  0.311800  0.308200  1.0  -0.3293
  C  C1271  1  0.885400  0.229400  0.835960  1.0  0.0682
  C  C1272  1  0.229000  0.597840  0.526630  1.0  -0.1025
  C  C1273  1  0.439100  0.393360  0.556960  1.0  0.033
  C  C1274  1  0.267700  0.572250  0.501120  1.0  0.0472
  C  C1275  1  0.750000  0.250000  0.549500  1.0  0.9455
  C  C1276  1  0.308300  0.164000  0.282670  1.0  -0.3751
  C  C1277  1  0.674900  0.260180  0.225080  1.0  -0.0611
  C  C1278  1  0.886400  0.542700  0.514840  1.0  -0.348
  C  C1279  1  0.979600  0.713210  0.777510  1.0  -0.3711
  C  C1280  1  0.700100  0.398900  0.530530  1.0  -0.3733
  C  C1281  1  0.611900  0.084470  0.012870  1.0  0.0554
  C  C1282  1  0.772200  0.352360  0.083510  1.0  -0.3616
  C  C1283  1  0.725500  0.209000  0.727390  1.0  0.0104
  C  C1284  1  0.325100  0.739820  0.774920  1.0  -0.0604
  C  C1285  1  0.884100  0.791900  0.326750  1.0  0.0513
  C  C1286  1  0.395400  0.203100  0.390880  1.0  0.0404
  C  C1287  1  0.674900  0.739820  0.274920  1.0  -0.0608
  C  C1288  1  0.549800  0.843630  0.465600  1.0  -0.1015
  C  C1289  1  0.052500  0.147380  0.535140  1.0  -0.1139
  C  C1290  1  0.774200  0.792100  0.156150  1.0  0.0514
  C  C1291  1  0.170800  0.404390  0.534210  1.0  -0.0247
  C  C1292  1  0.124000  0.921190  0.944670  1.0  0.0783
  C  C1293  1  0.573000  0.953600  0.920500  1.0  -0.1838
  C  C1294  1  0.767700  0.072250  0.498880  1.0  0.0467
  C  C1295  1  0.113600  0.542700  0.014840  1.0  -0.3485
  C  C1296  1  0.797800  0.662500  0.793350  1.0  -0.3509
  C  C1297  1  0.304000  0.072450  0.945890  1.0  0.0491
  C  C1298  1  0.474400  0.224400  0.900000  1.0  0.6592
  C  C1299  1  0.165900  0.504900  0.912320  1.0  -0.3698
  C  C1300  1  0.525600  0.775600  0.100000  1.0  0.6591
  C  C1301  1  0.725500  0.791000  0.772610  1.0  0.0118
  C  C1302  1  0.273500  0.478720  0.996910  1.0  0.0352
  C  C1303  1  0.750000  0.250000  0.783180  1.0  -0.0597
  C  C1304  1  0.460000  0.894700  0.372100  1.0  -0.2386
  C  C1305  1  0.725300  0.645800  0.518590  1.0  -0.3801
  C  C1306  1  0.329200  0.095610  0.534210  1.0  -0.0249
  C  C1307  1  0.723400  0.209300  0.764400  1.0  0.0449
  C  C1308  1  0.387300  0.765900  0.766280  1.0  0.0681
  C  C1309  1  0.002900  0.909800  0.419000  1.0  -0.3728
  C  C1310  1  0.079500  0.870700  0.552900  1.0  0.2419
  C  C1311  1  0.450200  0.843630  0.965600  1.0  -0.1018
  C  C1312  1  0.725800  0.707900  0.156150  1.0  0.0517
  C  C1313  1  0.960000  0.394700  0.627900  1.0  -0.2374
  C  C1314  1  0.250000  0.750000  0.638330  1.0  -0.1493
  C  C1315  1  0.520400  0.786790  0.777510  1.0  -0.3704
  C  C1316  1  0.135600  0.038200  0.582980  1.0  -0.3201
  C  C1317  1  0.560900  0.393360  0.056960  1.0  0.0332
  C  C1318  1  0.110300  0.284010  0.577040  1.0  -0.3537
  C  C1319  1  0.267700  0.427750  0.998880  1.0  0.0474
  C  C1320  1  0.723400  0.790700  0.735600  1.0  0.0432
  C  C1321  1  0.226500  0.978720  0.503090  1.0  0.0327
  C  C1322  1  0.448000  0.763060  0.787870  1.0  0.0473
  C  C1323  1  0.484000  0.189900  0.034790  1.0  0.6649
  C  C1324  1  0.604600  0.203100  0.890880  1.0  0.0419
  C  C1325  1  0.725000  0.291200  0.307200  1.0  0.0359
  C  C1326  1  0.112700  0.734100  0.766280  1.0  0.0674
  C  C1327  1  0.982800  0.398900  0.491560  1.0  -0.3673
  C  C1328  1  0.920500  0.129300  0.447100  1.0  0.2395
  C  C1329  1  0.830800  0.362870  0.055640  1.0  0.0554
  C  C1330  1  0.479600  0.213210  0.222490  1.0  -0.371
  C  C1331  1  0.321400  0.408280  0.531880  1.0  0.0604
  C  C1332  1  0.025600  0.275600  0.900000  1.0  0.6594
  C  C1333  1  0.615900  0.708100  0.326750  1.0  0.0478
  C  C1334  1  0.297800  0.162500  0.206650  1.0  -0.3523
  C  C1335  1  0.895400  0.703100  0.609120  1.0  0.044
  C  C1336  1  0.497100  0.590200  0.419000  1.0  -0.3723
  C  C1337  1  0.224000  0.653720  0.525020  1.0  0.6913
  C  C1338  1  0.502900  0.409800  0.581000  1.0  -0.3733
  C  C1339  1  0.674500  0.757500  0.654630  1.0  -0.0692
  C  C1340  1  0.648000  0.123000  0.589700  1.0  0.1422
  C  C1341  1  0.101700  0.208200  0.489000  1.0  -0.3357
  C  C1342  1  0.852000  0.377000  0.589700  1.0  0.1428
  C  C1343  1  0.776000  0.653720  0.025020  1.0  0.6913
  C  C1344  1  0.544700  0.231100  0.881470  1.0  -0.0863
  C  C1345  1  0.325500  0.242500  0.345370  1.0  -0.0686
  C  C1346  1  0.983400  0.822500  0.963400  1.0  0.7027
  C  C1347  1  0.169200  0.362870  0.555640  1.0  0.0551
  C  C1348  1  0.450200  0.156370  0.534400  1.0  -0.1021
  C  C1349  1  0.019000  0.886100  0.279900  1.0  -0.2047
  C  C1350  1  0.102000  0.893400  0.334400  1.0  -0.2667
  C  C1351  1  0.898000  0.893400  0.834400  1.0  -0.2645
  C  C1352  1  0.981000  0.886100  0.779900  1.0  -0.2085
  C  C1353  1  0.102000  0.106600  0.165600  1.0  -0.2665
  C  C1354  1  0.019000  0.113900  0.220100  1.0  -0.2089
  C  C1355  1  0.398000  0.393400  0.165600  1.0  -0.2673
  C  C1356  1  0.481000  0.386100  0.220100  1.0  -0.2069
  C  C1357  1  0.898000  0.106600  0.665600  1.0  -0.2674
  C  C1358  1  0.981000  0.113900  0.720100  1.0  -0.2092
  C  C1359  1  0.602000  0.393400  0.665600  1.0  -0.2689
  C  C1360  1  0.519000  0.386100  0.720100  1.0  -0.2092
  C  C1361  1  0.602000  0.606600  0.834400  1.0  -0.2641
  C  C1362  1  0.519000  0.613900  0.779900  1.0  -0.2088
  C  C1363  1  0.398000  0.606600  0.334400  1.0  -0.2638
  C  C1364  1  0.481000  0.613900  0.279900  1.0  -0.2087
  N  N1365  1  0.017700  0.904100  0.556500  1.0  -0.185
  N  N1366  1  0.982300  0.904100  0.056500  1.0  -0.1853
  N  N1367  1  0.482300  0.595900  0.556500  1.0  -0.1855
  N  N1368  1  0.982300  0.095900  0.443500  1.0  -0.1867
  N  N1369  1  0.482300  0.404100  0.943500  1.0  -0.1865
  N  N1370  1  0.398700  0.917300  0.394200  1.0  -0.312
  N  N1371  1  0.601300  0.082700  0.605800  1.0  -0.3114
  N  N1372  1  0.517700  0.404100  0.443500  1.0  -0.1847
  N  N1373  1  0.517700  0.595900  0.056500  1.0  -0.185
  N  N1374  1  0.898700  0.417300  0.605800  1.0  -0.3138
  N  N1375  1  0.101300  0.417300  0.105800  1.0  -0.3113
  N  N1376  1  0.898700  0.582700  0.894200  1.0  -0.3113
  N  N1377  1  0.017700  0.095900  0.943500  1.0  -0.1846
  N  N1378  1  0.601300  0.917300  0.894200  1.0  -0.3122
  N  N1379  1  0.101300  0.582700  0.394200  1.0  -0.3112
  N  N1380  1  0.398700  0.082700  0.105800  1.0  -0.3142
  N  N1381  1  0.092000  0.875400  0.296400  1.0  -0.4564
  N  N1382  1  0.908000  0.875400  0.796400  1.0  -0.4591
  N  N1383  1  0.092000  0.124600  0.203600  1.0  -0.4558
  N  N1384  1  0.408000  0.375400  0.203600  1.0  -0.4594
  N  N1385  1  0.908000  0.124600  0.703600  1.0  -0.4578
  N  N1386  1  0.592000  0.375400  0.703600  1.0  -0.4561
  N  N1387  1  0.592000  0.624600  0.796400  1.0  -0.4561
  N  N1388  1  0.408000  0.624600  0.296400  1.0  -0.4575
  O  O1389  1  0.174800  0.840000  0.393700  1.0  -0.2955
  O  O1390  1  0.078600  0.828800  0.566100  1.0  -0.6172
  O  O1391  1  0.444800  0.679300  0.490600  1.0  -0.6673
  O  O1392  1  0.458100  0.299900  0.147200  1.0  -0.6356
  O  O1393  1  0.825200  0.840000  0.893700  1.0  -0.2966
  O  O1394  1  0.032700  0.269200  0.931000  1.0  -0.5963
  O  O1395  1  0.189000  0.753900  0.465700  1.0  -0.8223
  O  O1396  1  0.421400  0.328800  0.933900  1.0  -0.6188
  O  O1397  1  0.031200  0.287200  0.006900  1.0  -0.6648
  O  O1398  1  0.948600  0.308300  0.563000  1.0  -0.6718
  O  O1399  1  0.444800  0.320700  0.009400  1.0  -0.6668
  O  O1400  1  0.041900  0.799900  0.352800  1.0  -0.6365
  O  O1401  1  0.421400  0.671200  0.566100  1.0  -0.6179
  O  O1402  1  0.468800  0.212800  0.006900  1.0  -0.6653
  O  O1403  1  0.944800  0.820700  0.990600  1.0  -0.6669
  O  O1404  1  0.458100  0.700100  0.352800  1.0  -0.6361
  O  O1405  1  0.219200  0.821800  0.527600  1.0  -0.6357
  O  O1406  1  0.750000  0.750000  0.916500  1.0  -0.6978
  O  O1407  1  0.532100  0.698600  0.934700  1.0  -0.6632
  O  O1408  1  0.691700  0.239900  0.417700  1.0  -0.6685
  O  O1409  1  0.958100  0.799900  0.852800  1.0  -0.6359
  O  O1410  1  0.174800  0.160000  0.106300  1.0  -0.2957
  O  O1411  1  0.691700  0.760100  0.082300  1.0  -0.6678
  O  O1412  1  0.191700  0.260100  0.917700  1.0  -0.6681
  O  O1413  1  0.780800  0.821800  0.027600  1.0  -0.6354
  O  O1414  1  0.811000  0.246100  0.534300  1.0  -0.8235
  O  O1415  1  0.468800  0.787200  0.493100  1.0  -0.6648
  O  O1416  1  0.250000  0.250000  0.083500  1.0  -0.6971
  O  O1417  1  0.551400  0.191700  0.563000  1.0  -0.6716
  O  O1418  1  0.690000  0.749300  0.845200  1.0  -0.6405
  O  O1419  1  0.689000  0.746100  0.965700  1.0  -0.8224
  O  O1420  1  0.690000  0.250700  0.654800  1.0  -0.6393
  O  O1421  1  0.810000  0.249300  0.654800  1.0  -0.6408
  O  O1422  1  0.967900  0.198600  0.565300  1.0  -0.6654
  O  O1423  1  0.664400  0.160700  0.609000  1.0  -0.6548
  O  O1424  1  0.578600  0.328800  0.433900  1.0  -0.6187
  O  O1425  1  0.311000  0.746100  0.465700  1.0  -0.8233
  O  O1426  1  0.310000  0.749300  0.345200  1.0  -0.6409
  O  O1427  1  0.163100  0.672300  0.520800  1.0  -0.6424
  O  O1428  1  0.418800  0.788900  0.620900  1.0  -0.5523
  O  O1429  1  0.836900  0.327700  0.479200  1.0  -0.6427
  O  O1430  1  0.336900  0.827700  0.520800  1.0  -0.6428
  O  O1431  1  0.055200  0.820700  0.490600  1.0  -0.6662
  O  O1432  1  0.541900  0.299900  0.647200  1.0  -0.6361
  O  O1433  1  0.032700  0.730800  0.569000  1.0  -0.5956
  O  O1434  1  0.081200  0.288900  0.879100  1.0  -0.5542
  O  O1435  1  0.551400  0.808300  0.937000  1.0  -0.6713
  O  O1436  1  0.335600  0.839300  0.391000  1.0  -0.6551
  O  O1437  1  0.448600  0.808300  0.437000  1.0  -0.6716
  O  O1438  1  0.719200  0.321800  0.472400  1.0  -0.6358
  O  O1439  1  0.948600  0.691700  0.937000  1.0  -0.6714
  O  O1440  1  0.968800  0.287200  0.506900  1.0  -0.6664
  O  O1441  1  0.674800  0.340000  0.606300  1.0  -0.2954
  O  O1442  1  0.581200  0.788900  0.120900  1.0  -0.5534
  O  O1443  1  0.958100  0.200100  0.647200  1.0  -0.6356
  O  O1444  1  0.968800  0.712800  0.993100  1.0  -0.665
  O  O1445  1  0.163100  0.327700  0.979200  1.0  -0.6425
  O  O1446  1  0.944800  0.179300  0.509400  1.0  -0.6665
  O  O1447  1  0.521900  0.220900  0.641800  1.0  -0.6756
  O  O1448  1  0.325200  0.660000  0.393700  1.0  -0.2971
  O  O1449  1  0.967300  0.730800  0.069000  1.0  -0.5963
  O  O1450  1  0.719200  0.678200  0.027600  1.0  -0.6346
  O  O1451  1  0.336900  0.172300  0.979200  1.0  -0.6429
  O  O1452  1  0.164400  0.339300  0.109000  1.0  -0.6549
  O  O1453  1  0.967300  0.269200  0.431000  1.0  -0.597
  O  O1454  1  0.478100  0.779100  0.358200  1.0  -0.6764
  O  O1455  1  0.835600  0.339300  0.609000  1.0  -0.6547
  O  O1456  1  0.081200  0.711100  0.620900  1.0  -0.5528
  O  O1457  1  0.467900  0.301400  0.065300  1.0  -0.6648
  O  O1458  1  0.967900  0.801400  0.934700  1.0  -0.6649
  O  O1459  1  0.051400  0.691700  0.437000  1.0  -0.6712
  O  O1460  1  0.578600  0.671200  0.066100  1.0  -0.6177
  O  O1461  1  0.078600  0.171200  0.933900  1.0  -0.618
  O  O1462  1  0.921400  0.828800  0.066100  1.0  -0.6174
  O  O1463  1  0.750000  0.250000  0.583500  1.0  -0.6971
  O  O1464  1  0.308300  0.760100  0.582300  1.0  -0.6692
  O  O1465  1  0.836900  0.672300  0.020800  1.0  -0.6427
  O  O1466  1  0.808300  0.739900  0.082300  1.0  -0.6696
  O  O1467  1  0.664400  0.839300  0.891000  1.0  -0.6553
  O  O1468  1  0.250000  0.750000  0.416500  1.0  -0.6978
  O  O1469  1  0.021900  0.279100  0.141800  1.0  -0.6755
  O  O1470  1  0.021900  0.720900  0.358200  1.0  -0.675
  O  O1471  1  0.055200  0.179300  0.009400  1.0  -0.6658
  O  O1472  1  0.418800  0.211100  0.879100  1.0  -0.5542
  O  O1473  1  0.555200  0.320700  0.509400  1.0  -0.6663
  O  O1474  1  0.531200  0.787200  0.993100  1.0  -0.6634
  O  O1475  1  0.467300  0.230800  0.931000  1.0  -0.5969
  O  O1476  1  0.918800  0.288900  0.379100  1.0  -0.5525
  O  O1477  1  0.448600  0.191700  0.063000  1.0  -0.6718
  O  O1478  1  0.041900  0.200100  0.147200  1.0  -0.6362
  O  O1479  1  0.918800  0.711100  0.120900  1.0  -0.5544
  O  O1480  1  0.978100  0.279100  0.641800  1.0  -0.6764
  O  O1481  1  0.810000  0.750700  0.845200  1.0  -0.6403
  O  O1482  1  0.555200  0.679300  0.990600  1.0  -0.6662
  O  O1483  1  0.189000  0.246100  0.034300  1.0  -0.8229
  O  O1484  1  0.835600  0.660700  0.891000  1.0  -0.655
  O  O1485  1  0.308300  0.239900  0.917700  1.0  -0.6697
  O  O1486  1  0.164400  0.660700  0.391000  1.0  -0.6545
  O  O1487  1  0.532700  0.769200  0.069000  1.0  -0.5956
  O  O1488  1  0.191700  0.739900  0.582300  1.0  -0.6684
  O  O1489  1  0.031200  0.712800  0.493100  1.0  -0.6635
  O  O1490  1  0.219200  0.178200  0.972400  1.0  -0.6348
  O  O1491  1  0.541900  0.700100  0.852800  1.0  -0.6367
  O  O1492  1  0.032100  0.198600  0.065300  1.0  -0.6647
  O  O1493  1  0.190000  0.750700  0.345200  1.0  -0.6396
  O  O1494  1  0.978100  0.720900  0.858200  1.0  -0.6751
  O  O1495  1  0.531200  0.212800  0.506900  1.0  -0.6636
  O  O1496  1  0.311000  0.253900  0.034300  1.0  -0.8233
  O  O1497  1  0.032100  0.801400  0.434700  1.0  -0.6643
  O  O1498  1  0.521900  0.779100  0.858200  1.0  -0.6757
  O  O1499  1  0.051400  0.308300  0.063000  1.0  -0.6717
  O  O1500  1  0.663100  0.827700  0.020800  1.0  -0.6427
  O  O1501  1  0.921400  0.171200  0.433900  1.0  -0.6181
  O  O1502  1  0.310000  0.250700  0.154800  1.0  -0.6402
  O  O1503  1  0.467300  0.769200  0.569000  1.0  -0.5965
  O  O1504  1  0.280800  0.321800  0.972400  1.0  -0.6354
  O  O1505  1  0.689000  0.253900  0.534300  1.0  -0.8228
  O  O1506  1  0.280800  0.678200  0.527600  1.0  -0.6349
  O  O1507  1  0.335600  0.160700  0.109000  1.0  -0.6553
  O  O1508  1  0.190000  0.249300  0.154800  1.0  -0.6403
  O  O1509  1  0.325200  0.340000  0.106300  1.0  -0.2965
  O  O1510  1  0.663100  0.172300  0.479200  1.0  -0.6426
  O  O1511  1  0.811000  0.753900  0.965700  1.0  -0.8231
  O  O1512  1  0.532100  0.301400  0.565300  1.0  -0.6644
  O  O1513  1  0.808300  0.260100  0.417700  1.0  -0.6695
  O  O1514  1  0.478100  0.220900  0.141800  1.0  -0.676
  O  O1515  1  0.780800  0.178200  0.472400  1.0  -0.6351
  O  O1516  1  0.532700  0.230800  0.431000  1.0  -0.5962
  O  O1517  1  0.581200  0.211100  0.379100  1.0  -0.5537
  O  O1518  1  0.467900  0.698600  0.434700  1.0  -0.664
  O  O1519  1  0.825200  0.160000  0.606300  1.0  -0.2969
  O  O1520  1  0.674800  0.660000  0.893700  1.0  -0.2959
