# generated using pymatgen
data_Nd4B4H158C139N2O31
_symmetry_space_group_name_H-M   'P 1'
_cell_length_a   18.21510000
_cell_length_b   27.28600000
_cell_length_c   37.61400000
_cell_angle_alpha   90.00000000
_cell_angle_beta   90.00000000
_cell_angle_gamma   90.00000000
_symmetry_Int_Tables_number   1
_chemical_formula_structural   Nd4B4H158C139N2O31
_chemical_formula_sum   'Nd16 B16 H632 C556 N8 O124'
_cell_volume   18694.80566042
_cell_formula_units_Z   4
loop_
 _symmetry_equiv_pos_site_id
 _symmetry_equiv_pos_as_xyz
  1  'x, y, z'
loop_
 _atom_site_type_symbol
 _atom_site_label
 _atom_site_symmetry_multiplicity
 _atom_site_fract_x
 _atom_site_fract_y
 _atom_site_fract_z
 _atom_site_occupancy
 _atom_site_charge
  Nd  Nd1  1  0.626160  0.244570  0.526710  1.0  2.3211
  Nd  Nd2  1  0.126160  0.744570  0.473290  1.0  2.3212
  Nd  Nd3  1  0.121560  0.251600  0.904360  1.0  2.3184
  Nd  Nd4  1  0.126160  0.255430  0.026710  1.0  2.3204
  Nd  Nd5  1  0.878440  0.748400  0.095640  1.0  2.3192
  Nd  Nd6  1  0.621560  0.248400  0.404360  1.0  2.3181
  Nd  Nd7  1  0.626160  0.755430  0.973290  1.0  2.3186
  Nd  Nd8  1  0.121560  0.748400  0.595640  1.0  2.318
  Nd  Nd9  1  0.373840  0.244570  0.026710  1.0  2.3205
  Nd  Nd10  1  0.873840  0.744570  0.973290  1.0  2.321
  Nd  Nd11  1  0.878440  0.251600  0.404360  1.0  2.3195
  Nd  Nd12  1  0.873840  0.255430  0.526710  1.0  2.3202
  Nd  Nd13  1  0.378440  0.751600  0.595640  1.0  2.3193
  Nd  Nd14  1  0.621560  0.751600  0.095640  1.0  2.3181
  Nd  Nd15  1  0.373840  0.755430  0.473290  1.0  2.3204
  Nd  Nd16  1  0.378440  0.248400  0.904360  1.0  2.3193
  B  B17  1  0.750000  0.750000  0.322600  1.0  0.3801
  B  B18  1  0.244300  0.062500  0.468000  1.0  0.4504
  B  B19  1  0.750000  0.750000  0.744500  1.0  0.3821
  B  B20  1  0.255700  0.562500  0.032000  1.0  0.4503
  B  B21  1  0.250000  0.750000  0.244500  1.0  0.3821
  B  B22  1  0.250000  0.250000  0.255500  1.0  0.3818
  B  B23  1  0.755700  0.062500  0.968000  1.0  0.4502
  B  B24  1  0.244300  0.937500  0.032000  1.0  0.4502
  B  B25  1  0.744300  0.437500  0.968000  1.0  0.4502
  B  B26  1  0.255700  0.437500  0.468000  1.0  0.4499
  B  B27  1  0.755700  0.937500  0.532000  1.0  0.45
  B  B28  1  0.250000  0.750000  0.822600  1.0  0.3801
  B  B29  1  0.744300  0.562500  0.532000  1.0  0.4505
  B  B30  1  0.750000  0.250000  0.177400  1.0  0.38
  B  B31  1  0.750000  0.250000  0.755500  1.0  0.3818
  B  B32  1  0.250000  0.250000  0.677400  1.0  0.38
  H  H33  1  0.741000  0.314200  0.839400  1.0  0.1144
  H  H34  1  0.409800  0.034500  0.404000  1.0  0.0972
  H  H35  1  0.829700  0.961400  0.584300  1.0  0.1149
  H  H36  1  0.118000  0.144400  0.576700  1.0  0.1172
  H  H37  1  0.006000  0.593000  0.103900  1.0  0.1116
  H  H38  1  0.562900  0.681200  0.440900  1.0  0.1219
  H  H39  1  0.994000  0.593000  0.603900  1.0  0.113
  H  H40  1  0.392400  0.741400  0.059500  1.0  0.1191
  H  H41  1  0.835600  0.661500  0.634200  1.0  0.1045
  H  H42  1  0.648600  0.209800  0.026600  1.0  0.1025
  H  H43  1  0.484900  0.557000  0.572600  1.0  0.1185
  H  H44  1  0.764500  0.135800  0.289700  1.0  0.1155
  H  H45  1  0.998400  0.076700  0.388800  1.0  0.132
  H  H46  1  0.253500  0.823300  0.983800  1.0  0.1068
  H  H47  1  0.148600  0.709800  0.973400  1.0  0.1035
  H  H48  1  0.487700  0.426800  0.025100  1.0  0.1106
  H  H49  1  0.840200  0.977500  0.488500  1.0  0.1115
  H  H50  1  0.724600  0.661200  0.404100  1.0  0.1048
  H  H51  1  0.440400  0.769800  0.341100  1.0  0.1259
  H  H52  1  0.484900  0.443000  0.927400  1.0  0.1173
  H  H53  1  0.720900  0.197900  0.114100  1.0  0.1199
  H  H54  1  0.726700  0.148100  0.928000  1.0  0.0947
  H  H55  1  0.973000  0.562300  0.072600  1.0  0.1188
  H  H56  1  0.660100  0.635900  0.920900  1.0  0.116
  H  H57  1  0.727200  0.380700  0.899700  1.0  0.1101
  H  H58  1  0.765800  0.636700  0.858800  1.0  0.1164
  H  H59  1  0.892400  0.241400  0.940500  1.0  0.1184
  H  H60  1  0.851400  0.290200  0.026600  1.0  0.1031
  H  H61  1  0.709400  0.828000  0.889400  1.0  0.1058
  H  H62  1  0.759000  0.814200  0.660600  1.0  0.1145
  H  H63  1  0.772800  0.880700  0.600300  1.0  0.1092
  H  H64  1  0.609500  0.198200  0.883900  1.0  0.1046
  H  H65  1  0.438700  0.402800  0.995700  1.0  0.1206
  H  H66  1  0.647700  0.310800  0.055000  1.0  0.1074
  H  H67  1  0.355200  0.674500  0.261000  1.0  0.1231
  H  H68  1  0.618000  0.644400  0.423300  1.0  0.1166
  H  H69  1  0.001600  0.076700  0.888800  1.0  0.13
  H  H70  1  0.541200  0.693000  0.198100  1.0  0.116
  H  H71  1  0.501600  0.423300  0.388800  1.0  0.1303
  H  H72  1  0.452600  0.117800  0.923300  1.0  0.1116
  H  H73  1  0.612300  0.503800  0.913800  1.0  0.1151
  H  H74  1  0.420700  0.645800  0.630100  1.0  0.1177
  H  H75  1  0.617800  0.718000  0.784900  1.0  0.118
  H  H76  1  0.920700  0.854200  0.130100  1.0  0.1169
  H  H77  1  0.428200  0.800100  0.788600  1.0  0.1131
  H  H78  1  0.387700  0.496200  0.086200  1.0  0.1144
  H  H79  1  0.612300  0.496200  0.586200  1.0  0.1168
  H  H80  1  0.890500  0.301800  0.883900  1.0  0.1052
  H  H81  1  0.562600  0.793200  0.473000  1.0  0.116
  H  H82  1  0.984900  0.943000  0.072600  1.0  0.1177
  H  H83  1  0.315900  0.506700  0.390800  1.0  0.1202
  H  H84  1  0.522200  0.305500  0.261300  1.0  0.1091
  H  H85  1  0.282100  0.975100  0.961200  1.0  0.1122
  H  H86  1  0.602900  0.235200  0.996500  1.0  0.1238
  H  H87  1  0.102900  0.735200  0.003500  1.0  0.1246
  H  H88  1  0.743500  0.344500  0.136300  1.0  0.1147
  H  H89  1  0.562900  0.318800  0.059100  1.0  0.1217
  H  H90  1  0.886300  0.052600  0.039200  1.0  0.117
  H  H91  1  0.890500  0.698200  0.616100  1.0  0.1063
  H  H92  1  0.291700  0.331200  0.821200  1.0  0.1108
  H  H93  1  0.847200  0.215500  0.910400  1.0  0.0753
  H  H94  1  0.892900  0.660800  0.313900  1.0  0.1156
  H  H95  1  0.225600  0.644500  0.184600  1.0  0.1179
  H  H96  1  0.680100  0.459000  0.423700  1.0  0.1212
  H  H97  1  0.180100  0.041000  0.923700  1.0  0.121
  H  H98  1  0.512300  0.573200  0.974900  1.0  0.1113
  H  H99  1  0.613700  0.552600  0.460800  1.0  0.1179
  H  H100  1  0.079600  0.347100  0.362600  1.0  0.1197
  H  H101  1  0.352800  0.428000  0.954900  1.0  0.1084
  H  H102  1  0.958800  0.807000  0.198100  1.0  0.1159
  H  H103  1  0.439400  0.684600  0.265300  1.0  0.1097
  H  H104  1  0.390500  0.801800  0.116100  1.0  0.1065
  H  H105  1  0.768600  0.635600  0.789800  1.0  0.1207
  H  H106  1  0.477800  0.305500  0.761300  1.0  0.1101
  H  H107  1  0.792000  0.640400  0.457400  1.0  0.1103
  H  H108  1  0.514400  0.813000  0.824400  1.0  0.1085
  H  H109  1  0.342500  0.804400  0.791400  1.0  0.1021
  H  H110  1  0.059600  0.730200  0.341100  1.0  0.1263
  H  H111  1  0.653500  0.843400  0.859800  1.0  0.1166
  H  H112  1  0.756500  0.844500  0.363700  1.0  0.1154
  H  H113  1  0.118000  0.855600  0.923300  1.0  0.1177
  H  H114  1  0.342500  0.195600  0.708600  1.0  0.1027
  H  H115  1  0.462400  0.815000  0.364500  1.0  0.1164
  H  H116  1  0.031200  0.129100  0.027100  1.0  0.1147
  H  H117  1  0.117800  0.782000  0.284900  1.0  0.1191
  H  H118  1  0.547400  0.882200  0.076700  1.0  0.1103
  H  H119  1  0.952600  0.382200  0.423300  1.0  0.1112
  H  H120  1  0.531200  0.370900  0.527100  1.0  0.1155
  H  H121  1  0.325700  0.953300  0.097100  1.0  0.1169
  H  H122  1  0.176200  0.094200  0.106800  1.0  0.1115
  H  H123  1  0.650300  0.845100  0.790700  1.0  0.1286
  H  H124  1  0.152800  0.784500  0.089600  1.0  0.0745
  H  H125  1  0.202200  0.330600  0.240800  1.0  0.1077
  H  H126  1  0.323800  0.405800  0.106800  1.0  0.1108
  H  H127  1  0.654200  0.654500  0.209500  1.0  0.1197
  H  H128  1  0.852800  0.928000  0.045100  1.0  0.1086
  H  H129  1  0.512300  0.426800  0.525100  1.0  0.1104
  H  H130  1  0.756500  0.155500  0.136300  1.0  0.1161
  H  H131  1  0.644800  0.674500  0.761000  1.0  0.1223
  H  H132  1  0.939400  0.815400  0.765300  1.0  0.1096
  H  H133  1  0.652600  0.876500  0.018200  1.0  0.1085
  H  H134  1  0.420700  0.354200  0.869900  1.0  0.1164
  H  H135  1  0.994000  0.407000  0.896100  1.0  0.1135
  H  H136  1  0.468800  0.370900  0.027100  1.0  0.1155
  H  H137  1  0.764500  0.864200  0.210300  1.0  0.1167
  H  H138  1  0.759000  0.185800  0.839400  1.0  0.1165
  H  H139  1  0.653500  0.156600  0.640200  1.0  0.1155
  H  H140  1  0.409800  0.965500  0.096000  1.0  0.098
  H  H141  1  0.027000  0.562300  0.572600  1.0  0.1187
  H  H142  1  0.882000  0.144400  0.076700  1.0  0.1172
  H  H143  1  0.235500  0.864200  0.710300  1.0  0.1161
  H  H144  1  0.998400  0.923300  0.111200  1.0  0.1299
  H  H145  1  0.354700  0.025100  0.516500  1.0  0.1208
  H  H146  1  0.851500  0.844000  0.273700  1.0  0.1212
  H  H147  1  0.319900  0.459000  0.923700  1.0  0.1214
  H  H148  1  0.282100  0.024900  0.538800  1.0  0.1114
  H  H149  1  0.338000  0.981400  0.542300  1.0  0.0819
  H  H150  1  0.162000  0.481400  0.957700  1.0  0.0823
  H  H151  1  0.022200  0.805500  0.738700  1.0  0.1095
  H  H152  1  0.768600  0.364400  0.710200  1.0  0.1207
  H  H153  1  0.663800  0.078200  0.456800  1.0  0.0893
  H  H154  1  0.062600  0.706800  0.973000  1.0  0.1155
  H  H155  1  0.887700  0.996200  0.913800  1.0  0.1159
  H  H156  1  0.894000  0.091500  0.582800  1.0  0.1098
  H  H157  1  0.708000  0.859600  0.457400  1.0  0.1091
  H  H158  1  0.027000  0.437700  0.927400  1.0  0.119
  H  H159  1  0.840200  0.022500  0.011500  1.0  0.1123
  H  H160  1  0.660100  0.364100  0.579100  1.0  0.1138
  H  H161  1  0.205700  0.095300  0.929400  1.0  0.1049
  H  H162  1  0.652600  0.123500  0.481800  1.0  0.1082
  H  H163  1  0.351400  0.790200  0.973400  1.0  0.1034
  H  H164  1  0.113700  0.052600  0.539200  1.0  0.1173
  H  H165  1  0.702200  0.169400  0.740800  1.0  0.1073
  H  H166  1  0.062900  0.818800  0.940900  1.0  0.1214
  H  H167  1  0.339900  0.364100  0.079100  1.0  0.1133
  H  H168  1  0.886300  0.947400  0.460800  1.0  0.1177
  H  H169  1  0.147700  0.810800  0.945000  1.0  0.1069
  H  H170  1  0.566800  0.284200  0.908800  1.0  0.1076
  H  H171  1  0.279100  0.683300  0.201000  1.0  0.1209
  H  H172  1  0.709400  0.172000  0.610600  1.0  0.1058
  H  H173  1  0.485600  0.813000  0.324400  1.0  0.1085
  H  H174  1  0.090200  0.465500  0.404000  1.0  0.0983
  H  H175  1  0.109500  0.301800  0.383900  1.0  0.1045
  H  H176  1  0.355700  0.008200  0.430200  1.0  0.123
  H  H177  1  0.335600  0.838500  0.134200  1.0  0.1042
  H  H178  1  0.275400  0.661200  0.904100  1.0  0.1054
  H  H179  1  0.775400  0.838800  0.404100  1.0  0.1048
  H  H180  1  0.579600  0.152900  0.862600  1.0  0.1187
  H  H181  1  0.928200  0.699900  0.288600  1.0  0.1126
  H  H182  1  0.265800  0.136700  0.141200  1.0  0.1172
  H  H183  1  0.715100  0.324300  0.904700  1.0  0.0914
  H  H184  1  0.060600  0.815400  0.265300  1.0  0.1109
  H  H185  1  0.561800  0.260900  0.279200  1.0  0.1215
  H  H186  1  0.335600  0.161500  0.365800  1.0  0.1037
  H  H187  1  0.727200  0.619300  0.600300  1.0  0.1113
  H  H188  1  0.659800  0.477500  0.011500  1.0  0.1133
  H  H189  1  0.606000  0.591500  0.917200  1.0  0.1117
  H  H190  1  0.562600  0.206800  0.027000  1.0  0.1158
  H  H191  1  0.426100  0.518500  0.988300  1.0  0.1115
  H  H192  1  0.352300  0.689200  0.945000  1.0  0.1061
  H  H193  1  0.579300  0.354200  0.369900  1.0  0.1166
  H  H194  1  0.618000  0.355600  0.076700  1.0  0.1171
  H  H195  1  0.892900  0.339200  0.186100  1.0  0.1157
  H  H196  1  0.527000  0.062300  0.427400  1.0  0.1196
  H  H197  1  0.180100  0.959000  0.576300  1.0  0.1199
  H  H198  1  0.300000  0.667900  0.806000  1.0  0.1106
  H  H199  1  0.346500  0.843400  0.359800  1.0  0.1157
  H  H200  1  0.144300  0.508200  0.069800  1.0  0.1222
  H  H201  1  0.451900  0.529000  0.605300  1.0  0.1244
  H  H202  1  0.705700  0.595300  0.070600  1.0  0.1069
  H  H203  1  0.647700  0.689200  0.445000  1.0  0.1067
  H  H204  1  0.952600  0.617800  0.076700  1.0  0.111
  H  H205  1  0.437100  0.318800  0.559100  1.0  0.123
  H  H206  1  0.674300  0.046700  0.902900  1.0  0.1168
  H  H207  1  0.349700  0.154900  0.209300  1.0  0.1274
  H  H208  1  0.437400  0.206800  0.527000  1.0  0.1156
  H  H209  1  0.897100  0.264800  0.996500  1.0  0.1238
  H  H210  1  0.433200  0.284200  0.408800  1.0  0.1071
  H  H211  1  0.769800  0.121400  0.017000  1.0  0.1042
  H  H212  1  0.272800  0.619300  0.100300  1.0  0.1109
  H  H213  1  0.174300  0.546700  0.097100  1.0  0.1186
  H  H214  1  0.771200  0.135400  0.225500  1.0  0.1074
  H  H215  1  0.985600  0.687000  0.824400  1.0  0.1082
  H  H216  1  0.800000  0.167900  0.194000  1.0  0.1116
  H  H217  1  0.790600  0.672000  0.889400  1.0  0.1059
  H  H218  1  0.451900  0.471000  0.894700  1.0  0.1238
  H  H219  1  0.347400  0.123500  0.981800  1.0  0.1071
  H  H220  1  0.392900  0.839200  0.813900  1.0  0.1154
  H  H221  1  0.823800  0.905800  0.893200  1.0  0.1109
  H  H222  1  0.940400  0.730200  0.841100  1.0  0.1265
  H  H223  1  0.984900  0.057000  0.427400  1.0  0.117
  H  H224  1  0.220900  0.183300  0.299000  1.0  0.1199
  H  H225  1  0.847400  0.623500  0.018200  1.0  0.1084
  H  H226  1  0.148600  0.290200  0.526600  1.0  0.1029
  H  H227  1  0.148500  0.844000  0.773700  1.0  0.1203
  H  H228  1  0.113700  0.947400  0.960800  1.0  0.1177
  H  H229  1  0.838000  0.481400  0.457700  1.0  0.0832
  H  H230  1  0.144300  0.491800  0.430200  1.0  0.1256
  H  H231  1  0.522200  0.694500  0.238700  1.0  0.1115
  H  H232  1  0.079600  0.652900  0.137400  1.0  0.1203
  H  H233  1  0.515100  0.443000  0.427400  1.0  0.1172
  H  H234  1  0.684100  0.506700  0.890800  1.0  0.1201
  H  H235  1  0.284900  0.675700  0.095300  1.0  0.0932
  H  H236  1  0.231400  0.635600  0.289800  1.0  0.1217
  H  H237  1  0.275700  0.119000  0.959000  1.0  0.1239
  H  H238  1  0.273300  0.851900  0.072000  1.0  0.097
  H  H239  1  0.268600  0.135600  0.210200  1.0  0.1207
  H  H240  1  0.224300  0.381000  0.959000  1.0  0.1231
  H  H241  1  0.790600  0.328000  0.610600  1.0  0.1064
  H  H242  1  0.394000  0.408500  0.082800  1.0  0.1097
  H  H243  1  0.735500  0.635800  0.210300  1.0  0.1157
  H  H244  1  0.382000  0.644400  0.923300  1.0  0.1168
  H  H245  1  0.351500  0.344000  0.726300  1.0  0.1197
  H  H246  1  0.498400  0.423300  0.888800  1.0  0.1313
  H  H247  1  0.382200  0.282000  0.215100  1.0  0.119
  H  H248  1  0.160100  0.135900  0.079100  1.0  0.1149
  H  H249  1  0.329700  0.538600  0.084300  1.0  0.114
  H  H250  1  0.226700  0.648100  0.072000  1.0  0.0956
  H  H251  1  0.730200  0.378600  0.017000  1.0  0.1032
  H  H252  1  0.220900  0.302100  0.614100  1.0  0.1192
  H  H253  1  0.275700  0.881000  0.541000  1.0  0.1223
  H  H254  1  0.347400  0.876500  0.518200  1.0  0.1081
  H  H255  1  0.061800  0.760900  0.720800  1.0  0.1219
  H  H256  1  0.664400  0.161500  0.865800  1.0  0.1052
  H  H257  1  0.153500  0.656600  0.359800  1.0  0.1157
  H  H258  1  0.268600  0.864400  0.289800  1.0  0.1201
  H  H259  1  0.217900  0.524900  0.961200  1.0  0.1106
  H  H260  1  0.664400  0.838500  0.634200  1.0  0.1053
  H  H261  1  0.794300  0.904700  0.070600  1.0  0.1066
  H  H262  1  0.773300  0.351900  0.928000  1.0  0.0966
  H  H263  1  0.433200  0.715800  0.091200  1.0  0.1063
  H  H264  1  0.420400  0.847100  0.137400  1.0  0.1182
  H  H265  1  0.920400  0.347100  0.862600  1.0  0.1199
  H  H266  1  0.962400  0.315000  0.635500  1.0  0.1164
  H  H267  1  0.354700  0.974900  0.983500  1.0  0.1207
  H  H268  1  0.170300  0.038600  0.415700  1.0  0.1157
  H  H269  1  0.428200  0.199900  0.711400  1.0  0.1123
  H  H270  1  0.847400  0.376500  0.481800  1.0  0.1076
  H  H271  1  0.073900  0.018500  0.511700  1.0  0.1123
  H  H272  1  0.145300  0.474900  0.516500  1.0  0.1203
  H  H273  1  0.987700  0.073200  0.525100  1.0  0.1113
  H  H274  1  0.753500  0.323300  0.016200  1.0  0.1076
  H  H275  1  0.938200  0.239100  0.279200  1.0  0.1218
  H  H276  1  0.022200  0.194500  0.761300  1.0  0.1103
  H  H277  1  0.720900  0.802100  0.385900  1.0  0.1198
  H  H278  1  0.106000  0.908500  0.417200  1.0  0.1116
  H  H279  1  0.909800  0.465500  0.904000  1.0  0.0987
  H  H280  1  0.561300  0.597200  0.004300  1.0  0.1203
  H  H281  1  0.846500  0.656600  0.859800  1.0  0.1155
  H  H282  1  0.297800  0.169400  0.240800  1.0  0.1076
  H  H283  1  0.648500  0.344000  0.226300  1.0  0.1206
  H  H284  1  0.607600  0.258600  0.940500  1.0  0.1181
  H  H285  1  0.145300  0.525100  0.983500  1.0  0.1191
  H  H286  1  0.928200  0.300100  0.211400  1.0  0.1131
  H  H287  1  0.215100  0.175700  0.404700  1.0  0.0938
  H  H288  1  0.351400  0.209800  0.526600  1.0  0.1027
  H  H289  1  0.541200  0.307000  0.301900  1.0  0.1153
  H  H290  1  0.791700  0.168800  0.321200  1.0  0.1112
  H  H291  1  0.730200  0.621400  0.483000  1.0  0.1043
  H  H292  1  0.882200  0.218000  0.715100  1.0  0.1178
  H  H293  1  0.284900  0.324300  0.404700  1.0  0.0922
  H  H294  1  0.066800  0.215800  0.408800  1.0  0.1069
  H  H295  1  0.162000  0.518600  0.542300  1.0  0.0821
  H  H296  1  0.735500  0.364200  0.289700  1.0  0.1148
  H  H297  1  0.329700  0.461400  0.415700  1.0  0.1148
  H  H298  1  0.909800  0.534500  0.596000  1.0  0.0977
  H  H299  1  0.290600  0.172000  0.110600  1.0  0.1054
  H  H300  1  0.336200  0.921800  0.543200  1.0  0.0888
  H  H301  1  0.573900  0.481500  0.011700  1.0  0.1115
  H  H302  1  0.347200  0.715500  0.089600  1.0  0.0746
  H  H303  1  0.163800  0.421800  0.956800  1.0  0.09
  H  H304  1  0.708000  0.140400  0.042600  1.0  0.1124
  H  H305  1  0.724300  0.881000  0.041000  1.0  0.1234
  H  H306  1  0.851500  0.156000  0.226300  1.0  0.1211
  H  H307  1  0.355200  0.325500  0.239000  1.0  0.1228
  H  H308  1  0.200000  0.167900  0.694000  1.0  0.1117
  H  H309  1  0.159800  0.022500  0.511500  1.0  0.1136
  H  H310  1  0.012300  0.073200  0.025100  1.0  0.111
  H  H311  1  0.527000  0.937700  0.072600  1.0  0.1179
  H  H312  1  0.676200  0.594200  0.893200  1.0  0.1106
  H  H313  1  0.717900  0.975100  0.461200  1.0  0.1103
  H  H314  1  0.220900  0.816700  0.201000  1.0  0.1189
  H  H315  1  0.274400  0.144500  0.315400  1.0  0.1167
  H  H316  1  0.559600  0.769800  0.841100  1.0  0.1258
  H  H317  1  0.147200  0.928000  0.545100  1.0  0.1093
  H  H318  1  0.397100  0.764800  0.003500  1.0  0.1254
  H  H319  1  0.462400  0.185000  0.135500  1.0  0.1162
  H  H320  1  0.937100  0.818800  0.440900  1.0  0.1225
  H  H321  1  0.852800  0.072000  0.454900  1.0  0.108
  H  H322  1  0.845800  0.154500  0.290500  1.0  0.118
  H  H323  1  0.607100  0.160800  0.186100  1.0  0.1139
  H  H324  1  0.937100  0.181200  0.059100  1.0  0.1232
  H  H325  1  0.291700  0.668800  0.678800  1.0  0.1123
  H  H326  1  0.208300  0.831200  0.678800  1.0  0.1117
  H  H327  1  0.227200  0.880700  0.100300  1.0  0.1097
  H  H328  1  0.647200  0.572000  0.045100  1.0  0.1084
  H  H329  1  0.494000  0.093000  0.396100  1.0  0.1133
  H  H330  1  0.264500  0.364200  0.789700  1.0  0.1161
  H  H331  1  0.473000  0.062300  0.927400  1.0  0.1189
  H  H332  1  0.506000  0.093000  0.896100  1.0  0.1122
  H  H333  1  0.939400  0.184600  0.734700  1.0  0.1088
  H  H334  1  0.336200  0.078200  0.956800  1.0  0.0886
  H  H335  1  0.775700  0.619000  0.041000  1.0  0.1233
  H  H336  1  0.345800  0.654500  0.709500  1.0  0.1189
  H  H337  1  0.224300  0.619000  0.541000  1.0  0.1241
  H  H338  1  0.836200  0.578200  0.043200  1.0  0.0899
  H  H339  1  0.958800  0.193000  0.301900  1.0  0.1149
  H  H340  1  0.048100  0.971000  0.605300  1.0  0.1236
  H  H341  1  0.241000  0.185800  0.339400  1.0  0.1159
  H  H342  1  0.154200  0.154500  0.790500  1.0  0.1197
  H  H343  1  0.438700  0.597200  0.504300  1.0  0.1201
  H  H344  1  0.662000  0.018600  0.457700  1.0  0.0825
  H  H345  1  0.061300  0.097200  0.995700  1.0  0.1207
  H  H346  1  0.648600  0.790200  0.473400  1.0  0.1035
  H  H347  1  0.772800  0.119300  0.899700  1.0  0.1094
  H  H348  1  0.985600  0.313000  0.675600  1.0  0.1078
  H  H349  1  0.839900  0.864100  0.920900  1.0  0.1136
  H  H350  1  0.933200  0.215800  0.908800  1.0  0.1064
  H  H351  1  0.112300  0.003800  0.086200  1.0  0.1165
  H  H352  1  0.272800  0.380700  0.399700  1.0  0.11
  H  H353  1  0.345800  0.345500  0.790500  1.0  0.1173
  H  H354  1  0.836200  0.421800  0.456800  1.0  0.0894
  H  H355  1  0.779100  0.697900  0.385900  1.0  0.1206
  H  H356  1  0.230200  0.121400  0.517000  1.0  0.1043
  H  H357  1  0.849700  0.345100  0.709300  1.0  0.1265
  H  H358  1  0.973000  0.437700  0.427400  1.0  0.1192
  H  H359  1  0.887700  0.003800  0.586200  1.0  0.1138
  H  H360  1  0.774400  0.355500  0.815400  1.0  0.1179
  H  H361  1  0.731400  0.135600  0.710200  1.0  0.1212
  H  H362  1  0.323800  0.594200  0.393200  1.0  0.1107
  H  H363  1  0.259000  0.314200  0.339400  1.0  0.1151
  H  H364  1  0.047400  0.382200  0.923300  1.0  0.1113
  H  H365  1  0.256500  0.655500  0.863700  1.0  0.1156
  H  H366  1  0.006000  0.407000  0.396100  1.0  0.1117
  H  H367  1  0.220900  0.697900  0.885900  1.0  0.1199
  H  H368  1  0.147700  0.189200  0.555000  1.0  0.1071
  H  H369  1  0.246500  0.323300  0.516200  1.0  0.1069
  H  H370  1  0.951900  0.029000  0.394700  1.0  0.1232
  H  H371  1  0.106000  0.091500  0.082800  1.0  0.1127
  H  H372  1  0.224600  0.838800  0.904100  1.0  0.1045
  H  H373  1  0.208000  0.359600  0.542600  1.0  0.1132
  H  H374  1  0.938700  0.902800  0.004300  1.0  0.12
  H  H375  1  0.487700  0.573200  0.474900  1.0  0.1117
  H  H376  1  0.031200  0.870900  0.472900  1.0  0.1157
  H  H377  1  0.226700  0.351900  0.428000  1.0  0.0945
  H  H378  1  0.849700  0.654900  0.790700  1.0  0.1274
  H  H379  1  0.579300  0.645800  0.130100  1.0  0.1176
  H  H380  1  0.394000  0.591500  0.417200  1.0  0.1117
  H  H381  1  0.920400  0.652900  0.637400  1.0  0.1197
  H  H382  1  0.274400  0.855500  0.184600  1.0  0.1175
  H  H383  1  0.060600  0.184600  0.234700  1.0  0.1107
  H  H384  1  0.854700  0.525100  0.483500  1.0  0.1219
  H  H385  1  0.800000  0.832100  0.306000  1.0  0.1091
  H  H386  1  0.208300  0.168800  0.821200  1.0  0.1111
  H  H387  1  0.340200  0.477500  0.511500  1.0  0.1121
  H  H388  1  0.209400  0.328000  0.110600  1.0  0.1067
  H  H389  1  0.352300  0.310800  0.555000  1.0  0.107
  H  H390  1  0.152600  0.376500  0.981800  1.0  0.1085
  H  H391  1  0.559600  0.230200  0.658900  1.0  0.1266
  H  H392  1  0.059600  0.269800  0.158900  1.0  0.1266
  H  H393  1  0.235500  0.135800  0.789700  1.0  0.115
  H  H394  1  0.724600  0.338800  0.095900  1.0  0.1045
  H  H395  1  0.259000  0.685800  0.160600  1.0  0.1162
  H  H396  1  0.566800  0.715800  0.591200  1.0  0.1066
  H  H397  1  0.590200  0.965500  0.596000  1.0  0.0984
  H  H398  1  0.061800  0.239100  0.779200  1.0  0.1217
  H  H399  1  0.725600  0.855500  0.684600  1.0  0.1182
  H  H400  1  0.047400  0.617800  0.576700  1.0  0.1105
  H  H401  1  0.494000  0.907000  0.103900  1.0  0.1117
  H  H402  1  0.571800  0.800100  0.288600  1.0  0.1132
  H  H403  1  0.720900  0.316700  0.799000  1.0  0.1198
  H  H404  1  0.731400  0.864400  0.789800  1.0  0.121
  H  H405  1  0.230200  0.878600  0.983000  1.0  0.1044
  H  H406  1  0.531200  0.629100  0.972900  1.0  0.1156
  H  H407  1  0.647200  0.428000  0.454900  1.0  0.1066
  H  H408  1  0.256500  0.344500  0.636300  1.0  0.1145
  H  H409  1  0.107100  0.339200  0.686100  1.0  0.1164
  H  H410  1  0.717900  0.024900  0.038800  1.0  0.112
  H  H411  1  0.680100  0.541000  0.076300  1.0  0.1212
  H  H412  1  0.743500  0.655500  0.363700  1.0  0.1159
  H  H413  1  0.882200  0.782000  0.784900  1.0  0.1174
  H  H414  1  0.741000  0.685800  0.660600  1.0  0.1151
  H  H415  1  0.153500  0.343400  0.140200  1.0  0.1167
  H  H416  1  0.726700  0.851900  0.572000  1.0  0.0955
  H  H417  1  0.339900  0.635900  0.420900  1.0  0.1159
  H  H418  1  0.882000  0.855600  0.423300  1.0  0.1173
  H  H419  1  0.654200  0.345500  0.290500  1.0  0.1182
  H  H420  1  0.209400  0.672000  0.389400  1.0  0.1059
  H  H421  1  0.962400  0.685000  0.864500  1.0  0.1171
  H  H422  1  0.700000  0.332100  0.194000  1.0  0.1108
  H  H423  1  0.815900  0.006700  0.609200  1.0  0.1188
  H  H424  1  0.897100  0.735200  0.503500  1.0  0.1249
  H  H425  1  0.144800  0.174500  0.239000  1.0  0.1223
  H  H426  1  0.705700  0.404700  0.429400  1.0  0.1052
  H  H427  1  0.652800  0.284500  0.910400  1.0  0.0745
  H  H428  1  0.071800  0.699900  0.788600  1.0  0.1135
  H  H429  1  0.102900  0.264800  0.496500  1.0  0.1237
  H  H430  1  0.012300  0.926800  0.474900  1.0  0.1123
  H  H431  1  0.117800  0.218000  0.215100  1.0  0.1186
  H  H432  1  0.926100  0.981500  0.488300  1.0  0.1122
  H  H433  1  0.246500  0.676700  0.983800  1.0  0.1071
  H  H434  1  0.392900  0.160800  0.686100  1.0  0.1141
  H  H435  1  0.782100  0.475100  0.038800  1.0  0.1121
  H  H436  1  0.779100  0.302100  0.114100  1.0  0.1201
  H  H437  1  0.292000  0.140400  0.542600  1.0  0.1115
  H  H438  1  0.061300  0.902800  0.504300  1.0  0.1205
  H  H439  1  0.746500  0.823300  0.483800  1.0  0.1067
  H  H440  1  0.537600  0.815000  0.864500  1.0  0.1171
  H  H441  1  0.847200  0.784500  0.589600  1.0  0.0741
  H  H442  1  0.609500  0.801800  0.616100  1.0  0.1064
  H  H443  1  0.728800  0.364600  0.225500  1.0  0.1066
  H  H444  1  0.838000  0.518600  0.042300  1.0  0.082
  H  H445  1  0.264500  0.635800  0.710300  1.0  0.1157
  H  H446  1  0.561800  0.739100  0.220800  1.0  0.1217
  H  H447  1  0.420400  0.152900  0.362600  1.0  0.1195
  H  H448  1  0.846500  0.343400  0.640200  1.0  0.1162
  H  H449  1  0.208000  0.640400  0.957400  1.0  0.1095
  H  H450  1  0.657500  0.804400  0.291400  1.0  0.1012
  H  H451  1  0.784900  0.824300  0.595300  1.0  0.0925
  H  H452  1  0.157500  0.304400  0.708600  1.0  0.1015
  H  H453  1  0.670300  0.538600  0.584300  1.0  0.115
  H  H454  1  0.231400  0.364400  0.210200  1.0  0.121
  H  H455  1  0.645300  0.974900  0.483500  1.0  0.1185
  H  H456  1  0.670300  0.461400  0.915700  1.0  0.1154
  H  H457  1  0.648500  0.656000  0.273700  1.0  0.1206
  H  H458  1  0.579600  0.847100  0.637400  1.0  0.1202
  H  H459  1  0.150300  0.345100  0.209300  1.0  0.1296
  H  H460  1  0.725600  0.144500  0.815400  1.0  0.1175
  H  H461  1  0.152600  0.623500  0.518200  1.0  0.1093
  H  H462  1  0.347200  0.284500  0.410400  1.0  0.0744
  H  H463  1  0.855700  0.491800  0.930200  1.0  0.1255
  H  H464  1  0.547400  0.117800  0.423300  1.0  0.1115
  H  H465  1  0.382000  0.355600  0.576700  1.0  0.1172
  H  H466  1  0.938700  0.097200  0.495700  1.0  0.119
  H  H467  1  0.234200  0.636700  0.358800  1.0  0.1163
  H  H468  1  0.468800  0.629100  0.472900  1.0  0.1156
  H  H469  1  0.224600  0.161200  0.595900  1.0  0.1048
  H  H470  1  0.015100  0.943000  0.572600  1.0  0.1177
  H  H471  1  0.438200  0.739100  0.720800  1.0  0.1218
  H  H472  1  0.644800  0.325500  0.739000  1.0  0.1217
  H  H473  1  0.473000  0.937700  0.572600  1.0  0.1189
  H  H474  1  0.090200  0.534500  0.096000  1.0  0.0986
  H  H475  1  0.294300  0.595300  0.570600  1.0  0.1069
  H  H476  1  0.708300  0.331200  0.321200  1.0  0.1106
  H  H477  1  0.734200  0.136700  0.641200  1.0  0.1171
  H  H478  1  0.842500  0.695600  0.291400  1.0  0.1042
  H  H479  1  0.297800  0.830600  0.259200  1.0  0.1075
  H  H480  1  0.765800  0.363300  0.641200  1.0  0.1158
  H  H481  1  0.892400  0.758600  0.559500  1.0  0.1185
  H  H482  1  0.107100  0.660800  0.813900  1.0  0.115
  H  H483  1  0.325700  0.046700  0.402900  1.0  0.1173
  H  H484  1  0.048100  0.029000  0.894700  1.0  0.1237
  H  H485  1  0.773300  0.648100  0.572000  1.0  0.0972
  H  H486  1  0.150300  0.654900  0.290700  1.0  0.131
  H  H487  1  0.851400  0.709800  0.473400  1.0  0.1035
  H  H488  1  0.645300  0.025100  0.016500  1.0  0.1208
  H  H489  1  0.951900  0.971000  0.105300  1.0  0.1235
  H  H490  1  0.109500  0.698200  0.116100  1.0  0.1065
  H  H491  1  0.977800  0.805500  0.238700  1.0  0.1103
  H  H492  1  0.734200  0.863300  0.858800  1.0  0.1151
  H  H493  1  0.659800  0.522500  0.488500  1.0  0.1128
  H  H494  1  0.340200  0.522500  0.988500  1.0  0.111
  H  H495  1  0.292000  0.859600  0.957400  1.0  0.1115
  H  H496  1  0.515100  0.557000  0.072600  1.0  0.1179
  H  H497  1  0.265800  0.863300  0.358800  1.0  0.1158
  H  H498  1  0.041200  0.807000  0.698100  1.0  0.1158
  H  H499  1  0.073900  0.981500  0.988300  1.0  0.1125
  H  H500  1  0.477800  0.694500  0.738700  1.0  0.1121
  H  H501  1  0.352800  0.572000  0.545100  1.0  0.1097
  H  H502  1  0.079300  0.145800  0.869900  1.0  0.117
  H  H503  1  0.163800  0.578200  0.543200  1.0  0.0906
  H  H504  1  0.815900  0.993300  0.890800  1.0  0.12
  H  H505  1  0.271200  0.364600  0.725500  1.0  0.1073
  H  H506  1  0.438200  0.260900  0.779200  1.0  0.1211
  H  H507  1  0.724300  0.119000  0.459000  1.0  0.1246
  H  H508  1  0.107600  0.758600  0.059500  1.0  0.118
  H  H509  1  0.560600  0.315400  0.734700  1.0  0.1106
  H  H510  1  0.938200  0.760900  0.220800  1.0  0.1214
  H  H511  1  0.548100  0.471000  0.394700  1.0  0.1242
  H  H512  1  0.501600  0.576700  0.111200  1.0  0.1298
  H  H513  1  0.225600  0.355500  0.315400  1.0  0.1188
  H  H514  1  0.794300  0.095300  0.429400  1.0  0.1065
  H  H515  1  0.537600  0.185000  0.635500  1.0  0.1159
  H  H516  1  0.657500  0.195600  0.208600  1.0  0.103
  H  H517  1  0.200000  0.832100  0.806000  1.0  0.1089
  H  H518  1  0.560600  0.684600  0.765300  1.0  0.1117
  H  H519  1  0.784900  0.175700  0.904700  1.0  0.0939
  H  H520  1  0.819900  0.041000  0.423700  1.0  0.1199
  H  H521  1  0.215100  0.824300  0.095300  1.0  0.092
  H  H522  1  0.154200  0.845500  0.709500  1.0  0.1187
  H  H523  1  0.014400  0.313000  0.175600  1.0  0.1079
  H  H524  1  0.349700  0.845100  0.290700  1.0  0.127
  H  H525  1  0.160100  0.864100  0.420900  1.0  0.1144
  H  H526  1  0.548100  0.529000  0.105300  1.0  0.1247
  H  H527  1  0.440400  0.230200  0.158900  1.0  0.1267
  H  H528  1  0.829700  0.038600  0.915700  1.0  0.1147
  H  H529  1  0.279100  0.316700  0.299000  1.0  0.1202
  H  H530  1  0.184100  0.006700  0.109200  1.0  0.1189
  H  H531  1  0.452600  0.882200  0.576700  1.0  0.1106
  H  H532  1  0.968800  0.129100  0.527100  1.0  0.1147
  H  H533  1  0.062600  0.293200  0.527000  1.0  0.1164
  H  H534  1  0.792000  0.359600  0.042600  1.0  0.1125
  H  H535  1  0.700000  0.667900  0.306000  1.0  0.1109
  H  H536  1  0.279100  0.802100  0.885900  1.0  0.1202
  H  H537  1  0.819900  0.959000  0.076300  1.0  0.1204
  H  H538  1  0.774400  0.644500  0.684600  1.0  0.1169
  H  H539  1  0.720900  0.683300  0.701000  1.0  0.1206
  H  H540  1  0.987700  0.926800  0.974900  1.0  0.1125
  H  H541  1  0.940400  0.269800  0.658900  1.0  0.1264
  H  H542  1  0.835600  0.338500  0.865800  1.0  0.104
  H  H543  1  0.506000  0.907000  0.603900  1.0  0.1133
  H  H544  1  0.392400  0.258600  0.440500  1.0  0.1184
  H  H545  1  0.839900  0.135900  0.579100  1.0  0.115
  H  H546  1  0.926100  0.018500  0.011700  1.0  0.1124
  H  H547  1  0.855700  0.508200  0.569800  1.0  0.1235
  H  H548  1  0.779100  0.816700  0.701000  1.0  0.12
  H  H549  1  0.144800  0.825500  0.261000  1.0  0.1216
  H  H550  1  0.279100  0.197900  0.614100  1.0  0.1208
  H  H551  1  0.602900  0.764800  0.503500  1.0  0.1253
  H  H552  1  0.437400  0.793200  0.973000  1.0  0.1166
  H  H553  1  0.170300  0.961400  0.084300  1.0  0.1152
  H  H554  1  0.164400  0.661500  0.134200  1.0  0.1056
  H  H555  1  0.458800  0.307000  0.801900  1.0  0.1164
  H  H556  1  0.855200  0.825500  0.761000  1.0  0.1227
  H  H557  1  0.937400  0.706800  0.473000  1.0  0.1157
  H  H558  1  0.228800  0.864600  0.774500  1.0  0.1064
  H  H559  1  0.823800  0.094200  0.606800  1.0  0.1111
  H  H560  1  0.037600  0.685000  0.364500  1.0  0.1156
  H  H561  1  0.271200  0.635400  0.774500  1.0  0.1076
  H  H562  1  0.243500  0.844500  0.863700  1.0  0.1156
  H  H563  1  0.607100  0.839200  0.313900  1.0  0.1159
  H  H564  1  0.674300  0.953300  0.597100  1.0  0.1184
  H  H565  1  0.315900  0.493300  0.109200  1.0  0.1184
  H  H566  1  0.386300  0.447400  0.539200  1.0  0.1169
  H  H567  1  0.346500  0.156600  0.140200  1.0  0.1155
  H  H568  1  0.390500  0.198200  0.383900  1.0  0.1052
  H  H569  1  0.662000  0.981400  0.042300  1.0  0.0821
  H  H570  1  0.458800  0.693000  0.698100  1.0  0.1162
  H  H571  1  0.387700  0.503800  0.413800  1.0  0.1165
  H  H572  1  0.176200  0.905800  0.393200  1.0  0.1106
  H  H573  1  0.351500  0.656000  0.773700  1.0  0.1197
  H  H574  1  0.791700  0.831200  0.178800  1.0  0.1124
  H  H575  1  0.290600  0.828000  0.389400  1.0  0.1057
  H  H576  1  0.382200  0.718000  0.284900  1.0  0.1182
  H  H577  1  0.107600  0.241400  0.440500  1.0  0.118
  H  H578  1  0.269800  0.378600  0.517000  1.0  0.1032
  H  H579  1  0.273300  0.148100  0.428000  1.0  0.0967
  H  H580  1  0.644300  0.991800  0.569800  1.0  0.126
  H  H581  1  0.797800  0.330600  0.740800  1.0  0.1077
  H  H582  1  0.676200  0.405800  0.606800  1.0  0.1111
  H  H583  1  0.684100  0.493300  0.609200  1.0  0.1188
  H  H584  1  0.894000  0.908500  0.917200  1.0  0.1117
  H  H585  1  0.147200  0.072000  0.954900  1.0  0.1065
  H  H586  1  0.779100  0.183300  0.799000  1.0  0.1208
  H  H587  1  0.397100  0.235200  0.496500  1.0  0.1239
  H  H588  1  0.062900  0.181200  0.559100  1.0  0.1218
  H  H589  1  0.708300  0.668800  0.178800  1.0  0.1116
  H  H590  1  0.842500  0.304400  0.208600  1.0  0.1019
  H  H591  1  0.775700  0.381000  0.459000  1.0  0.1224
  H  H592  1  0.174300  0.453300  0.402900  1.0  0.1172
  H  H593  1  0.243500  0.155500  0.636300  1.0  0.1161
  H  H594  1  0.968800  0.870900  0.972900  1.0  0.1157
  H  H595  1  0.590200  0.034500  0.904000  1.0  0.0973
  H  H596  1  0.728800  0.635400  0.274500  1.0  0.1074
  H  H597  1  0.782100  0.524900  0.461200  1.0  0.1127
  H  H598  1  0.825700  0.546700  0.597100  1.0  0.1171
  H  H599  1  0.112300  0.996200  0.413800  1.0  0.1142
  H  H600  1  0.769800  0.878600  0.483000  1.0  0.104
  H  H601  1  0.845800  0.845500  0.209500  1.0  0.1177
  H  H602  1  0.852300  0.810800  0.445000  1.0  0.1063
  H  H603  1  0.148500  0.156000  0.726300  1.0  0.1212
  H  H604  1  0.253500  0.176700  0.516200  1.0  0.107
  H  H605  1  0.228800  0.135400  0.725500  1.0  0.1071
  H  H606  1  0.644300  0.008200  0.930200  1.0  0.1216
  H  H607  1  0.797800  0.669400  0.759200  1.0  0.1066
  H  H608  1  0.775400  0.161200  0.095900  1.0  0.1053
  H  H609  1  0.355700  0.991800  0.069800  1.0  0.1259
  H  H610  1  0.771200  0.864600  0.274500  1.0  0.1084
  H  H611  1  0.571800  0.199900  0.211400  1.0  0.1136
  H  H612  1  0.753500  0.676700  0.483800  1.0  0.1067
  H  H613  1  0.227200  0.119300  0.399700  1.0  0.1099
  H  H614  1  0.217900  0.475100  0.538800  1.0  0.1131
  H  H615  1  0.933200  0.784200  0.591200  1.0  0.1065
  H  H616  1  0.157500  0.695600  0.791400  1.0  0.1032
  H  H617  1  0.300000  0.332100  0.694000  1.0  0.1112
  H  H618  1  0.607600  0.741400  0.559500  1.0  0.1187
  H  H619  1  0.613700  0.447400  0.039200  1.0  0.1173
  H  H620  1  0.071800  0.300100  0.711400  1.0  0.1145
  H  H621  1  0.561300  0.402800  0.495700  1.0  0.1209
  H  H622  1  0.202200  0.669400  0.259200  1.0  0.1084
  H  H623  1  0.241000  0.814200  0.160600  1.0  0.1153
  H  H624  1  0.319900  0.541000  0.576300  1.0  0.1204
  H  H625  1  0.825700  0.453300  0.902900  1.0  0.1178
  H  H626  1  0.855200  0.174500  0.739000  1.0  0.1233
  H  H627  1  0.485600  0.187000  0.175600  1.0  0.1087
  H  H628  1  0.650300  0.154900  0.709300  1.0  0.1305
  H  H629  1  0.014400  0.687000  0.324400  1.0  0.1078
  H  H630  1  0.715100  0.675700  0.595300  1.0  0.0933
  H  H631  1  0.663800  0.921800  0.043200  1.0  0.0905
  H  H632  1  0.205700  0.904700  0.570600  1.0  0.1056
  H  H633  1  0.234200  0.363300  0.141200  1.0  0.1151
  H  H634  1  0.920700  0.145800  0.369900  1.0  0.117
  H  H635  1  0.294300  0.404700  0.929400  1.0  0.1081
  H  H636  1  0.937400  0.293200  0.027000  1.0  0.1159
  H  H637  1  0.275400  0.338800  0.595900  1.0  0.1045
  H  H638  1  0.498400  0.576700  0.611200  1.0  0.1314
  H  H639  1  0.159800  0.977500  0.988500  1.0  0.1131
  H  H640  1  0.041200  0.193000  0.801900  1.0  0.1163
  H  H641  1  0.514400  0.187000  0.675600  1.0  0.1082
  H  H642  1  0.606000  0.408500  0.582800  1.0  0.1127
  H  H643  1  0.426100  0.481500  0.511700  1.0  0.1123
  H  H644  1  0.437100  0.681200  0.940900  1.0  0.1231
  H  H645  1  0.617800  0.282000  0.715100  1.0  0.119
  H  H646  1  0.652800  0.715500  0.589600  1.0  0.0746
  H  H647  1  0.152800  0.215500  0.410400  1.0  0.0739
  H  H648  1  0.001600  0.923300  0.611200  1.0  0.1304
  H  H649  1  0.338000  0.018600  0.957700  1.0  0.083
  H  H650  1  0.015100  0.057000  0.927400  1.0  0.1166
  H  H651  1  0.746500  0.176700  0.016200  1.0  0.107
  H  H652  1  0.164400  0.338500  0.365800  1.0  0.1053
  H  H653  1  0.439400  0.315400  0.234700  1.0  0.1097
  H  H654  1  0.066800  0.784200  0.091200  1.0  0.1068
  H  H655  1  0.573900  0.518500  0.488300  1.0  0.1114
  H  H656  1  0.386300  0.552600  0.960800  1.0  0.1179
  H  H657  1  0.184100  0.993300  0.390800  1.0  0.12
  H  H658  1  0.702200  0.830600  0.759200  1.0  0.1084
  H  H659  1  0.269800  0.621400  0.983000  1.0  0.1038
  H  H660  1  0.977800  0.194500  0.261300  1.0  0.1105
  H  H661  1  0.079300  0.854200  0.630100  1.0  0.1171
  H  H662  1  0.037600  0.315000  0.135500  1.0  0.1167
  H  H663  1  0.854700  0.474900  0.016500  1.0  0.1196
  H  H664  1  0.852300  0.189200  0.055000  1.0  0.1068
  C  C665  1  0.112100  0.306800  0.695700  1.0  -0.32
  C  C666  1  0.133800  0.461600  0.418100  1.0  -0.3827
  C  C667  1  0.774600  0.426820  0.502780  1.0  0.0559
  C  C668  1  0.047600  0.844370  0.032390  1.0  -0.078
  C  C669  1  0.740900  0.821900  0.683900  1.0  -0.3429
  C  C670  1  0.167200  0.864800  0.055260  1.0  0.0638
  C  C671  1  0.612000  0.363000  0.387600  1.0  0.1613
  C  C672  1  0.250000  0.250000  0.139300  1.0  -0.1882
  C  C673  1  0.250000  0.250000  0.099700  1.0  0.7087
  C  C674  1  0.750000  0.250000  0.333400  1.0  0.7029
  C  C675  1  0.828300  0.367900  0.991270  1.0  0.0896
  C  C676  1  0.843500  0.898700  0.916400  1.0  -0.3938
  C  C677  1  0.667200  0.635200  0.555260  1.0  0.064
  C  C678  1  0.608200  0.300500  0.736400  1.0  -0.3582
  C  C679  1  0.950600  0.885700  0.510770  1.0  0.0387
  C  C680  1  0.389400  0.734300  0.230890  1.0  0.0163
  C  C681  1  0.204100  0.837400  0.703800  1.0  -0.3891
  C  C682  1  0.296100  0.835600  0.364600  1.0  -0.4078
  C  C683  1  0.981600  0.678900  0.032700  1.0  0.6773
  C  C684  1  0.450000  0.737100  0.208600  1.0  0.0657
  C  C685  1  0.688000  0.898900  0.027800  1.0  -0.3543
  C  C686  1  0.536000  0.560700  0.095800  1.0  -0.1861
  C  C687  1  0.676700  0.789300  0.692410  1.0  0.0735
  C  C688  1  0.835000  0.073100  0.430900  1.0  -0.1883
  C  C689  1  0.011600  0.738800  0.649800  1.0  0.6716
  C  C690  1  0.018400  0.678900  0.532700  1.0  0.6771
  C  C691  1  0.332800  0.635200  0.055260  1.0  0.0648
  C  C692  1  0.172200  0.788400  0.873200  1.0  0.0538
  C  C693  1  0.609600  0.321900  0.070700  1.0  -0.35
  C  C694  1  0.884000  0.707900  0.670090  1.0  0.0829
  C  C695  1  0.017400  0.189300  0.967500  1.0  0.6901
  C  C696  1  0.773300  0.208100  0.275700  1.0  0.044
  C  C697  1  0.048900  0.238000  0.614000  1.0  -0.0247
  C  C698  1  0.750000  0.250000  0.293800  1.0  -0.1748
  C  C699  1  0.887900  0.269500  0.165410  1.0  0.0612
  C  C700  1  0.312000  0.101100  0.972200  1.0  -0.3536
  C  C701  1  0.199800  0.073380  0.055570  1.0  0.0556
  C  C702  1  0.548900  0.738000  0.386000  1.0  -0.0245
  C  C703  1  0.165000  0.073100  0.930900  1.0  -0.189
  C  C704  1  0.234400  0.153700  0.027700  1.0  0.6803
  C  C705  1  0.169000  0.906060  0.033640  1.0  -0.0775
  C  C706  1  0.110600  0.765700  0.230890  1.0  0.0144
  C  C707  1  0.796100  0.664400  0.864600  1.0  -0.4084
  C  C708  1  0.331000  0.406060  0.466360  1.0  -0.0772
  C  C709  1  0.522300  0.206100  0.654500  1.0  -0.3736
  C  C710  1  0.669000  0.593940  0.533640  1.0  -0.0773
  C  C711  1  0.512800  0.262700  0.588800  1.0  0.4818
  C  C712  1  0.773800  0.145500  0.916600  1.0  -0.3496
  C  C713  1  0.174000  0.260400  0.277190  1.0  -0.0768
  C  C714  1  0.616000  0.792100  0.670090  1.0  0.0797
  C  C715  1  0.108200  0.800500  0.263600  1.0  -0.3575
  C  C716  1  0.750000  0.750000  0.786400  1.0  -0.0922
  C  C717  1  0.273800  0.354500  0.416600  1.0  -0.3498
  C  C718  1  0.378200  0.079920  0.445660  1.0  0.0581
  C  C719  1  0.109600  0.178100  0.570700  1.0  -0.3507
  C  C720  1  0.950600  0.114300  0.989230  1.0  0.0391
  C  C721  1  0.297300  0.477510  0.056610  1.0  0.0729
  C  C722  1  0.250000  0.250000  0.213600  1.0  -0.0919
  C  C723  1  0.052000  0.351170  0.466970  1.0  -0.0641
  C  C724  1  0.490900  0.906000  0.579500  1.0  -0.3526
  C  C725  1  0.012800  0.762700  0.411200  1.0  0.4818
  C  C726  1  0.026200  0.213700  0.782600  1.0  -0.3856
  C  C727  1  0.385200  0.459900  0.515300  1.0  -0.3606
  C  C728  1  0.549900  0.232200  0.144000  1.0  0.063
  C  C729  1  0.394600  0.207400  0.512100  1.0  -0.3886
  C  C730  1  0.549400  0.385700  0.989230  1.0  0.0407
  C  C731  1  0.477700  0.793900  0.345500  1.0  -0.3714
  C  C732  1  0.250000  0.250000  0.833400  1.0  0.7029
  C  C733  1  0.621800  0.920080  0.554340  1.0  0.0576
  C  C734  1  0.450600  0.614300  0.010770  1.0  0.0426
  C  C735  1  0.610600  0.265700  0.769110  1.0  0.0146
  C  C736  1  0.335000  0.426900  0.930900  1.0  -0.1876
  C  C737  1  0.987200  0.237300  0.588800  1.0  0.4823
  C  C738  1  0.387900  0.193200  0.695700  1.0  -0.3194
  C  C739  1  0.241500  0.003050  0.469260  1.0  0.0355
  C  C740  1  0.199900  0.337200  0.215700  1.0  -0.3999
  C  C741  1  0.750000  0.250000  0.639300  1.0  -0.1882
  C  C742  1  0.183300  0.495200  0.526200  1.0  -0.3648
  C  C743  1  0.112100  0.730500  0.834590  1.0  0.0606
  C  C744  1  0.133800  0.538400  0.081900  1.0  -0.3831
  C  C745  1  0.116000  0.707900  0.170090  1.0  0.0788
  C  C746  1  0.608500  0.839330  0.509730  1.0  0.0679
  C  C747  1  0.887900  0.306800  0.195700  1.0  -0.3195
  C  C748  1  0.391800  0.699500  0.263600  1.0  -0.358
  C  C749  1  0.022300  0.293900  0.154500  1.0  -0.3747
  C  C750  1  0.774800  0.208300  0.238300  1.0  0.0376
  C  C751  1  0.550000  0.737100  0.708600  1.0  0.0678
  C  C752  1  0.826000  0.739600  0.722810  1.0  -0.0768
  C  C753  1  0.393500  0.666080  0.054640  1.0  0.0631
  C  C754  1  0.204100  0.162600  0.796200  1.0  -0.3886
  C  C755  1  0.729300  0.856300  0.480600  1.0  -0.3615
  C  C756  1  0.889800  0.083490  0.988600  1.0  0.0481
  C  C757  1  0.888000  0.863000  0.112400  1.0  0.1605
  C  C758  1  0.178300  0.408200  0.468970  1.0  -0.0208
  C  C759  1  0.273200  0.207800  0.157400  1.0  0.0573
  C  C760  1  0.390000  0.290100  0.605430  1.0  0.0358
  C  C761  1  0.106500  0.833920  0.054640  1.0  0.0601
  C  C762  1  0.552000  0.851170  0.533030  1.0  -0.0652
  C  C763  1  0.750000  0.750000  0.860700  1.0  -0.1868
  C  C764  1  0.259100  0.178100  0.316100  1.0  -0.3432
  C  C765  1  0.722600  0.022290  0.503820  1.0  0.0636
  C  C766  1  0.323300  0.210700  0.307590  1.0  0.0719
  C  C767  1  0.226700  0.208100  0.775700  1.0  0.0446
  C  C768  1  0.390000  0.709900  0.894570  1.0  0.0354
  C  C769  1  0.826000  0.260400  0.777190  1.0  -0.0764
  C  C770  1  0.520600  0.602300  0.988600  1.0  -0.3583
  C  C771  1  0.450600  0.385700  0.489230  1.0  0.0403
  C  C772  1  0.735800  0.598720  0.971350  1.0  -0.0971
  C  C773  1  0.225400  0.573180  0.497220  1.0  0.0568
  C  C774  1  0.009100  0.406000  0.920500  1.0  -0.3488
  C  C775  1  0.108200  0.199500  0.236400  1.0  -0.3583
  C  C776  1  0.258500  0.496950  0.469260  1.0  0.0339
  C  C777  1  0.988400  0.738800  0.149800  1.0  0.6711
  C  C778  1  0.273300  0.708100  0.724300  1.0  0.0436
  C  C779  1  0.394600  0.792600  0.987900  1.0  -0.3887
  C  C780  1  0.387900  0.806800  0.804300  1.0  -0.3235
  C  C781  1  0.117500  0.322700  0.363700  1.0  -0.3889
  C  C782  1  0.517400  0.310700  0.467500  1.0  0.6899
  C  C783  1  0.673200  0.741300  0.343190  1.0  -0.0466
  C  C784  1  0.235800  0.901280  0.471350  1.0  -0.0976
  C  C785  1  0.990900  0.406000  0.420500  1.0  -0.3482
  C  C786  1  0.110200  0.083490  0.488600  1.0  0.0463
  C  C787  1  0.300100  0.162800  0.215700  1.0  -0.3994
  C  C788  1  0.770700  0.356300  0.019400  1.0  -0.3633
  C  C789  1  0.165000  0.926900  0.569100  1.0  -0.1895
  C  C790  1  0.473800  0.286300  0.782600  1.0  -0.3856
  C  C791  1  0.621800  0.079920  0.945660  1.0  0.0587
  C  C792  1  0.511600  0.238800  0.350200  1.0  0.672
  C  C793  1  0.831000  0.093940  0.966360  1.0  -0.077
  C  C794  1  0.835000  0.926900  0.069100  1.0  -0.1894
  C  C795  1  0.750000  0.750000  0.280200  1.0  -0.0558
  C  C796  1  0.726700  0.291900  0.275700  1.0  0.0452
  C  C797  1  0.777400  0.477710  0.503820  1.0  0.0642
  C  C798  1  0.240900  0.321900  0.316100  1.0  -0.3429
  C  C799  1  0.110000  0.209900  0.605430  1.0  0.0355
  C  C800  1  0.547600  0.344370  0.967610  1.0  -0.0778
  C  C801  1  0.448000  0.851170  0.033030  1.0  -0.064
  C  C802  1  0.608500  0.160670  0.990270  1.0  0.0653
  C  C803  1  0.704100  0.337400  0.296200  1.0  -0.3882
  C  C804  1  0.387900  0.769500  0.834590  1.0  0.0609
  C  C805  1  0.759100  0.678100  0.683900  1.0  -0.3433
  C  C806  1  0.202700  0.977510  0.443390  1.0  0.0761
  C  C807  1  0.522300  0.793900  0.845500  1.0  -0.3745
  C  C808  1  0.823300  0.710700  0.692410  1.0  0.0733
  C  C809  1  0.250000  0.750000  0.544900  1.0  0.6627
  C  C810  1  0.274600  0.073180  0.002780  1.0  0.0558
  C  C811  1  0.388000  0.637000  0.612400  1.0  0.1609
  C  C812  1  0.052000  0.648830  0.033030  1.0  -0.0649
  C  C813  1  0.889400  0.765700  0.730890  1.0  0.0158
  C  C814  1  0.270700  0.143700  0.519400  1.0  -0.3631
  C  C815  1  0.321700  0.091800  0.468970  1.0  -0.0209
  C  C816  1  0.885200  0.040100  0.015300  1.0  -0.3605
  C  C817  1  0.391800  0.300500  0.236400  1.0  -0.3592
  C  C818  1  0.482600  0.310700  0.967500  1.0  0.6894
  C  C819  1  0.882500  0.322700  0.863700  1.0  -0.3889
  C  C820  1  0.020600  0.897700  0.488600  1.0  -0.3586
  C  C821  1  0.734400  0.346300  0.527700  1.0  0.6795
  C  C822  1  0.890400  0.821900  0.429300  1.0  -0.3499
  C  C823  1  0.552600  0.766000  0.678180  1.0  -0.069
  C  C824  1  0.605400  0.207400  0.012100  1.0  -0.3889
  C  C825  1  0.558600  0.891500  0.555340  1.0  0.0406
  C  C826  1  0.447400  0.766000  0.178180  1.0  -0.0691
  C  C827  1  0.612100  0.769500  0.334590  1.0  0.0604
  C  C828  1  0.264200  0.401280  0.028650  1.0  -0.0952
  C  C829  1  0.274800  0.708300  0.761700  1.0  0.037
  C  C830  1  0.172200  0.211600  0.626800  1.0  0.0545
  C  C831  1  0.336200  0.503800  0.086900  1.0  -0.3923
  C  C832  1  0.740900  0.178100  0.816100  1.0  -0.3448
  C  C833  1  0.326800  0.258700  0.656810  1.0  -0.045
  C  C834  1  0.750000  0.250000  0.599700  1.0  0.7087
  C  C835  1  0.890000  0.790100  0.394570  1.0  0.0368
  C  C836  1  0.827800  0.788400  0.373200  1.0  0.0515
  C  C837  1  0.698100  0.662700  0.280700  1.0  -0.3887
  C  C838  1  0.549900  0.767800  0.356000  1.0  0.0626
  C  C839  1  0.316700  0.995200  0.973800  1.0  -0.3653
  C  C840  1  0.188000  0.601100  0.527800  1.0  -0.3538
  C  C841  1  0.389800  0.416510  0.488600  1.0  0.0472
  C  C842  1  0.473800  0.713700  0.717400  1.0  -0.3856
  C  C843  1  0.726800  0.792200  0.842600  1.0  0.057
  C  C844  1  0.112000  0.137000  0.887600  1.0  0.1593
  C  C845  1  0.893500  0.166080  0.945360  1.0  0.0589
  C  C846  1  0.890000  0.209900  0.105430  1.0  0.0361
  C  C847  1  0.633800  0.961600  0.581900  1.0  -0.383
  C  C848  1  0.116000  0.292100  0.329910  1.0  0.0786
  C  C849  1  0.295900  0.337400  0.796200  1.0  -0.3887
  C  C850  1  0.777400  0.522290  0.996180  1.0  0.0672
  C  C851  1  0.183300  0.504800  0.973800  1.0  -0.3651
  C  C852  1  0.941400  0.608500  0.555340  1.0  0.0398
  C  C853  1  0.509100  0.094000  0.420500  1.0  -0.3499
  C  C854  1  0.894600  0.292600  0.012100  1.0  -0.3892
  C  C855  1  0.548900  0.262000  0.114000  1.0  -0.0244
  C  C856  1  0.301900  0.337300  0.719300  1.0  -0.3912
  C  C857  1  0.321700  0.908200  0.031030  1.0  -0.0198
  C  C858  1  0.112100  0.269500  0.665410  1.0  0.0599
  C  C859  1  0.764200  0.098720  0.528650  1.0  -0.0952
  C  C860  1  0.891400  0.214200  0.924300  1.0  -0.3457
  C  C861  1  0.052600  0.266000  0.321820  1.0  -0.0691
  C  C862  1  0.774800  0.791700  0.261700  1.0  0.037
  C  C863  1  0.366200  0.038400  0.418100  1.0  -0.3854
  C  C864  1  0.669000  0.406060  0.966360  1.0  -0.0771
  C  C865  1  0.017400  0.810700  0.532500  1.0  0.6897
  C  C866  1  0.022300  0.706100  0.345500  1.0  -0.3721
  C  C867  1  0.549400  0.614300  0.510770  1.0  0.0392
  C  C868  1  0.656500  0.601300  0.916400  1.0  -0.393
  C  C869  1  0.891800  0.199500  0.736400  1.0  -0.3585
  C  C870  1  0.726200  0.354500  0.916600  1.0  -0.3497
  C  C871  1  0.384000  0.207900  0.329910  1.0  0.0791
  C  C872  1  0.608200  0.699500  0.763600  1.0  -0.3579
  C  C873  1  0.774600  0.573180  0.997220  1.0  0.0598
  C  C874  1  0.617500  0.822700  0.636300  1.0  -0.3894
  C  C875  1  0.163800  0.996200  0.086900  1.0  -0.395
  C  C876  1  0.198100  0.162700  0.719300  1.0  -0.3886
  C  C877  1  0.550000  0.262900  0.791400  1.0  0.0663
  C  C878  1  0.450100  0.767800  0.856000  1.0  0.0642
  C  C879  1  0.816700  0.495200  0.026200  1.0  -0.3662
  C  C880  1  0.552000  0.148830  0.966970  1.0  -0.0638
  C  C881  1  0.169000  0.093940  0.466360  1.0  -0.0769
  C  C882  1  0.765600  0.846300  0.972300  1.0  0.68
  C  C883  1  0.801900  0.837300  0.280700  1.0  -0.3915
  C  C884  1  0.274600  0.926820  0.497220  1.0  0.0573
  C  C885  1  0.672200  0.288400  0.126800  1.0  0.0536
  C  C886  1  0.482600  0.689300  0.532500  1.0  0.6894
  C  C887  1  0.250000  0.250000  0.793800  1.0  -0.1748
  C  C888  1  0.605400  0.792600  0.487900  1.0  -0.3889
  C  C889  1  0.726700  0.708100  0.224300  1.0  0.0444
  C  C890  1  0.110000  0.790100  0.894570  1.0  0.0355
  C  C891  1  0.323300  0.789300  0.192410  1.0  0.0739
  C  C892  1  0.617500  0.177300  0.863700  1.0  -0.3894
  C  C893  1  0.891500  0.660670  0.509730  1.0  0.0675
  C  C894  1  0.759100  0.321900  0.816100  1.0  -0.3417
  C  C895  1  0.176700  0.289300  0.307590  1.0  0.0753
  C  C896  1  0.171700  0.367900  0.491270  1.0  0.09
  C  C897  1  0.836200  0.003800  0.913100  1.0  -0.3926
  C  C898  1  0.663800  0.496200  0.913100  1.0  -0.3926
  C  C899  1  0.250000  0.750000  0.706200  1.0  -0.1737
  C  C900  1  0.328300  0.867900  0.008730  1.0  0.0893
  C  C901  1  0.758500  0.996950  0.530740  1.0  0.0342
  C  C902  1  0.273800  0.645500  0.083400  1.0  -0.3501
  C  C903  1  0.795900  0.837400  0.203800  1.0  -0.3889
  C  C904  1  0.608600  0.285800  0.924300  1.0  -0.3462
  C  C905  1  0.121800  0.420080  0.445660  1.0  0.0581
  C  C906  1  0.225500  0.708800  0.305300  1.0  -0.0194
  C  C907  1  0.678300  0.908200  0.531030  1.0  -0.0168
  C  C908  1  0.552600  0.234000  0.821820  1.0  -0.0699
  C  C909  1  0.156500  0.898700  0.416400  1.0  -0.3942
  C  C910  1  0.250000  0.250000  0.719800  1.0  -0.0558
  C  C911  1  0.950100  0.267800  0.144000  1.0  0.0626
  C  C912  1  0.977700  0.706100  0.845500  1.0  -0.3707
  C  C913  1  0.174000  0.739600  0.222810  1.0  -0.0771
  C  C914  1  0.301900  0.662700  0.780700  1.0  -0.3909
  C  C915  1  0.547600  0.655630  0.532390  1.0  -0.078
  C  C916  1  0.812000  0.398900  0.472200  1.0  -0.355
  C  C917  1  0.683300  0.995200  0.473800  1.0  -0.365
  C  C918  1  0.729300  0.143700  0.019400  1.0  -0.3636
  C  C919  1  0.259100  0.821900  0.183900  1.0  -0.3426
  C  C920  1  0.270700  0.856300  0.980600  1.0  -0.3615
  C  C921  1  0.735600  0.321500  0.117400  1.0  -0.4152
  C  C922  1  0.011600  0.261200  0.850200  1.0  0.6721
  C  C923  1  0.300200  0.426620  0.055570  1.0  0.0546
  C  C924  1  0.633800  0.038400  0.918100  1.0  -0.3846
  C  C925  1  0.234400  0.846300  0.472300  1.0  0.6798
  C  C926  1  0.606500  0.666080  0.554640  1.0  0.0624
  C  C927  1  0.891800  0.800500  0.763600  1.0  -0.3578
  C  C928  1  0.326000  0.760400  0.222810  1.0  -0.0767
  C  C929  1  0.536000  0.439300  0.404200  1.0  -0.1866
  C  C930  1  0.274500  0.791200  0.305300  1.0  -0.017
  C  C931  1  0.816700  0.504800  0.473800  1.0  -0.3651
  C  C932  1  0.121800  0.579920  0.054340  1.0  0.0591
  C  C933  1  0.726800  0.207800  0.657400  1.0  0.0572
  C  C934  1  0.240900  0.678100  0.183900  1.0  -0.3452
  C  C935  1  0.050000  0.762900  0.208600  1.0  0.0667
  C  C936  1  0.950100  0.732200  0.356000  1.0  0.0641
  C  C937  1  0.699800  0.426620  0.555570  1.0  0.0564
  C  C938  1  0.327800  0.288400  0.626800  1.0  0.0527
  C  C939  1  0.110200  0.916510  0.011400  1.0  0.0446
  C  C940  1  0.198100  0.837300  0.780700  1.0  -0.3898
  C  C941  1  0.229300  0.356300  0.519400  1.0  -0.364
  C  C942  1  0.750000  0.250000  0.219800  1.0  -0.0558
  C  C943  1  0.610000  0.709900  0.394570  1.0  0.0358
  C  C944  1  0.047600  0.155630  0.467610  1.0  -0.0779
  C  C945  1  0.981600  0.321100  0.467300  1.0  0.6779
  C  C946  1  0.801900  0.162700  0.219300  1.0  -0.3912
  C  C947  1  0.203900  0.335600  0.135400  1.0  -0.4072
  C  C948  1  0.389400  0.265700  0.269110  1.0  0.0184
  C  C949  1  0.948000  0.351170  0.966970  1.0  -0.0638
  C  C950  1  0.979400  0.102300  0.511400  1.0  -0.3577
  C  C951  1  0.702700  0.522490  0.943390  1.0  0.0765
  C  C952  1  0.982600  0.189300  0.467500  1.0  0.6897
  C  C953  1  0.378200  0.920080  0.054340  1.0  0.058
  C  C954  1  0.112000  0.863000  0.612400  1.0  0.1586
  C  C955  1  0.108600  0.785800  0.075700  1.0  -0.3465
  C  C956  1  0.450100  0.232200  0.644000  1.0  0.064
  C  C957  1  0.725500  0.791200  0.805300  1.0  -0.0198
  C  C958  1  0.667200  0.364800  0.944740  1.0  0.0633
  C  C959  1  0.511600  0.761200  0.149800  1.0  0.6717
  C  C960  1  0.036000  0.939300  0.595800  1.0  -0.1854
  C  C961  1  0.614800  0.459900  0.015300  1.0  -0.3609
  C  C962  1  0.277400  0.022290  0.003820  1.0  0.0638
  C  C963  1  0.393500  0.333920  0.445360  1.0  0.0591
  C  C964  1  0.821700  0.591800  0.531030  1.0  -0.0186
  C  C965  1  0.609600  0.678100  0.429300  1.0  -0.3496
  C  C966  1  0.741500  0.496950  0.969260  1.0  0.0347
  C  C967  1  0.725200  0.708300  0.261700  1.0  0.0371
  C  C968  1  0.114800  0.040100  0.515300  1.0  -0.361
  C  C969  1  0.447400  0.234000  0.321820  1.0  -0.0694
  C  C970  1  0.832800  0.135200  0.944740  1.0  0.0633
  C  C971  1  0.518400  0.821100  0.032700  1.0  0.6772
  C  C972  1  0.235600  0.821500  0.882600  1.0  -0.4154
  C  C973  1  0.384000  0.792100  0.170090  1.0  0.0798
  C  C974  1  0.335000  0.573100  0.569100  1.0  -0.1895
  C  C975  1  0.893500  0.833920  0.554640  1.0  0.0602
  C  C976  1  0.036000  0.060700  0.904200  1.0  -0.1868
  C  C977  1  0.526200  0.286300  0.282600  1.0  -0.3855
  C  C978  1  0.229300  0.643700  0.980600  1.0  -0.3616
  C  C979  1  0.109600  0.821900  0.929300  1.0  -0.3494
  C  C980  1  0.765600  0.153700  0.527700  1.0  0.6804
  C  C981  1  0.800100  0.337200  0.715700  1.0  -0.4006
  C  C982  1  0.488400  0.238800  0.850200  1.0  0.6712
  C  C983  1  0.105400  0.707400  0.987900  1.0  -0.3888
  C  C984  1  0.889800  0.916510  0.511400  1.0  0.0451
  C  C985  1  0.250000  0.750000  0.666667  1.0  0.7053
  C  C986  1  0.477700  0.206100  0.154500  1.0  -0.3708
  C  C987  1  0.888000  0.137000  0.387600  1.0  0.1616
  C  C988  1  0.797300  0.022490  0.556610  1.0  0.0741
  C  C989  1  0.722600  0.977710  0.996180  1.0  0.0646
  C  C990  1  0.241500  0.996950  0.030740  1.0  0.0347
  C  C991  1  0.108600  0.214200  0.424300  1.0  -0.3451
  C  C992  1  0.950000  0.762900  0.708600  1.0  0.0688
  C  C993  1  0.226800  0.292200  0.157400  1.0  0.0573
  C  C994  1  0.110600  0.234300  0.269110  1.0  0.0178
  C  C995  1  0.866200  0.538400  0.581900  1.0  -0.3833
  C  C996  1  0.885200  0.959900  0.484700  1.0  -0.3592
  C  C997  1  0.518400  0.178900  0.467300  1.0  0.6782
  C  C998  1  0.665000  0.426900  0.430900  1.0  -0.1883
  C  C999  1  0.331000  0.593940  0.033640  1.0  -0.0773
  C  C1000  1  0.108500  0.339330  0.490270  1.0  0.0665
  C  C1001  1  0.295900  0.662600  0.703800  1.0  -0.389
  C  C1002  1  0.312000  0.898900  0.527800  1.0  -0.3535
  C  C1003  1  0.300200  0.573380  0.444430  1.0  0.0561
  C  C1004  1  0.018400  0.321100  0.967300  1.0  0.678
  C  C1005  1  0.316700  0.004800  0.526200  1.0  -0.3656
  C  C1006  1  0.382500  0.177300  0.363700  1.0  -0.389
  C  C1007  1  0.671700  0.132100  0.991270  1.0  0.0891
  C  C1008  1  0.226700  0.791900  0.724300  1.0  0.0497
  C  C1009  1  0.979400  0.897700  0.988600  1.0  -0.3581
  C  C1010  1  0.612100  0.806800  0.304300  1.0  -0.3223
  C  C1011  1  0.199800  0.926620  0.444430  1.0  0.0573
  C  C1012  1  0.826800  0.758700  0.343190  1.0  -0.0457
  C  C1013  1  0.616000  0.207900  0.829910  1.0  0.0784
  C  C1014  1  0.704100  0.662600  0.203800  1.0  -0.3888
  C  C1015  1  0.773300  0.791900  0.224300  1.0  0.0457
  C  C1016  1  0.382500  0.822700  0.136300  1.0  -0.3895
  C  C1017  1  0.703900  0.164400  0.635400  1.0  -0.4081
  C  C1018  1  0.366200  0.961600  0.081900  1.0  -0.3834
  C  C1019  1  0.479400  0.397700  0.011400  1.0  -0.3578
  C  C1020  1  0.610200  0.416510  0.988600  1.0  0.0462
  C  C1021  1  0.441400  0.108500  0.444660  1.0  0.0414
  C  C1022  1  0.774500  0.708800  0.805300  1.0  -0.0181
  C  C1023  1  0.452400  0.655630  0.032390  1.0  -0.0786
  C  C1024  1  0.265600  0.346300  0.027700  1.0  0.6796
  C  C1025  1  0.391500  0.160670  0.490270  1.0  0.0663
  C  C1026  1  0.264200  0.598720  0.471350  1.0  -0.0955
  C  C1027  1  0.222600  0.477710  0.003820  1.0  0.0647
  C  C1028  1  0.964000  0.939300  0.095800  1.0  -0.1838
  C  C1029  1  0.226800  0.707800  0.342600  1.0  0.0554
  C  C1030  1  0.610000  0.290100  0.105430  1.0  0.0355
  C  C1031  1  0.797300  0.977510  0.943390  1.0  0.0729
  C  C1032  1  0.665000  0.573100  0.069100  1.0  -0.1897
  C  C1033  1  0.894600  0.707400  0.487900  1.0  -0.3887
  C  C1034  1  0.250000  0.750000  0.286400  1.0  -0.0922
  C  C1035  1  0.274800  0.291700  0.738300  1.0  0.0375
  C  C1036  1  0.890400  0.178100  0.070700  1.0  -0.3506
  C  C1037  1  0.964000  0.060700  0.404200  1.0  -0.1884
  C  C1038  1  0.225200  0.208300  0.738300  1.0  0.0376
  C  C1039  1  0.750000  0.250000  0.713600  1.0  -0.0919
  C  C1040  1  0.612100  0.193200  0.195700  1.0  -0.3199
  C  C1041  1  0.774500  0.291200  0.694700  1.0  -0.0169
  C  C1042  1  0.385200  0.540100  0.984700  1.0  -0.3591
  C  C1043  1  0.479400  0.602300  0.488600  1.0  -0.3581
  C  C1044  1  0.049900  0.732200  0.856000  1.0  0.0643
  C  C1045  1  0.026200  0.786300  0.717400  1.0  -0.3857
  C  C1046  1  0.866200  0.461600  0.918100  1.0  -0.3842
  C  C1047  1  0.832800  0.864800  0.555260  1.0  0.0649
  C  C1048  1  0.390400  0.678100  0.929300  1.0  -0.3496
  C  C1049  1  0.156500  0.101300  0.083600  1.0  -0.3923
  C  C1050  1  0.173200  0.241300  0.656810  1.0  -0.0459
  C  C1051  1  0.327800  0.711600  0.873200  1.0  0.053
  C  C1052  1  0.674000  0.239600  0.777190  1.0  -0.0768
  C  C1053  1  0.726200  0.645500  0.583400  1.0  -0.3509
  C  C1054  1  0.878200  0.579920  0.554340  1.0  0.059
  C  C1055  1  0.163800  0.003800  0.413100  1.0  -0.3925
  C  C1056  1  0.389800  0.583490  0.011400  1.0  0.0459
  C  C1057  1  0.326800  0.741300  0.843190  1.0  -0.0463
  C  C1058  1  0.052600  0.734000  0.178180  1.0  -0.0696
  C  C1059  1  0.703900  0.835600  0.864600  1.0  -0.4077
  C  C1060  1  0.725400  0.926820  0.997220  1.0  0.0563
  C  C1061  1  0.750000  0.750000  0.206200  1.0  -0.1739
  C  C1062  1  0.391400  0.714200  0.075700  1.0  -0.346
  C  C1063  1  0.464000  0.560700  0.595800  1.0  -0.1853
  C  C1064  1  0.941400  0.391500  0.944660  1.0  0.041
  C  C1065  1  0.725200  0.291700  0.238300  1.0  0.0377
  C  C1066  1  0.199900  0.662800  0.284300  1.0  -0.3988
  C  C1067  1  0.105400  0.292600  0.512100  1.0  -0.3894
  C  C1068  1  0.610600  0.734300  0.730890  1.0  0.0156
  C  C1069  1  0.827800  0.211600  0.126800  1.0  0.0524
  C  C1070  1  0.222600  0.522290  0.496180  1.0  0.0636
  C  C1071  1  0.821700  0.408200  0.968970  1.0  -0.0206
  C  C1072  1  0.048900  0.762000  0.886000  1.0  -0.0242
  C  C1073  1  0.328300  0.132100  0.491270  1.0  0.0895
  C  C1074  1  0.831000  0.906060  0.533640  1.0  -0.0774
  C  C1075  1  0.764400  0.178500  0.117400  1.0  -0.4146
  C  C1076  1  0.202700  0.022490  0.056610  1.0  0.0727
  C  C1077  1  0.725400  0.073180  0.502780  1.0  0.0547
  C  C1078  1  0.750000  0.750000  0.166600  1.0  0.7046
  C  C1079  1  0.117500  0.677300  0.136300  1.0  -0.3897
  C  C1080  1  0.250000  0.750000  0.400300  1.0  0.7088
  C  C1081  1  0.250000  0.750000  0.360700  1.0  -0.1868
  C  C1082  1  0.273300  0.291900  0.775700  1.0  0.0496
  C  C1083  1  0.009100  0.594000  0.579500  1.0  -0.3497
  C  C1084  1  0.049900  0.267800  0.644000  1.0  0.0626
  C  C1085  1  0.225400  0.426820  0.002780  1.0  0.0552
  C  C1086  1  0.823300  0.289300  0.807590  1.0  0.0738
  C  C1087  1  0.800100  0.662800  0.784300  1.0  -0.3996
  C  C1088  1  0.225500  0.291200  0.194700  1.0  -0.0154
  C  C1089  1  0.610200  0.583490  0.511400  1.0  0.0449
  C  C1090  1  0.982600  0.810700  0.032500  1.0  0.6893
  C  C1091  1  0.058600  0.391500  0.444660  1.0  0.0409
  C  C1092  1  0.020600  0.102300  0.011400  1.0  -0.3576
  C  C1093  1  0.049400  0.885700  0.010770  1.0  0.0392
  C  C1094  1  0.951100  0.238000  0.114000  1.0  -0.0236
  C  C1095  1  0.764400  0.821500  0.382600  1.0  -0.4154
  C  C1096  1  0.226200  0.145500  0.416600  1.0  -0.3501
  C  C1097  1  0.750000  0.250000  0.455100  1.0  0.6642
  C  C1098  1  0.520600  0.397700  0.511400  1.0  -0.3578
  C  C1099  1  0.884000  0.292100  0.829910  1.0  0.0792
  C  C1100  1  0.388000  0.363000  0.887600  1.0  0.1605
  C  C1101  1  0.451100  0.262000  0.614000  1.0  -0.0238
  C  C1102  1  0.387900  0.230500  0.665410  1.0  0.0608
  C  C1103  1  0.517400  0.689300  0.032500  1.0  0.6899
  C  C1104  1  0.250000  0.250000  0.955100  1.0  0.6642
  C  C1105  1  0.114800  0.959900  0.984700  1.0  -0.3593
  C  C1106  1  0.671700  0.867900  0.508730  1.0  0.0899
  C  C1107  1  0.688000  0.101100  0.472200  1.0  -0.3518
  C  C1108  1  0.741500  0.503050  0.530740  1.0  0.0361
  C  C1109  1  0.050000  0.237100  0.291400  1.0  0.0682
  C  C1110  1  0.173200  0.758700  0.843190  1.0  -0.0464
  C  C1111  1  0.391500  0.839330  0.009730  1.0  0.0686
  C  C1112  1  0.882500  0.677300  0.636300  1.0  -0.3895
  C  C1113  1  0.297300  0.522490  0.443390  1.0  0.0721
  C  C1114  1  0.326000  0.239600  0.277190  1.0  -0.0764
  C  C1115  1  0.481600  0.821100  0.532700  1.0  0.6776
  C  C1116  1  0.836200  0.996200  0.586900  1.0  -0.3933
  C  C1117  1  0.725500  0.208800  0.694700  1.0  -0.0165
  C  C1118  1  0.441400  0.891500  0.055340  1.0  0.0405
  C  C1119  1  0.795900  0.162600  0.296200  1.0  -0.3892
  C  C1120  1  0.750000  0.750000  0.900300  1.0  0.7088
  C  C1121  1  0.450000  0.262900  0.291400  1.0  0.068
  C  C1122  1  0.887900  0.693200  0.304300  1.0  -0.3207
  C  C1123  1  0.796100  0.335600  0.635400  1.0  -0.4076
  C  C1124  1  0.176700  0.710700  0.192410  1.0  0.074
  C  C1125  1  0.656500  0.398700  0.583600  1.0  -0.3928
  C  C1126  1  0.012800  0.237300  0.088800  1.0  0.4814
  C  C1127  1  0.878200  0.420080  0.945660  1.0  0.0574
  C  C1128  1  0.235600  0.178500  0.617400  1.0  -0.416
  C  C1129  1  0.448000  0.148830  0.466970  1.0  -0.0636
  C  C1130  1  0.235800  0.098720  0.028650  1.0  -0.097
  C  C1131  1  0.452400  0.344370  0.467610  1.0  -0.0782
  C  C1132  1  0.952400  0.155630  0.967610  1.0  -0.0784
  C  C1133  1  0.702700  0.477510  0.556610  1.0  0.0732
  C  C1134  1  0.608600  0.714200  0.575700  1.0  -0.3453
  C  C1135  1  0.948000  0.648830  0.533030  1.0  -0.0639
  C  C1136  1  0.735600  0.678500  0.382600  1.0  -0.4158
  C  C1137  1  0.812000  0.601100  0.027800  1.0  -0.3547
  C  C1138  1  0.108500  0.660670  0.009730  1.0  0.0664
  C  C1139  1  0.678300  0.091800  0.968970  1.0  -0.0189
  C  C1140  1  0.487200  0.262700  0.088800  1.0  0.4827
  C  C1141  1  0.273200  0.792200  0.342600  1.0  0.0579
  C  C1142  1  0.451100  0.738000  0.886000  1.0  -0.0232
  C  C1143  1  0.891400  0.785800  0.575700  1.0  -0.347
  C  C1144  1  0.188000  0.398900  0.972200  1.0  -0.354
  C  C1145  1  0.676700  0.210700  0.807590  1.0  0.0714
  C  C1146  1  0.735800  0.401280  0.528650  1.0  -0.0969
  C  C1147  1  0.300100  0.837200  0.284300  1.0  -0.4007
  C  C1148  1  0.464000  0.439300  0.904200  1.0  -0.1873
  C  C1149  1  0.950000  0.237100  0.791400  1.0  0.0708
  C  C1150  1  0.699900  0.162800  0.715700  1.0  -0.3987
  C  C1151  1  0.614800  0.540100  0.484700  1.0  -0.3596
  C  C1152  1  0.277400  0.977710  0.496180  1.0  0.0638
  C  C1153  1  0.112100  0.693200  0.804300  1.0  -0.3215
  C  C1154  1  0.336200  0.496200  0.413100  1.0  -0.393
  C  C1155  1  0.265600  0.653700  0.472300  1.0  0.6806
  C  C1156  1  0.258500  0.503050  0.030740  1.0  0.0352
  C  C1157  1  0.391400  0.285800  0.424300  1.0  -0.3466
  C  C1158  1  0.049400  0.114300  0.489230  1.0  0.0401
  C  C1159  1  0.203900  0.664400  0.364600  1.0  -0.4081
  C  C1160  1  0.889400  0.234300  0.769110  1.0  0.016
  C  C1161  1  0.699900  0.837200  0.784300  1.0  -0.4
  C  C1162  1  0.167200  0.135200  0.444740  1.0  0.0668
  C  C1163  1  0.699800  0.573380  0.944430  1.0  0.0573
  C  C1164  1  0.274500  0.208800  0.194700  1.0  -0.0191
  C  C1165  1  0.773800  0.854500  0.583400  1.0  -0.3506
  C  C1166  1  0.490900  0.094000  0.920500  1.0  -0.3483
  C  C1167  1  0.343500  0.398700  0.083600  1.0  -0.3931
  C  C1168  1  0.773200  0.292200  0.657400  1.0  0.0584
  C  C1169  1  0.264400  0.321500  0.617400  1.0  -0.4151
  C  C1170  1  0.264400  0.678500  0.882600  1.0  -0.4147
  C  C1171  1  0.526200  0.713700  0.217400  1.0  -0.3856
  C  C1172  1  0.951100  0.762000  0.386000  1.0  -0.0234
  C  C1173  1  0.250000  0.750000  0.780200  1.0  -0.0558
  C  C1174  1  0.332800  0.364800  0.444740  1.0  0.0641
  C  C1175  1  0.343500  0.601300  0.416400  1.0  -0.3943
  C  C1176  1  0.672200  0.711600  0.373200  1.0  0.0542
  C  C1177  1  0.843500  0.101300  0.583600  1.0  -0.3926
  C  C1178  1  0.973800  0.786300  0.217400  1.0  -0.3858
  C  C1179  1  0.512800  0.737300  0.911200  1.0  0.4816
  C  C1180  1  0.226200  0.854500  0.083400  1.0  -0.351
  C  C1181  1  0.612000  0.637000  0.112400  1.0  0.1591
  C  C1182  1  0.987200  0.762700  0.911200  1.0  0.4827
  C  C1183  1  0.612100  0.230500  0.165410  1.0  0.0594
  C  C1184  1  0.947400  0.266000  0.821820  1.0  -0.0689
  C  C1185  1  0.891500  0.339330  0.990270  1.0  0.0661
  C  C1186  1  0.828300  0.632100  0.508730  1.0  0.0899
  C  C1187  1  0.734400  0.653700  0.972300  1.0  0.6806
  C  C1188  1  0.887900  0.730500  0.334590  1.0  0.0617
  C  C1189  1  0.390400  0.321900  0.570700  1.0  -0.3504
  C  C1190  1  0.606500  0.333920  0.945360  1.0  0.0585
  C  C1191  1  0.800200  0.926620  0.944430  1.0  0.0555
  C  C1192  1  0.488400  0.761200  0.649800  1.0  0.6714
  C  C1193  1  0.773200  0.707800  0.842600  1.0  0.0573
  C  C1194  1  0.800200  0.073380  0.555570  1.0  0.0552
  C  C1195  1  0.058600  0.608500  0.055340  1.0  0.0403
  C  C1196  1  0.973800  0.213700  0.282600  1.0  -0.3855
  C  C1197  1  0.171700  0.632100  0.008730  1.0  0.0887
  C  C1198  1  0.977700  0.293900  0.654500  1.0  -0.3717
  C  C1199  1  0.952400  0.844370  0.532390  1.0  -0.0784
  C  C1200  1  0.225200  0.791700  0.761700  1.0  0.0372
  C  C1201  1  0.764200  0.901280  0.971350  1.0  -0.0963
  C  C1202  1  0.683300  0.004800  0.026200  1.0  -0.3647
  C  C1203  1  0.178300  0.591800  0.031030  1.0  -0.0201
  C  C1204  1  0.947400  0.734000  0.678180  1.0  -0.0694
  C  C1205  1  0.826800  0.241300  0.156810  1.0  -0.0455
  C  C1206  1  0.758500  0.003050  0.969260  1.0  0.0342
  C  C1207  1  0.296100  0.164400  0.135400  1.0  -0.4088
  C  C1208  1  0.673200  0.258700  0.156810  1.0  -0.0458
  C  C1209  1  0.674000  0.760400  0.722810  1.0  -0.0769
  C  C1210  1  0.487200  0.737300  0.411200  1.0  0.4825
  C  C1211  1  0.481600  0.178900  0.967300  1.0  0.6777
  C  C1212  1  0.770700  0.643700  0.480600  1.0  -0.3619
  C  C1213  1  0.990900  0.594000  0.079500  1.0  -0.3498
  C  C1214  1  0.988400  0.261200  0.350200  1.0  0.6716
  C  C1215  1  0.750000  0.750000  0.044900  1.0  0.6627
  C  C1216  1  0.509100  0.906000  0.079500  1.0  -0.3516
  C  C1217  1  0.698100  0.337300  0.219300  1.0  -0.3896
  C  C1218  1  0.663800  0.503800  0.586900  1.0  -0.3935
  C  C1219  1  0.106500  0.166080  0.445360  1.0  0.0611
  C  C1220  1  0.558600  0.108500  0.944660  1.0  0.0416
  N  N1221  1  0.604000  0.409200  0.406700  1.0  -0.2071
  N  N1222  1  0.104000  0.090800  0.906700  1.0  -0.2057
  N  N1223  1  0.396000  0.590800  0.593300  1.0  -0.2108
  N  N1224  1  0.104000  0.909200  0.593300  1.0  -0.2099
  N  N1225  1  0.896000  0.090800  0.406700  1.0  -0.2054
  N  N1226  1  0.604000  0.590800  0.093300  1.0  -0.2101
  N  N1227  1  0.896000  0.909200  0.093300  1.0  -0.2107
  N  N1228  1  0.396000  0.409200  0.906700  1.0  -0.2069
  O  O1229  1  0.446700  0.182300  0.995000  1.0  -0.643
  O  O1230  1  0.946700  0.317700  0.495000  1.0  -0.6425
  O  O1231  1  0.665000  0.335500  0.395400  1.0  -0.6398
  O  O1232  1  0.325000  0.325900  0.022100  1.0  -0.6463
  O  O1233  1  0.750000  0.250000  0.420000  1.0  -0.69
  O  O1234  1  0.191000  0.758100  0.416020  1.0  -0.6712
  O  O1235  1  0.525000  0.720300  0.137200  1.0  -0.6103
  O  O1236  1  0.035300  0.300600  0.938400  1.0  -0.6489
  O  O1237  1  0.811200  0.255500  0.468960  1.0  -0.7158
  O  O1238  1  0.957700  0.795700  0.927600  1.0  -0.6145
  O  O1239  1  0.175300  0.337000  0.896500  1.0  -0.2134
  O  O1240  1  0.553300  0.693700  0.060500  1.0  -0.6738
  O  O1241  1  0.035300  0.699400  0.561600  1.0  -0.6494
  O  O1242  1  0.446700  0.306300  0.939500  1.0  -0.6749
  O  O1243  1  0.335000  0.664500  0.604600  1.0  -0.6391
  O  O1244  1  0.025000  0.779700  0.637200  1.0  -0.6102
  O  O1245  1  0.553300  0.182300  0.495000  1.0  -0.6424
  O  O1246  1  0.455600  0.200700  0.857200  1.0  -0.6281
  O  O1247  1  0.031900  0.788900  0.503710  1.0  -0.6965
  O  O1248  1  0.809000  0.241900  0.583980  1.0  -0.6705
  O  O1249  1  0.295400  0.174900  0.033200  1.0  -0.7333
  O  O1250  1  0.704600  0.825100  0.966800  1.0  -0.7348
  O  O1251  1  0.688800  0.755500  0.031040  1.0  -0.713
  O  O1252  1  0.967800  0.722300  0.927200  1.0  -0.6553
  O  O1253  1  0.795400  0.325100  0.533200  1.0  -0.7329
  O  O1254  1  0.311200  0.244500  0.968960  1.0  -0.7162
  O  O1255  1  0.691000  0.741900  0.916020  1.0  -0.6708
  O  O1256  1  0.042300  0.204300  0.072400  1.0  -0.615
  O  O1257  1  0.544400  0.799300  0.142800  1.0  -0.6289
  O  O1258  1  0.044400  0.299300  0.857200  1.0  -0.6283
  O  O1259  1  0.968100  0.211100  0.496290  1.0  -0.6973
  O  O1260  1  0.295400  0.825100  0.466800  1.0  -0.7328
  O  O1261  1  0.835000  0.164500  0.395400  1.0  -0.6404
  O  O1262  1  0.824700  0.663000  0.103500  1.0  -0.2129
  O  O1263  1  0.310400  0.750400  0.651100  1.0  -0.6449
  O  O1264  1  0.964700  0.699400  0.061600  1.0  -0.6498
  O  O1265  1  0.175000  0.174100  0.022100  1.0  -0.6445
  O  O1266  1  0.025000  0.220300  0.862800  1.0  -0.6107
  O  O1267  1  0.542300  0.704300  0.927600  1.0  -0.6155
  O  O1268  1  0.053300  0.806300  0.560500  1.0  -0.6742
  O  O1269  1  0.825000  0.174100  0.522100  1.0  -0.6457
  O  O1270  1  0.675300  0.837000  0.103500  1.0  -0.2119
  O  O1271  1  0.955600  0.700700  0.142800  1.0  -0.6278
  O  O1272  1  0.044400  0.700700  0.642800  1.0  -0.6287
  O  O1273  1  0.946700  0.682300  0.005000  1.0  -0.6438
  O  O1274  1  0.544400  0.200700  0.357200  1.0  -0.6287
  O  O1275  1  0.691000  0.258100  0.583980  1.0  -0.6711
  O  O1276  1  0.542300  0.295700  0.572400  1.0  -0.6156
  O  O1277  1  0.967800  0.277700  0.572800  1.0  -0.6592
  O  O1278  1  0.532200  0.222300  0.572800  1.0  -0.6559
  O  O1279  1  0.032200  0.277700  0.072800  1.0  -0.6583
  O  O1280  1  0.675000  0.325900  0.522100  1.0  -0.6463
  O  O1281  1  0.750000  0.750000  0.080000  1.0  -0.6903
  O  O1282  1  0.032200  0.722300  0.427200  1.0  -0.6556
  O  O1283  1  0.457700  0.704300  0.427600  1.0  -0.6141
  O  O1284  1  0.446700  0.693700  0.560500  1.0  -0.6749
  O  O1285  1  0.553300  0.306300  0.439500  1.0  -0.6743
  O  O1286  1  0.835000  0.835500  0.104600  1.0  -0.6388
  O  O1287  1  0.955600  0.299300  0.357200  1.0  -0.6273
  O  O1288  1  0.468100  0.711100  0.503710  1.0  -0.6966
  O  O1289  1  0.525000  0.279700  0.362800  1.0  -0.6104
  O  O1290  1  0.204600  0.674900  0.466800  1.0  -0.7344
  O  O1291  1  0.975000  0.220300  0.362800  1.0  -0.6119
  O  O1292  1  0.809000  0.758100  0.916020  1.0  -0.6707
  O  O1293  1  0.188800  0.255500  0.968960  1.0  -0.7132
  O  O1294  1  0.188800  0.744500  0.531040  1.0  -0.7137
  O  O1295  1  0.189600  0.749600  0.651100  1.0  -0.645
  O  O1296  1  0.031900  0.211100  0.996290  1.0  -0.6964
  O  O1297  1  0.675300  0.163000  0.396500  1.0  -0.2138
  O  O1298  1  0.250000  0.750000  0.580000  1.0  -0.6903
  O  O1299  1  0.467800  0.222300  0.072800  1.0  -0.6557
  O  O1300  1  0.335000  0.335500  0.895400  1.0  -0.6399
  O  O1301  1  0.689600  0.750400  0.151100  1.0  -0.6519
  O  O1302  1  0.309000  0.258100  0.083980  1.0  -0.6704
  O  O1303  1  0.675000  0.674100  0.977900  1.0  -0.6449
  O  O1304  1  0.946700  0.806300  0.060500  1.0  -0.675
  O  O1305  1  0.311200  0.755500  0.531040  1.0  -0.7152
  O  O1306  1  0.189600  0.250400  0.848900  1.0  -0.6528
  O  O1307  1  0.309000  0.741900  0.416020  1.0  -0.6703
  O  O1308  1  0.324700  0.837000  0.603500  1.0  -0.2119
  O  O1309  1  0.665000  0.664500  0.104600  1.0  -0.64
  O  O1310  1  0.531900  0.711100  0.003710  1.0  -0.6948
  O  O1311  1  0.704600  0.174900  0.533200  1.0  -0.7352
  O  O1312  1  0.795400  0.674900  0.966800  1.0  -0.7324
  O  O1313  1  0.464700  0.199400  0.938400  1.0  -0.6496
  O  O1314  1  0.325000  0.674100  0.477900  1.0  -0.646
  O  O1315  1  0.191000  0.241900  0.083980  1.0  -0.6713
  O  O1316  1  0.468100  0.288900  0.996290  1.0  -0.6976
  O  O1317  1  0.053300  0.682300  0.505000  1.0  -0.6447
  O  O1318  1  0.535300  0.800600  0.061600  1.0  -0.6495
  O  O1319  1  0.310400  0.249600  0.848900  1.0  -0.6528
  O  O1320  1  0.531900  0.288900  0.496290  1.0  -0.6968
  O  O1321  1  0.175300  0.663000  0.603500  1.0  -0.213
  O  O1322  1  0.811200  0.744500  0.031040  1.0  -0.718
  O  O1323  1  0.175000  0.825900  0.477900  1.0  -0.646
  O  O1324  1  0.957700  0.204300  0.572400  1.0  -0.6139
  O  O1325  1  0.553300  0.817700  0.005000  1.0  -0.6451
  O  O1326  1  0.689600  0.249600  0.348900  1.0  -0.6525
  O  O1327  1  0.475000  0.279700  0.862800  1.0  -0.6118
  O  O1328  1  0.204600  0.325100  0.033200  1.0  -0.7346
  O  O1329  1  0.810400  0.250400  0.348900  1.0  -0.6529
  O  O1330  1  0.250000  0.250000  0.920000  1.0  -0.69
  O  O1331  1  0.688800  0.244500  0.468960  1.0  -0.7165
  O  O1332  1  0.467800  0.777700  0.427200  1.0  -0.6592
  O  O1333  1  0.824700  0.337000  0.396500  1.0  -0.2133
  O  O1334  1  0.053300  0.193700  0.939500  1.0  -0.6735
  O  O1335  1  0.324700  0.163000  0.896500  1.0  -0.2136
  O  O1336  1  0.968100  0.788900  0.003710  1.0  -0.6981
  O  O1337  1  0.946700  0.193700  0.439500  1.0  -0.6744
  O  O1338  1  0.165000  0.835500  0.604600  1.0  -0.6386
  O  O1339  1  0.535300  0.199400  0.438400  1.0  -0.6492
  O  O1340  1  0.532200  0.777700  0.927200  1.0  -0.6582
  O  O1341  1  0.475000  0.720300  0.637200  1.0  -0.6117
  O  O1342  1  0.464700  0.800600  0.561600  1.0  -0.6496
  O  O1343  1  0.042300  0.795700  0.427600  1.0  -0.6161
  O  O1344  1  0.165000  0.164500  0.895400  1.0  -0.6413
  O  O1345  1  0.810400  0.749600  0.151100  1.0  -0.6528
  O  O1346  1  0.446700  0.817700  0.505000  1.0  -0.6443
  O  O1347  1  0.964700  0.300600  0.438400  1.0  -0.6492
  O  O1348  1  0.975000  0.779700  0.137200  1.0  -0.6117
  O  O1349  1  0.825000  0.825900  0.977900  1.0  -0.646
  O  O1350  1  0.457700  0.295700  0.072400  1.0  -0.6143
  O  O1351  1  0.053300  0.317700  0.995000  1.0  -0.643
  O  O1352  1  0.455600  0.799300  0.642800  1.0  -0.6279
