# generated using pymatgen
data_Cu2H13C29NO9
_symmetry_space_group_name_H-M   'P 1'
_cell_length_a   30.98800000
_cell_length_b   30.98800000
_cell_length_c   45.96400000
_cell_angle_alpha   90.00000000
_cell_angle_beta   90.00000000
_cell_angle_gamma   90.00000000
_symmetry_Int_Tables_number   1
_chemical_formula_structural   Cu2H13C29NO9
_chemical_formula_sum   'Cu48 H312 C696 N24 O216'
_cell_volume   44137.21340282
_cell_formula_units_Z   24
loop_
 _symmetry_equiv_pos_site_id
 _symmetry_equiv_pos_as_xyz
  1  'x, y, z'
loop_
 _atom_site_type_symbol
 _atom_site_label
 _atom_site_symmetry_multiplicity
 _atom_site_fract_x
 _atom_site_fract_y
 _atom_site_fract_z
 _atom_site_occupancy
 _atom_site_charge
  Cu  Cu1  1  0.103320  0.145380  0.127780  1.0  0.9206
  Cu  Cu2  1  0.138940  0.195990  0.167790  1.0  0.9134
  Cu  Cu3  1  0.896680  0.854620  0.127780  1.0  0.92
  Cu  Cu4  1  0.861060  0.804010  0.167790  1.0  0.9116
  Cu  Cu5  1  0.854620  0.103320  0.127780  1.0  0.919
  Cu  Cu6  1  0.804010  0.138940  0.167790  1.0  0.9121
  Cu  Cu7  1  0.145380  0.896680  0.127780  1.0  0.9211
  Cu  Cu8  1  0.195990  0.861060  0.167790  1.0  0.9123
  Cu  Cu9  1  0.396680  0.645380  0.372220  1.0  0.9205
  Cu  Cu10  1  0.361060  0.695990  0.332210  1.0  0.9126
  Cu  Cu11  1  0.603320  0.354620  0.372220  1.0  0.9206
  Cu  Cu12  1  0.638940  0.304010  0.332210  1.0  0.9114
  Cu  Cu13  1  0.645380  0.603320  0.372220  1.0  0.9205
  Cu  Cu14  1  0.695990  0.638940  0.332210  1.0  0.9122
  Cu  Cu15  1  0.354620  0.396680  0.372220  1.0  0.9207
  Cu  Cu16  1  0.304010  0.361060  0.332210  1.0  0.9119
  Cu  Cu17  1  0.896680  0.854620  0.872220  1.0  0.9213
  Cu  Cu18  1  0.861060  0.804010  0.832210  1.0  0.9121
  Cu  Cu19  1  0.103320  0.145380  0.872220  1.0  0.9201
  Cu  Cu20  1  0.138940  0.195990  0.832210  1.0  0.9123
  Cu  Cu21  1  0.145380  0.896680  0.872220  1.0  0.9203
  Cu  Cu22  1  0.195990  0.861060  0.832210  1.0  0.911
  Cu  Cu23  1  0.854620  0.103320  0.872220  1.0  0.9203
  Cu  Cu24  1  0.804010  0.138940  0.832210  1.0  0.9127
  Cu  Cu25  1  0.603320  0.354620  0.627780  1.0  0.9207
  Cu  Cu26  1  0.638940  0.304010  0.667790  1.0  0.9124
  Cu  Cu27  1  0.396680  0.645380  0.627780  1.0  0.9198
  Cu  Cu28  1  0.361060  0.695990  0.667790  1.0  0.9121
  Cu  Cu29  1  0.354620  0.396680  0.627780  1.0  0.9198
  Cu  Cu30  1  0.304010  0.361060  0.667790  1.0  0.9119
  Cu  Cu31  1  0.645380  0.603320  0.627780  1.0  0.9206
  Cu  Cu32  1  0.695990  0.638940  0.667790  1.0  0.9131
  Cu  Cu33  1  0.330650  0.059010  0.000000  1.0  0.9067
  Cu  Cu34  1  0.246040  0.043650  0.000000  1.0  0.8959
  Cu  Cu35  1  0.669350  0.940990  0.000000  1.0  0.9056
  Cu  Cu36  1  0.753960  0.956350  0.000000  1.0  0.8962
  Cu  Cu37  1  0.940990  0.330650  0.000000  1.0  0.906
  Cu  Cu38  1  0.956350  0.246040  0.000000  1.0  0.8963
  Cu  Cu39  1  0.059010  0.669350  0.000000  1.0  0.9072
  Cu  Cu40  1  0.043650  0.753960  0.000000  1.0  0.8947
  Cu  Cu41  1  0.169350  0.559010  0.500000  1.0  0.9055
  Cu  Cu42  1  0.253960  0.543650  0.500000  1.0  0.8962
  Cu  Cu43  1  0.830650  0.440990  0.500000  1.0  0.9066
  Cu  Cu44  1  0.746040  0.456350  0.500000  1.0  0.8963
  Cu  Cu45  1  0.559010  0.830650  0.500000  1.0  0.9048
  Cu  Cu46  1  0.543650  0.746040  0.500000  1.0  0.8962
  Cu  Cu47  1  0.440990  0.169350  0.500000  1.0  0.9071
  Cu  Cu48  1  0.456350  0.253960  0.500000  1.0  0.8939
  H  H49  1  0.477100  0.277400  0.133300  1.0  0.151
  H  H50  1  0.210700  0.126800  0.071100  1.0  0.1161
  H  H51  1  0.337200  0.158700  0.064300  1.0  0.1172
  H  H52  1  0.264100  0.210400  0.127800  1.0  0.1083
  H  H53  1  0.375800  0.221300  0.071400  1.0  0.11
  H  H54  1  0.437900  0.253900  0.090200  1.0  0.1206
  H  H55  1  0.325400  0.212400  0.151600  1.0  0.1067
  H  H56  1  0.520000  0.305300  0.173100  1.0  0.1106
  H  H57  1  0.524300  0.324300  0.220500  1.0  0.1217
  H  H58  1  0.407100  0.271000  0.235100  1.0  0.1111
  H  H59  1  0.533500  0.306200  0.268700  1.0  0.1117
  H  H60  1  0.474800  0.351200  0.341200  1.0  0.1171
  H  H61  1  0.403400  0.322100  0.270400  1.0  0.1079
  H  H62  1  0.051200  0.240900  0.071100  1.0  0.1201
  H  H63  1  0.006800  0.364300  0.075600  1.0  0.1083
  H  H64  1  0.078700  0.314700  0.141300  1.0  0.1157
  H  H65  1  0.023200  0.424100  0.092400  1.0  0.1116
  H  H66  1  0.019300  0.425000  0.193900  1.0  0.1115
  H  H67  1  0.039100  0.361800  0.168400  1.0  0.1123
  H  H68  1  0.522900  0.722600  0.133300  1.0  0.1516
  H  H69  1  0.789300  0.873200  0.071100  1.0  0.1158
  H  H70  1  0.662800  0.841300  0.064300  1.0  0.1176
  H  H71  1  0.735900  0.789600  0.127800  1.0  0.1079
  H  H72  1  0.624200  0.778700  0.071400  1.0  0.1094
  H  H73  1  0.562100  0.746100  0.090200  1.0  0.1197
  H  H74  1  0.674600  0.787600  0.151600  1.0  0.1066
  H  H75  1  0.480000  0.694700  0.173100  1.0  0.1104
  H  H76  1  0.475700  0.675700  0.220500  1.0  0.1216
  H  H77  1  0.592900  0.729000  0.235100  1.0  0.1104
  H  H78  1  0.466500  0.693800  0.268700  1.0  0.1119
  H  H79  1  0.525200  0.648800  0.341200  1.0  0.1167
  H  H80  1  0.596600  0.677900  0.270400  1.0  0.1074
  H  H81  1  0.948800  0.759100  0.071100  1.0  0.1201
  H  H82  1  0.993200  0.635700  0.075600  1.0  0.1083
  H  H83  1  0.921300  0.685300  0.141300  1.0  0.1165
  H  H84  1  0.976800  0.575900  0.092400  1.0  0.1121
  H  H85  1  0.980700  0.575000  0.193900  1.0  0.1114
  H  H86  1  0.960900  0.638200  0.168400  1.0  0.1124
  H  H87  1  0.722600  0.477100  0.133300  1.0  0.1507
  H  H88  1  0.873200  0.210700  0.071100  1.0  0.1157
  H  H89  1  0.841300  0.337200  0.064300  1.0  0.1171
  H  H90  1  0.789600  0.264100  0.127800  1.0  0.1079
  H  H91  1  0.778700  0.375800  0.071400  1.0  0.1095
  H  H92  1  0.746100  0.437900  0.090200  1.0  0.1204
  H  H93  1  0.787600  0.325400  0.151600  1.0  0.1066
  H  H94  1  0.694700  0.520000  0.173100  1.0  0.1105
  H  H95  1  0.675700  0.524300  0.220500  1.0  0.1218
  H  H96  1  0.729000  0.407100  0.235100  1.0  0.1095
  H  H97  1  0.693800  0.533500  0.268700  1.0  0.111
  H  H98  1  0.648800  0.474800  0.341200  1.0  0.1168
  H  H99  1  0.677900  0.403400  0.270400  1.0  0.1079
  H  H100  1  0.759100  0.051200  0.071100  1.0  0.1201
  H  H101  1  0.635700  0.006800  0.075600  1.0  0.1076
  H  H102  1  0.685300  0.078700  0.141300  1.0  0.1163
  H  H103  1  0.575900  0.023200  0.092400  1.0  0.1119
  H  H104  1  0.575000  0.019300  0.193900  1.0  0.1117
  H  H105  1  0.638200  0.039100  0.168400  1.0  0.1119
  H  H106  1  0.277400  0.522900  0.133300  1.0  0.1517
  H  H107  1  0.126800  0.789300  0.071100  1.0  0.1161
  H  H108  1  0.158700  0.662800  0.064300  1.0  0.117
  H  H109  1  0.210400  0.735900  0.127800  1.0  0.1078
  H  H110  1  0.221300  0.624200  0.071400  1.0  0.1096
  H  H111  1  0.253900  0.562100  0.090200  1.0  0.1198
  H  H112  1  0.212400  0.674600  0.151600  1.0  0.1065
  H  H113  1  0.305300  0.480000  0.173100  1.0  0.1102
  H  H114  1  0.324300  0.475700  0.220500  1.0  0.1223
  H  H115  1  0.271000  0.592900  0.235100  1.0  0.1096
  H  H116  1  0.306200  0.466500  0.268700  1.0  0.1108
  H  H117  1  0.351200  0.525200  0.341200  1.0  0.117
  H  H118  1  0.322100  0.596600  0.270400  1.0  0.1075
  H  H119  1  0.240900  0.948800  0.071100  1.0  0.1197
  H  H120  1  0.364300  0.993200  0.075600  1.0  0.1079
  H  H121  1  0.314700  0.921300  0.141300  1.0  0.1162
  H  H122  1  0.424100  0.976800  0.092400  1.0  0.1122
  H  H123  1  0.425000  0.980700  0.193900  1.0  0.1119
  H  H124  1  0.361800  0.960900  0.168400  1.0  0.1115
  H  H125  1  0.022900  0.777400  0.366700  1.0  0.1516
  H  H126  1  0.289300  0.626800  0.428900  1.0  0.1152
  H  H127  1  0.162800  0.658700  0.435700  1.0  0.1178
  H  H128  1  0.235900  0.710400  0.372200  1.0  0.108
  H  H129  1  0.124200  0.721300  0.428600  1.0  0.1097
  H  H130  1  0.062100  0.753900  0.409800  1.0  0.1198
  H  H131  1  0.174600  0.712400  0.348400  1.0  0.1067
  H  H132  1  0.980000  0.805300  0.326900  1.0  0.1107
  H  H133  1  0.975700  0.824300  0.279500  1.0  0.1216
  H  H134  1  0.092900  0.771000  0.264900  1.0  0.1107
  H  H135  1  0.966500  0.806200  0.231300  1.0  0.1124
  H  H136  1  0.025200  0.851200  0.158800  1.0  0.1172
  H  H137  1  0.096600  0.822100  0.229600  1.0  0.1074
  H  H138  1  0.448800  0.740900  0.428900  1.0  0.12
  H  H139  1  0.493200  0.864300  0.424400  1.0  0.1082
  H  H140  1  0.421300  0.814700  0.358700  1.0  0.1167
  H  H141  1  0.476800  0.924100  0.407600  1.0  0.1112
  H  H142  1  0.480700  0.925000  0.306100  1.0  0.1107
  H  H143  1  0.460900  0.861800  0.331600  1.0  0.1112
  H  H144  1  0.977100  0.222600  0.366700  1.0  0.1518
  H  H145  1  0.710700  0.373200  0.428900  1.0  0.1158
  H  H146  1  0.837200  0.341300  0.435700  1.0  0.117
  H  H147  1  0.764100  0.289600  0.372200  1.0  0.108
  H  H148  1  0.875800  0.278700  0.428600  1.0  0.1101
  H  H149  1  0.937900  0.246100  0.409800  1.0  0.1195
  H  H150  1  0.825400  0.287600  0.348400  1.0  0.1076
  H  H151  1  0.020000  0.194700  0.326900  1.0  0.1101
  H  H152  1  0.024300  0.175700  0.279500  1.0  0.1223
  H  H153  1  0.907100  0.229000  0.264900  1.0  0.111
  H  H154  1  0.033500  0.193800  0.231300  1.0  0.1122
  H  H155  1  0.974800  0.148800  0.158800  1.0  0.1173
  H  H156  1  0.903400  0.177900  0.229600  1.0  0.1077
  H  H157  1  0.551200  0.259100  0.428900  1.0  0.1202
  H  H158  1  0.506800  0.135700  0.424400  1.0  0.1081
  H  H159  1  0.578700  0.185300  0.358700  1.0  0.1166
  H  H160  1  0.523200  0.075900  0.407600  1.0  0.1115
  H  H161  1  0.519300  0.075000  0.306100  1.0  0.1114
  H  H162  1  0.539100  0.138200  0.331600  1.0  0.1114
  H  H163  1  0.777400  0.977100  0.366700  1.0  0.1516
  H  H164  1  0.626800  0.710700  0.428900  1.0  0.1156
  H  H165  1  0.658700  0.837200  0.435700  1.0  0.1172
  H  H166  1  0.710400  0.764100  0.372200  1.0  0.1077
  H  H167  1  0.721300  0.875800  0.428600  1.0  0.1095
  H  H168  1  0.753900  0.937900  0.409800  1.0  0.1201
  H  H169  1  0.712400  0.825400  0.348400  1.0  0.107
  H  H170  1  0.805300  0.020000  0.326900  1.0  0.1109
  H  H171  1  0.824300  0.024300  0.279500  1.0  0.1225
  H  H172  1  0.771000  0.907100  0.264900  1.0  0.1095
  H  H173  1  0.806200  0.033500  0.231300  1.0  0.1117
  H  H174  1  0.851200  0.974800  0.158800  1.0  0.1172
  H  H175  1  0.822100  0.903400  0.229600  1.0  0.1078
  H  H176  1  0.740900  0.551200  0.428900  1.0  0.1198
  H  H177  1  0.864300  0.506800  0.424400  1.0  0.1082
  H  H178  1  0.814700  0.578700  0.358700  1.0  0.1167
  H  H179  1  0.924100  0.523200  0.407600  1.0  0.1114
  H  H180  1  0.925000  0.519300  0.306100  1.0  0.1114
  H  H181  1  0.861800  0.539100  0.331600  1.0  0.111
  H  H182  1  0.222600  0.022900  0.366700  1.0  0.1527
  H  H183  1  0.373200  0.289300  0.428900  1.0  0.1158
  H  H184  1  0.341300  0.162800  0.435700  1.0  0.1175
  H  H185  1  0.289600  0.235900  0.372200  1.0  0.108
  H  H186  1  0.278700  0.124200  0.428600  1.0  0.1098
  H  H187  1  0.246100  0.062100  0.409800  1.0  0.12
  H  H188  1  0.287600  0.174600  0.348400  1.0  0.1069
  H  H189  1  0.194700  0.980000  0.326900  1.0  0.1109
  H  H190  1  0.175700  0.975700  0.279500  1.0  0.1221
  H  H191  1  0.229000  0.092900  0.264900  1.0  0.1096
  H  H192  1  0.193800  0.966500  0.231300  1.0  0.1113
  H  H193  1  0.148800  0.025200  0.158800  1.0  0.1171
  H  H194  1  0.177900  0.096600  0.229600  1.0  0.1078
  H  H195  1  0.259100  0.448800  0.428900  1.0  0.1197
  H  H196  1  0.135700  0.493200  0.424400  1.0  0.1078
  H  H197  1  0.185300  0.421300  0.358700  1.0  0.1169
  H  H198  1  0.075900  0.476800  0.407600  1.0  0.1115
  H  H199  1  0.075000  0.480700  0.306100  1.0  0.1115
  H  H200  1  0.138200  0.460900  0.331600  1.0  0.1104
  H  H201  1  0.522900  0.722600  0.866700  1.0  0.1519
  H  H202  1  0.789300  0.873200  0.928900  1.0  0.1155
  H  H203  1  0.662800  0.841300  0.935700  1.0  0.1176
  H  H204  1  0.735900  0.789600  0.872200  1.0  0.1077
  H  H205  1  0.624200  0.778700  0.928600  1.0  0.11
  H  H206  1  0.562100  0.746100  0.909800  1.0  0.1201
  H  H207  1  0.674600  0.787600  0.848400  1.0  0.1069
  H  H208  1  0.480000  0.694700  0.826900  1.0  0.1109
  H  H209  1  0.475700  0.675700  0.779500  1.0  0.122
  H  H210  1  0.592900  0.729000  0.764900  1.0  0.111
  H  H211  1  0.466500  0.693800  0.731300  1.0  0.1123
  H  H212  1  0.525200  0.648800  0.658800  1.0  0.1173
  H  H213  1  0.596600  0.677900  0.729600  1.0  0.1073
  H  H214  1  0.948800  0.759100  0.928900  1.0  0.1198
  H  H215  1  0.993200  0.635700  0.924400  1.0  0.1087
  H  H216  1  0.921300  0.685300  0.858700  1.0  0.1166
  H  H217  1  0.976800  0.575900  0.907600  1.0  0.1117
  H  H218  1  0.980700  0.575000  0.806100  1.0  0.1111
  H  H219  1  0.960900  0.638200  0.831600  1.0  0.1114
  H  H220  1  0.477100  0.277400  0.866700  1.0  0.1513
  H  H221  1  0.210700  0.126800  0.928900  1.0  0.1159
  H  H222  1  0.337200  0.158700  0.935700  1.0  0.1173
  H  H223  1  0.264100  0.210400  0.872200  1.0  0.1082
  H  H224  1  0.375800  0.221300  0.928600  1.0  0.1098
  H  H225  1  0.437900  0.253900  0.909800  1.0  0.1201
  H  H226  1  0.325400  0.212400  0.848400  1.0  0.107
  H  H227  1  0.520000  0.305300  0.826900  1.0  0.1104
  H  H228  1  0.524300  0.324300  0.779500  1.0  0.1221
  H  H229  1  0.407100  0.271000  0.764900  1.0  0.111
  H  H230  1  0.533500  0.306200  0.731300  1.0  0.1122
  H  H231  1  0.474800  0.351200  0.658800  1.0  0.1174
  H  H232  1  0.403400  0.322100  0.729600  1.0  0.108
  H  H233  1  0.051200  0.240900  0.928900  1.0  0.1201
  H  H234  1  0.006800  0.364300  0.924400  1.0  0.108
  H  H235  1  0.078700  0.314700  0.858700  1.0  0.1166
  H  H236  1  0.023200  0.424100  0.907600  1.0  0.1111
  H  H237  1  0.019300  0.425000  0.806100  1.0  0.1109
  H  H238  1  0.039100  0.361800  0.831600  1.0  0.1111
  H  H239  1  0.277400  0.522900  0.866700  1.0  0.1523
  H  H240  1  0.126800  0.789300  0.928900  1.0  0.116
  H  H241  1  0.158700  0.662800  0.935700  1.0  0.1172
  H  H242  1  0.210400  0.735900  0.872200  1.0  0.108
  H  H243  1  0.221300  0.624200  0.928600  1.0  0.1096
  H  H244  1  0.253900  0.562100  0.909800  1.0  0.1201
  H  H245  1  0.212400  0.674600  0.848400  1.0  0.1069
  H  H246  1  0.305300  0.480000  0.826900  1.0  0.1106
  H  H247  1  0.324300  0.475700  0.779500  1.0  0.1228
  H  H248  1  0.271000  0.592900  0.764900  1.0  0.1099
  H  H249  1  0.306200  0.466500  0.731300  1.0  0.1114
  H  H250  1  0.351200  0.525200  0.658800  1.0  0.1172
  H  H251  1  0.322100  0.596600  0.729600  1.0  0.1076
  H  H252  1  0.240900  0.948800  0.928900  1.0  0.1199
  H  H253  1  0.364300  0.993200  0.924400  1.0  0.1078
  H  H254  1  0.314700  0.921300  0.858700  1.0  0.1168
  H  H255  1  0.424100  0.976800  0.907600  1.0  0.1114
  H  H256  1  0.425000  0.980700  0.806100  1.0  0.1116
  H  H257  1  0.361800  0.960900  0.831600  1.0  0.1106
  H  H258  1  0.722600  0.477100  0.866700  1.0  0.1513
  H  H259  1  0.873200  0.210700  0.928900  1.0  0.1155
  H  H260  1  0.841300  0.337200  0.935700  1.0  0.1174
  H  H261  1  0.789600  0.264100  0.872200  1.0  0.1075
  H  H262  1  0.778700  0.375800  0.928600  1.0  0.1097
  H  H263  1  0.746100  0.437900  0.909800  1.0  0.1201
  H  H264  1  0.787600  0.325400  0.848400  1.0  0.1069
  H  H265  1  0.694700  0.520000  0.826900  1.0  0.1109
  H  H266  1  0.675700  0.524300  0.779500  1.0  0.1222
  H  H267  1  0.729000  0.407100  0.764900  1.0  0.1095
  H  H268  1  0.693800  0.533500  0.731300  1.0  0.1115
  H  H269  1  0.648800  0.474800  0.658800  1.0  0.1172
  H  H270  1  0.677900  0.403400  0.729600  1.0  0.1078
  H  H271  1  0.759100  0.051200  0.928900  1.0  0.1196
  H  H272  1  0.635700  0.006800  0.924400  1.0  0.1079
  H  H273  1  0.685300  0.078700  0.858700  1.0  0.1167
  H  H274  1  0.575900  0.023200  0.907600  1.0  0.1115
  H  H275  1  0.575000  0.019300  0.806100  1.0  0.1112
  H  H276  1  0.638200  0.039100  0.831600  1.0  0.1108
  H  H277  1  0.977100  0.222600  0.633300  1.0  0.1514
  H  H278  1  0.710700  0.373200  0.571100  1.0  0.116
  H  H279  1  0.837200  0.341300  0.564300  1.0  0.1169
  H  H280  1  0.764100  0.289600  0.627800  1.0  0.1084
  H  H281  1  0.875800  0.278700  0.571400  1.0  0.1099
  H  H282  1  0.937900  0.246100  0.590200  1.0  0.1194
  H  H283  1  0.825400  0.287600  0.651600  1.0  0.1069
  H  H284  1  0.020000  0.194700  0.673100  1.0  0.1102
  H  H285  1  0.024300  0.175700  0.720500  1.0  0.1217
  H  H286  1  0.907100  0.229000  0.735100  1.0  0.1109
  H  H287  1  0.033500  0.193800  0.768700  1.0  0.112
  H  H288  1  0.974800  0.148800  0.841200  1.0  0.1169
  H  H289  1  0.903400  0.177900  0.770400  1.0  0.1077
  H  H290  1  0.551200  0.259100  0.571100  1.0  0.1204
  H  H291  1  0.506800  0.135700  0.575600  1.0  0.108
  H  H292  1  0.578700  0.185300  0.641300  1.0  0.116
  H  H293  1  0.523200  0.075900  0.592400  1.0  0.1118
  H  H294  1  0.519300  0.075000  0.693900  1.0  0.1112
  H  H295  1  0.539100  0.138200  0.668400  1.0  0.1124
  H  H296  1  0.022900  0.777400  0.633300  1.0  0.1515
  H  H297  1  0.289300  0.626800  0.571100  1.0  0.1154
  H  H298  1  0.162800  0.658700  0.564300  1.0  0.1177
  H  H299  1  0.235900  0.710400  0.627800  1.0  0.1079
  H  H300  1  0.124200  0.721300  0.571400  1.0  0.1095
  H  H301  1  0.062100  0.753900  0.590200  1.0  0.1199
  H  H302  1  0.174600  0.712400  0.651600  1.0  0.1066
  H  H303  1  0.980000  0.805300  0.673100  1.0  0.1104
  H  H304  1  0.975700  0.824300  0.720500  1.0  0.1213
  H  H305  1  0.092900  0.771000  0.735100  1.0  0.1105
  H  H306  1  0.966500  0.806200  0.768700  1.0  0.1118
  H  H307  1  0.025200  0.851200  0.841200  1.0  0.1168
  H  H308  1  0.096600  0.822100  0.770400  1.0  0.1075
  H  H309  1  0.448800  0.740900  0.571100  1.0  0.1199
  H  H310  1  0.493200  0.864300  0.575600  1.0  0.1082
  H  H311  1  0.421300  0.814700  0.641300  1.0  0.1163
  H  H312  1  0.476800  0.924100  0.592400  1.0  0.1117
  H  H313  1  0.480700  0.925000  0.693900  1.0  0.1117
  H  H314  1  0.460900  0.861800  0.668400  1.0  0.1124
  H  H315  1  0.222600  0.022900  0.633300  1.0  0.1522
  H  H316  1  0.373200  0.289300  0.571100  1.0  0.1159
  H  H317  1  0.341300  0.162800  0.564300  1.0  0.1173
  H  H318  1  0.289600  0.235900  0.627800  1.0  0.108
  H  H319  1  0.278700  0.124200  0.571400  1.0  0.1096
  H  H320  1  0.246100  0.062100  0.590200  1.0  0.1197
  H  H321  1  0.287600  0.174600  0.651600  1.0  0.1064
  H  H322  1  0.194700  0.980000  0.673100  1.0  0.1103
  H  H323  1  0.175700  0.975700  0.720500  1.0  0.1216
  H  H324  1  0.229000  0.092900  0.735100  1.0  0.1092
  H  H325  1  0.193800  0.966500  0.768700  1.0  0.1109
  H  H326  1  0.148800  0.025200  0.841200  1.0  0.1169
  H  H327  1  0.177900  0.096600  0.770400  1.0  0.1079
  H  H328  1  0.259100  0.448800  0.571100  1.0  0.1199
  H  H329  1  0.135700  0.493200  0.575600  1.0  0.1078
  H  H330  1  0.185300  0.421300  0.641300  1.0  0.1164
  H  H331  1  0.075900  0.476800  0.592400  1.0  0.112
  H  H332  1  0.075000  0.480700  0.693900  1.0  0.1118
  H  H333  1  0.138200  0.460900  0.668400  1.0  0.1119
  H  H334  1  0.777400  0.977100  0.633300  1.0  0.1512
  H  H335  1  0.626800  0.710700  0.571100  1.0  0.1159
  H  H336  1  0.658700  0.837200  0.564300  1.0  0.1171
  H  H337  1  0.710400  0.764100  0.627800  1.0  0.1078
  H  H338  1  0.721300  0.875800  0.571400  1.0  0.1094
  H  H339  1  0.753900  0.937900  0.590200  1.0  0.1205
  H  H340  1  0.712400  0.825400  0.651600  1.0  0.1067
  H  H341  1  0.805300  0.020000  0.673100  1.0  0.1106
  H  H342  1  0.824300  0.024300  0.720500  1.0  0.1221
  H  H343  1  0.771000  0.907100  0.735100  1.0  0.1097
  H  H344  1  0.806200  0.033500  0.768700  1.0  0.1112
  H  H345  1  0.851200  0.974800  0.841200  1.0  0.1168
  H  H346  1  0.822100  0.903400  0.770400  1.0  0.1077
  H  H347  1  0.740900  0.551200  0.571100  1.0  0.12
  H  H348  1  0.864300  0.506800  0.575600  1.0  0.1081
  H  H349  1  0.814700  0.578700  0.641300  1.0  0.1163
  H  H350  1  0.924100  0.523200  0.592400  1.0  0.1121
  H  H351  1  0.925000  0.519300  0.693900  1.0  0.1119
  H  H352  1  0.861800  0.539100  0.668400  1.0  0.1115
  H  H353  1  0.000000  0.500000  0.191300  1.0  0.1581
  H  H354  1  0.500000  0.000000  0.191300  1.0  0.1581
  H  H355  1  0.500000  0.000000  0.308700  1.0  0.1583
  H  H356  1  0.000000  0.500000  0.308700  1.0  0.1583
  H  H357  1  0.000000  0.500000  0.808700  1.0  0.1583
  H  H358  1  0.500000  0.000000  0.808700  1.0  0.1583
  H  H359  1  0.500000  0.000000  0.691300  1.0  0.1581
  H  H360  1  0.000000  0.500000  0.691300  1.0  0.1581
  C  C361  1  0.189070  0.170570  0.118360  1.0  0.6828
  C  C362  1  0.231260  0.168760  0.101950  1.0  -0.1371
  C  C363  1  0.235150  0.142240  0.077970  1.0  0.034
  C  C364  1  0.274030  0.137990  0.063950  1.0  -0.1328
  C  C365  1  0.310170  0.161400  0.073930  1.0  -0.0617
  C  C366  1  0.305990  0.188380  0.097830  1.0  0.01
  C  C367  1  0.266890  0.191850  0.111500  1.0  -0.0804
  C  C368  1  0.279520  0.106530  0.039380  1.0  0.6835
  C  C369  1  0.345570  0.211970  0.109500  1.0  0.004
  C  C370  1  0.378350  0.225320  0.091820  1.0  -0.0945
  C  C371  1  0.415650  0.244870  0.102990  1.0  -0.1398
  C  C372  1  0.420140  0.251050  0.132890  1.0  0.1291
  C  C373  1  0.384670  0.239350  0.151270  1.0  -0.0146
  C  C374  1  0.348720  0.220190  0.139290  1.0  -0.0756
  C  C375  1  0.385930  0.248220  0.181950  1.0  0.1799
  C  C376  1  0.425840  0.269010  0.193040  1.0  0.0212
  C  C377  1  0.457860  0.281080  0.172900  1.0  0.1352
  C  C378  1  0.496000  0.299860  0.185450  1.0  -0.0291
  C  C379  1  0.499260  0.309990  0.213550  1.0  -0.1511
  C  C380  1  0.465150  0.299450  0.233160  1.0  0.0291
  C  C381  1  0.429780  0.278850  0.222260  1.0  -0.0485
  C  C382  1  0.468040  0.312640  0.263770  1.0  0.0606
  C  C383  1  0.507890  0.314510  0.278570  1.0  -0.0745
  C  C384  1  0.510600  0.328390  0.307440  1.0  -0.1393
  C  C385  1  0.473140  0.340910  0.321820  1.0  0.0202
  C  C386  1  0.433600  0.338450  0.308110  1.0  -0.1405
  C  C387  1  0.430870  0.324140  0.279510  1.0  -0.0732
  C  C388  1  0.552610  0.329450  0.323040  1.0  0.6799
  C  C389  1  0.393990  0.351750  0.324840  1.0  0.6895
  C  C390  1  0.090540  0.234690  0.122070  1.0  0.6827
  C  C391  1  0.048660  0.267600  0.081200  1.0  0.0234
  C  C392  1  0.025960  0.301460  0.068990  1.0  -0.1278
  C  C393  1  0.022060  0.340890  0.084150  1.0  -0.0686
  C  C394  1  0.040550  0.345590  0.111700  1.0  0.0185
  C  C395  1  0.064450  0.311410  0.123080  1.0  -0.059
  C  C396  1  0.067690  0.272930  0.108250  1.0  -0.1358
  C  C397  1  0.001700  0.295870  0.040870  1.0  0.6866
  C  C398  1  0.033290  0.386210  0.127960  1.0  -0.0273
  C  C399  1  0.023000  0.424150  0.113110  1.0  -0.0679
  C  C400  1  0.012130  0.463040  0.128200  1.0  -0.0254
  C  C401  1  0.010790  0.463530  0.158280  1.0  0.1214
  C  C402  1  0.020470  0.425410  0.173230  1.0  -0.1255
  C  C403  1  0.032050  0.387150  0.157830  1.0  -0.0968
  C  C404  1  0.810930  0.829430  0.118360  1.0  0.6826
  C  C405  1  0.768740  0.831240  0.101950  1.0  -0.1362
  C  C406  1  0.764850  0.857760  0.077970  1.0  0.0343
  C  C407  1  0.725970  0.862010  0.063950  1.0  -0.1328
  C  C408  1  0.689830  0.838600  0.073930  1.0  -0.0618
  C  C409  1  0.694010  0.811620  0.097830  1.0  0.0098
  C  C410  1  0.733110  0.808150  0.111500  1.0  -0.0805
  C  C411  1  0.720480  0.893470  0.039380  1.0  0.6836
  C  C412  1  0.654430  0.788030  0.109500  1.0  0.0035
  C  C413  1  0.621650  0.774680  0.091820  1.0  -0.0937
  C  C414  1  0.584350  0.755130  0.102990  1.0  -0.1401
  C  C415  1  0.579860  0.748950  0.132890  1.0  0.1276
  C  C416  1  0.615330  0.760650  0.151270  1.0  -0.0133
  C  C417  1  0.651280  0.779810  0.139290  1.0  -0.0735
  C  C418  1  0.614070  0.751780  0.181950  1.0  0.1819
  C  C419  1  0.574160  0.730990  0.193040  1.0  0.022
  C  C420  1  0.542140  0.718920  0.172900  1.0  0.1347
  C  C421  1  0.504000  0.700140  0.185450  1.0  -0.0284
  C  C422  1  0.500740  0.690010  0.213550  1.0  -0.1547
  C  C423  1  0.534850  0.700550  0.233160  1.0  0.0287
  C  C424  1  0.570220  0.721150  0.222260  1.0  -0.048
  C  C425  1  0.531960  0.687360  0.263770  1.0  0.0605
  C  C426  1  0.492110  0.685490  0.278570  1.0  -0.0757
  C  C427  1  0.489400  0.671610  0.307440  1.0  -0.1396
  C  C428  1  0.526860  0.659090  0.321820  1.0  0.0206
  C  C429  1  0.566400  0.661550  0.308110  1.0  -0.1406
  C  C430  1  0.569130  0.675860  0.279510  1.0  -0.0718
  C  C431  1  0.447390  0.670550  0.323040  1.0  0.6796
  C  C432  1  0.606010  0.648250  0.324840  1.0  0.6886
  C  C433  1  0.909460  0.765310  0.122070  1.0  0.6831
  C  C434  1  0.951340  0.732400  0.081200  1.0  0.0229
  C  C435  1  0.974040  0.698540  0.068990  1.0  -0.1285
  C  C436  1  0.977940  0.659110  0.084150  1.0  -0.0665
  C  C437  1  0.959450  0.654410  0.111700  1.0  0.0189
  C  C438  1  0.935550  0.688590  0.123080  1.0  -0.0594
  C  C439  1  0.932310  0.727070  0.108250  1.0  -0.1359
  C  C440  1  0.998300  0.704130  0.040870  1.0  0.6874
  C  C441  1  0.966710  0.613790  0.127960  1.0  -0.027
  C  C442  1  0.977000  0.575850  0.113110  1.0  -0.0667
  C  C443  1  0.987870  0.536960  0.128200  1.0  -0.0273
  C  C444  1  0.989210  0.536470  0.158280  1.0  0.1212
  C  C445  1  0.979530  0.574590  0.173230  1.0  -0.1253
  C  C446  1  0.967950  0.612850  0.157830  1.0  -0.0981
  C  C447  1  0.829430  0.189070  0.118360  1.0  0.6827
  C  C448  1  0.831240  0.231260  0.101950  1.0  -0.1352
  C  C449  1  0.857760  0.235150  0.077970  1.0  0.0348
  C  C450  1  0.862010  0.274030  0.063950  1.0  -0.1326
  C  C451  1  0.838600  0.310170  0.073930  1.0  -0.0605
  C  C452  1  0.811620  0.305990  0.097830  1.0  0.0098
  C  C453  1  0.808150  0.266890  0.111500  1.0  -0.0815
  C  C454  1  0.893470  0.279520  0.039380  1.0  0.6828
  C  C455  1  0.788030  0.345570  0.109500  1.0  0.0034
  C  C456  1  0.774680  0.378350  0.091820  1.0  -0.0944
  C  C457  1  0.755130  0.415650  0.102990  1.0  -0.1412
  C  C458  1  0.748950  0.420140  0.132890  1.0  0.1296
  C  C459  1  0.760650  0.384670  0.151270  1.0  -0.0136
  C  C460  1  0.779810  0.348720  0.139290  1.0  -0.0715
  C  C461  1  0.751780  0.385930  0.181950  1.0  0.1826
  C  C462  1  0.730990  0.425840  0.193040  1.0  0.0225
  C  C463  1  0.718920  0.457860  0.172900  1.0  0.1354
  C  C464  1  0.700140  0.496000  0.185450  1.0  -0.0329
  C  C465  1  0.690010  0.499260  0.213550  1.0  -0.1545
  C  C466  1  0.700550  0.465150  0.233160  1.0  0.0291
  C  C467  1  0.721150  0.429780  0.222260  1.0  -0.0474
  C  C468  1  0.687360  0.468040  0.263770  1.0  0.0605
  C  C469  1  0.685490  0.507890  0.278570  1.0  -0.0743
  C  C470  1  0.671610  0.510600  0.307440  1.0  -0.1388
  C  C471  1  0.659090  0.473140  0.321820  1.0  0.0197
  C  C472  1  0.661550  0.433600  0.308110  1.0  -0.1405
  C  C473  1  0.675860  0.430870  0.279510  1.0  -0.0701
  C  C474  1  0.670550  0.552610  0.323040  1.0  0.6809
  C  C475  1  0.648250  0.393990  0.324840  1.0  0.6886
  C  C476  1  0.765310  0.090540  0.122070  1.0  0.6824
  C  C477  1  0.732400  0.048660  0.081200  1.0  0.0248
  C  C478  1  0.698540  0.025960  0.068990  1.0  -0.1268
  C  C479  1  0.659110  0.022060  0.084150  1.0  -0.0685
  C  C480  1  0.654410  0.040550  0.111700  1.0  0.0201
  C  C481  1  0.688590  0.064450  0.123080  1.0  -0.0588
  C  C482  1  0.727070  0.067690  0.108250  1.0  -0.1345
  C  C483  1  0.704130  0.001700  0.040870  1.0  0.686
  C  C484  1  0.613790  0.033290  0.127960  1.0  -0.0263
  C  C485  1  0.575850  0.023000  0.113110  1.0  -0.0673
  C  C486  1  0.536960  0.012130  0.128200  1.0  -0.0257
  C  C487  1  0.536470  0.010790  0.158280  1.0  0.1211
  C  C488  1  0.574590  0.020470  0.173230  1.0  -0.1248
  C  C489  1  0.612850  0.032050  0.157830  1.0  -0.0966
  C  C490  1  0.170570  0.810930  0.118360  1.0  0.6824
  C  C491  1  0.168760  0.768740  0.101950  1.0  -0.1356
  C  C492  1  0.142240  0.764850  0.077970  1.0  0.034
  C  C493  1  0.137990  0.725970  0.063950  1.0  -0.1326
  C  C494  1  0.161400  0.689830  0.073930  1.0  -0.0587
  C  C495  1  0.188380  0.694010  0.097830  1.0  0.0099
  C  C496  1  0.191850  0.733110  0.111500  1.0  -0.081
  C  C497  1  0.106530  0.720480  0.039380  1.0  0.6829
  C  C498  1  0.211970  0.654430  0.109500  1.0  0.0038
  C  C499  1  0.225320  0.621650  0.091820  1.0  -0.0941
  C  C500  1  0.244870  0.584350  0.102990  1.0  -0.1411
  C  C501  1  0.251050  0.579860  0.132890  1.0  0.1287
  C  C502  1  0.239350  0.615330  0.151270  1.0  -0.0137
  C  C503  1  0.220190  0.651280  0.139290  1.0  -0.0733
  C  C504  1  0.248220  0.614070  0.181950  1.0  0.1823
  C  C505  1  0.269010  0.574160  0.193040  1.0  0.0221
  C  C506  1  0.281080  0.542140  0.172900  1.0  0.1341
  C  C507  1  0.299860  0.504000  0.185450  1.0  -0.0301
  C  C508  1  0.309990  0.500740  0.213550  1.0  -0.1533
  C  C509  1  0.299450  0.534850  0.233160  1.0  0.0292
  C  C510  1  0.278850  0.570220  0.222260  1.0  -0.0495
  C  C511  1  0.312640  0.531960  0.263770  1.0  0.0604
  C  C512  1  0.314510  0.492110  0.278570  1.0  -0.0739
  C  C513  1  0.328390  0.489400  0.307440  1.0  -0.1393
  C  C514  1  0.340910  0.526860  0.321820  1.0  0.0209
  C  C515  1  0.338450  0.566400  0.308110  1.0  -0.1408
  C  C516  1  0.324140  0.569130  0.279510  1.0  -0.0712
  C  C517  1  0.329450  0.447390  0.323040  1.0  0.6806
  C  C518  1  0.351750  0.606010  0.324840  1.0  0.6885
  C  C519  1  0.234690  0.909460  0.122070  1.0  0.683
  C  C520  1  0.267600  0.951340  0.081200  1.0  0.0241
  C  C521  1  0.301460  0.974040  0.068990  1.0  -0.1273
  C  C522  1  0.340890  0.977940  0.084150  1.0  -0.0677
  C  C523  1  0.345590  0.959450  0.111700  1.0  0.0191
  C  C524  1  0.311410  0.935550  0.123080  1.0  -0.0586
  C  C525  1  0.272930  0.932310  0.108250  1.0  -0.1346
  C  C526  1  0.295870  0.998300  0.040870  1.0  0.6867
  C  C527  1  0.386210  0.966710  0.127960  1.0  -0.0266
  C  C528  1  0.424150  0.977000  0.113110  1.0  -0.067
  C  C529  1  0.463040  0.987870  0.128200  1.0  -0.0271
  C  C530  1  0.463530  0.989210  0.158280  1.0  0.1214
  C  C531  1  0.425410  0.979530  0.173230  1.0  -0.1256
  C  C532  1  0.387150  0.967950  0.157830  1.0  -0.0975
  C  C533  1  0.310930  0.670570  0.381640  1.0  0.6826
  C  C534  1  0.268740  0.668760  0.398050  1.0  -0.1362
  C  C535  1  0.264850  0.642240  0.422030  1.0  0.0349
  C  C536  1  0.225970  0.637990  0.436050  1.0  -0.1328
  C  C537  1  0.189830  0.661400  0.426070  1.0  -0.0615
  C  C538  1  0.194010  0.688380  0.402170  1.0  0.0098
  C  C539  1  0.233110  0.691850  0.388500  1.0  -0.08
  C  C540  1  0.220480  0.606530  0.460620  1.0  0.6835
  C  C541  1  0.154430  0.711970  0.390500  1.0  0.0034
  C  C542  1  0.121650  0.725320  0.408180  1.0  -0.0935
  C  C543  1  0.084350  0.744870  0.397010  1.0  -0.1422
  C  C544  1  0.079860  0.751050  0.367110  1.0  0.1289
  C  C545  1  0.115330  0.739350  0.348730  1.0  -0.0129
  C  C546  1  0.151280  0.720190  0.360710  1.0  -0.0738
  C  C547  1  0.114070  0.748220  0.318050  1.0  0.1815
  C  C548  1  0.074160  0.769010  0.306960  1.0  0.023
  C  C549  1  0.042140  0.781080  0.327100  1.0  0.1332
  C  C550  1  0.004000  0.799860  0.314550  1.0  -0.0283
  C  C551  1  0.000740  0.809990  0.286450  1.0  -0.1542
  C  C552  1  0.034850  0.799450  0.266840  1.0  0.0284
  C  C553  1  0.070220  0.778850  0.277740  1.0  -0.0474
  C  C554  1  0.031960  0.812640  0.236230  1.0  0.0603
  C  C555  1  0.992110  0.814510  0.221430  1.0  -0.0757
  C  C556  1  0.989400  0.828390  0.192560  1.0  -0.1393
  C  C557  1  0.026860  0.840910  0.178180  1.0  0.0206
  C  C558  1  0.066400  0.838450  0.191890  1.0  -0.1404
  C  C559  1  0.069130  0.824140  0.220490  1.0  -0.0721
  C  C560  1  0.947390  0.829450  0.176960  1.0  0.6793
  C  C561  1  0.106010  0.851750  0.175160  1.0  0.6885
  C  C562  1  0.409460  0.734690  0.377930  1.0  0.6827
  C  C563  1  0.451340  0.767600  0.418800  1.0  0.0228
  C  C564  1  0.474040  0.801460  0.431010  1.0  -0.1292
  C  C565  1  0.477940  0.840890  0.415850  1.0  -0.0678
  C  C566  1  0.459450  0.845590  0.388300  1.0  0.0191
  C  C567  1  0.435550  0.811410  0.376920  1.0  -0.0586
  C  C568  1  0.432310  0.772930  0.391750  1.0  -0.1362
  C  C569  1  0.498300  0.795870  0.459130  1.0  0.6866
  C  C570  1  0.466710  0.886210  0.372040  1.0  -0.027
  C  C571  1  0.477000  0.924150  0.386890  1.0  -0.0675
  C  C572  1  0.487870  0.963040  0.371800  1.0  -0.0271
  C  C573  1  0.489210  0.963530  0.341720  1.0  0.1217
  C  C574  1  0.479530  0.925410  0.326770  1.0  -0.127
  C  C575  1  0.467950  0.887150  0.342170  1.0  -0.099
  C  C576  1  0.689070  0.329430  0.381640  1.0  0.6823
  C  C577  1  0.731260  0.331240  0.398050  1.0  -0.137
  C  C578  1  0.735150  0.357760  0.422030  1.0  0.0349
  C  C579  1  0.774030  0.362010  0.436050  1.0  -0.1326
  C  C580  1  0.810170  0.338600  0.426070  1.0  -0.0613
  C  C581  1  0.805990  0.311620  0.402170  1.0  0.0097
  C  C582  1  0.766890  0.308150  0.388500  1.0  -0.0803
  C  C583  1  0.779520  0.393470  0.460620  1.0  0.6837
  C  C584  1  0.845570  0.288030  0.390500  1.0  0.0036
  C  C585  1  0.878350  0.274680  0.408180  1.0  -0.0932
  C  C586  1  0.915650  0.255130  0.397010  1.0  -0.1386
  C  C587  1  0.920140  0.248950  0.367110  1.0  0.1281
  C  C588  1  0.884670  0.260650  0.348730  1.0  -0.0141
  C  C589  1  0.848720  0.279810  0.360710  1.0  -0.0757
  C  C590  1  0.885930  0.251780  0.318050  1.0  0.1797
  C  C591  1  0.925840  0.230990  0.306960  1.0  0.0216
  C  C592  1  0.957860  0.218920  0.327100  1.0  0.1338
  C  C593  1  0.996000  0.200140  0.314550  1.0  -0.0266
  C  C594  1  0.999260  0.190010  0.286450  1.0  -0.1532
  C  C595  1  0.965150  0.200550  0.266840  1.0  0.0289
  C  C596  1  0.929780  0.221150  0.277740  1.0  -0.048
  C  C597  1  0.968040  0.187360  0.236230  1.0  0.0604
  C  C598  1  0.007890  0.185490  0.221430  1.0  -0.0744
  C  C599  1  0.010600  0.171610  0.192560  1.0  -0.1391
  C  C600  1  0.973140  0.159090  0.178180  1.0  0.021
  C  C601  1  0.933600  0.161550  0.191890  1.0  -0.1405
  C  C602  1  0.930870  0.175860  0.220490  1.0  -0.0735
  C  C603  1  0.052610  0.170550  0.176960  1.0  0.6795
  C  C604  1  0.893990  0.148250  0.175160  1.0  0.6891
  C  C605  1  0.590540  0.265310  0.377930  1.0  0.6831
  C  C606  1  0.548660  0.232400  0.418800  1.0  0.024
  C  C607  1  0.525960  0.198540  0.431010  1.0  -0.1283
  C  C608  1  0.522060  0.159110  0.415850  1.0  -0.068
  C  C609  1  0.540550  0.154410  0.388300  1.0  0.019
  C  C610  1  0.564450  0.188590  0.376920  1.0  -0.0587
  C  C611  1  0.567690  0.227070  0.391750  1.0  -0.1363
  C  C612  1  0.501700  0.204130  0.459130  1.0  0.6867
  C  C613  1  0.533290  0.113790  0.372040  1.0  -0.027
  C  C614  1  0.523000  0.075850  0.386890  1.0  -0.0677
  C  C615  1  0.512130  0.036960  0.371800  1.0  -0.0285
  C  C616  1  0.510790  0.036470  0.341720  1.0  0.1212
  C  C617  1  0.520470  0.074590  0.326770  1.0  -0.1282
  C  C618  1  0.532050  0.112850  0.342170  1.0  -0.0986
  C  C619  1  0.670570  0.689070  0.381640  1.0  0.6823
  C  C620  1  0.668760  0.731260  0.398050  1.0  -0.1361
  C  C621  1  0.642240  0.735150  0.422030  1.0  0.0353
  C  C622  1  0.637990  0.774030  0.436050  1.0  -0.1324
  C  C623  1  0.661400  0.810170  0.426070  1.0  -0.06
  C  C624  1  0.688380  0.805990  0.402170  1.0  0.0097
  C  C625  1  0.691850  0.766890  0.388500  1.0  -0.0815
  C  C626  1  0.606530  0.779520  0.460620  1.0  0.6832
  C  C627  1  0.711970  0.845570  0.390500  1.0  0.0035
  C  C628  1  0.725320  0.878350  0.408180  1.0  -0.0927
  C  C629  1  0.744870  0.915650  0.397010  1.0  -0.1396
  C  C630  1  0.751050  0.920140  0.367110  1.0  0.1306
  C  C631  1  0.739350  0.884670  0.348730  1.0  -0.0135
  C  C632  1  0.720190  0.848720  0.360710  1.0  -0.0723
  C  C633  1  0.748220  0.885930  0.318050  1.0  0.1824
  C  C634  1  0.769010  0.925840  0.306960  1.0  0.0224
  C  C635  1  0.781080  0.957860  0.327100  1.0  0.1333
  C  C636  1  0.799860  0.996000  0.314550  1.0  -0.0286
  C  C637  1  0.809990  0.999260  0.286450  1.0  -0.1535
  C  C638  1  0.799450  0.965150  0.266840  1.0  0.0289
  C  C639  1  0.778850  0.929780  0.277740  1.0  -0.0482
  C  C640  1  0.812640  0.968040  0.236230  1.0  0.0602
  C  C641  1  0.814510  0.007890  0.221430  1.0  -0.0746
  C  C642  1  0.828390  0.010600  0.192560  1.0  -0.1388
  C  C643  1  0.840910  0.973140  0.178180  1.0  0.021
  C  C644  1  0.838450  0.933600  0.191890  1.0  -0.1402
  C  C645  1  0.824140  0.930870  0.220490  1.0  -0.0704
  C  C646  1  0.829450  0.052610  0.176960  1.0  0.6803
  C  C647  1  0.851750  0.893990  0.175160  1.0  0.6883
  C  C648  1  0.734690  0.590540  0.377930  1.0  0.6824
  C  C649  1  0.767600  0.548660  0.418800  1.0  0.0238
  C  C650  1  0.801460  0.525960  0.431010  1.0  -0.1275
  C  C651  1  0.840890  0.522060  0.415850  1.0  -0.0685
  C  C652  1  0.845590  0.540550  0.388300  1.0  0.0197
  C  C653  1  0.811410  0.564450  0.376920  1.0  -0.058
  C  C654  1  0.772930  0.567690  0.391750  1.0  -0.1344
  C  C655  1  0.795870  0.501700  0.459130  1.0  0.6858
  C  C656  1  0.886210  0.533290  0.372040  1.0  -0.0257
  C  C657  1  0.924150  0.523000  0.386890  1.0  -0.0682
  C  C658  1  0.963040  0.512130  0.371800  1.0  -0.0269
  C  C659  1  0.963530  0.510790  0.341720  1.0  0.1215
  C  C660  1  0.925410  0.520470  0.326770  1.0  -0.1271
  C  C661  1  0.887150  0.532050  0.342170  1.0  -0.0987
  C  C662  1  0.329430  0.310930  0.381640  1.0  0.6827
  C  C663  1  0.331240  0.268740  0.398050  1.0  -0.1347
  C  C664  1  0.357760  0.264850  0.422030  1.0  0.0348
  C  C665  1  0.362010  0.225970  0.436050  1.0  -0.1327
  C  C666  1  0.338600  0.189830  0.426070  1.0  -0.0589
  C  C667  1  0.311620  0.194010  0.402170  1.0  0.0097
  C  C668  1  0.308150  0.233110  0.388500  1.0  -0.0814
  C  C669  1  0.393470  0.220480  0.460620  1.0  0.6827
  C  C670  1  0.288030  0.154430  0.390500  1.0  0.0034
  C  C671  1  0.274680  0.121650  0.408180  1.0  -0.0944
  C  C672  1  0.255130  0.084350  0.397010  1.0  -0.1424
  C  C673  1  0.248950  0.079860  0.367110  1.0  0.1287
  C  C674  1  0.260650  0.115330  0.348730  1.0  -0.0129
  C  C675  1  0.279810  0.151280  0.360710  1.0  -0.0732
  C  C676  1  0.251780  0.114070  0.318050  1.0  0.1814
  C  C677  1  0.230990  0.074160  0.306960  1.0  0.0229
  C  C678  1  0.218920  0.042140  0.327100  1.0  0.133
  C  C679  1  0.200140  0.004000  0.314550  1.0  -0.0302
  C  C680  1  0.190010  0.000740  0.286450  1.0  -0.1544
  C  C681  1  0.200550  0.034850  0.266840  1.0  0.0289
  C  C682  1  0.221150  0.070220  0.277740  1.0  -0.0482
  C  C683  1  0.187360  0.031960  0.236230  1.0  0.0602
  C  C684  1  0.185490  0.992110  0.221430  1.0  -0.0733
  C  C685  1  0.171610  0.989400  0.192560  1.0  -0.1391
  C  C686  1  0.159090  0.026860  0.178180  1.0  0.0211
  C  C687  1  0.161550  0.066400  0.191890  1.0  -0.1404
  C  C688  1  0.175860  0.069130  0.220490  1.0  -0.072
  C  C689  1  0.170550  0.947390  0.176960  1.0  0.6805
  C  C690  1  0.148250  0.106010  0.175160  1.0  0.6884
  C  C691  1  0.265310  0.409460  0.377930  1.0  0.6826
  C  C692  1  0.232400  0.451340  0.418800  1.0  0.0249
  C  C693  1  0.198540  0.474040  0.431010  1.0  -0.1279
  C  C694  1  0.159110  0.477940  0.415850  1.0  -0.0685
  C  C695  1  0.154410  0.459450  0.388300  1.0  0.0202
  C  C696  1  0.188590  0.435550  0.376920  1.0  -0.0579
  C  C697  1  0.227070  0.432310  0.391750  1.0  -0.1345
  C  C698  1  0.204130  0.498300  0.459130  1.0  0.6859
  C  C699  1  0.113790  0.466710  0.372040  1.0  -0.0267
  C  C700  1  0.075850  0.477000  0.386890  1.0  -0.0683
  C  C701  1  0.036960  0.487870  0.371800  1.0  -0.0287
  C  C702  1  0.036470  0.489210  0.341720  1.0  0.1212
  C  C703  1  0.074590  0.479530  0.326770  1.0  -0.1284
  C  C704  1  0.112850  0.467950  0.342170  1.0  -0.0983
  C  C705  1  0.810930  0.829430  0.881640  1.0  0.6823
  C  C706  1  0.768740  0.831240  0.898050  1.0  -0.136
  C  C707  1  0.764850  0.857760  0.922030  1.0  0.0346
  C  C708  1  0.725970  0.862010  0.936050  1.0  -0.1328
  C  C709  1  0.689830  0.838600  0.926070  1.0  -0.0615
  C  C710  1  0.694010  0.811620  0.902170  1.0  0.0097
  C  C711  1  0.733110  0.808150  0.888500  1.0  -0.0804
  C  C712  1  0.720480  0.893470  0.960620  1.0  0.6837
  C  C713  1  0.654430  0.788030  0.890500  1.0  0.0033
  C  C714  1  0.621650  0.774680  0.908180  1.0  -0.0937
  C  C715  1  0.584350  0.755130  0.897010  1.0  -0.1409
  C  C716  1  0.579860  0.748950  0.867110  1.0  0.1276
  C  C717  1  0.615330  0.760650  0.848730  1.0  -0.0128
  C  C718  1  0.651280  0.779810  0.860710  1.0  -0.0744
  C  C719  1  0.614070  0.751780  0.818050  1.0  0.1812
  C  C720  1  0.574160  0.730990  0.806960  1.0  0.0225
  C  C721  1  0.542140  0.718920  0.827100  1.0  0.1332
  C  C722  1  0.504000  0.700140  0.814550  1.0  -0.028
  C  C723  1  0.500740  0.690010  0.786450  1.0  -0.1547
  C  C724  1  0.534850  0.700550  0.766840  1.0  0.0284
  C  C725  1  0.570220  0.721150  0.777740  1.0  -0.0471
  C  C726  1  0.531960  0.687360  0.736230  1.0  0.0603
  C  C727  1  0.492110  0.685490  0.721430  1.0  -0.0757
  C  C728  1  0.489400  0.671610  0.692560  1.0  -0.1394
  C  C729  1  0.526860  0.659090  0.678180  1.0  0.0209
  C  C730  1  0.566400  0.661550  0.691890  1.0  -0.1404
  C  C731  1  0.569130  0.675860  0.720490  1.0  -0.0722
  C  C732  1  0.447390  0.670550  0.676960  1.0  0.6792
  C  C733  1  0.606010  0.648250  0.675160  1.0  0.6882
  C  C734  1  0.909460  0.765310  0.877930  1.0  0.6832
  C  C735  1  0.951340  0.732400  0.918800  1.0  0.0225
  C  C736  1  0.974040  0.698540  0.931010  1.0  -0.1292
  C  C737  1  0.977940  0.659110  0.915850  1.0  -0.067
  C  C738  1  0.959450  0.654410  0.888300  1.0  0.0191
  C  C739  1  0.935550  0.688590  0.876920  1.0  -0.059
  C  C740  1  0.932310  0.727070  0.891750  1.0  -0.1359
  C  C741  1  0.998300  0.704130  0.959130  1.0  0.6866
  C  C742  1  0.966710  0.613790  0.872040  1.0  -0.0267
  C  C743  1  0.977000  0.575850  0.886890  1.0  -0.0672
  C  C744  1  0.987870  0.536960  0.871800  1.0  -0.027
  C  C745  1  0.989210  0.536470  0.841720  1.0  0.1215
  C  C746  1  0.979530  0.574590  0.826770  1.0  -0.1279
  C  C747  1  0.967950  0.612850  0.842170  1.0  -0.0994
  C  C748  1  0.189070  0.170570  0.881640  1.0  0.6828
  C  C749  1  0.231260  0.168760  0.898050  1.0  -0.1373
  C  C750  1  0.235150  0.142240  0.922030  1.0  0.0349
  C  C751  1  0.274030  0.137990  0.936050  1.0  -0.1326
  C  C752  1  0.310170  0.161400  0.926070  1.0  -0.0614
  C  C753  1  0.305990  0.188380  0.902170  1.0  0.0098
  C  C754  1  0.266890  0.191850  0.888500  1.0  -0.0798
  C  C755  1  0.279520  0.106530  0.960620  1.0  0.6835
  C  C756  1  0.345570  0.211970  0.890500  1.0  0.0037
  C  C757  1  0.378350  0.225320  0.908180  1.0  -0.0933
  C  C758  1  0.415650  0.244870  0.897010  1.0  -0.1395
  C  C759  1  0.420140  0.251050  0.867110  1.0  0.1295
  C  C760  1  0.384670  0.239350  0.848730  1.0  -0.0141
  C  C761  1  0.348720  0.220190  0.860710  1.0  -0.0753
  C  C762  1  0.385930  0.248220  0.818050  1.0  0.1799
  C  C763  1  0.425840  0.269010  0.806960  1.0  0.0219
  C  C764  1  0.457860  0.281080  0.827100  1.0  0.1335
  C  C765  1  0.496000  0.299860  0.814550  1.0  -0.0267
  C  C766  1  0.499260  0.309990  0.786450  1.0  -0.1528
  C  C767  1  0.465150  0.299450  0.766840  1.0  0.0289
  C  C768  1  0.429780  0.278850  0.777740  1.0  -0.0484
  C  C769  1  0.468040  0.312640  0.736230  1.0  0.0604
  C  C770  1  0.507890  0.314510  0.721430  1.0  -0.0744
  C  C771  1  0.510600  0.328390  0.692560  1.0  -0.1391
  C  C772  1  0.473140  0.340910  0.678180  1.0  0.0206
  C  C773  1  0.433600  0.338450  0.691890  1.0  -0.1404
  C  C774  1  0.430870  0.324140  0.720490  1.0  -0.0735
  C  C775  1  0.552610  0.329450  0.676960  1.0  0.6796
  C  C776  1  0.393990  0.351750  0.675160  1.0  0.6893
  C  C777  1  0.090540  0.234690  0.877930  1.0  0.6826
  C  C778  1  0.048660  0.267600  0.918800  1.0  0.0239
  C  C779  1  0.025960  0.301460  0.931010  1.0  -0.1283
  C  C780  1  0.022060  0.340890  0.915850  1.0  -0.0687
  C  C781  1  0.040550  0.345590  0.888300  1.0  0.0188
  C  C782  1  0.064450  0.311410  0.876920  1.0  -0.0584
  C  C783  1  0.067690  0.272930  0.891750  1.0  -0.1358
  C  C784  1  0.001700  0.295870  0.959130  1.0  0.6866
  C  C785  1  0.033290  0.386210  0.872040  1.0  -0.0272
  C  C786  1  0.023000  0.424150  0.886890  1.0  -0.0678
  C  C787  1  0.012130  0.463040  0.871800  1.0  -0.0287
  C  C788  1  0.010790  0.463530  0.841720  1.0  0.1215
  C  C789  1  0.020470  0.425410  0.826770  1.0  -0.1272
  C  C790  1  0.032050  0.387150  0.842170  1.0  -0.098
  C  C791  1  0.170570  0.810930  0.881640  1.0  0.6823
  C  C792  1  0.168760  0.768740  0.898050  1.0  -0.1354
  C  C793  1  0.142240  0.764850  0.922030  1.0  0.0341
  C  C794  1  0.137990  0.725970  0.936050  1.0  -0.1323
  C  C795  1  0.161400  0.689830  0.926070  1.0  -0.0586
  C  C796  1  0.188380  0.694010  0.902170  1.0  0.0097
  C  C797  1  0.191850  0.733110  0.888500  1.0  -0.0807
  C  C798  1  0.106530  0.720480  0.960620  1.0  0.683
  C  C799  1  0.211970  0.654430  0.890500  1.0  0.0037
  C  C800  1  0.225320  0.621650  0.908180  1.0  -0.0936
  C  C801  1  0.244870  0.584350  0.897010  1.0  -0.1399
  C  C802  1  0.251050  0.579860  0.867110  1.0  0.129
  C  C803  1  0.239350  0.615330  0.848730  1.0  -0.0134
  C  C804  1  0.220190  0.651280  0.860710  1.0  -0.0732
  C  C805  1  0.248220  0.614070  0.818050  1.0  0.1818
  C  C806  1  0.269010  0.574160  0.806960  1.0  0.0223
  C  C807  1  0.281080  0.542140  0.827100  1.0  0.1325
  C  C808  1  0.299860  0.504000  0.814550  1.0  -0.0288
  C  C809  1  0.309990  0.500740  0.786450  1.0  -0.1537
  C  C810  1  0.299450  0.534850  0.766840  1.0  0.0289
  C  C811  1  0.278850  0.570220  0.777740  1.0  -0.0488
  C  C812  1  0.312640  0.531960  0.736230  1.0  0.0602
  C  C813  1  0.314510  0.492110  0.721430  1.0  -0.0741
  C  C814  1  0.328390  0.489400  0.692560  1.0  -0.1392
  C  C815  1  0.340910  0.526860  0.678180  1.0  0.021
  C  C816  1  0.338450  0.566400  0.691890  1.0  -0.1405
  C  C817  1  0.324140  0.569130  0.720490  1.0  -0.0717
  C  C818  1  0.329450  0.447390  0.676960  1.0  0.6802
  C  C819  1  0.351750  0.606010  0.675160  1.0  0.6884
  C  C820  1  0.234690  0.909460  0.877930  1.0  0.6829
  C  C821  1  0.267600  0.951340  0.918800  1.0  0.0242
  C  C822  1  0.301460  0.974040  0.931010  1.0  -0.1279
  C  C823  1  0.340890  0.977940  0.915850  1.0  -0.0678
  C  C824  1  0.345590  0.959450  0.888300  1.0  0.0193
  C  C825  1  0.311410  0.935550  0.876920  1.0  -0.0586
  C  C826  1  0.272930  0.932310  0.891750  1.0  -0.1347
  C  C827  1  0.295870  0.998300  0.959130  1.0  0.686
  C  C828  1  0.386210  0.966710  0.872040  1.0  -0.0265
  C  C829  1  0.424150  0.977000  0.886890  1.0  -0.0681
  C  C830  1  0.463040  0.987870  0.871800  1.0  -0.0268
  C  C831  1  0.463530  0.989210  0.841720  1.0  0.1213
  C  C832  1  0.425410  0.979530  0.826770  1.0  -0.127
  C  C833  1  0.387150  0.967950  0.842170  1.0  -0.0981
  C  C834  1  0.829430  0.189070  0.881640  1.0  0.6827
  C  C835  1  0.831240  0.231260  0.898050  1.0  -0.1355
  C  C836  1  0.857760  0.235150  0.922030  1.0  0.0357
  C  C837  1  0.862010  0.274030  0.936050  1.0  -0.1327
  C  C838  1  0.838600  0.310170  0.926070  1.0  -0.0602
  C  C839  1  0.811620  0.305990  0.902170  1.0  0.0097
  C  C840  1  0.808150  0.266890  0.888500  1.0  -0.0818
  C  C841  1  0.893470  0.279520  0.960620  1.0  0.6828
  C  C842  1  0.788030  0.345570  0.890500  1.0  0.0032
  C  C843  1  0.774680  0.378350  0.908180  1.0  -0.0934
  C  C844  1  0.755130  0.415650  0.897010  1.0  -0.1426
  C  C845  1  0.748950  0.420140  0.867110  1.0  0.1301
  C  C846  1  0.760650  0.384670  0.848730  1.0  -0.0132
  C  C847  1  0.779810  0.348720  0.860710  1.0  -0.0719
  C  C848  1  0.751780  0.385930  0.818050  1.0  0.1814
  C  C849  1  0.730990  0.425840  0.806960  1.0  0.0233
  C  C850  1  0.718920  0.457860  0.827100  1.0  0.1339
  C  C851  1  0.700140  0.496000  0.814550  1.0  -0.0308
  C  C852  1  0.690010  0.499260  0.786450  1.0  -0.1548
  C  C853  1  0.700550  0.465150  0.766840  1.0  0.0289
  C  C854  1  0.721150  0.429780  0.777740  1.0  -0.0468
  C  C855  1  0.687360  0.468040  0.736230  1.0  0.0602
  C  C856  1  0.685490  0.507890  0.721430  1.0  -0.0742
  C  C857  1  0.671610  0.510600  0.692560  1.0  -0.1386
  C  C858  1  0.659090  0.473140  0.678180  1.0  0.0211
  C  C859  1  0.661550  0.433600  0.691890  1.0  -0.1403
  C  C860  1  0.675860  0.430870  0.720490  1.0  -0.0707
  C  C861  1  0.670550  0.552610  0.676960  1.0  0.6805
  C  C862  1  0.648250  0.393990  0.675160  1.0  0.6883
  C  C863  1  0.765310  0.090540  0.877930  1.0  0.6823
  C  C864  1  0.732400  0.048660  0.918800  1.0  0.0248
  C  C865  1  0.698540  0.025960  0.931010  1.0  -0.1276
  C  C866  1  0.659110  0.022060  0.915850  1.0  -0.0691
  C  C867  1  0.654410  0.040550  0.888300  1.0  0.0205
  C  C868  1  0.688590  0.064450  0.876920  1.0  -0.0578
  C  C869  1  0.727070  0.067690  0.891750  1.0  -0.1345
  C  C870  1  0.704130  0.001700  0.959130  1.0  0.6858
  C  C871  1  0.613790  0.033290  0.872040  1.0  -0.026
  C  C872  1  0.575850  0.023000  0.886890  1.0  -0.0683
  C  C873  1  0.536960  0.012130  0.871800  1.0  -0.0288
  C  C874  1  0.536470  0.010790  0.841720  1.0  0.1213
  C  C875  1  0.574590  0.020470  0.826770  1.0  -0.1286
  C  C876  1  0.612850  0.032050  0.842170  1.0  -0.0988
  C  C877  1  0.689070  0.329430  0.618360  1.0  0.6824
  C  C878  1  0.731260  0.331240  0.601950  1.0  -0.1368
  C  C879  1  0.735150  0.357760  0.577970  1.0  0.0344
  C  C880  1  0.774030  0.362010  0.563950  1.0  -0.1326
  C  C881  1  0.810170  0.338600  0.573930  1.0  -0.0615
  C  C882  1  0.805990  0.311620  0.597830  1.0  0.0098
  C  C883  1  0.766890  0.308150  0.611500  1.0  -0.0808
  C  C884  1  0.779520  0.393470  0.539380  1.0  0.6837
  C  C885  1  0.845570  0.288030  0.609500  1.0  0.0039
  C  C886  1  0.878350  0.274680  0.591820  1.0  -0.0939
  C  C887  1  0.915650  0.255130  0.602990  1.0  -0.1391
  C  C888  1  0.920140  0.248950  0.632890  1.0  0.1276
  C  C889  1  0.884670  0.260650  0.651270  1.0  -0.0147
  C  C890  1  0.848720  0.279810  0.639290  1.0  -0.0757
  C  C891  1  0.885930  0.251780  0.681950  1.0  0.1797
  C  C892  1  0.925840  0.230990  0.693040  1.0  0.0212
  C  C893  1  0.957860  0.218920  0.672900  1.0  0.1354
  C  C894  1  0.996000  0.200140  0.685450  1.0  -0.0283
  C  C895  1  0.999260  0.190010  0.713550  1.0  -0.1519
  C  C896  1  0.965150  0.200550  0.733160  1.0  0.0291
  C  C897  1  0.929780  0.221150  0.722260  1.0  -0.0488
  C  C898  1  0.968040  0.187360  0.763770  1.0  0.0606
  C  C899  1  0.007890  0.185490  0.778570  1.0  -0.0744
  C  C900  1  0.010600  0.171610  0.807440  1.0  -0.1393
  C  C901  1  0.973140  0.159090  0.821820  1.0  0.0208
  C  C902  1  0.933600  0.161550  0.808110  1.0  -0.1406
  C  C903  1  0.930870  0.175860  0.779510  1.0  -0.0732
  C  C904  1  0.052610  0.170550  0.823040  1.0  0.6799
  C  C905  1  0.893990  0.148250  0.824840  1.0  0.6893
  C  C906  1  0.590540  0.265310  0.622070  1.0  0.683
  C  C907  1  0.548660  0.232400  0.581200  1.0  0.0238
  C  C908  1  0.525960  0.198540  0.568990  1.0  -0.1275
  C  C909  1  0.522060  0.159110  0.584150  1.0  -0.0675
  C  C910  1  0.540550  0.154410  0.611700  1.0  0.0188
  C  C911  1  0.564450  0.188590  0.623080  1.0  -0.0592
  C  C912  1  0.567690  0.227070  0.608250  1.0  -0.1363
  C  C913  1  0.501700  0.204130  0.540870  1.0  0.6867
  C  C914  1  0.533290  0.113790  0.627960  1.0  -0.0272
  C  C915  1  0.523000  0.075850  0.613110  1.0  -0.0674
  C  C916  1  0.512130  0.036960  0.628200  1.0  -0.0257
  C  C917  1  0.510790  0.036470  0.658280  1.0  0.1208
  C  C918  1  0.520470  0.074590  0.673230  1.0  -0.1253
  C  C919  1  0.532050  0.112850  0.657830  1.0  -0.097
  C  C920  1  0.310930  0.670570  0.618360  1.0  0.6828
  C  C921  1  0.268740  0.668760  0.601950  1.0  -0.1365
  C  C922  1  0.264850  0.642240  0.577970  1.0  0.0343
  C  C923  1  0.225970  0.637990  0.563950  1.0  -0.133
  C  C924  1  0.189830  0.661400  0.573930  1.0  -0.0618
  C  C925  1  0.194010  0.688380  0.597830  1.0  0.01
  C  C926  1  0.233110  0.691850  0.611500  1.0  -0.0802
  C  C927  1  0.220480  0.606530  0.539380  1.0  0.6834
  C  C928  1  0.154430  0.711970  0.609500  1.0  0.0036
  C  C929  1  0.121650  0.725320  0.591820  1.0  -0.0942
  C  C930  1  0.084350  0.744870  0.602990  1.0  -0.141
  C  C931  1  0.079860  0.751050  0.632890  1.0  0.1287
  C  C932  1  0.115330  0.739350  0.651270  1.0  -0.0131
  C  C933  1  0.151280  0.720190  0.639290  1.0  -0.0733
  C  C934  1  0.114070  0.748220  0.681950  1.0  0.1822
  C  C935  1  0.074160  0.769010  0.693040  1.0  0.0222
  C  C936  1  0.042140  0.781080  0.672900  1.0  0.1348
  C  C937  1  0.004000  0.799860  0.685450  1.0  -0.0288
  C  C938  1  0.000740  0.809990  0.713550  1.0  -0.1541
  C  C939  1  0.034850  0.799450  0.733160  1.0  0.0287
  C  C940  1  0.070220  0.778850  0.722260  1.0  -0.0477
  C  C941  1  0.031960  0.812640  0.763770  1.0  0.0605
  C  C942  1  0.992110  0.814510  0.778570  1.0  -0.0758
  C  C943  1  0.989400  0.828390  0.807440  1.0  -0.1395
  C  C944  1  0.026860  0.840910  0.821820  1.0  0.02
  C  C945  1  0.066400  0.838450  0.808110  1.0  -0.1406
  C  C946  1  0.069130  0.824140  0.779510  1.0  -0.0717
  C  C947  1  0.947390  0.829450  0.823040  1.0  0.6796
  C  C948  1  0.106010  0.851750  0.824840  1.0  0.6888
  C  C949  1  0.409460  0.734690  0.622070  1.0  0.6828
  C  C950  1  0.451340  0.767600  0.581200  1.0  0.0229
  C  C951  1  0.474040  0.801460  0.568990  1.0  -0.1286
  C  C952  1  0.477940  0.840890  0.584150  1.0  -0.0677
  C  C953  1  0.459450  0.845590  0.611700  1.0  0.0189
  C  C954  1  0.435550  0.811410  0.623080  1.0  -0.0591
  C  C955  1  0.432310  0.772930  0.608250  1.0  -0.1361
  C  C956  1  0.498300  0.795870  0.540870  1.0  0.6872
  C  C957  1  0.466710  0.886210  0.627960  1.0  -0.0272
  C  C958  1  0.477000  0.924150  0.613110  1.0  -0.0674
  C  C959  1  0.487870  0.963040  0.628200  1.0  -0.027
  C  C960  1  0.489210  0.963530  0.658280  1.0  0.1219
  C  C961  1  0.479530  0.925410  0.673230  1.0  -0.1254
  C  C962  1  0.467950  0.887150  0.657830  1.0  -0.0979
  C  C963  1  0.329430  0.310930  0.618360  1.0  0.6827
  C  C964  1  0.331240  0.268740  0.601950  1.0  -0.1348
  C  C965  1  0.357760  0.264850  0.577970  1.0  0.0346
  C  C966  1  0.362010  0.225970  0.563950  1.0  -0.1326
  C  C967  1  0.338600  0.189830  0.573930  1.0  -0.0593
  C  C968  1  0.311620  0.194010  0.597830  1.0  0.0098
  C  C969  1  0.308150  0.233110  0.611500  1.0  -0.0815
  C  C970  1  0.393470  0.220480  0.539380  1.0  0.6826
  C  C971  1  0.288030  0.154430  0.609500  1.0  0.0036
  C  C972  1  0.274680  0.121650  0.591820  1.0  -0.0942
  C  C973  1  0.255130  0.084350  0.602990  1.0  -0.1413
  C  C974  1  0.248950  0.079860  0.632890  1.0  0.1285
  C  C975  1  0.260650  0.115330  0.651270  1.0  -0.0134
  C  C976  1  0.279810  0.151280  0.639290  1.0  -0.0725
  C  C977  1  0.251780  0.114070  0.681950  1.0  0.183
  C  C978  1  0.230990  0.074160  0.693040  1.0  0.0225
  C  C979  1  0.218920  0.042140  0.672900  1.0  0.1346
  C  C980  1  0.200140  0.004000  0.685450  1.0  -0.0305
  C  C981  1  0.190010  0.000740  0.713550  1.0  -0.154
  C  C982  1  0.200550  0.034850  0.733160  1.0  0.0291
  C  C983  1  0.221150  0.070220  0.722260  1.0  -0.0487
  C  C984  1  0.187360  0.031960  0.763770  1.0  0.0605
  C  C985  1  0.185490  0.992110  0.778570  1.0  -0.0732
  C  C986  1  0.171610  0.989400  0.807440  1.0  -0.1391
  C  C987  1  0.159090  0.026860  0.821820  1.0  0.0197
  C  C988  1  0.161550  0.066400  0.808110  1.0  -0.1406
  C  C989  1  0.175860  0.069130  0.779510  1.0  -0.0715
  C  C990  1  0.170550  0.947390  0.823040  1.0  0.6808
  C  C991  1  0.148250  0.106010  0.824840  1.0  0.6886
  C  C992  1  0.265310  0.409460  0.622070  1.0  0.6827
  C  C993  1  0.232400  0.451340  0.581200  1.0  0.0248
  C  C994  1  0.198540  0.474040  0.568990  1.0  -0.1272
  C  C995  1  0.159110  0.477940  0.584150  1.0  -0.0683
  C  C996  1  0.154410  0.459450  0.611700  1.0  0.0199
  C  C997  1  0.188590  0.435550  0.623080  1.0  -0.0584
  C  C998  1  0.227070  0.432310  0.608250  1.0  -0.1343
  C  C999  1  0.204130  0.498300  0.540870  1.0  0.6861
  C  C1000  1  0.113790  0.466710  0.627960  1.0  -0.0268
  C  C1001  1  0.075850  0.477000  0.613110  1.0  -0.0667
  C  C1002  1  0.036960  0.487870  0.628200  1.0  -0.0259
  C  C1003  1  0.036470  0.489210  0.658280  1.0  0.1211
  C  C1004  1  0.074590  0.479530  0.673230  1.0  -0.1247
  C  C1005  1  0.112850  0.467950  0.657830  1.0  -0.0964
  C  C1006  1  0.670570  0.689070  0.618360  1.0  0.6824
  C  C1007  1  0.668760  0.731260  0.601950  1.0  -0.1359
  C  C1008  1  0.642240  0.735150  0.577970  1.0  0.0344
  C  C1009  1  0.637990  0.774030  0.563950  1.0  -0.1326
  C  C1010  1  0.661400  0.810170  0.573930  1.0  -0.06
  C  C1011  1  0.688380  0.805990  0.597830  1.0  0.0099
  C  C1012  1  0.691850  0.766890  0.611500  1.0  -0.0813
  C  C1013  1  0.606530  0.779520  0.539380  1.0  0.683
  C  C1014  1  0.711970  0.845570  0.609500  1.0  0.0036
  C  C1015  1  0.725320  0.878350  0.591820  1.0  -0.0944
  C  C1016  1  0.744870  0.915650  0.602990  1.0  -0.1407
  C  C1017  1  0.751050  0.920140  0.632890  1.0  0.1298
  C  C1018  1  0.739350  0.884670  0.651270  1.0  -0.0136
  C  C1019  1  0.720190  0.848720  0.639290  1.0  -0.0726
  C  C1020  1  0.748220  0.885930  0.681950  1.0  0.1827
  C  C1021  1  0.769010  0.925840  0.693040  1.0  0.0218
  C  C1022  1  0.781080  0.957860  0.672900  1.0  0.1348
  C  C1023  1  0.799860  0.996000  0.685450  1.0  -0.0312
  C  C1024  1  0.809990  0.999260  0.713550  1.0  -0.1531
  C  C1025  1  0.799450  0.965150  0.733160  1.0  0.0292
  C  C1026  1  0.778850  0.929780  0.722260  1.0  -0.0489
  C  C1027  1  0.812640  0.968040  0.763770  1.0  0.0604
  C  C1028  1  0.814510  0.007890  0.778570  1.0  -0.0747
  C  C1029  1  0.828390  0.010600  0.807440  1.0  -0.139
  C  C1030  1  0.840910  0.973140  0.821820  1.0  0.0209
  C  C1031  1  0.838450  0.933600  0.808110  1.0  -0.1405
  C  C1032  1  0.824140  0.930870  0.779510  1.0  -0.0697
  C  C1033  1  0.829450  0.052610  0.823040  1.0  0.6807
  C  C1034  1  0.851750  0.893990  0.824840  1.0  0.6885
  C  C1035  1  0.734690  0.590540  0.622070  1.0  0.6825
  C  C1036  1  0.767600  0.548660  0.581200  1.0  0.0239
  C  C1037  1  0.801460  0.525960  0.568990  1.0  -0.1268
  C  C1038  1  0.840890  0.522060  0.584150  1.0  -0.0679
  C  C1039  1  0.845590  0.540550  0.611700  1.0  0.0193
  C  C1040  1  0.811410  0.564450  0.623080  1.0  -0.0587
  C  C1041  1  0.772930  0.567690  0.608250  1.0  -0.1345
  C  C1042  1  0.795870  0.501700  0.540870  1.0  0.6865
  C  C1043  1  0.886210  0.533290  0.627960  1.0  -0.026
  C  C1044  1  0.924150  0.523000  0.613110  1.0  -0.0676
  C  C1045  1  0.963040  0.512130  0.628200  1.0  -0.0269
  C  C1046  1  0.963530  0.510790  0.658280  1.0  0.1215
  C  C1047  1  0.925410  0.520470  0.673230  1.0  -0.1258
  C  C1048  1  0.887150  0.532050  0.657830  1.0  -0.0978
  C  C1049  1  0.000000  0.500000  0.112150  1.0  0.2366
  C  C1050  1  0.500000  0.000000  0.112150  1.0  0.2366
  C  C1051  1  0.500000  0.000000  0.387850  1.0  0.2347
  C  C1052  1  0.000000  0.500000  0.387850  1.0  0.2347
  C  C1053  1  0.000000  0.500000  0.887850  1.0  0.2347
  C  C1054  1  0.500000  0.000000  0.887850  1.0  0.2347
  C  C1055  1  0.500000  0.000000  0.612150  1.0  0.2366
  C  C1056  1  0.000000  0.500000  0.612150  1.0  0.2366
  N  N1057  1  0.455230  0.270950  0.144720  1.0  -0.276
  N  N1058  1  0.544770  0.729050  0.144720  1.0  -0.2765
  N  N1059  1  0.729050  0.455230  0.144720  1.0  -0.2744
  N  N1060  1  0.270950  0.544770  0.144720  1.0  -0.2747
  N  N1061  1  0.044770  0.770950  0.355280  1.0  -0.2769
  N  N1062  1  0.955230  0.229050  0.355280  1.0  -0.2748
  N  N1063  1  0.770950  0.955230  0.355280  1.0  -0.2743
  N  N1064  1  0.229050  0.044770  0.355280  1.0  -0.2745
  N  N1065  1  0.544770  0.729050  0.855280  1.0  -0.2765
  N  N1066  1  0.455230  0.270950  0.855280  1.0  -0.2753
  N  N1067  1  0.270950  0.544770  0.855280  1.0  -0.2746
  N  N1068  1  0.729050  0.455230  0.855280  1.0  -0.2735
  N  N1069  1  0.955230  0.229050  0.644720  1.0  -0.2751
  N  N1070  1  0.044770  0.770950  0.644720  1.0  -0.2771
  N  N1071  1  0.229050  0.044770  0.644720  1.0  -0.2746
  N  N1072  1  0.770950  0.955230  0.644720  1.0  -0.2752
  N  N1073  1  0.000000  0.500000  0.172180  1.0  -0.2704
  N  N1074  1  0.500000  0.000000  0.172180  1.0  -0.2704
  N  N1075  1  0.500000  0.000000  0.327820  1.0  -0.2693
  N  N1076  1  0.000000  0.500000  0.327820  1.0  -0.2693
  N  N1077  1  0.000000  0.500000  0.827820  1.0  -0.2693
  N  N1078  1  0.500000  0.000000  0.827820  1.0  -0.2693
  N  N1079  1  0.500000  0.000000  0.672180  1.0  -0.2704
  N  N1080  1  0.000000  0.500000  0.672180  1.0  -0.2704
  O  O1081  1  0.159060  0.147300  0.108450  1.0  -0.5568
  O  O1082  1  0.187190  0.194210  0.140580  1.0  -0.5696
  O  O1083  1  0.246480  0.088130  0.030160  1.0  -0.5635
  O  O1084  1  0.317790  0.102230  0.029480  1.0  -0.5659
  O  O1085  1  0.400010  0.374600  0.346900  1.0  -0.5772
  O  O1086  1  0.357780  0.340410  0.314620  1.0  -0.5763
  O  O1087  1  0.552790  0.348220  0.347670  1.0  -0.5827
  O  O1088  1  0.584550  0.311810  0.310900  1.0  -0.5582
  O  O1089  1  0.087450  0.199180  0.108770  1.0  -0.5677
  O  O1090  1  0.110600  0.241480  0.145230  1.0  -0.5723
  O  O1091  1  0.998670  0.259010  0.030700  1.0  -0.5617
  O  O1092  1  0.985180  0.330800  0.030660  1.0  -0.5734
  O  O1093  1  0.356690  0.239040  0.198090  1.0  -0.4292
  O  O1094  1  0.840940  0.852700  0.108450  1.0  -0.5568
  O  O1095  1  0.812810  0.805790  0.140580  1.0  -0.5695
  O  O1096  1  0.753520  0.911870  0.030160  1.0  -0.5636
  O  O1097  1  0.682210  0.897770  0.029480  1.0  -0.5675
  O  O1098  1  0.599990  0.625400  0.346900  1.0  -0.5766
  O  O1099  1  0.642220  0.659590  0.314620  1.0  -0.5766
  O  O1100  1  0.447210  0.651780  0.347670  1.0  -0.5828
  O  O1101  1  0.415450  0.688190  0.310900  1.0  -0.5586
  O  O1102  1  0.912550  0.800820  0.108770  1.0  -0.5671
  O  O1103  1  0.889400  0.758520  0.145230  1.0  -0.5721
  O  O1104  1  0.001330  0.740990  0.030700  1.0  -0.5597
  O  O1105  1  0.014820  0.669200  0.030660  1.0  -0.5739
  O  O1106  1  0.643310  0.760960  0.198090  1.0  -0.4301
  O  O1107  1  0.852700  0.159060  0.108450  1.0  -0.557
  O  O1108  1  0.805790  0.187190  0.140580  1.0  -0.5689
  O  O1109  1  0.911870  0.246480  0.030160  1.0  -0.5655
  O  O1110  1  0.897770  0.317790  0.029480  1.0  -0.5663
  O  O1111  1  0.625400  0.400010  0.346900  1.0  -0.5769
  O  O1112  1  0.659590  0.357780  0.314620  1.0  -0.5769
  O  O1113  1  0.651780  0.552790  0.347670  1.0  -0.5809
  O  O1114  1  0.688190  0.584550  0.310900  1.0  -0.5585
  O  O1115  1  0.800820  0.087450  0.108770  1.0  -0.5667
  O  O1116  1  0.758520  0.110600  0.145230  1.0  -0.5727
  O  O1117  1  0.740990  0.998670  0.030700  1.0  -0.5596
  O  O1118  1  0.669200  0.985180  0.030660  1.0  -0.572
  O  O1119  1  0.760960  0.356690  0.198090  1.0  -0.4272
  O  O1120  1  0.147300  0.840940  0.108450  1.0  -0.5564
  O  O1121  1  0.194210  0.812810  0.140580  1.0  -0.5697
  O  O1122  1  0.088130  0.753520  0.030160  1.0  -0.5646
  O  O1123  1  0.102230  0.682210  0.029480  1.0  -0.5657
  O  O1124  1  0.374600  0.599990  0.346900  1.0  -0.577
  O  O1125  1  0.340410  0.642220  0.314620  1.0  -0.577
  O  O1126  1  0.348220  0.447210  0.347670  1.0  -0.583
  O  O1127  1  0.311810  0.415450  0.310900  1.0  -0.5588
  O  O1128  1  0.199180  0.912550  0.108770  1.0  -0.5664
  O  O1129  1  0.241480  0.889400  0.145230  1.0  -0.5725
  O  O1130  1  0.259010  0.001330  0.030700  1.0  -0.5603
  O  O1131  1  0.330800  0.014820  0.030660  1.0  -0.5728
  O  O1132  1  0.239040  0.643310  0.198090  1.0  -0.4279
  O  O1133  1  0.340940  0.647300  0.391550  1.0  -0.5568
  O  O1134  1  0.312810  0.694210  0.359420  1.0  -0.5698
  O  O1135  1  0.253520  0.588130  0.469840  1.0  -0.5636
  O  O1136  1  0.182210  0.602230  0.470520  1.0  -0.5675
  O  O1137  1  0.099990  0.874600  0.153100  1.0  -0.5762
  O  O1138  1  0.142220  0.840410  0.185380  1.0  -0.5757
  O  O1139  1  0.947210  0.848220  0.152330  1.0  -0.5833
  O  O1140  1  0.915450  0.811810  0.189100  1.0  -0.559
  O  O1141  1  0.412550  0.699180  0.391230  1.0  -0.5667
  O  O1142  1  0.389400  0.741480  0.354770  1.0  -0.5718
  O  O1143  1  0.501330  0.759010  0.469300  1.0  -0.5611
  O  O1144  1  0.514820  0.830800  0.469340  1.0  -0.5738
  O  O1145  1  0.143310  0.739040  0.301910  1.0  -0.4307
  O  O1146  1  0.659060  0.352700  0.391550  1.0  -0.5556
  O  O1147  1  0.687190  0.305790  0.359420  1.0  -0.5698
  O  O1148  1  0.746480  0.411870  0.469840  1.0  -0.5634
  O  O1149  1  0.817790  0.397770  0.470520  1.0  -0.5665
  O  O1150  1  0.900010  0.125400  0.153100  1.0  -0.5763
  O  O1151  1  0.857780  0.159590  0.185380  1.0  -0.5764
  O  O1152  1  0.052790  0.151780  0.152330  1.0  -0.5826
  O  O1153  1  0.084550  0.188190  0.189100  1.0  -0.5577
  O  O1154  1  0.587450  0.300820  0.391230  1.0  -0.5671
  O  O1155  1  0.610600  0.258520  0.354770  1.0  -0.5713
  O  O1156  1  0.498670  0.240990  0.469300  1.0  -0.5591
  O  O1157  1  0.485180  0.169200  0.469340  1.0  -0.5736
  O  O1158  1  0.856690  0.260960  0.301910  1.0  -0.4317
  O  O1159  1  0.647300  0.659060  0.391550  1.0  -0.5562
  O  O1160  1  0.694210  0.687190  0.359420  1.0  -0.5695
  O  O1161  1  0.588130  0.746480  0.469840  1.0  -0.566
  O  O1162  1  0.602230  0.817790  0.470520  1.0  -0.5652
  O  O1163  1  0.874600  0.900010  0.153100  1.0  -0.5765
  O  O1164  1  0.840410  0.857780  0.185380  1.0  -0.5768
  O  O1165  1  0.848220  0.052790  0.152330  1.0  -0.583
  O  O1166  1  0.811810  0.084550  0.189100  1.0  -0.5593
  O  O1167  1  0.699180  0.587450  0.391230  1.0  -0.5663
  O  O1168  1  0.741480  0.610600  0.354770  1.0  -0.5719
  O  O1169  1  0.759010  0.498670  0.469300  1.0  -0.56
  O  O1170  1  0.830800  0.485180  0.469340  1.0  -0.5727
  O  O1171  1  0.739040  0.856690  0.301910  1.0  -0.4287
  O  O1172  1  0.352700  0.340940  0.391550  1.0  -0.5566
  O  O1173  1  0.305790  0.312810  0.359420  1.0  -0.5694
  O  O1174  1  0.411870  0.253520  0.469840  1.0  -0.5642
  O  O1175  1  0.397770  0.182210  0.470520  1.0  -0.5663
  O  O1176  1  0.125400  0.099990  0.153100  1.0  -0.5764
  O  O1177  1  0.159590  0.142220  0.185380  1.0  -0.5761
  O  O1178  1  0.151780  0.947210  0.152330  1.0  -0.5818
  O  O1179  1  0.188190  0.915450  0.189100  1.0  -0.5585
  O  O1180  1  0.300820  0.412550  0.391230  1.0  -0.5662
  O  O1181  1  0.258520  0.389400  0.354770  1.0  -0.5724
  O  O1182  1  0.240990  0.501330  0.469300  1.0  -0.5602
  O  O1183  1  0.169200  0.514820  0.469340  1.0  -0.5713
  O  O1184  1  0.260960  0.143310  0.301910  1.0  -0.4305
  O  O1185  1  0.840940  0.852700  0.891550  1.0  -0.5562
  O  O1186  1  0.812810  0.805790  0.859420  1.0  -0.5691
  O  O1187  1  0.753520  0.911870  0.969840  1.0  -0.5637
  O  O1188  1  0.682210  0.897770  0.970520  1.0  -0.5678
  O  O1189  1  0.599990  0.625400  0.653100  1.0  -0.5762
  O  O1190  1  0.642220  0.659590  0.685380  1.0  -0.5758
  O  O1191  1  0.447210  0.651780  0.652330  1.0  -0.5832
  O  O1192  1  0.415450  0.688190  0.689100  1.0  -0.5588
  O  O1193  1  0.912550  0.800820  0.891230  1.0  -0.5661
  O  O1194  1  0.889400  0.758520  0.854770  1.0  -0.5718
  O  O1195  1  0.001330  0.740990  0.969300  1.0  -0.5597
  O  O1196  1  0.014820  0.669200  0.969340  1.0  -0.5742
  O  O1197  1  0.643310  0.760960  0.801910  1.0  -0.4308
  O  O1198  1  0.159060  0.147300  0.891550  1.0  -0.5562
  O  O1199  1  0.187190  0.194210  0.859420  1.0  -0.5694
  O  O1200  1  0.246480  0.088130  0.969840  1.0  -0.5633
  O  O1201  1  0.317790  0.102230  0.970520  1.0  -0.566
  O  O1202  1  0.400010  0.374600  0.653100  1.0  -0.5767
  O  O1203  1  0.357780  0.340410  0.685380  1.0  -0.5762
  O  O1204  1  0.552790  0.348220  0.652330  1.0  -0.5834
  O  O1205  1  0.584550  0.311810  0.689100  1.0  -0.5582
  O  O1206  1  0.087450  0.199180  0.891230  1.0  -0.5674
  O  O1207  1  0.110600  0.241480  0.854770  1.0  -0.5717
  O  O1208  1  0.998670  0.259010  0.969300  1.0  -0.5618
  O  O1209  1  0.985180  0.330800  0.969340  1.0  -0.5736
  O  O1210  1  0.356690  0.239040  0.801910  1.0  -0.4312
  O  O1211  1  0.147300  0.840940  0.891550  1.0  -0.5559
  O  O1212  1  0.194210  0.812810  0.859420  1.0  -0.5692
  O  O1213  1  0.088130  0.753520  0.969840  1.0  -0.5644
  O  O1214  1  0.102230  0.682210  0.970520  1.0  -0.5659
  O  O1215  1  0.374600  0.599990  0.653100  1.0  -0.5767
  O  O1216  1  0.340410  0.642220  0.685380  1.0  -0.5766
  O  O1217  1  0.348220  0.447210  0.652330  1.0  -0.5827
  O  O1218  1  0.311810  0.415450  0.689100  1.0  -0.5594
  O  O1219  1  0.199180  0.912550  0.891230  1.0  -0.5664
  O  O1220  1  0.241480  0.889400  0.854770  1.0  -0.572
  O  O1221  1  0.259010  0.001330  0.969300  1.0  -0.5603
  O  O1222  1  0.330800  0.014820  0.969340  1.0  -0.5726
  O  O1223  1  0.239040  0.643310  0.801910  1.0  -0.4305
  O  O1224  1  0.852700  0.159060  0.891550  1.0  -0.5569
  O  O1225  1  0.805790  0.187190  0.859420  1.0  -0.5686
  O  O1226  1  0.911870  0.246480  0.969840  1.0  -0.5655
  O  O1227  1  0.897770  0.317790  0.970520  1.0  -0.5663
  O  O1228  1  0.625400  0.400010  0.653100  1.0  -0.5763
  O  O1229  1  0.659590  0.357780  0.685380  1.0  -0.5765
  O  O1230  1  0.651780  0.552790  0.652330  1.0  -0.5816
  O  O1231  1  0.688190  0.584550  0.689100  1.0  -0.5584
  O  O1232  1  0.800820  0.087450  0.891230  1.0  -0.566
  O  O1233  1  0.758520  0.110600  0.854770  1.0  -0.5719
  O  O1234  1  0.740990  0.998670  0.969300  1.0  -0.56
  O  O1235  1  0.669200  0.985180  0.969340  1.0  -0.5717
  O  O1236  1  0.760960  0.356690  0.801910  1.0  -0.4281
  O  O1237  1  0.659060  0.352700  0.608450  1.0  -0.5562
  O  O1238  1  0.687190  0.305790  0.640580  1.0  -0.5703
  O  O1239  1  0.746480  0.411870  0.530160  1.0  -0.5635
  O  O1240  1  0.817790  0.397770  0.529480  1.0  -0.5662
  O  O1241  1  0.900010  0.125400  0.846900  1.0  -0.5764
  O  O1242  1  0.857780  0.159590  0.814620  1.0  -0.5765
  O  O1243  1  0.052790  0.151780  0.847670  1.0  -0.5824
  O  O1244  1  0.084550  0.188190  0.810900  1.0  -0.5586
  O  O1245  1  0.587450  0.300820  0.608770  1.0  -0.5678
  O  O1246  1  0.610600  0.258520  0.645230  1.0  -0.5717
  O  O1247  1  0.498670  0.240990  0.530700  1.0  -0.559
  O  O1248  1  0.485180  0.169200  0.530660  1.0  -0.5743
  O  O1249  1  0.856690  0.260960  0.698090  1.0  -0.4294
  O  O1250  1  0.340940  0.647300  0.608450  1.0  -0.5572
  O  O1251  1  0.312810  0.694210  0.640580  1.0  -0.5698
  O  O1252  1  0.253520  0.588130  0.530160  1.0  -0.5635
  O  O1253  1  0.182210  0.602230  0.529480  1.0  -0.5673
  O  O1254  1  0.099990  0.874600  0.846900  1.0  -0.5768
  O  O1255  1  0.142220  0.840410  0.814620  1.0  -0.5762
  O  O1256  1  0.947210  0.848220  0.847670  1.0  -0.5826
  O  O1257  1  0.915450  0.811810  0.810900  1.0  -0.5582
  O  O1258  1  0.412550  0.699180  0.608770  1.0  -0.5674
  O  O1259  1  0.389400  0.741480  0.645230  1.0  -0.5724
  O  O1260  1  0.501330  0.759010  0.530700  1.0  -0.5613
  O  O1261  1  0.514820  0.830800  0.530660  1.0  -0.575
  O  O1262  1  0.143310  0.739040  0.698090  1.0  -0.4296
  O  O1263  1  0.352700  0.340940  0.608450  1.0  -0.5571
  O  O1264  1  0.305790  0.312810  0.640580  1.0  -0.5695
  O  O1265  1  0.411870  0.253520  0.530160  1.0  -0.5644
  O  O1266  1  0.397770  0.182210  0.529480  1.0  -0.5663
  O  O1267  1  0.125400  0.099990  0.846900  1.0  -0.5768
  O  O1268  1  0.159590  0.142220  0.814620  1.0  -0.5773
  O  O1269  1  0.151780  0.947210  0.847670  1.0  -0.5815
  O  O1270  1  0.188190  0.915450  0.810900  1.0  -0.5582
  O  O1271  1  0.300820  0.412550  0.608770  1.0  -0.5671
  O  O1272  1  0.258520  0.389400  0.645230  1.0  -0.5723
  O  O1273  1  0.240990  0.501330  0.530700  1.0  -0.5603
  O  O1274  1  0.169200  0.514820  0.530660  1.0  -0.572
  O  O1275  1  0.260960  0.143310  0.698090  1.0  -0.4271
  O  O1276  1  0.647300  0.659060  0.608450  1.0  -0.5565
  O  O1277  1  0.694210  0.687190  0.640580  1.0  -0.5701
  O  O1278  1  0.588130  0.746480  0.530160  1.0  -0.5659
  O  O1279  1  0.602230  0.817790  0.529480  1.0  -0.565
  O  O1280  1  0.874600  0.900010  0.846900  1.0  -0.5769
  O  O1281  1  0.840410  0.857780  0.814620  1.0  -0.5769
  O  O1282  1  0.848220  0.052790  0.847670  1.0  -0.5829
  O  O1283  1  0.811810  0.084550  0.810900  1.0  -0.5585
  O  O1284  1  0.699180  0.587450  0.608770  1.0  -0.5661
  O  O1285  1  0.741480  0.610600  0.645230  1.0  -0.5728
  O  O1286  1  0.759010  0.498670  0.530700  1.0  -0.56
  O  O1287  1  0.830800  0.485180  0.530660  1.0  -0.5728
  O  O1288  1  0.739040  0.856690  0.698090  1.0  -0.4284
  O  O1289  1  0.000000  0.500000  0.084800  1.0  -0.4456
  O  O1290  1  0.500000  0.000000  0.084800  1.0  -0.4456
  O  O1291  1  0.500000  0.000000  0.415200  1.0  -0.4487
  O  O1292  1  0.000000  0.500000  0.415200  1.0  -0.4487
  O  O1293  1  0.000000  0.500000  0.915200  1.0  -0.4487
  O  O1294  1  0.500000  0.000000  0.915200  1.0  -0.4487
  O  O1295  1  0.500000  0.000000  0.584800  1.0  -0.4456
  O  O1296  1  0.000000  0.500000  0.584800  1.0  -0.4456
