# generated using pymatgen
data_Ni4Mo2H87(C19N8)4
_symmetry_space_group_name_H-M   'P 1'
_cell_length_a   13.91000000
_cell_length_b   26.11000000
_cell_length_c   29.55000000
_cell_angle_alpha   94.27000000
_cell_angle_beta   90.00000000
_cell_angle_gamma   90.00000000
_symmetry_Int_Tables_number   1
_chemical_formula_structural   Ni4Mo2H87(C19N8)4
_chemical_formula_sum   'Ni16 Mo8 H348 C304 N128'
_cell_volume   10702.47742372
_cell_formula_units_Z   4
loop_
 _symmetry_equiv_pos_site_id
 _symmetry_equiv_pos_as_xyz
  1  'x, y, z'
loop_
 _atom_site_type_symbol
 _atom_site_label
 _atom_site_symmetry_multiplicity
 _atom_site_fract_x
 _atom_site_fract_y
 _atom_site_fract_z
 _atom_site_occupancy
 _atom_site_charge
  Ni  Ni1  1  0.334930  0.257290  0.991080  1.0  0.6728
  Ni  Ni2  1  0.881590  0.736830  0.789990  1.0  0.7652
  Ni  Ni3  1  0.118410  0.263170  0.210010  1.0  0.7609
  Ni  Ni4  1  0.371550  0.498910  0.241500  1.0  0.6764
  Ni  Ni5  1  0.834930  0.242710  0.508920  1.0  0.6744
  Ni  Ni6  1  0.833470  0.231900  0.775320  1.0  0.7407
  Ni  Ni7  1  0.165070  0.757290  0.491080  1.0  0.6728
  Ni  Ni8  1  0.128450  0.998910  0.741500  1.0  0.6745
  Ni  Ni9  1  0.871550  0.001090  0.258500  1.0  0.6777
  Ni  Ni10  1  0.665070  0.742710  0.008920  1.0  0.6745
  Ni  Ni11  1  0.333470  0.268100  0.724680  1.0  0.7407
  Ni  Ni12  1  0.381590  0.763170  0.710010  1.0  0.7611
  Ni  Ni13  1  0.628450  0.501090  0.758500  1.0  0.6761
  Ni  Ni14  1  0.666530  0.731900  0.275320  1.0  0.7415
  Ni  Ni15  1  0.618410  0.236830  0.289990  1.0  0.7648
  Ni  Ni16  1  0.166530  0.768100  0.224680  1.0  0.7416
  Mo  Mo17  1  0.961960  0.180580  0.344630  1.0  -0.104
  Mo  Mo18  1  0.343830  0.675680  0.346840  1.0  0.0474
  Mo  Mo19  1  0.038040  0.819420  0.655370  1.0  -0.1103
  Mo  Mo20  1  0.656170  0.324320  0.653160  1.0  0.0478
  Mo  Mo21  1  0.461960  0.319420  0.155370  1.0  -0.1082
  Mo  Mo22  1  0.538040  0.680580  0.844630  1.0  -0.1053
  Mo  Mo23  1  0.156170  0.175680  0.846840  1.0  0.0503
  Mo  Mo24  1  0.843830  0.824320  0.153160  1.0  0.0455
  H  H25  1  0.410100  0.224400  0.817100  1.0  0.0885
  H  H26  1  0.208700  0.214400  0.297500  1.0  0.1004
  H  H27  1  0.901700  0.847000  0.440200  1.0  0.1193
  H  H28  1  0.338500  0.181500  0.601700  1.0  0.0883
  H  H29  1  0.578600  0.264500  0.015900  1.0  0.1122
  H  H30  1  0.811400  0.913100  0.837000  1.0  0.1408
  H  H31  1  0.763800  0.248200  0.903800  1.0  0.0883
  H  H32  1  0.489700  0.779500  0.503300  1.0  0.1104
  H  H33  1  0.558800  0.385200  0.396000  1.0  0.1235
  H  H34  1  0.184500  0.370000  0.247300  1.0  0.0968
  H  H35  1  0.104900  0.651400  0.241300  1.0  0.0729
  H  H36  1  0.350100  0.156700  0.349800  1.0  0.1185
  H  H37  1  0.418600  0.145300  0.653600  1.0  0.0888
  H  H38  1  0.845300  0.548100  0.231000  1.0  0.1246
  H  H39  1  0.597900  0.179900  0.989300  1.0  0.0825
  H  H40  1  0.580500  0.286300  0.490700  1.0  0.0916
  H  H41  1  0.015900  0.314500  0.546200  1.0  0.0856
  H  H42  1  0.094600  0.132800  0.508500  1.0  0.1327
  H  H43  1  0.139300  0.985000  0.269200  1.0  0.0763
  H  H44  1  0.675100  0.460900  0.904400  1.0  0.1127
  H  H45  1  0.468000  0.836100  0.522000  1.0  0.1286
  H  H46  1  0.131500  0.417400  0.692300  1.0  0.1189
  H  H47  1  0.616800  0.735300  0.590200  1.0  0.122
  H  H48  1  0.024300  0.697900  0.546200  1.0  0.0752
  H  H49  1  0.296100  0.184300  0.063200  1.0  0.0894
  H  H50  1  0.616500  0.208800  0.208300  1.0  0.2644
  H  H51  1  0.627500  0.097200  0.526100  1.0  0.13
  H  H52  1  0.547900  0.882500  0.709000  1.0  0.0983
  H  H53  1  0.526900  0.576900  0.697000  1.0  0.0901
  H  H54  1  0.263800  0.251800  0.596200  1.0  0.0895
  H  H55  1  0.601800  0.482100  0.300100  1.0  0.0658
  H  H56  1  0.198000  0.460800  0.364900  1.0  0.1092
  H  H57  1  0.684100  0.849100  0.323500  1.0  0.0719
  H  H58  1  0.395100  0.151400  0.741300  1.0  0.0729
  H  H59  1  0.402100  0.820100  0.010700  1.0  0.0853
  H  H60  1  0.976200  0.024600  0.810000  1.0  0.0804
  H  H61  1  0.277400  0.113300  0.187700  1.0  0.1015
  H  H62  1  0.688600  0.413100  0.337000  1.0  0.1413
  H  H63  1  0.962200  0.970000  0.375100  1.0  0.0931
  H  H64  1  0.025300  0.076100  0.661400  1.0  0.112
  H  H65  1  0.398200  0.517900  0.699900  1.0  0.064
  H  H66  1  0.203900  0.684300  0.563200  1.0  0.0894
  H  H67  1  0.072200  0.845100  0.359100  1.0  0.1266
  H  H68  1  0.004000  0.761800  0.313300  1.0  0.0899
  H  H69  1  0.164900  0.703900  0.723900  1.0  0.0986
  H  H70  1  0.529200  0.186800  0.782200  1.0  0.0967
  H  H71  1  0.935000  0.365900  0.123100  1.0  0.1283
  H  H72  1  0.940900  0.057500  0.734800  1.0  0.0779
  H  H73  1  0.883200  0.235300  0.090200  1.0  0.1224
  H  H74  1  0.893700  0.273400  0.873500  1.0  0.094
  H  H75  1  0.435000  0.134100  0.376900  1.0  0.1303
  H  H76  1  0.872500  0.597200  0.026100  1.0  0.1293
  H  H77  1  0.941200  0.885200  0.896000  1.0  0.1232
  H  H78  1  0.992800  0.351100  0.786200  1.0  0.083
  H  H79  1  0.716700  0.841500  0.754200  1.0  0.0863
  H  H80  1  0.397800  0.974800  0.840700  1.0  0.1267
  H  H81  1  0.798900  0.784500  0.375900  1.0  0.0936
  H  H82  1  0.703900  0.815700  0.936800  1.0  0.0892
  H  H83  1  0.476200  0.475400  0.690000  1.0  0.0787
  H  H84  1  0.300900  0.298700  0.262900  1.0  0.0905
  H  H85  1  0.698000  0.039200  0.135100  1.0  0.1079
  H  H86  1  0.921400  0.764500  0.515900  1.0  0.109
  H  H87  1  0.285400  0.043700  0.605900  1.0  0.1103
  H  H88  1  0.081400  0.645300  0.153600  1.0  0.0897
  H  H89  1  0.997900  0.377100  0.283300  1.0  0.1513
  H  H90  1  0.493000  0.976200  0.301900  1.0  0.0925
  H  H91  1  0.993000  0.523800  0.198100  1.0  0.0946
  H  H92  1  0.188600  0.086900  0.163000  1.0  0.1427
  H  H93  1  0.283300  0.158500  0.245800  1.0  0.0881
  H  H94  1  0.127500  0.402800  0.973900  1.0  0.1304
  H  H95  1  0.039900  0.718800  0.185200  1.0  0.1962
  H  H96  1  0.065100  0.846100  0.929400  1.0  0.0972
  H  H97  1  0.532000  0.163900  0.478000  1.0  0.1294
  H  H98  1  0.151300  0.941500  0.855300  1.0  0.1034
  H  H99  1  0.180300  0.720400  0.801200  1.0  0.0908
  H  H100  1  0.378600  0.869900  0.143100  1.0  0.1246
  H  H101  1  0.121400  0.369900  0.643100  1.0  0.1258
  H  H102  1  0.231700  0.800100  0.813800  1.0  0.0813
  H  H103  1  0.910100  0.275600  0.682900  1.0  0.0904
  H  H104  1  0.338800  0.873000  0.799400  1.0  0.0913
  H  H105  1  0.768300  0.199900  0.186200  1.0  0.0831
  H  H106  1  0.975700  0.302100  0.453800  1.0  0.076
  H  H107  1  0.649900  0.843300  0.650200  1.0  0.12
  H  H108  1  0.898200  0.982100  0.800100  1.0  0.0654
  H  H109  1  0.717200  0.409600  0.881600  1.0  0.1251
  H  H110  1  0.976800  0.357000  0.479100  1.0  0.0739
  H  H111  1  0.396000  0.037000  0.648200  1.0  0.1183
  H  H112  1  0.796300  0.841500  0.016600  1.0  0.088
  H  H113  1  0.117700  0.684100  0.896300  1.0  0.1113
  H  H114  1  0.331900  0.018500  0.862800  1.0  0.1432
  H  H115  1  0.895100  0.348600  0.758700  1.0  0.0729
  H  H116  1  0.621400  0.130100  0.856900  1.0  0.1257
  H  H117  1  0.203700  0.158500  0.983400  1.0  0.091
  H  H118  1  0.078600  0.235500  0.484100  1.0  0.1106
  H  H119  1  0.523200  0.857000  0.979100  1.0  0.0741
  H  H120  1  0.601800  0.185900  0.878200  1.0  0.124
  H  H121  1  0.217200  0.090400  0.618400  1.0  0.1293
  H  H122  1  0.473100  0.423100  0.303000  1.0  0.0909
  H  H123  1  0.819700  0.279600  0.198800  1.0  0.0908
  H  H124  1  0.478900  0.822800  0.469600  1.0  0.1299
  H  H125  1  0.440900  0.442500  0.765200  1.0  0.0757
  H  H126  1  0.654700  0.048100  0.731000  1.0  0.1247
  H  H127  1  0.026300  0.043300  0.261500  1.0  0.2564
  H  H128  1  0.684500  0.130000  0.252700  1.0  0.0965
  H  H129  1  0.741800  0.044700  0.544700  1.0  0.1044
  H  H130  1  0.905400  0.867200  0.491500  1.0  0.1339
  H  H131  1  0.483400  0.552500  0.651800  1.0  0.0781
  H  H132  1  0.507200  0.851100  0.286200  1.0  0.0829
  H  H133  1  0.815500  0.630000  0.752700  1.0  0.0963
  H  H134  1  0.603800  0.260200  0.964200  1.0  0.0988
  H  H135  1  0.983400  0.947500  0.848200  1.0  0.0778
  H  H136  1  0.263000  0.117200  0.135400  1.0  0.1434
  H  H137  1  0.241800  0.455300  0.955300  1.0  0.1036
  H  H138  1  0.161200  0.373000  0.299400  1.0  0.0912
  H  H139  1  0.815900  0.349100  0.823500  1.0  0.0715
  H  H140  1  0.796100  0.315700  0.436800  1.0  0.0891
  H  H141  1  0.396200  0.739800  0.035800  1.0  0.0947
  H  H142  1  0.691100  0.155200  0.893900  1.0  0.1239
  H  H143  1  0.199100  0.798700  0.762900  1.0  0.091
  H  H144  1  0.007000  0.476200  0.801900  1.0  0.0909
  H  H145  1  0.421400  0.735500  0.984100  1.0  0.1096
  H  H146  1  0.191100  0.344800  0.606100  1.0  0.125
  H  H147  1  0.044200  0.023800  0.330300  1.0  0.0893
  H  H148  1  0.236200  0.751800  0.096200  1.0  0.0889
  H  H149  1  0.398200  0.814100  0.121800  1.0  0.1238
  H  H150  1  0.475500  0.004900  0.773100  1.0  0.1226
  H  H151  1  0.391600  0.476800  0.840000  1.0  0.0947
  H  H152  1  0.661200  0.127000  0.200600  1.0  0.0912
  H  H153  1  0.860700  0.015000  0.730800  1.0  0.0756
  H  H154  1  0.544200  0.476200  0.169700  1.0  0.0936
  H  H155  1  0.975500  0.495100  0.726900  1.0  0.1225
  H  H156  1  0.308900  0.844800  0.106100  1.0  0.1252
  H  H157  1  0.101800  0.017900  0.199900  1.0  0.0664
  H  H158  1  0.957800  0.897600  0.454900  1.0  0.1154
  H  H159  1  0.348700  0.441500  0.355300  1.0  0.103
  H  H160  1  0.047900  0.617500  0.791000  1.0  0.0956
  H  H161  1  0.783300  0.341500  0.254200  1.0  0.0861
  H  H162  1  0.831900  0.481500  0.637200  1.0  0.1447
  H  H163  1  0.497900  0.122900  0.216700  1.0  0.1532
  H  H164  1  0.237000  0.617200  0.635400  1.0  0.1436
  H  H165  1  0.182000  0.855000  0.367900  1.0  0.0942
  H  H166  1  0.098300  0.153000  0.559800  1.0  0.1207
  H  H167  1  0.524500  0.995100  0.226900  1.0  0.1216
  H  H168  1  0.708700  0.285600  0.202500  1.0  0.1007
  H  H169  1  0.891600  0.023200  0.660000  1.0  0.096
  H  H170  1  0.523800  0.524600  0.310000  1.0  0.08
  H  H171  1  0.161700  0.140700  0.028600  1.0  0.0793
  H  H172  1  0.465000  0.771700  0.252500  1.0  0.0912
  H  H173  1  0.589900  0.775600  0.182900  1.0  0.0905
  H  H174  1  0.439700  0.891000  0.696700  1.0  0.1157
  H  H175  1  0.359900  0.299400  0.869200  1.0  0.0942
  H  H176  1  0.311400  0.586900  0.663000  1.0  0.1415
  H  H177  1  0.862900  0.333100  0.523500  1.0  0.2209
  H  H178  1  0.507000  0.023800  0.698100  1.0  0.0926
  H  H179  1  0.010300  0.279500  0.003300  1.0  0.1105
  H  H180  1  0.973100  0.076900  0.197000  1.0  0.0901
  H  H181  1  0.703700  0.341500  0.516600  1.0  0.0884
  H  H182  1  0.800900  0.201300  0.237100  1.0  0.0906
  H  H183  1  0.617700  0.815900  0.603700  1.0  0.1104
  H  H184  1  0.097900  0.320100  0.510700  1.0  0.084
  H  H185  1  0.502100  0.877100  0.783300  1.0  0.1505
  H  H186  1  0.737000  0.882800  0.864600  1.0  0.144
  H  H187  1  0.848700  0.058500  0.144700  1.0  0.1031
  H  H188  1  0.405400  0.632800  0.008500  1.0  0.1327
  H  H189  1  0.496000  0.261800  0.813300  1.0  0.091
  H  H190  1  0.634600  0.273700  0.444700  1.0  0.089
  H  H191  1  0.378200  0.499800  0.360400  1.0  0.11
  H  H192  1  0.542200  0.397600  0.954900  1.0  0.1154
  H  H193  1  0.360700  0.485000  0.769200  1.0  0.0754
  H  H194  1  0.598300  0.347000  0.940200  1.0  0.1194
  H  H195  1  0.777400  0.386700  0.312300  1.0  0.1012
  H  H196  1  0.029200  0.313200  0.717800  1.0  0.0977
  H  H197  1  0.581400  0.854700  0.346400  1.0  0.0888
  H  H198  1  0.315900  0.150900  0.676500  1.0  0.0704
  H  H199  1  0.651300  0.558500  0.644700  1.0  0.1032
  H  H200  1  0.515900  0.185500  0.953800  1.0  0.0868
  H  H201  1  0.058800  0.114800  0.104000  1.0  0.1238
  H  H202  1  0.095600  0.930900  0.455300  1.0  0.1362
  H  H203  1  0.103800  0.239800  0.535800  1.0  0.0956
  H  H204  1  0.896000  0.463000  0.851800  1.0  0.1181
  H  H205  1  0.526300  0.456700  0.238500  1.0  0.2566
  H  H206  1  0.026900  0.923100  0.803000  1.0  0.0904
  H  H207  1  0.996000  0.238200  0.686700  1.0  0.0911
  H  H208  1  0.023800  0.975400  0.190000  1.0  0.0788
  H  H209  1  0.898200  0.685900  0.378200  1.0  0.1242
  H  H210  1  0.960100  0.281200  0.814800  1.0  0.1974
  H  H211  1  0.838500  0.318500  0.898300  1.0  0.0896
  H  H212  1  0.952100  0.382500  0.209000  1.0  0.0949
  H  H213  1  0.918600  0.354700  0.846400  1.0  0.0885
  H  H214  1  0.606300  0.773400  0.373500  1.0  0.0957
  H  H215  1  0.258200  0.955300  0.455300  1.0  0.103
  H  H216  1  0.604000  0.963000  0.351800  1.0  0.1184
  H  H217  1  0.108400  0.976800  0.340000  1.0  0.0964
  H  H218  1  0.089900  0.724400  0.317100  1.0  0.0881
  H  H219  1  0.116800  0.764700  0.909800  1.0  0.1231
  H  H220  1  0.024500  0.504900  0.273100  1.0  0.122
  H  H221  1  0.434900  0.346100  0.429400  1.0  0.0975
  H  H222  1  0.393700  0.226600  0.626500  1.0  0.096
  H  H223  1  0.291300  0.714400  0.797500  1.0  0.1004
  H  H224  1  0.007200  0.648900  0.213800  1.0  0.0822
  H  H225  1  0.401700  0.653000  0.059800  1.0  0.1201
  H  H226  1  0.365400  0.726300  0.555300  1.0  0.0893
  H  H227  1  0.175100  0.039100  0.595600  1.0  0.1131
  H  H228  1  0.690500  0.870600  0.961300  1.0  0.0744
  H  H229  1  0.516600  0.447500  0.348200  1.0  0.0776
  H  H230  1  0.452100  0.117500  0.291000  1.0  0.097
  H  H231  1  0.104000  0.537000  0.148200  1.0  0.1183
  H  H232  1  0.965000  0.728300  0.247500  1.0  0.092
  H  H233  1  0.309500  0.129400  0.038700  1.0  0.0716
  H  H234  1  0.510300  0.220500  0.496700  1.0  0.1109
  H  H235  1  0.134600  0.226300  0.055300  1.0  0.0893
  H  H236  1  0.319700  0.220400  0.301200  1.0  0.0908
  H  H237  1  0.818000  0.145000  0.632100  1.0  0.094
  H  H238  1  0.594600  0.367200  0.991500  1.0  0.1317
  H  H239  1  0.184100  0.650900  0.176500  1.0  0.0714
  H  H240  1  0.016600  0.052500  0.151800  1.0  0.0781
  H  H241  1  0.902100  0.679900  0.489300  1.0  0.0842
  H  H242  1  0.382300  0.184100  0.396300  1.0  0.1117
  H  H243  1  0.664900  0.796100  0.776100  1.0  0.0975
  H  H244  1  0.362900  0.166900  0.976500  1.0  0.2219
  H  H245  1  0.714600  0.956300  0.394100  1.0  0.1119
  H  H246  1  0.765000  0.586000  0.171700  1.0  0.1863
  H  H247  1  0.060300  0.391000  0.196700  1.0  0.1151
  H  H248  1  0.722600  0.886700  0.812300  1.0  0.102
  H  H249  1  0.878200  0.000200  0.139600  1.0  0.1095
  H  H250  1  0.808900  0.655200  0.393900  1.0  0.1251
  H  H251  1  0.560300  0.109000  0.303300  1.0  0.1156
  H  H252  1  0.524300  0.802100  0.953800  1.0  0.0761
  H  H253  1  0.235000  0.414000  0.828300  1.0  0.1855
  H  H254  1  0.802000  0.539200  0.635100  1.0  0.108
  H  H255  1  0.335100  0.203900  0.223900  1.0  0.0998
  H  H256  1  0.850100  0.343300  0.150200  1.0  0.1178
  H  H257  1  0.302000  0.960800  0.864900  1.0  0.1085
  H  H258  1  0.968000  0.663900  0.978000  1.0  0.1305
  H  H259  1  0.835100  0.296100  0.276100  1.0  0.0995
  H  H260  1  0.338300  0.640700  0.528600  1.0  0.0796
  H  H261  1  0.161500  0.681500  0.101700  1.0  0.0894
  H  H262  1  0.265000  0.914000  0.328300  1.0  0.1857
  H  H263  1  0.154700  0.451900  0.769000  1.0  0.1245
  H  H264  1  0.631500  0.082600  0.807700  1.0  0.1213
  H  H265  1  0.838800  0.627000  0.700600  1.0  0.0908
  H  H266  1  0.736200  0.748200  0.403800  1.0  0.0887
  H  H267  1  0.121800  0.999800  0.860400  1.0  0.1096
  H  H268  1  0.216700  0.658500  0.745800  1.0  0.0875
  H  H269  1  0.140100  0.799400  0.369200  1.0  0.0941
  H  H270  1  0.002100  0.622900  0.716700  1.0  0.1529
  H  H271  1  0.824900  0.960900  0.404400  1.0  0.113
  H  H272  1  0.116500  0.291200  0.291700  1.0  0.2644
  H  H273  1  0.427800  0.345100  0.859100  1.0  0.126
  H  H274  1  0.934900  0.153900  0.070600  1.0  0.0965
  H  H275  1  0.065000  0.634100  0.876900  1.0  0.13
  H  H276  1  0.680300  0.779600  0.698800  1.0  0.0912
  H  H277  1  0.492800  0.148900  0.713800  1.0  0.0819
  H  H278  1  0.460100  0.218800  0.685200  1.0  0.1981
  H  H279  1  0.484100  0.814500  0.046200  1.0  0.0864
  H  H280  1  0.149900  0.656700  0.849800  1.0  0.1189
  H  H281  1  0.462200  0.530000  0.124900  1.0  0.0956
  H  H282  1  0.763000  0.382800  0.364600  1.0  0.143
  H  H283  1  0.475700  0.197900  0.046200  1.0  0.0755
  H  H284  1  0.296300  0.658500  0.483400  1.0  0.0903
  H  H285  1  0.023200  0.643000  0.520900  1.0  0.074
  H  H286  1  0.758200  0.544700  0.044700  1.0  0.1045
  H  H287  1  0.473700  0.543300  0.761500  1.0  0.257
  H  H288  1  0.731700  0.699900  0.686200  1.0  0.0828
  H  H289  1  0.404400  0.430900  0.955300  1.0  0.1359
  H  H290  1  0.572200  0.654900  0.140900  1.0  0.1254
  H  H291  1  0.735000  0.086000  0.671700  1.0  0.1864
  H  H292  1  0.661500  0.818500  0.398300  1.0  0.0901
  H  H293  1  0.137100  0.666900  0.476500  1.0  0.2222
  H  H294  1  0.190500  0.629400  0.538700  1.0  0.0711
  H  H295  1  0.035000  0.271700  0.752500  1.0  0.0914
  H  H296  1  0.504000  0.738200  0.186700  1.0  0.0905
  H  H297  1  0.637100  0.833100  0.023500  1.0  0.2215
  H  H298  1  0.214600  0.543700  0.105900  1.0  0.1093
  H  H299  1  0.059100  0.942500  0.265200  1.0  0.0768
  H  H300  1  0.455800  0.523800  0.830300  1.0  0.0896
  H  H301  1  0.315500  0.870000  0.747300  1.0  0.0967
  H  H302  1  0.565100  0.653900  0.570600  1.0  0.0978
  H  H303  1  0.904400  0.069100  0.544700  1.0  0.1358
  H  H304  1  0.955800  0.976200  0.669700  1.0  0.0919
  H  H305  1  0.032000  0.336100  0.022000  1.0  0.1291
  H  H306  1  0.101800  0.314100  0.621800  1.0  0.1235
  H  H307  1  0.989700  0.720500  0.996700  1.0  0.1096
  H  H308  1  0.978900  0.677200  0.030400  1.0  0.1294
  H  H309  1  0.809500  0.370600  0.461300  1.0  0.0745
  H  H310  1  0.859900  0.200600  0.630800  1.0  0.0948
  H  H311  1  0.701100  0.284500  0.875900  1.0  0.0932
  H  H312  1  0.383200  0.264700  0.409800  1.0  0.1235
  H  H313  1  0.604900  0.848600  0.258700  1.0  0.0734
  H  H314  1  0.939700  0.609000  0.803300  1.0  0.1154
  H  H315  1  0.661700  0.359300  0.471400  1.0  0.0792
  H  H316  1  0.896200  0.760200  0.464200  1.0  0.0966
  H  H317  1  0.298900  0.715500  0.124100  1.0  0.093
  H  H318  1  0.602200  0.025200  0.159300  1.0  0.1288
  H  H319  1  0.222600  0.613300  0.687700  1.0  0.102
  H  H320  1  0.565000  0.865900  0.623100  1.0  0.1285
  H  H321  1  0.168100  0.518500  0.362800  1.0  0.1442
  H  H322  1  0.268300  0.300100  0.313800  1.0  0.0821
  H  H323  1  0.791300  0.785600  0.702500  1.0  0.1018
  H  H324  1  0.782800  0.909600  0.381600  1.0  0.1249
  H  H325  1  0.883500  0.708800  0.708300  1.0  0.2637
  H  H326  1  0.042200  0.102400  0.545100  1.0  0.1166
  H  H327  1  0.970800  0.686800  0.282200  1.0  0.0983
  H  H328  1  0.324900  0.539100  0.095600  1.0  0.1122
  H  H329  1  0.037800  0.030000  0.624900  1.0  0.0972
  H  H330  1  0.682000  0.645000  0.132100  1.0  0.0944
  H  H331  1  0.470800  0.813200  0.217800  1.0  0.0992
  H  H332  1  0.102200  0.474800  0.340700  1.0  0.1312
  H  H333  1  0.535000  0.228300  0.747500  1.0  0.0926
  H  H334  1  0.984100  0.685500  0.453800  1.0  0.0866
  H  H335  1  0.897800  0.525200  0.659300  1.0  0.1305
  H  H336  1  0.201100  0.215500  0.624100  1.0  0.0922
  H  H337  1  0.539900  0.781200  0.314800  1.0  0.196
  H  H338  1  0.521100  0.177200  0.530400  1.0  0.1307
  H  H339  1  0.537800  0.470000  0.875100  1.0  0.0965
  H  H340  1  0.368500  0.917400  0.192300  1.0  0.1204
  H  H341  1  0.865400  0.773700  0.944700  1.0  0.0887
  H  H342  1  0.474700  0.576100  0.161400  1.0  0.1121
  H  H343  1  0.080500  0.213700  0.009300  1.0  0.0907
  H  H344  1  0.419500  0.713700  0.509300  1.0  0.0932
  H  H345  1  0.640100  0.700600  0.130800  1.0  0.0947
  H  H346  1  0.021100  0.322800  0.969600  1.0  0.13
  H  H347  1  0.106300  0.726600  0.126500  1.0  0.0955
  H  H348  1  0.441200  0.614800  0.604000  1.0  0.1233
  H  H349  1  0.919500  0.786300  0.990700  1.0  0.094
  H  H350  1  0.318000  0.355000  0.867900  1.0  0.0945
  H  H351  1  0.525300  0.423900  0.838600  1.0  0.1127
  H  H352  1  0.476800  0.143000  0.020900  1.0  0.0752
  H  H353  1  0.699100  0.701300  0.737100  1.0  0.0908
  H  H354  1  0.282800  0.590400  0.118400  1.0  0.129
  H  H355  1  0.457800  0.602400  0.045100  1.0  0.1167
  H  H356  1  0.621800  0.500200  0.639600  1.0  0.1096
  H  H357  1  0.927800  0.154900  0.640900  1.0  0.1255
  H  H358  1  0.882300  0.315900  0.103700  1.0  0.1104
  H  H359  1  0.559100  0.557500  0.234800  1.0  0.0774
  H  H360  1  0.868500  0.582600  0.307700  1.0  0.1209
  H  H361  1  0.838300  0.859300  0.971400  1.0  0.0795
  H  H362  1  0.345300  0.951900  0.269000  1.0  0.1241
  H  H363  1  0.639300  0.515000  0.230800  1.0  0.0766
  H  H364  1  0.383500  0.791200  0.791700  1.0  0.2646
  H  H365  1  0.608400  0.523200  0.160000  1.0  0.0974
  H  H366  1  0.973700  0.956700  0.738500  1.0  0.2555
  H  H367  1  0.878600  0.630100  0.356900  1.0  0.1248
  H  H368  1  0.974700  0.923900  0.338600  1.0  0.1127
  H  H369  1  0.785400  0.456300  0.894100  1.0  0.1112
  H  H370  1  0.668100  0.981500  0.137200  1.0  0.143
  H  H371  1  0.595600  0.569100  0.044700  1.0  0.1361
  H  H372  1  0.372500  0.902800  0.473900  1.0  0.1296
  C  C373  1  0.541100  0.763700  0.851200  1.0  0.1517
  C  C374  1  0.042400  0.369300  0.260300  1.0  -0.1404
  C  C375  1  0.969000  0.167000  0.530300  1.0  0.1882
  C  C376  1  0.162200  0.113100  0.887400  1.0  0.1729
  C  C377  1  0.313900  0.302900  0.170200  1.0  0.1682
  C  C378  1  0.573200  0.991900  0.248000  1.0  -0.1489
  C  C379  1  0.635600  0.668900  0.145200  1.0  -0.3413
  C  C380  1  0.554800  0.311500  0.599400  1.0  0.1338
  C  C381  1  0.990100  0.291800  0.736000  1.0  -0.1528
  C  C382  1  0.205800  0.034500  0.662300  1.0  0.3066
  C  C383  1  0.034300  0.679100  0.517000  1.0  0.0152
  C  C384  1  0.509900  0.791800  0.236000  1.0  -0.1584
  C  C385  1  0.346200  0.321900  0.808100  1.0  0.2771
  C  C386  1  0.534300  0.820900  0.983000  1.0  0.016
  C  C387  1  0.944600  0.255500  0.703900  1.0  0.0056
  C  C388  1  0.052000  0.987100  0.323600  1.0  -0.1758
  C  C389  1  0.130100  0.669600  0.165000  1.0  0.0552
  C  C390  1  0.875400  0.030600  0.160600  1.0  -0.0913
  C  C391  1  0.796900  0.794300  0.213900  1.0  0.1822
  C  C392  1  0.968300  0.172800  0.093400  1.0  -0.1245
  C  C393  1  0.232700  0.399800  0.798500  1.0  -0.1092
  C  C394  1  0.769200  0.883900  0.836000  1.0  -0.3805
  C  C395  1  0.332600  0.985200  0.846700  1.0  -0.3575
  C  C396  1  0.660900  0.796000  0.370600  1.0  -0.1536
  C  C397  1  0.525900  0.618300  0.887800  1.0  0.1725
  C  C398  1  0.248800  0.709100  0.397200  1.0  0.143
  C  C399  1  0.781400  0.149100  0.719900  1.0  0.0828
  C  C400  1  0.965600  0.960800  0.342800  1.0  -0.0339
  C  C401  1  0.601400  0.614900  0.806900  1.0  0.1739
  C  C402  1  0.444600  0.244500  0.796100  1.0  0.0071
  C  C403  1  0.926800  0.491900  0.748000  1.0  -0.1482
  C  C404  1  0.572000  0.521900  0.225000  1.0  0.0261
  C  C405  1  0.135600  0.831100  0.354800  1.0  -0.3406
  C  C406  1  0.317700  0.920000  0.261400  1.0  -0.1067
  C  C407  1  0.468300  0.327200  0.406600  1.0  -0.1188
  C  C408  1  0.957600  0.630700  0.739700  1.0  -0.1394
  C  C409  1  0.826900  0.835600  0.826500  1.0  0.1561
  C  C410  1  0.037100  0.303200  0.515900  1.0  -0.1323
  C  C411  1  0.418900  0.634500  0.815900  1.0  0.1758
  C  C412  1  0.835000  0.598800  0.285600  1.0  -0.1052
  C  C413  1  0.751200  0.290900  0.602800  1.0  0.1431
  C  C414  1  0.478600  0.454900  0.321900  1.0  -0.1512
  C  C415  1  0.912000  0.793100  0.618100  1.0  0.1531
  C  C416  1  0.212700  0.316100  0.669200  1.0  0.0977
  C  C417  1  0.869900  0.330400  0.835000  1.0  0.0565
  C  C418  1  0.705800  0.835100  0.966000  1.0  0.0397
  C  C419  1  0.203100  0.205700  0.786100  1.0  0.1803
  C  C420  1  0.440800  0.636000  0.036500  1.0  -0.3459
  C  C421  1  0.559200  0.364000  0.963500  1.0  -0.3469
  C  C422  1  0.849100  0.661700  0.368600  1.0  -0.3823
  C  C423  1  0.059200  0.136000  0.536500  1.0  -0.348
  C  C424  1  0.205800  0.664900  0.534000  1.0  0.0422
  C  C425  1  0.288000  0.023600  0.689400  1.0  0.2812
  C  C426  1  0.456300  0.810500  0.497500  1.0  -0.3578
  C  C427  1  0.254100  0.285400  0.283400  1.0  0.0003
  C  C428  1  0.326900  0.664400  0.673500  1.0  0.1557
  C  C429  1  0.740800  0.763900  0.375100  1.0  -0.0631
  C  C430  1  0.120600  0.528400  0.177100  1.0  -0.171
  C  C431  1  0.665000  0.098800  0.785600  1.0  -0.1054
  C  C432  1  0.458900  0.236300  0.148800  1.0  0.152
  C  C433  1  0.375400  0.469400  0.339400  1.0  -0.0934
  C  C434  1  0.788000  0.476400  0.810600  1.0  0.2792
  C  C435  1  0.839100  0.296000  0.870600  1.0  -0.153
  C  C436  1  0.144300  0.907800  0.460800  1.0  -0.1799
  C  C437  1  0.349100  0.838300  0.131400  1.0  -0.3833
  C  C438  1  0.031700  0.827200  0.906600  1.0  -0.1155
  C  C439  1  0.335000  0.901200  0.214400  1.0  -0.1052
  C  C440  1  0.788900  0.647600  0.289900  1.0  0.0733
  C  C441  1  0.288900  0.852400  0.210100  1.0  0.074
  C  C442  1  0.563200  0.721700  0.603800  1.0  -0.1624
  C  C443  1  0.534200  0.490000  0.296600  1.0  0.0123
  C  C444  1  0.025900  0.881700  0.612200  1.0  0.1736
  C  C445  1  0.462900  0.803200  0.015900  1.0  -0.1319
  C  C446  1  0.143200  0.356600  0.270100  1.0  0.023
  C  C447  1  0.855700  0.092200  0.539200  1.0  -0.1833
  C  C448  1  0.832600  0.514800  0.653300  1.0  -0.3581
  C  C449  1  0.483600  0.868800  0.711700  1.0  -0.0454
  C  C450  1  0.186100  0.802900  0.670200  1.0  0.1687
  C  C451  1  0.406600  0.681100  0.646700  1.0  0.2104
  C  C452  1  0.630600  0.242000  0.645200  1.0  0.1631
  C  C453  1  0.235300  0.727100  0.782300  1.0  -0.1089
  C  C454  1  0.721300  0.012700  0.197800  1.0  0.2452
  C  C455  1  0.350200  0.799900  0.494000  1.0  0.2493
  C  C456  1  0.650900  0.161700  0.868600  1.0  -0.3811
  C  C457  1  0.778700  0.512700  0.697800  1.0  0.2451
  C  C458  1  0.904100  0.334800  0.130900  1.0  -0.356
  C  C459  1  0.160900  0.704000  0.129400  1.0  -0.1549
  C  C460  1  0.943200  0.479200  0.793100  1.0  -0.0783
  C  C461  1  0.837800  0.886900  0.112600  1.0  0.1717
  C  C462  1  0.620600  0.971600  0.322900  1.0  -0.175
  C  C463  1  0.300400  0.667300  0.515800  1.0  -0.1368
  C  C464  1  0.469000  0.333000  0.969700  1.0  0.1893
  C  C465  1  0.043700  0.310500  0.997500  1.0  -0.3567
  C  C466  1  0.175500  0.500700  0.261700  1.0  0.1688
  C  C467  1  0.588000  0.293100  0.118100  1.0  0.1534
  C  C468  1  0.979500  0.817100  0.184100  1.0  0.1883
  C  C469  1  0.643500  0.282000  0.477000  1.0  0.0425
  C  C470  1  0.055400  0.744500  0.296100  1.0  0.007
  C  C471  1  0.167400  0.485200  0.346700  1.0  -0.3588
  C  C472  1  0.182300  0.420000  0.761400  1.0  -0.1082
  C  C473  1  0.879400  0.471600  0.822900  1.0  -0.1759
  C  C474  1  0.945300  0.328300  0.771500  1.0  0.0569
  C  C475  1  0.786200  0.659300  0.021200  1.0  0.2038
  C  C476  1  0.542400  0.130700  0.239700  1.0  -0.1388
  C  C477  1  0.593400  0.318900  0.353300  1.0  0.2097
  C  C478  1  0.649800  0.200100  0.506000  1.0  0.2512
  C  C479  1  0.251200  0.209100  0.897200  1.0  0.1437
  C  C480  1  0.794200  0.965500  0.337700  1.0  0.306
  C  C481  1  0.990800  0.249100  0.136000  1.0  0.1611
  C  C482  1  0.718600  0.649100  0.219900  1.0  0.0827
  C  C483  1  0.965800  0.990000  0.796600  1.0  0.0126
  C  C484  1  0.412000  0.706900  0.881900  1.0  0.1532
  C  C485  1  0.777600  0.946400  0.383600  1.0  -0.37
  C  C486  1  0.928000  0.021900  0.725000  1.0  0.0277
  C  C487  1  0.404100  0.165200  0.369100  1.0  -0.3561
  C  C488  1  0.355700  0.407800  0.960800  1.0  -0.1822
  C  C489  1  0.073200  0.508100  0.252000  1.0  -0.1466
  C  C490  1  0.846200  0.178100  0.691900  1.0  0.2766
  C  C491  1  0.356500  0.718000  0.523000  1.0  0.0434
  C  C492  1  0.281400  0.350900  0.780100  1.0  0.0828
  C  C493  1  0.758000  0.077900  0.538100  1.0  -0.0847
  C  C494  1  0.712000  0.976400  0.310600  1.0  0.2764
  C  C495  1  0.124600  0.969400  0.839400  1.0  -0.0927
  C  C496  1  0.554200  0.253400  0.986000  1.0  -0.0316
  C  C497  1  0.526500  0.803100  0.654900  1.0  0.2247
  C  C498  1  0.364400  0.331100  0.854800  1.0  -0.3411
  C  C499  1  0.898600  0.114900  0.306900  1.0  0.1735
  C  C500  1  0.764700  0.272900  0.217700  1.0  -0.1068
  C  C501  1  0.324500  0.000700  0.761700  1.0  0.1721
  C  C502  1  0.978600  0.045100  0.178100  1.0  -0.1534
  C  C503  1  0.259200  0.236100  0.624900  1.0  -0.0602
  C  C504  1  0.269200  0.616100  0.664000  1.0  -0.3814
  C  C505  1  0.543700  0.189500  0.502500  1.0  -0.3574
  C  C506  1  0.034200  0.010000  0.203400  1.0  0.0125
  C  C507  1  0.973500  0.303100  0.154900  1.0  0.2247
  C  C508  1  0.267300  0.899800  0.298500  1.0  -0.109
  C  C509  1  0.705800  0.465500  0.837700  1.0  0.3073
  C  C510  1  0.742000  0.577900  0.038100  1.0  -0.091
  C  C511  1  0.974100  0.118300  0.387800  1.0  0.1735
  C  C512  1  0.021400  0.954900  0.821900  1.0  -0.1523
  C  C513  1  0.869400  0.742000  0.145200  1.0  0.1631
  C  C514  1  0.356800  0.856600  0.770100  1.0  0.0231
  C  C515  1  0.625600  0.641800  0.031800  1.0  0.182
  C  C516  1  0.667400  0.014800  0.153300  1.0  -0.3592
  C  C517  1  0.686100  0.697100  0.829800  1.0  0.168
  C  C518  1  0.081100  0.134500  0.315900  1.0  0.1767
  C  C519  1  0.042100  0.148700  0.112200  1.0  -0.1588
  C  C520  1  0.509200  0.749100  0.636000  1.0  0.1623
  C  C521  1  0.690800  0.108600  0.528300  1.0  -0.1595
  C  C522  1  0.101400  0.885100  0.693100  1.0  0.1736
  C  C523  1  0.945200  0.811500  0.099400  1.0  0.1348
  C  C524  1  0.119500  0.073700  0.773700  1.0  0.0672
  C  C525  1  0.190800  0.391400  0.971700  1.0  -0.1615
  C  C526  1  0.063200  0.778300  0.896200  1.0  -0.1646
  C  C527  1  0.555400  0.755500  0.203900  1.0  0.0057
  C  C528  1  0.072000  0.978100  0.275000  1.0  0.0263
  C  C529  1  0.874400  0.141800  0.531800  1.0  0.1838
  C  C530  1  0.396300  0.296500  0.091100  1.0  0.1689
  C  C531  1  0.339100  0.204000  0.629400  1.0  -0.1563
  C  C532  1  0.009900  0.708200  0.264000  1.0  -0.1604
  C  C533  1  0.436800  0.278300  0.396200  1.0  -0.163
  C  C534  1  0.619500  0.426300  0.726300  1.0  0.0656
  C  C535  1  0.703400  0.858600  0.167100  1.0  0.1778
  C  C536  1  0.723500  0.805900  0.761200  1.0  -0.0056
  C  C537  1  0.294200  0.534500  0.162300  1.0  0.3052
  C  C538  1  0.149800  0.299900  0.994000  1.0  0.2502
  C  C539  1  0.445200  0.688500  0.400600  1.0  0.1341
  C  C540  1  0.813900  0.197100  0.329800  1.0  0.1682
  C  C541  1  0.624600  0.530600  0.660600  1.0  -0.0911
  C  C542  1  0.534400  0.460800  0.842800  1.0  -0.036
  C  C543  1  0.880500  0.926300  0.226300  1.0  0.0659
  C  C544  1  0.026500  0.696900  0.845100  1.0  0.2262
  C  C545  1  0.056800  0.520800  0.206900  1.0  -0.0809
  C  C546  1  0.711100  0.147600  0.789900  1.0  0.0753
  C  C547  1  0.465800  0.510000  0.703400  1.0  0.0156
  C  C548  1  0.165000  0.401200  0.714400  1.0  -0.1061
  C  C549  1  0.211100  0.352400  0.710100  1.0  0.0742
  C  C550  1  0.644300  0.592200  0.039200  1.0  -0.1814
  C  C551  1  0.940800  0.864000  0.463500  1.0  -0.3463
  C  C552  1  0.906600  0.818900  0.853300  1.0  0.2096
  C  C553  1  0.730800  0.383900  0.336000  1.0  -0.3811
  C  C554  1  0.957900  0.851300  0.887800  1.0  -0.162
  C  C555  1  0.445800  0.746600  0.014000  1.0  -0.0329
  C  C556  1  0.796600  0.358600  0.667100  1.0  0.1783
  C  C557  1  0.286200  0.840700  0.478800  1.0  0.2025
  C  C558  1  0.240800  0.736100  0.124900  1.0  -0.0588
  C  C559  1  0.054700  0.671700  0.228500  1.0  0.0561
  C  C560  1  0.556800  0.979200  0.293100  1.0  -0.0795
  C  C561  1  0.673100  0.335600  0.326500  1.0  0.1569
  C  C562  1  0.936800  0.221700  0.103800  1.0  -0.1631
  C  C563  1  0.398600  0.385100  0.193100  1.0  0.1743
  C  C564  1  0.537100  0.196800  0.984100  1.0  -0.1284
  C  C565  1  0.465600  0.539200  0.157200  1.0  -0.0344
  C  C566  1  0.542100  0.351300  0.387800  1.0  -0.1611
  C  C567  1  0.278700  0.987300  0.802200  1.0  0.2454
  C  C568  1  0.983600  0.631200  0.788300  1.0  -0.0446
  C  C569  1  0.630100  0.830400  0.335000  1.0  0.0573
  C  C570  1  0.245900  0.785400  0.783400  1.0  -0.0009
  C  C571  1  0.595900  0.834800  0.630900  1.0  -0.3586
  C  C572  1  0.896300  0.203500  0.408900  1.0  0.1708
  C  C573  1  0.230800  0.116100  0.164000  1.0  -0.3811
  C  C574  1  0.787300  0.683900  0.330800  1.0  0.0944
  C  C575  1  0.294200  0.164900  0.034000  1.0  0.0413
  C  C576  1  0.776500  0.305900  0.261200  1.0  -0.0061
  C  C577  1  0.682300  0.080000  0.738600  1.0  -0.1166
  C  C578  1  0.703100  0.294300  0.713900  1.0  0.1824
  C  C579  1  0.956300  0.689500  0.002500  1.0  -0.3598
  C  C580  1  0.276500  0.194100  0.238800  1.0  -0.0076
  C  C581  1  0.041100  0.736300  0.648800  1.0  0.1514
  C  C582  1  0.767300  0.600200  0.201500  1.0  -0.1076
  C  C583  1  0.296600  0.141400  0.832900  1.0  0.1786
  C  C584  1  0.520500  0.317100  0.684100  1.0  0.1885
  C  C585  1  0.173100  0.164400  0.173500  1.0  0.1558
  C  C586  1  0.199600  0.167300  0.015800  1.0  -0.137
  C  C587  1  0.662200  0.386900  0.612600  1.0  0.185
  C  C588  1  0.379400  0.028400  0.677100  1.0  -0.1716
  C  C589  1  0.509600  0.706800  0.779200  1.0  0.1207
  C  C590  1  0.088000  0.206900  0.381900  1.0  0.1533
  C  C591  1  0.809200  0.608600  0.028300  1.0  -0.1577
  C  C592  1  0.448000  0.487100  0.823600  1.0  -0.1733
  C  C593  1  0.824500  0.499300  0.738300  1.0  0.172
  C  C594  1  0.722400  0.446400  0.883600  1.0  -0.3681
  C  C595  1  0.221300  0.487300  0.302200  1.0  0.2466
  C  C596  1  0.296900  0.705700  0.286100  1.0  0.1807
  C  C597  1  0.125600  0.858200  0.468200  1.0  0.1828
  C  C598  1  0.712700  0.183900  0.830800  1.0  0.096
  C  C599  1  0.713800  0.159300  0.521200  1.0  0.2026
  C  C600  1  0.856800  0.643400  0.729900  1.0  0.0213
  C  C601  1  0.103700  0.796500  0.591100  1.0  0.1712
  C  C602  1  0.531700  0.672800  0.593400  1.0  -0.1236
  C  C603  1  0.287300  0.816100  0.169200  1.0  0.0956
  C  C604  1  0.948000  0.012900  0.676400  1.0  -0.1716
  C  C605  1  0.337800  0.613100  0.387400  1.0  0.1733
  C  C606  1  0.143500  0.218000  0.023000  1.0  0.0423
  C  C607  1  0.443200  0.020800  0.706900  1.0  -0.0869
  C  C608  1  0.850200  0.700100  0.006000  1.0  0.2472
  C  C609  1  0.309200  0.891400  0.471700  1.0  -0.1609
  C  C610  1  0.093400  0.181100  0.146700  1.0  0.2103
  C  C611  1  0.856500  0.782000  0.977000  1.0  0.0431
  C  C612  1  0.445300  0.171700  0.728500  1.0  0.0553
  C  C613  1  0.009200  0.750900  0.864000  1.0  0.1622
  C  C614  1  0.490100  0.208200  0.764000  1.0  -0.1524
  C  C615  1  0.213800  0.340700  0.978800  1.0  0.2016
  C  C616  1  0.465700  0.179100  0.017000  1.0  0.0165
  C  C617  1  0.965700  0.320900  0.483000  1.0  0.0179
  C  C618  1  0.242000  0.922100  0.461900  1.0  -0.0826
  C  C619  1  0.754100  0.214600  0.216600  1.0  -0.0008
  C  C620  1  0.490400  0.293200  0.220800  1.0  0.1197
  C  C621  1  0.990400  0.206800  0.279200  1.0  0.1204
  C  C622  1  0.457600  0.869300  0.760300  1.0  -0.1396
  C  C623  1  0.426800  0.008100  0.752000  1.0  -0.1487
  C  C624  1  0.150900  0.338300  0.631400  1.0  -0.3825
  C  C625  1  0.552000  0.512900  0.176400  1.0  -0.1752
  C  C626  1  0.800400  0.832700  0.984200  1.0  -0.1387
  C  C627  1  0.817700  0.580000  0.238600  1.0  -0.1123
  C  C628  1  0.531000  0.667000  0.030300  1.0  0.1893
  C  C629  1  0.016400  0.368800  0.211700  1.0  -0.0469
  C  C630  1  0.479500  0.682900  0.315900  1.0  0.188
  C  C631  1  0.277600  0.553600  0.116400  1.0  -0.3683
  C  C632  1  0.521400  0.545100  0.678100  1.0  -0.1527
  C  C633  1  0.222400  0.053600  0.616400  1.0  -0.3677
  C  C634  1  0.374400  0.358200  0.968200  1.0  0.1843
  C  C635  1  0.516400  0.131200  0.288300  1.0  -0.0464
  C  C636  1  0.918900  0.865500  0.684100  1.0  0.1762
  C  C637  1  0.020500  0.182900  0.815900  1.0  0.1887
  C  C638  1  0.380500  0.573700  0.273700  1.0  0.0673
  C  C639  1  0.153800  0.821900  0.308100  1.0  0.2768
  C  C640  1  0.054200  0.246600  0.514000  1.0  -0.033
  C  C641  1  0.675500  0.999300  0.238300  1.0  0.1689
  C  C642  1  0.603700  0.703500  0.908900  1.0  0.1734
  C  C643  1  0.031000  0.833000  0.469700  1.0  0.1896
  C  C644  1  0.490800  0.250900  0.364000  1.0  0.1615
  C  C645  1  0.212000  0.523600  0.189400  1.0  0.2781
  C  C646  1  0.732700  0.100200  0.701500  1.0  -0.11
  C  C647  1  0.735300  0.772900  0.717700  1.0  -0.1077
  C  C648  1  0.428000  0.478100  0.775000  1.0  0.0275
  C  C649  1  0.745900  0.714600  0.716600  1.0  -0.0007
  C  C650  1  0.653800  0.678100  0.191900  1.0  0.2765
  C  C651  1  0.034400  0.039200  0.657200  1.0  -0.0347
  C  C652  1  0.581100  0.365500  0.184100  1.0  0.1774
  C  C653  1  0.369900  0.169600  0.665000  1.0  0.0548
  C  C654  1  0.958900  0.263700  0.351200  1.0  0.1518
  C  C655  1  0.264700  0.227100  0.282300  1.0  -0.1089
  C  C656  1  0.203400  0.641400  0.332900  1.0  0.1776
  C  C657  1  0.945800  0.753400  0.486000  1.0  -0.0365
  C  C658  1  0.794200  0.335100  0.466000  1.0  0.0399
  C  C659  1  0.864400  0.168900  0.645200  1.0  -0.3415
  C  C660  1  0.130600  0.258000  0.854800  1.0  0.1644
  C  C661  1  0.223500  0.694100  0.738800  1.0  -0.0074
  C  C662  1  0.643200  0.143400  0.229900  1.0  0.02
  C  C663  1  0.258000  0.422100  0.961900  1.0  -0.082
  C  C664  1  0.009600  0.793200  0.720800  1.0  0.1202
  C  C665  1  0.218600  0.850900  0.280100  1.0  0.0825
  C  C666  1  0.748800  0.790900  0.102800  1.0  0.1429
  C  C667  1  0.457900  0.648700  0.612200  1.0  -0.1588
  C  C668  1  0.962900  0.696800  0.484100  1.0  -0.128
  C  C669  1  0.759200  0.263900  0.875100  1.0  -0.0633
  C  C670  1  0.474100  0.381700  0.112200  1.0  0.1731
  C  C671  1  0.054800  0.188500  0.900600  1.0  0.1327
  C  C672  1  0.699600  0.332700  0.484200  1.0  -0.1383
  C  C673  1  0.554700  0.828300  0.271500  1.0  0.0573
  C  C674  1  0.095900  0.665200  0.869100  1.0  -0.358
  C  C675  1  0.369400  0.758000  0.354800  1.0  0.165
  C  C676  1  0.473500  0.196900  0.345100  1.0  0.2268
  N  N677  1  0.529800  0.715400  0.023100  1.0  -0.3782
  N  N678  1  0.640600  0.391100  0.201400  1.0  -0.5112
  N  N679  1  0.500900  0.696500  0.429400  1.0  -0.4248
  N  N680  1  0.631400  0.578300  0.788500  1.0  -0.4417
  N  N681  1  0.687800  0.520300  0.700900  1.0  -0.3905
  N  N682  1  0.302100  0.228100  0.924900  1.0  -0.4586
  N  N683  1  0.303500  0.327300  0.977300  1.0  -0.2468
  N  N684  1  0.751200  0.221000  0.836100  1.0  -0.275
  N  N685  1  0.264900  0.794800  0.677800  1.0  -0.4918
  N  N686  1  0.010500  0.225300  0.247300  1.0  -0.4426
  N  N687  1  0.802600  0.802000  0.791800  1.0  -0.402
  N  N688  1  0.228700  0.222200  0.753400  1.0  -0.4578
  N  N689  1  0.434800  0.727800  0.655200  1.0  -0.2935
  N  N690  1  0.802100  0.271900  0.575100  1.0  -0.4591
  N  N691  1  0.735200  0.990300  0.270400  1.0  -0.2655
  N  N692  1  0.131400  0.921700  0.711500  1.0  -0.4409
  N  N693  1  0.447400  0.309700  0.700500  1.0  -0.4468
  N  N694  1  0.092400  0.705500  0.198500  1.0  -0.2104
  N  N695  1  0.986700  0.989200  0.750000  1.0  -0.287
  N  N696  1  0.197400  0.198000  0.208200  1.0  -0.4
  N  N697  1  0.342600  0.802000  0.770400  1.0  -0.3681
  N  N698  1  0.052600  0.809700  0.200500  1.0  -0.4475
  N  N699  1  0.382200  0.282300  0.784500  1.0  -0.3174
  N  N700  1  0.196500  0.827300  0.477300  1.0  -0.2461
  N  N701  1  0.737100  0.671500  0.260500  1.0  -0.2618
  N  N702  1  0.631100  0.814400  0.996400  1.0  -0.3584
  N  N703  1  0.197900  0.728100  0.424900  1.0  -0.4589
  N  N704  1  0.617000  0.198900  0.641800  1.0  -0.4409
  N  N705  1  0.871000  0.377600  0.672500  1.0  -0.4764
  N  N706  1  0.868900  0.314400  0.496400  1.0  -0.3582
  N  N707  1  0.844800  0.779500  0.598000  1.0  -0.4804
  N  N708  1  0.000900  0.803500  0.070600  1.0  -0.4252
  N  N709  1  0.131100  0.685600  0.503600  1.0  -0.3561
  N  N710  1  0.155200  0.220500  0.402000  1.0  -0.4792
  N  N711  1  0.947400  0.190300  0.799500  1.0  -0.4451
  N  N712  1  0.630500  0.391200  0.701000  1.0  -0.4312
  N  N713  1  0.470200  0.284600  0.976900  1.0  -0.3763
  N  N714  1  0.697900  0.771900  0.075100  1.0  -0.4587
  N  N715  1  0.248800  0.779000  0.163900  1.0  -0.2729
  N  N716  1  0.989500  0.774700  0.752700  1.0  -0.4433
  N  N717  1  0.371000  0.122400  0.827500  1.0  -0.477
  N  N718  1  0.302600  0.698000  0.708200  1.0  -0.4025
  N  N719  1  0.842600  0.698000  0.729600  1.0  -0.3668
  N  N720  1  0.237100  0.828500  0.239500  1.0  -0.262
  N  N721  1  0.565200  0.272200  0.344800  1.0  -0.2947
  N  N722  1  0.883000  0.698900  0.141800  1.0  -0.4414
  N  N723  1  0.629000  0.877600  0.172500  1.0  -0.4755
  N  N724  1  0.020000  0.317600  0.189000  1.0  -0.3431
  N  N725  1  0.235200  0.509700  0.229600  1.0  -0.2661
  N  N726  1  0.368900  0.185600  0.003600  1.0  -0.3563
  N  N727  1  0.029800  0.784600  0.476900  1.0  -0.3787
  N  N728  1  0.859400  0.891100  0.701400  1.0  -0.5115
  N  N729  1  0.140600  0.108900  0.298600  1.0  -0.5117
  N  N730  1  0.541200  0.808400  0.855600  1.0  -0.4649
  N  N731  1  0.882200  0.217700  0.715500  1.0  -0.3146
  N  N732  1  0.771300  0.777800  0.246600  1.0  -0.4582
  N  N733  1  0.235100  0.294800  0.177800  1.0  -0.4935
  N  N734  1  0.065200  0.227800  0.155200  1.0  -0.2936
  N  N735  1  0.803500  0.172700  0.522700  1.0  -0.2477
  N  N736  1  0.808500  0.740700  0.995900  1.0  -0.3324
  N  N737  1  0.691500  0.240700  0.495900  1.0  -0.3315
  N  N738  1  0.168400  0.079000  0.909900  1.0  -0.4407
  N  N739  1  0.369500  0.608800  0.299000  1.0  -0.43
  N  N740  1  0.480000  0.817600  0.689000  1.0  -0.3434
  N  N741  1  0.312200  0.479700  0.299100  1.0  -0.3908
  N  N742  1  0.617800  0.717700  0.215500  1.0  -0.3148
  N  N743  1  0.519500  0.586900  0.910700  1.0  -0.4016
  N  N744  1  0.486700  0.510800  0.750000  1.0  -0.2861
  N  N745  1  0.458800  0.191600  0.144400  1.0  -0.4627
  N  N746  1  0.041200  0.691600  0.644400  1.0  -0.4625
  N  N747  1  0.407600  0.205500  0.698500  1.0  -0.2112
  N  N748  1  0.251200  0.279000  0.663900  1.0  -0.2731
  N  N749  1  0.117800  0.782300  0.284500  1.0  -0.3173
  N  N750  1  0.499100  0.303500  0.570600  1.0  -0.4252
  N  N751  1  0.625800  0.474000  0.822000  1.0  -0.3455
  N  N752  1  0.655200  0.279500  0.098000  1.0  -0.4788
  N  N753  1  0.748800  0.721000  0.336100  1.0  -0.2745
  N  N754  1  0.374200  0.526000  0.178000  1.0  -0.3456
  N  N755  1  0.489500  0.725300  0.747300  1.0  -0.4422
  N  N756  1  0.764900  0.705200  0.822200  1.0  -0.4942
  N  N757  1  0.520000  0.182400  0.311000  1.0  -0.3465
  N  N758  1  0.368600  0.421700  0.211500  1.0  -0.4416
  N  N759  1  0.262900  0.328500  0.739500  1.0  -0.2616
  N  N760  1  0.117000  0.301100  0.858200  1.0  -0.4457
  N  N761  1  0.383000  0.801100  0.358200  1.0  -0.4452
  N  N762  1  0.762900  0.171500  0.760500  1.0  -0.2611
  N  N763  1  0.980500  0.086900  0.410700  1.0  -0.401
  N  N764  1  0.958800  0.308400  0.355600  1.0  -0.4649
  N  N765  1  0.831600  0.921000  0.090100  1.0  -0.4413
  N  N766  1  0.129000  0.622400  0.327500  1.0  -0.4764
  N  N767  1  0.970200  0.215400  0.523100  1.0  -0.3744
  N  N768  1  0.874200  0.974000  0.322000  1.0  -0.3458
  N  N769  1  0.934800  0.772200  0.844800  1.0  -0.2941
  N  N770  1  0.510500  0.274700  0.252700  1.0  -0.4431
  N  N771  1  0.869500  0.891200  0.201000  1.0  -0.4292
  N  N772  1  0.980000  0.682400  0.811000  1.0  -0.3459
  N  N773  1  0.668400  0.421000  0.590100  1.0  -0.4412
  N  N774  1  0.130500  0.108800  0.799000  1.0  -0.4326
  N  N775  1  0.191500  0.259300  0.004100  1.0  -0.3316
  N  N776  1  0.657400  0.198000  0.229600  1.0  -0.3672
  N  N777  1  0.868600  0.078300  0.288500  1.0  -0.4433
  N  N778  1  0.271300  0.722200  0.253400  1.0  -0.4575
  N  N779  1  0.735100  0.205200  0.322200  1.0  -0.4948
  N  N780  1  0.125800  0.026000  0.678000  1.0  -0.3454
  N  N781  1  0.157400  0.302000  0.270400  1.0  -0.368
  N  N782  1  0.696500  0.672700  0.022700  1.0  -0.2475
  N  N783  1  0.331600  0.579000  0.409900  1.0  -0.4412
  N  N784  1  0.019500  0.913100  0.589300  1.0  -0.405
  N  N785  1  0.513300  0.489200  0.250000  1.0  -0.2874
  N  N786  1  0.862500  0.216900  0.442900  1.0  -0.4868
  N  N787  1  0.359400  0.608900  0.798600  1.0  -0.5117
  N  N788  1  0.697400  0.302000  0.291800  1.0  -0.4012
  N  N789  1  0.187800  0.979700  0.799100  1.0  -0.3907
  N  N790  1  0.592400  0.794500  0.301500  1.0  -0.2105
  N  N791  1  0.264800  0.009700  0.729600  1.0  -0.2637
  N  N792  1  0.480500  0.413100  0.089300  1.0  -0.404
  N  N793  1  0.552600  0.690300  0.299500  1.0  -0.4462
  N  N794  1  0.764800  0.490300  0.770400  1.0  -0.2633
  N  N795  1  0.308500  0.759300  0.504100  1.0  -0.332
  N  N796  1  0.728700  0.277800  0.746600  1.0  -0.4578
  N  N797  1  0.907600  0.294500  0.801500  1.0  -0.2108
  N  N798  1  0.362500  0.283100  0.057100  1.0  -0.4868
  N  N799  1  0.637500  0.716900  0.942900  1.0  -0.4861
  N  N800  1  0.137500  0.783100  0.557100  1.0  -0.4875
  N  N801  1  0.013300  0.010800  0.250000  1.0  -0.2872
  N  N802  1  0.812200  0.020300  0.200900  1.0  -0.3895
  N  N803  1  0.344800  0.720500  0.902000  1.0  -0.4801
  N  N804  1  0.999100  0.196500  0.929400  1.0  -0.4237
