# generated using pymatgen
data_Ni2H44W(C19N8)2
_symmetry_space_group_name_H-M   'P 1'
_cell_length_a   13.96710000
_cell_length_b   26.24570000
_cell_length_c   29.81160000
_cell_angle_alpha   95.31100000
_cell_angle_beta   90.00000000
_cell_angle_gamma   90.00000000
_symmetry_Int_Tables_number   1
_chemical_formula_structural   Ni2H44W(C19N8)2
_chemical_formula_sum   'Ni16 H352 W8 C304 N128'
_cell_volume   10881.31104902
_cell_formula_units_Z   8
loop_
 _symmetry_equiv_pos_site_id
 _symmetry_equiv_pos_as_xyz
  1  'x, y, z'
loop_
 _atom_site_type_symbol
 _atom_site_label
 _atom_site_symmetry_multiplicity
 _atom_site_fract_x
 _atom_site_fract_y
 _atom_site_fract_z
 _atom_site_occupancy
 _atom_site_charge
  Ni  Ni1  1  0.371890  0.500990  0.753750  1.0  0.633
  Ni  Ni2  1  0.833740  0.766890  0.223350  1.0  0.7352
  Ni  Ni3  1  0.628110  0.499010  0.246250  1.0  0.6295
  Ni  Ni4  1  0.128110  0.000990  0.253750  1.0  0.6318
  Ni  Ni5  1  0.166260  0.233110  0.776650  1.0  0.7352
  Ni  Ni6  1  0.834430  0.762180  0.491870  1.0  0.7351
  Ni  Ni7  1  0.115740  0.733720  0.789950  1.0  0.7573
  Ni  Ni8  1  0.384260  0.233720  0.289950  1.0  0.7569
  Ni  Ni9  1  0.165570  0.237820  0.508130  1.0  0.7345
  Ni  Ni10  1  0.334430  0.737820  0.008130  1.0  0.7349
  Ni  Ni11  1  0.871890  0.999010  0.746250  1.0  0.6308
  Ni  Ni12  1  0.615740  0.766280  0.710050  1.0  0.7535
  Ni  Ni13  1  0.665570  0.262180  0.991870  1.0  0.7347
  Ni  Ni14  1  0.666260  0.266890  0.723350  1.0  0.7348
  Ni  Ni15  1  0.884260  0.266280  0.210050  1.0  0.7531
  Ni  Ni16  1  0.333740  0.733110  0.276650  1.0  0.7354
  H  H17  1  0.365900  0.268400  0.442900  1.0  0.0957
  H  H18  1  0.597300  0.432100  0.947600  1.0  0.1267
  H  H19  1  0.188900  0.487400  0.629400  1.0  0.1194
  H  H20  1  0.507400  0.270100  0.820600  1.0  0.0943
  H  H21  1  0.243800  0.542800  0.049200  1.0  0.099
  H  H22  1  0.666400  0.954400  0.858600  1.0  0.1237
  H  H23  1  0.466400  0.150700  0.482900  1.0  0.1273
  H  H24  1  0.705000  0.711100  0.129300  1.0  0.0939
  H  H25  1  0.962900  0.716500  0.187100  1.0  0.2106
  H  H26  1  0.573900  0.344100  0.429000  1.0  0.0943
  H  H27  1  0.177300  0.327100  0.901900  1.0  0.0766
  H  H28  1  0.522600  0.203400  0.048300  1.0  0.0889
  H  H29  1  0.779500  0.660600  0.742400  1.0  0.0767
  H  H30  1  0.688900  0.012600  0.870600  1.0  0.1206
  H  H31  1  0.803600  0.090500  0.622300  1.0  0.1279
  H  H32  1  0.690800  0.601200  0.636100  1.0  0.1232
  H  H33  1  0.756200  0.457200  0.950800  1.0  0.0987
  H  H34  1  0.635000  0.911800  0.190500  1.0  0.1474
  H  H35  1  0.340600  0.837900  0.646100  1.0  0.1224
  H  H36  1  0.182600  0.278000  0.199800  1.0  0.0882
  H  H37  1  0.402700  0.567900  0.052400  1.0  0.1261
  H  H38  1  0.554000  0.619600  0.603100  1.0  0.1324
  H  H39  1  0.033600  0.650700  0.982900  1.0  0.1256
  H  H40  1  0.418800  0.273500  0.014600  1.0  0.1013
  H  H41  1  0.987900  0.290600  0.016200  1.0  0.1104
  H  H42  1  0.897400  0.672800  0.899100  1.0  0.1277
  H  H43  1  0.097300  0.067900  0.552400  1.0  0.126
  H  H44  1  0.317400  0.778000  0.699800  1.0  0.0894
  H  H45  1  0.485300  0.192000  0.955800  1.0  0.0905
  H  H46  1  0.082300  0.353800  0.846900  1.0  0.0729
  H  H47  1  0.255900  0.752500  0.401300  1.0  0.0817
  H  H48  1  0.952500  0.613500  0.789500  1.0  0.0893
  H  H49  1  0.454900  0.389700  0.938400  1.0  0.1207
  H  H50  1  0.223700  0.900600  0.813800  1.0  0.1239
  H  H51  1  0.890900  0.155800  0.548500  1.0  0.1112
  H  H52  1  0.575500  0.613400  0.011300  1.0  0.1351
  H  H53  1  0.978800  0.972000  0.182900  1.0  0.0773
  H  H54  1  0.784900  0.554200  0.113300  1.0  0.1154
  H  H55  1  0.560400  0.894200  0.698300  1.0  0.1052
  H  H56  1  0.614000  0.790800  0.791400  1.0  0.2739
  H  H57  1  0.969500  0.406800  0.276000  1.0  0.0888
  H  H58  1  0.862600  0.670500  0.479100  1.0  0.2197
  H  H59  1  0.160400  0.627800  0.696000  1.0  0.0825
  H  H60  1  0.619000  0.261300  0.410400  1.0  0.1394
  H  H61  1  0.424500  0.386600  0.988700  1.0  0.1354
  H  H62  1  0.439600  0.105800  0.301700  1.0  0.1058
  H  H63  1  0.987400  0.647300  0.219200  1.0  0.0613
  H  H64  1  0.512100  0.790600  0.516200  1.0  0.1096
  H  H65  1  0.576100  0.125500  0.365300  1.0  0.1165
  H  H66  1  0.361000  0.514400  0.236500  1.0  0.0747
  H  H67  1  0.026600  0.494000  0.723400  1.0  0.1269
  H  H68  1  0.608400  0.034600  0.648900  1.0  0.1254
  H  H69  1  0.877100  0.362500  0.635400  1.0  0.1094
  H  H70  1  0.954900  0.110300  0.561600  1.0  0.1205
  H  H71  1  0.007400  0.229900  0.679400  1.0  0.0945
  H  H72  1  0.892400  0.717900  0.112200  1.0  0.0848
  H  H73  1  0.668900  0.206300  0.222100  1.0  0.0966
  H  H74  1  0.200400  0.201700  0.235300  1.0  0.0969
  H  H75  1  0.339600  0.127800  0.196000  1.0  0.0827
  H  H76  1  0.045100  0.889700  0.438400  1.0  0.1215
  H  H77  1  0.075500  0.886600  0.488700  1.0  0.1348
  H  H78  1  0.622900  0.862500  0.135400  1.0  0.1105
  H  H79  1  0.822700  0.672900  0.098100  1.0  0.0766
  H  H80  1  0.493800  0.449900  0.355500  1.0  0.0945
  H  H81  1  0.423900  0.874500  0.634700  1.0  0.117
  H  H82  1  0.107600  0.282100  0.887800  1.0  0.0837
  H  H83  1  0.184400  0.346100  0.825700  1.0  0.065
  H  H84  1  0.977400  0.703400  0.548300  1.0  0.0896
  H  H85  1  0.021200  0.028000  0.817100  1.0  0.0773
  H  H86  1  0.688900  0.135900  0.040500  1.0  0.073
  H  H87  1  0.480000  0.425400  0.833600  1.0  0.106
  H  H88  1  0.765300  0.799300  0.814800  1.0  0.0827
  H  H89  1  0.487900  0.209400  0.483800  1.0  0.1102
  H  H90  1  0.374100  0.093800  0.529400  1.0  0.1333
  H  H91  1  0.098100  0.688100  0.490100  1.0  0.0904
  H  H92  1  0.401900  0.188100  0.990100  1.0  0.0923
  H  H93  1  0.609100  0.655800  0.048500  1.0  0.1118
  H  H94  1  0.420800  0.282600  0.488200  1.0  0.0799
  H  H95  1  0.639000  0.485600  0.763500  1.0  0.075
  H  H96  1  0.980800  0.648900  0.521900  1.0  0.074
  H  H97  1  0.092400  0.267900  0.674400  1.0  0.0862
  H  H98  1  0.980000  0.074600  0.666400  1.0  0.1026
  H  H99  1  0.133500  0.997900  0.136400  1.0  0.0907
  H  H100  1  0.303600  0.409500  0.877700  1.0  0.1236
  H  H101  1  0.395500  0.688600  0.134300  1.0  0.1011
  H  H102  1  0.602600  0.172800  0.399100  1.0  0.1278
  H  H103  1  0.924500  0.113400  0.511300  1.0  0.1351
  H  H104  1  0.800500  0.843300  0.368500  1.0  0.1017
  H  H105  1  0.012100  0.709400  0.983800  1.0  0.1095
  H  H106  1  0.485700  0.183100  0.528900  1.0  0.1362
  H  H107  1  0.390400  0.522800  0.165000  1.0  0.0956
  H  H108  1  0.715100  0.054200  0.613300  1.0  0.1137
  H  H109  1  0.333600  0.045600  0.141400  1.0  0.124
  H  H110  1  0.122900  0.637500  0.364600  1.0  0.1108
  H  H111  1  0.598100  0.811900  0.009900  1.0  0.0913
  H  H112  1  0.506200  0.550100  0.644500  1.0  0.0942
  H  H113  1  0.256200  0.042800  0.549200  1.0  0.0993
  H  H114  1  0.397400  0.827200  0.600900  1.0  0.1276
  H  H115  1  0.468200  0.186300  0.785500  1.0  0.1035
  H  H116  1  0.104500  0.188600  0.634300  1.0  0.1012
  H  H117  1  0.684400  0.153900  0.674300  1.0  0.0648
  H  H118  1  0.244100  0.252500  0.901300  1.0  0.08
  H  H119  1  0.047500  0.386500  0.210500  1.0  0.0881
  H  H120  1  0.137400  0.329500  0.520900  1.0  0.2162
  H  H121  1  0.815600  0.653900  0.174300  1.0  0.0649
  H  H122  1  0.811100  0.635900  0.540500  1.0  0.0738
  H  H123  1  0.969400  0.924800  0.809300  1.0  0.1136
  H  H124  1  0.865900  0.231600  0.057100  1.0  0.0946
  H  H125  1  0.755900  0.747500  0.098700  1.0  0.0825
  H  H126  1  0.890700  0.655900  0.245900  1.0  0.0647
  H  H127  1  0.514300  0.816900  0.471100  1.0  0.1366
  H  H128  1  0.337100  0.555800  0.642600  1.0  0.0886
  H  H129  1  0.787100  0.627300  0.652600  1.0  0.1355
  H  H130  1  0.054000  0.880400  0.896900  1.0  0.1319
  H  H131  1  0.399900  0.485600  0.308800  1.0  0.074
  H  H132  1  0.322700  0.827100  0.401900  1.0  0.0765
  H  H133  1  0.720500  0.160600  0.242400  1.0  0.0758
  H  H134  1  0.840600  0.662100  0.853900  1.0  0.126
  H  H135  1  0.891600  0.534600  0.148900  1.0  0.1257
  H  H136  1  0.398300  0.266300  0.962700  1.0  0.0829
  H  H137  1  0.743800  0.957200  0.450800  1.0  0.0989
  H  H138  1  0.060400  0.605800  0.801700  1.0  0.1066
  H  H139  1  0.811100  0.512600  0.370600  1.0  0.1205
  H  H140  1  0.196400  0.909500  0.377700  1.0  0.1246
  H  H141  1  0.199500  0.156700  0.631500  1.0  0.1047
  H  H142  1  0.545100  0.610300  0.061600  1.0  0.1213
  H  H143  1  0.607600  0.217900  0.612200  1.0  0.0842
  H  H144  1  0.108400  0.465400  0.851100  1.0  0.1265
  H  H145  1  0.600100  0.514400  0.691200  1.0  0.0742
  H  H146  1  0.215100  0.445800  0.886700  1.0  0.1168
  H  H147  1  0.499200  0.849700  0.775200  1.0  0.0974
  H  H148  1  0.135000  0.588200  0.309500  1.0  0.1472
  H  H149  1  0.076100  0.374500  0.134700  1.0  0.1171
  H  H150  1  0.968200  0.313700  0.714500  1.0  0.1036
  H  H151  1  0.206600  0.783800  0.703000  1.0  0.0989
  H  H152  1  0.898300  0.233700  0.537300  1.0  0.0817
  H  H153  1  0.809200  0.101200  0.136100  1.0  0.1228
  H  H154  1  0.100100  0.985600  0.808800  1.0  0.0726
  H  H155  1  0.459700  0.227500  0.751600  1.0  0.1073
  H  H156  1  0.234700  0.200700  0.185200  1.0  0.084
  H  H157  1  0.487400  0.852700  0.280800  1.0  0.061
  H  H158  1  0.861000  0.985600  0.263500  1.0  0.0745
  H  H159  1  0.831100  0.706300  0.722100  1.0  0.1014
  H  H160  1  0.799600  0.162200  0.986100  1.0  0.0944
  H  H161  1  0.634100  0.731600  0.557100  1.0  0.0936
  H  H162  1  0.660400  0.872200  0.804000  1.0  0.0812
  H  H163  1  0.894500  0.305700  0.615900  1.0  0.1168
  H  H164  1  0.299600  0.701700  0.735300  1.0  0.0966
  H  H165  1  0.480800  0.851100  0.978100  1.0  0.0744
  H  H166  1  0.346800  0.052100  0.734300  1.0  0.0999
  H  H167  1  0.220500  0.339400  0.257600  1.0  0.0774
  H  H168  1  0.592400  0.232100  0.825600  1.0  0.0863
  H  H169  1  0.526600  0.006000  0.776600  1.0  0.1273
  H  H170  1  0.037100  0.283500  0.812900  1.0  0.2102
  H  H171  1  0.031800  0.686300  0.285500  1.0  0.1025
  H  H172  1  0.365000  0.088200  0.809500  1.0  0.1475
  H  H173  1  0.195400  0.664500  0.399300  1.0  0.1212
  H  H174  1  0.530500  0.906800  0.776000  1.0  0.0892
  H  H175  1  0.605500  0.805700  0.115900  1.0  0.1173
  H  H176  1  0.494300  0.024800  0.702900  1.0  0.1156
  H  H177  1  0.519200  0.148900  0.021900  1.0  0.0732
  H  H178  1  0.799600  0.798300  0.764700  1.0  0.0974
  H  H179  1  0.390700  0.844100  0.254100  1.0  0.065
  H  H180  1  0.161500  0.853600  0.968200  1.0  0.0897
  H  H181  1  0.926100  0.844100  0.929000  1.0  0.0949
  H  H182  1  0.609600  0.477200  0.835000  1.0  0.0931
  H  H183  1  0.125900  0.593800  0.029400  1.0  0.133
  H  H184  1  0.625900  0.906200  0.470600  1.0  0.1333
  H  H185  1  0.467700  0.471700  0.870300  1.0  0.0963
  H  H186  1  0.596600  0.996200  0.843100  1.0  0.1292
  H  H187  1  0.101700  0.766300  0.462700  1.0  0.0829
  H  H188  1  0.897400  0.869400  0.357200  1.0  0.1223
  H  H189  1  0.159400  0.337900  0.146100  1.0  0.1233
  H  H190  1  0.079200  0.782600  0.988200  1.0  0.0807
  H  H191  1  0.999200  0.650300  0.724800  1.0  0.0975
  H  H192  1  0.699500  0.343300  0.868500  1.0  0.1042
  H  H193  1  0.315600  0.846100  0.325700  1.0  0.065
  H  H194  1  0.293400  0.283800  0.203000  1.0  0.1007
  H  H195  1  0.890400  0.977200  0.335000  1.0  0.0948
  H  H196  1  0.839600  0.372200  0.304000  1.0  0.0806
  H  H197  1  0.081200  0.773500  0.514600  1.0  0.1009
  H  H198  1  0.006200  0.949900  0.855500  1.0  0.0939
  H  H199  1  0.162900  0.055800  0.142600  1.0  0.0876
  H  H200  1  0.073900  0.155900  0.071000  1.0  0.0937
  H  H201  1  0.701900  0.191100  0.064300  1.0  0.0925
  H  H202  1  0.744100  0.247500  0.598700  1.0  0.082
  H  H203  1  0.581200  0.726500  0.985400  1.0  0.1013
  H  H204  1  0.366500  0.497900  0.636400  1.0  0.0905
  H  H205  1  0.300500  0.656700  0.131500  1.0  0.1028
  H  H206  1  0.582300  0.146200  0.653100  1.0  0.0724
  H  H207  1  0.902700  0.932100  0.447600  1.0  0.1263
  H  H208  1  0.492600  0.729900  0.179400  1.0  0.097
  H  H209  1  0.032300  0.971700  0.370300  1.0  0.0943
  H  H210  1  0.895500  0.811400  0.365700  1.0  0.1004
  H  H211  1  0.992600  0.770100  0.320600  1.0  0.0979
  H  H212  1  0.331100  0.793700  0.777900  1.0  0.1013
  H  H213  1  0.526500  0.543200  0.753600  1.0  0.2594
  H  H214  1  0.188900  0.364100  0.459500  1.0  0.0769
  H  H215  1  0.309200  0.398800  0.363900  1.0  0.1218
  H  H216  1  0.734700  0.299300  0.314800  1.0  0.0825
  H  H217  1  0.810000  0.371800  0.253200  1.0  0.0915
  H  H218  1  0.795000  0.211100  0.629300  1.0  0.095
  H  H219  1  0.377100  0.137500  0.864600  1.0  0.1104
  H  H220  1  0.690000  0.871800  0.753200  1.0  0.0918
  H  H221  1  0.212900  0.372700  0.347400  1.0  0.1381
  H  H222  1  0.695400  0.835500  0.100700  1.0  0.1212
  H  H223  1  0.682600  0.222000  0.300200  1.0  0.0876
  H  H224  1  0.190800  0.898800  0.863900  1.0  0.122
  H  H225  1  0.019200  0.351100  0.478100  1.0  0.0752
  H  H226  1  0.946000  0.119600  0.103100  1.0  0.1325
  H  H227  1  0.762600  0.416600  0.820200  1.0  0.1152
  H  H228  1  0.874100  0.406200  0.970600  1.0  0.1337
  H  H229  1  0.030500  0.593200  0.724000  1.0  0.0887
  H  H230  1  0.109300  0.344100  0.754100  1.0  0.0653
  H  H231  1  0.014700  0.692000  0.455800  1.0  0.0905
  H  H232  1  0.662900  0.444200  0.357400  1.0  0.0864
  H  H233  1  0.712900  0.127300  0.152600  1.0  0.1371
  H  H234  1  0.102600  0.130600  0.642800  1.0  0.1226
  H  H235  1  0.299600  0.337800  0.513900  1.0  0.0926
  H  H236  1  0.901900  0.311900  0.509900  1.0  0.09
  H  H237  1  0.298100  0.808900  0.935700  1.0  0.0915
  H  H238  1  0.700400  0.298300  0.264700  1.0  0.0975
  H  H239  1  0.776300  0.099400  0.186200  1.0  0.1242
  H  H240  1  0.397400  0.630600  0.142800  1.0  0.1227
  H  H241  1  0.833600  0.454400  0.358600  1.0  0.1247
  H  H242  1  0.923900  0.625500  0.865300  1.0  0.1158
  H  H243  1  0.637400  0.170500  0.979100  1.0  0.2194
  H  H244  1  0.109600  0.022800  0.665000  1.0  0.0959
  H  H245  1  0.973500  0.043200  0.253600  1.0  0.2596
  H  H246  1  0.102600  0.327200  0.100900  1.0  0.1285
  H  H247  1  0.139000  0.014400  0.736500  1.0  0.0751
  H  H248  1  0.311100  0.864100  0.959500  1.0  0.0776
  H  H249  1  0.477400  0.796600  0.951700  1.0  0.0904
  H  H250  1  0.512600  0.147300  0.719200  1.0  0.0607
  H  H251  1  0.279500  0.839400  0.757600  1.0  0.0782
  H  H252  1  0.237400  0.583400  0.179800  1.0  0.1158
  H  H253  1  0.287100  0.872700  0.847400  1.0  0.1361
  H  H254  1  0.604500  0.311400  0.865700  1.0  0.1002
  H  H255  1  0.918800  0.226500  0.485400  1.0  0.1021
  H  H256  1  0.985700  0.316900  0.971100  1.0  0.1368
  H  H257  1  0.817200  0.035900  0.597000  1.0  0.1187
  H  H258  1  0.394500  0.194300  0.884100  1.0  0.1173
  H  H259  1  0.633500  0.502100  0.363600  1.0  0.0896
  H  H260  1  0.531800  0.813700  0.214500  1.0  0.1027
  H  H261  1  0.109100  0.844200  0.451500  1.0  0.1115
  H  H262  1  0.959700  0.272500  0.748400  1.0  0.1053
  H  H263  1  0.060200  0.057100  0.740800  1.0  0.0926
  H  H264  1  0.166400  0.545600  0.641400  1.0  0.1241
  H  H265  1  0.920800  0.217400  0.011800  1.0  0.0793
  H  H266  1  0.560200  0.442900  0.759200  1.0  0.0916
  H  H267  1  0.866500  0.002100  0.863600  1.0  0.0898
  H  H268  1  0.469400  0.575200  0.690700  1.0  0.1126
  H  H269  1  0.661500  0.646400  0.531800  1.0  0.0889
  H  H270  1  0.392400  0.782100  0.387800  1.0  0.0839
  H  H271  1  0.311100  0.987400  0.129400  1.0  0.1207
  H  H272  1  0.939800  0.942900  0.259200  1.0  0.0912
  H  H273  1  0.737400  0.916600  0.320200  1.0  0.1154
  H  H274  1  0.265300  0.700700  0.685200  1.0  0.084
  H  H275  1  0.026500  0.956800  0.746400  1.0  0.2599
  H  H276  1  0.478800  0.528000  0.317100  1.0  0.0779
  H  H277  1  0.262600  0.083400  0.679800  1.0  0.1155
  H  H278  1  0.696400  0.590500  0.122300  1.0  0.1274
  H  H279  1  0.520000  0.574600  0.166400  1.0  0.1034
  H  H280  1  0.045300  0.975900  0.673200  1.0  0.0882
  H  H281  1  0.276300  0.400600  0.313800  1.0  0.1235
  H  H282  1  0.514700  0.808000  0.044200  1.0  0.0893
  H  H283  1  0.473400  0.994000  0.223400  1.0  0.1276
  H  H284  1  0.547500  0.113500  0.289500  1.0  0.088
  H  H285  1  0.723700  0.599400  0.686200  1.0  0.1241
  H  H286  1  0.865000  0.411800  0.690500  1.0  0.1468
  H  H287  1  0.182800  0.964100  0.403000  1.0  0.1194
  H  H288  1  0.391600  0.965400  0.351100  1.0  0.1255
  H  H289  1  0.381000  0.738700  0.589600  1.0  0.138
  H  H290  1  0.602600  0.369400  0.857200  1.0  0.1227
  H  H291  1  0.682800  0.535900  0.097000  1.0  0.1187
  H  H292  1  0.020000  0.925400  0.333600  1.0  0.1039
  H  H293  1  0.439800  0.557100  0.240800  1.0  0.0932
  H  H294  1  0.201900  0.308900  0.435700  1.0  0.092
  H  H295  1  0.205000  0.788900  0.370700  1.0  0.0929
  H  H296  1  0.500800  0.150300  0.224800  1.0  0.0963
  H  H297  1  0.190000  0.628200  0.746800  1.0  0.0916
  H  H298  1  0.304600  0.164500  0.899300  1.0  0.1218
  H  H299  1  0.540300  0.772500  0.248400  1.0  0.1043
  H  H300  1  0.317200  0.464100  0.903000  1.0  0.1203
  H  H301  1  0.609300  0.155900  0.745900  1.0  0.065
  H  H302  1  0.659400  0.162100  0.353900  1.0  0.1236
  H  H303  1  0.846800  0.447900  0.765700  1.0  0.0995
  H  H304  1  0.040300  0.727500  0.251600  1.0  0.1056
  H  H305  1  0.114000  0.709200  0.708600  1.0  0.2746
  H  H306  1  0.985300  0.308000  0.544200  1.0  0.0894
  H  H307  1  0.119000  0.238700  0.089600  1.0  0.139
  H  H308  1  0.454700  0.475900  0.173200  1.0  0.0861
  H  H309  1  0.530600  0.424800  0.309300  1.0  0.1132
  H  H310  1  0.022600  0.296600  0.451700  1.0  0.0898
  H  H311  1  0.881000  0.761300  0.910400  1.0  0.1387
  H  H312  1  0.473500  0.456800  0.246400  1.0  0.2592
  H  H313  1  0.403400  0.003800  0.156900  1.0  0.1284
  H  H314  1  0.793400  0.216200  0.297000  1.0  0.0991
  H  H315  1  0.000800  0.349700  0.275200  1.0  0.0969
  H  H316  1  0.096600  0.503800  0.656900  1.0  0.1279
  H  H317  1  0.532300  0.528300  0.129700  1.0  0.0957
  H  H318  1  0.917700  0.646200  0.153100  1.0  0.0722
  H  H319  1  0.310000  0.128200  0.246800  1.0  0.0916
  H  H320  1  0.903400  0.496200  0.343100  1.0  0.1258
  H  H321  1  0.030600  0.075200  0.190700  1.0  0.1126
  H  H322  1  0.899900  0.014400  0.191200  1.0  0.0721
  H  H323  1  0.798100  0.691100  0.564300  1.0  0.0923
  H  H324  1  0.973400  0.506000  0.276600  1.0  0.1278
  H  H325  1  0.533600  0.849300  0.517100  1.0  0.1275
  H  H326  1  0.505700  0.975200  0.297100  1.0  0.1136
  H  H327  1  0.386000  0.209200  0.208600  1.0  0.2735
  H  H328  1  0.295000  0.288900  0.870700  1.0  0.095
  H  H329  1  0.153200  0.552100  0.234300  1.0  0.0996
  H  H330  1  0.837100  0.944200  0.857400  1.0  0.0864
  H  H331  1  0.804600  0.335500  0.600700  1.0  0.121
  H  H332  1  0.706600  0.716200  0.797000  1.0  0.0981
  H  H333  1  0.838500  0.146400  0.031800  1.0  0.0893
  H  H334  1  0.907600  0.732100  0.325600  1.0  0.086
  H  H335  1  0.012600  0.352700  0.780800  1.0  0.0609
  H  H336  1  0.537100  0.216500  0.687100  1.0  0.2105
  H  H337  1  0.446000  0.380400  0.396900  1.0  0.1324
  H  H338  1  0.105500  0.694300  0.384100  1.0  0.1176
  H  H339  1  0.579200  0.717400  0.511800  1.0  0.0817
  H  H340  1  0.200400  0.837800  0.013900  1.0  0.093
  H  H341  1  0.426100  0.655900  0.571000  1.0  0.0933
  H  H342  1  0.886000  0.290800  0.291400  1.0  0.2729
  H  H343  1  0.014300  0.683100  0.028900  1.0  0.1369
  H  H344  1  0.452500  0.886500  0.710500  1.0  0.0888
  H  H345  1  0.284900  0.945800  0.386700  1.0  0.1147
  H  H346  1  0.338500  0.353600  0.468200  1.0  0.0894
  H  H347  1  0.817400  0.722000  0.800200  1.0  0.0891
  H  H348  1  0.005700  0.524800  0.202900  1.0  0.1142
  H  H349  1  0.362600  0.829500  0.020900  1.0  0.2166
  H  H350  1  0.993800  0.050100  0.144500  1.0  0.0929
  H  H351  1  0.966400  0.349300  0.017100  1.0  0.1269
  H  H352  1  0.653200  0.947900  0.265700  1.0  0.0996
  H  H353  1  0.545300  0.524100  0.826800  1.0  0.087
  H  H354  1  0.134100  0.768400  0.942900  1.0  0.0957
  H  H355  1  0.469500  0.093200  0.224000  1.0  0.0894
  H  H356  1  0.700400  0.662200  0.486100  1.0  0.095
  H  H357  1  0.677300  0.172900  0.598100  1.0  0.0769
  H  H358  1  0.967700  0.028300  0.629700  1.0  0.0954
  H  H359  1  0.462900  0.783500  0.312900  1.0  0.2096
  H  H360  1  0.407600  0.767900  0.174400  1.0  0.086
  H  H361  1  0.521200  0.472000  0.682900  1.0  0.078
  H  H362  1  0.417700  0.853800  0.346900  1.0  0.0716
  H  H363  1  0.994300  0.475200  0.797100  1.0  0.1134
  H  H364  1  0.168900  0.293700  0.277900  1.0  0.0966
  H  H365  1  0.939600  0.394200  0.198300  1.0  0.1056
  H  H366  1  0.954700  0.024100  0.326800  1.0  0.0872
  H  H367  1  0.390900  0.344200  0.951500  1.0  0.1121
  H  H368  1  0.601700  0.733700  0.037300  1.0  0.0826
  W  W369  1  0.960770  0.821520  0.657140  1.0  0.0328
  W  W370  1  0.157600  0.821840  0.151980  1.0  0.0121
  W  W371  1  0.657600  0.678160  0.348020  1.0  0.0237
  W  W372  1  0.539230  0.321520  0.157140  1.0  0.0262
  W  W373  1  0.342400  0.321840  0.651980  1.0  0.0095
  W  W374  1  0.039230  0.178480  0.342860  1.0  0.0325
  W  W375  1  0.842400  0.178160  0.848020  1.0  0.0164
  W  W376  1  0.460770  0.678480  0.842860  1.0  0.0352
  C  C377  1  0.162400  0.512100  0.651800  1.0  -0.3597
  C  C378  1  0.147600  0.694800  0.004200  1.0  0.2331
  C  C379  1  0.216400  0.511100  0.693900  1.0  0.2106
  C  C380  1  0.772900  0.696300  0.736700  1.0  -0.0301
  C  C381  1  0.973000  0.883800  0.616100  1.0  0.1479
  C  C382  1  0.285800  0.189100  0.833800  1.0  0.1657
  C  C383  1  0.044200  0.261300  0.351500  1.0  0.1408
  C  C384  1  0.170200  0.831200  0.826100  1.0  0.2109
  C  C385  1  0.488000  0.753400  0.636300  1.0  0.1737
  C  C386  1  0.285300  0.977100  0.308900  1.0  0.1826
  C  C387  1  0.336800  0.383500  0.609400  1.0  0.1656
  C  C388  1  0.205300  0.793700  0.214000  1.0  0.1597
  C  C389  1  0.427900  0.521500  0.230900  1.0  0.0246
  C  C390  1  0.011300  0.207500  0.278200  1.0  0.1304
  C  C391  1  0.173900  0.497800  0.736200  1.0  0.1834
  C  C392  1  0.326100  0.997800  0.236200  1.0  0.1848
  C  C393  1  0.087800  0.815700  0.854400  1.0  0.1176
  C  C394  1  0.447200  0.512500  0.180600  1.0  -0.1393
  C  C395  1  0.162000  0.301000  0.877800  1.0  -0.1432
  C  C396  1  0.072100  0.021500  0.730900  1.0  0.0218
  C  C397  1  0.240500  0.075500  0.542000  1.0  -0.0851
  C  C398  1  0.316200  0.083200  0.741800  1.0  -0.0749
  C  C399  1  0.375000  0.972500  0.322200  1.0  -0.1457
  C  C400  1  0.074600  0.491000  0.744600  1.0  -0.0972
  C  C401  1  0.213500  0.651800  0.293100  1.0  0.1331
  C  C402  1  0.942000  0.520900  0.211000  1.0  -0.0896
  C  C403  1  0.528200  0.192500  0.345000  1.0  0.2739
  C  C404  1  0.831400  0.396200  0.712500  1.0  -0.1089
  C  C405  1  0.846600  0.330700  0.625500  1.0  -0.3528
  C  C406  1  0.860800  0.838400  0.353300  1.0  -0.3609
  C  C407  1  0.533000  0.506800  0.695800  1.0  0.0224
  C  C408  1  0.870200  0.671700  0.163100  1.0  0.033
  C  C409  1  0.844900  0.825300  0.307400  1.0  0.1859
  C  C410  1  0.054500  0.760800  0.485700  1.0  -0.0028
  C  C411  1  0.036700  0.704300  0.485700  1.0  -0.0949
  C  C412  1  0.826100  0.502200  0.263800  1.0  0.1847
  C  C413  1  0.299200  0.466300  0.835200  1.0  0.2824
  C  C414  1  0.183800  0.583200  0.241800  1.0  -0.0756
  C  C415  1  0.705300  0.706300  0.286000  1.0  0.1592
  C  C416  1  0.673900  0.002200  0.763800  1.0  0.1835
  C  C417  1  0.971800  0.692500  0.845000  1.0  0.275
  C  C418  1  0.761500  0.732200  0.127000  1.0  -0.0027
  C  C419  1  0.052800  0.012500  0.680600  1.0  -0.1411
  C  C420  1  0.979500  0.185000  0.817200  1.0  0.1723
  C  C421  1  0.412200  0.315700  0.354400  1.0  0.1178
  C  C422  1  0.740500  0.424500  0.958000  1.0  -0.0789
  C  C423  1  0.902200  0.660400  0.867900  1.0  -0.3655
  C  C424  1  0.655100  0.325300  0.807400  1.0  0.1849
  C  C425  1  0.957400  0.372700  0.261700  1.0  -0.1359
  C  C426  1  0.663200  0.616500  0.390600  1.0  0.1664
  C  C427  1  0.544200  0.238700  0.148500  1.0  0.1413
  C  C428  1  0.972200  0.956800  0.828300  1.0  -0.1317
  C  C429  1  0.214200  0.689100  0.333800  1.0  0.1671
  C  C430  1  0.933400  0.775300  0.896700  1.0  -0.1804
  C  C431  1  0.027800  0.043200  0.171700  1.0  -0.1346
  C  C432  1  0.337600  0.012100  0.151800  1.0  -0.3607
  C  C433  1  0.994500  0.708400  0.267900  1.0  -0.1805
  C  C434  1  0.753100  0.713300  0.398500  1.0  0.1416
  C  C435  1  0.467000  0.493200  0.304200  1.0  0.0241
  C  C436  1  0.629800  0.171700  0.663100  1.0  0.0338
  C  C437  1  0.527000  0.383800  0.116100  1.0  0.1503
  C  C438  1  0.797900  0.644200  0.335600  1.0  0.1675
  C  C439  1  0.580600  0.634500  0.812300  1.0  0.1559
  C  C440  1  0.155100  0.174700  0.692600  1.0  0.1845
  C  C441  1  0.398700  0.613900  0.802300  1.0  0.1425
  C  C442  1  0.783600  0.488900  0.306100  1.0  0.2112
  C  C443  1  0.799200  0.033700  0.664800  1.0  0.2837
  C  C444  1  0.963500  0.153300  0.111700  1.0  -0.2121
  C  C445  1  0.512000  0.246600  0.363700  1.0  0.175
  C  C446  1  0.947200  0.987500  0.319400  1.0  -0.1421
  C  C447  1  0.865700  0.971800  0.842500  1.0  -0.005
  C  C448  1  0.942200  0.133000  0.538800  1.0  -0.3738
  C  C449  1  0.716400  0.988900  0.806100  1.0  0.2104
  C  C450  1  0.467500  0.815300  0.981000  1.0  0.0285
  C  C451  1  0.854700  0.357800  0.273700  1.0  0.0036
  C  C452  1  0.943500  0.673100  0.232400  1.0  0.0511
  C  C453  1  0.801900  0.172300  0.018200  1.0  -0.0905
  C  C454  1  0.042600  0.627300  0.738300  1.0  -0.1335
  C  C455  1  0.957600  0.316500  0.000500  1.0  -0.372
  C  C456  1  0.252100  0.715100  0.715700  1.0  0.0243
  C  C457  1  0.366900  0.239700  0.646900  1.0  0.1294
  C  C458  1  0.737900  0.229000  0.282100  1.0  -0.1193
  C  C459  1  0.132600  0.889200  0.197900  1.0  0.1475
  C  C460  1  0.857700  0.222400  0.025100  1.0  0.0146
  C  C461  1  0.747900  0.284900  0.284300  1.0  0.0239
  C  C462  1  0.919400  0.134500  0.312300  1.0  0.1546
  C  C463  1  0.538800  0.324500  0.407300  1.0  -0.1196
  C  C464  1  0.020500  0.815000  0.182800  1.0  0.1684
  C  C465  1  0.542400  0.816500  0.500500  1.0  -0.369
  C  C466  1  0.033000  0.993200  0.804200  1.0  0.024
  C  C467  1  0.556500  0.250100  0.804100  1.0  -0.0116
  C  C468  1  0.720100  0.350500  0.776100  1.0  0.1597
  C  C469  1  0.601300  0.386100  0.197700  1.0  0.143
  C  C470  1  0.261500  0.767800  0.373000  1.0  -0.0011
  C  C471  1  0.520500  0.685000  0.317200  1.0  0.172
  C  C472  1  0.200800  0.966300  0.335200  1.0  0.2831
  C  C473  1  0.168600  0.603800  0.287500  1.0  -0.1077
  C  C474  1  0.142300  0.777600  0.974900  1.0  0.0134
  C  C475  1  0.473000  0.616200  0.883900  1.0  0.1481
  C  C476  1  0.836800  0.116500  0.890600  1.0  0.1737
  C  C477  1  0.288500  0.154800  0.519800  1.0  0.1784
  C  C478  1  0.642300  0.722400  0.525100  1.0  0.0128
  C  C479  1  0.704500  0.170900  0.035400  1.0  0.0358
  C  C480  1  0.294700  0.293700  0.714000  1.0  0.1581
  C  C481  1  0.373600  0.638500  0.032800  1.0  0.1239
  C  C482  1  0.204500  0.329100  0.464600  1.0  0.0337
  C  C483  1  0.125000  0.472500  0.822200  1.0  -0.1467
  C  C484  1  0.057800  0.867000  0.461200  1.0  -0.3727
  C  C485  1  0.101300  0.113900  0.302300  1.0  0.1417
  C  C486  1  0.188900  0.605400  0.030400  1.0  -0.225
  C  C487  1  0.782300  0.055600  0.620300  1.0  -0.3715
  C  C488  1  0.222700  0.880200  0.839000  1.0  -0.3732
  C  C489  1  0.232800  0.600000  0.208700  1.0  -0.1483
  C  C490  1  0.670200  0.668800  0.673900  1.0  0.2104
  C  C491  1  0.529600  0.537900  0.161900  1.0  -0.0241
  C  C492  1  0.272900  0.803700  0.763300  1.0  -0.0285
  C  C493  1  0.346600  0.169300  0.874500  1.0  -0.354
  C  C494  1  0.555700  0.692300  0.402400  1.0  0.1603
  C  C495  1  0.927900  0.978500  0.269100  1.0  0.0244
  C  C496  1  0.479500  0.315000  0.682800  1.0  0.1693
  C  C497  1  0.531200  0.336100  0.969000  1.0  0.2103
  C  C498  1  0.444300  0.307700  0.597600  1.0  0.1616
  C  C499  1  0.572100  0.478500  0.769100  1.0  0.0219
  C  C500  1  0.527800  0.456800  0.328300  1.0  -0.136
  C  C501  1  0.634300  0.471800  0.342500  1.0  -0.0048
  C  C502  1  0.711500  0.845200  0.480200  1.0  0.1771
  C  C503  1  0.186100  0.195000  0.329700  1.0  0.1608
  C  C504  1  0.202100  0.355800  0.664400  1.0  0.1671
  C  C505  1  0.402200  0.839600  0.632100  1.0  -0.3646
  C  C506  1  0.785800  0.310900  0.666200  1.0  0.1655
  C  C507  1  0.056500  0.249900  0.695900  1.0  -0.0106
  C  C508  1  0.301900  0.327700  0.481800  1.0  -0.091
  C  C509  1  0.103700  0.198900  0.407700  1.0  0.1894
  C  C510  1  0.055700  0.807700  0.097600  1.0  0.1597
  C  C511  1  0.536500  0.653300  0.611700  1.0  -0.2118
  C  C512  1  0.767200  0.400000  0.791300  1.0  -0.1473
  C  C513  1  0.967000  0.006800  0.195800  1.0  0.0239
  C  C514  1  0.031200  0.163900  0.531000  1.0  0.2101
  C  C515  1  0.087100  0.796200  0.619700  1.0  0.1578
  C  C516  1  0.779900  0.850500  0.276100  1.0  0.1599
  C  C517  1  0.329800  0.331200  0.326100  1.0  0.2106
  C  C518  1  0.133100  0.739700  0.146900  1.0  0.1291
  C  C519  1  0.714700  0.022900  0.691100  1.0  0.1839
  C  C520  1  0.396300  0.698900  0.907700  1.0  0.1879
  C  C521  1  0.443500  0.749900  0.195900  1.0  -0.0098
  C  C522  1  0.702100  0.144200  0.835600  1.0  0.1659
  C  C523  1  0.925400  0.509000  0.255400  1.0  -0.0969
  C  C524  1  0.852400  0.305200  0.995800  1.0  0.2321
  C  C525  1  0.198100  0.827700  0.981800  1.0  -0.09
  C  C526  1  0.516300  0.872400  0.712900  1.0  0.0084
  C  C527  1  0.811100  0.394600  0.969600  1.0  -0.2216
  C  C528  1  0.331400  0.103800  0.787500  1.0  -0.1069
  C  C529  1  0.988000  0.746600  0.863700  1.0  0.1732
  C  C530  1  0.283600  0.011100  0.193900  1.0  0.2112
  C  C531  1  0.762100  0.729000  0.782100  1.0  -0.1202
  C  C532  1  0.442000  0.979100  0.289000  1.0  -0.0939
  C  C533  1  0.633100  0.760300  0.353100  1.0  0.1293
  C  C534  1  0.129800  0.328300  0.836900  1.0  0.0348
  C  C535  1  0.259500  0.575500  0.042000  1.0  -0.0794
  C  C536  1  0.163200  0.883500  0.109400  1.0  0.1729
  C  C537  1  0.688900  0.894600  0.469600  1.0  -0.2215
  C  C538  1  0.668600  0.896200  0.212500  1.0  -0.1098
  C  C539  1  0.873600  0.861500  0.467200  1.0  0.1228
  C  C540  1  0.597800  0.160400  0.367900  1.0  -0.3665
  C  C541  1  0.153400  0.669300  0.374500  1.0  -0.3529
  C  C542  1  0.097800  0.339600  0.132100  1.0  -0.3658
  C  C543  1  0.554500  0.739200  0.014300  1.0  -0.0037
  C  C544  1  0.866900  0.260300  0.853100  1.0  0.1297
  C  C545  1  0.344900  0.674700  0.192600  1.0  0.1845
  C  C546  1  0.717700  0.555600  0.120300  1.0  -0.372
  C  C547  1  0.370200  0.828300  0.336900  1.0  0.034
  C  C548  1  0.463300  0.204300  0.985700  1.0  -0.0928
  C  C549  1  0.145300  0.089700  0.544000  1.0  -0.1733
  C  C550  1  0.145300  0.642200  0.726300  1.0  0.0009
  C  C551  1  0.028200  0.307500  0.155000  1.0  0.2741
  C  C552  1  0.277300  0.380200  0.339000  1.0  -0.3724
  C  C553  1  0.295500  0.829100  0.964600  1.0  0.0323
  C  C554  1  0.058000  0.479100  0.789000  1.0  -0.0879
  C  C555  1  0.542600  0.872700  0.761700  1.0  -0.1334
  C  C556  1  0.425400  0.991000  0.244600  1.0  -0.0949
  C  C557  1  0.603700  0.301100  0.092300  1.0  0.1853
  C  C558  1  0.700800  0.533700  0.164800  1.0  0.2843
  C  C559  1  0.955800  0.738700  0.648500  1.0  0.1415
  C  C560  1  0.626400  0.361500  0.967200  1.0  0.122
  C  C561  1  0.238500  0.267800  0.873000  1.0  -0.0018
  C  C562  1  0.557800  0.633000  0.038800  1.0  -0.3745
  C  C563  1  0.311100  0.105400  0.530400  1.0  -0.2224
  C  C564  1  0.483700  0.127600  0.287100  1.0  0.0112
  C  C565  1  0.470400  0.462100  0.838100  1.0  -0.025
  C  C566  1  0.983700  0.372400  0.212900  1.0  0.0082
  C  C567  1  0.038800  0.175500  0.092700  1.0  -0.1182
  C  C568  1  0.066600  0.224700  0.103300  1.0  -0.1801
  C  C569  1  0.282300  0.444400  0.879700  1.0  -0.3728
  C  C570  1  0.777300  0.119800  0.161000  1.0  -0.3733
  C  C571  1  0.639200  0.338400  0.853300  1.0  -0.3603
  C  C572  1  0.220100  0.149500  0.723900  1.0  0.1596
  C  C573  1  0.988700  0.792500  0.721800  1.0  0.1301
  C  C574  1  0.247900  0.215100  0.215700  1.0  0.0248
  C  C575  1  0.816200  0.416800  0.758200  1.0  -0.0742
  C  C576  1  0.134300  0.028200  0.157500  1.0  -0.004
  C  C577  1  0.029600  0.962100  0.338100  1.0  -0.0245
  C  C578  1  0.838000  0.699000  0.122200  1.0  -0.1424
  C  C579  1  0.625000  0.027500  0.677800  1.0  -0.1511
  C  C580  1  0.898700  0.886100  0.697700  1.0  0.1429
  C  C581  1  0.217700  0.944400  0.379700  1.0  -0.3718
  C  C582  1  0.227100  0.303700  0.263300  1.0  -0.0287
  C  C583  1  0.354700  0.142200  0.226300  1.0  0.0019
  C  C584  1  0.139200  0.161600  0.646700  1.0  -0.3604
  C  C585  1  0.813900  0.805000  0.670300  1.0  0.162
  C  C586  1  0.662400  0.987900  0.848200  1.0  -0.3604
  C  C587  1  0.662000  0.199000  0.622200  1.0  -0.1411
  C  C588  1  0.126400  0.138500  0.532800  1.0  0.1226
  C  C589  1  0.036500  0.846700  0.888300  1.0  -0.2176
  C  C590  1  0.505500  0.208400  0.767900  1.0  -0.183
  C  C591  1  0.759500  0.924500  0.458000  1.0  -0.0752
  C  C592  1  0.746900  0.213300  0.898500  1.0  0.1405
  C  C593  1  0.445500  0.260800  0.985700  1.0  -0.0056
  C  C594  1  0.961200  0.824500  0.907300  1.0  -0.1208
  C  C595  1  0.352400  0.194800  0.504200  1.0  0.232
  C  C596  1  0.365700  0.528200  0.657500  1.0  -0.0038
  C  C597  1  0.463500  0.346700  0.388300  1.0  -0.2156
  C  C598  1  0.246900  0.286700  0.601500  1.0  0.1405
  C  C599  1  0.556500  0.173100  0.732400  1.0  0.0511
  C  C600  1  0.027000  0.116200  0.383900  1.0  0.1495
  C  C601  1  0.297900  0.855800  0.164400  1.0  0.1683
  C  C602  1  0.785300  0.522900  0.191100  1.0  0.1829
  C  C603  1  0.722700  0.619800  0.661000  1.0  -0.3734
  C  C604  1  0.354700  0.589700  0.044000  1.0  -0.1748
  C  C605  1  0.494500  0.791600  0.232100  1.0  -0.1801
  C  C606  1  0.788500  0.345200  0.980200  1.0  0.1794
  C  C607  1  0.012000  0.253400  0.136300  1.0  0.174
  C  C608  1  0.433400  0.724700  0.603300  1.0  -0.1808
  C  C609  1  0.357700  0.277600  0.474900  1.0  0.0133
  C  C610  1  0.360800  0.661600  0.146700  1.0  -0.3606
  C  C611  1  0.532500  0.184700  0.019000  1.0  0.0282
  C  C612  1  0.963300  0.295700  0.514300  1.0  -0.0938
  C  C613  1  0.587100  0.703800  0.880300  1.0  0.1578
  C  C614  1  0.786500  0.348200  0.706900  1.0  0.1339
  C  C615  1  0.488700  0.707500  0.778200  1.0  0.1307
  C  C616  1  0.471800  0.807500  0.655000  1.0  0.2743
  C  C617  1  0.566600  0.275300  0.396700  1.0  -0.1813
  C  C618  1  0.683800  0.916800  0.258200  1.0  -0.0746
  C  C619  1  0.574600  0.009000  0.755400  1.0  -0.1002
  C  C620  1  0.313900  0.695000  0.829700  1.0  0.1605
  C  C621  1  0.912900  0.203800  0.380300  1.0  0.1558
  C  C622  1  0.267200  0.100000  0.708700  1.0  -0.1485
  C  C623  1  0.854700  0.910300  0.456000  1.0  -0.1741
  C  C624  1  0.714200  0.810900  0.166200  1.0  0.1667
  C  C625  1  0.056500  0.326900  0.767600  1.0  0.0529
  C  C626  1  0.461200  0.675500  0.592700  1.0  -0.1195
  C  C627  1  0.214700  0.477100  0.808900  1.0  0.1829
  C  C628  1  0.042400  0.683500  0.999500  1.0  -0.3704
  C  C629  1  0.468800  0.663900  0.031000  1.0  0.21
  C  C630  1  0.647600  0.805200  0.495800  1.0  0.2317
  C  C631  1  0.945500  0.239200  0.514300  1.0  -0.006
  C  C632  1  0.795500  0.670900  0.535400  1.0  0.0336
  C  C633  1  0.752100  0.784900  0.784300  1.0  0.0243
  C  C634  1  0.262100  0.771000  0.717900  1.0  -0.1176
  C  C635  1  0.032500  0.315300  0.481000  1.0  0.0285
  C  C636  1  0.732800  0.900000  0.291300  1.0  -0.147
  C  C637  1  0.967500  0.684700  0.519000  1.0  0.0291
  C  C638  1  0.457600  0.183500  0.499500  1.0  -0.3727
  C  C639  1  0.457400  0.127300  0.238300  1.0  -0.1351
  C  C640  1  0.698100  0.672300  0.518200  1.0  -0.0899
  C  C641  1  0.536700  0.795700  0.014300  1.0  -0.0954
  C  C642  1  0.279900  0.649500  0.223900  1.0  0.1601
  C  C643  1  0.419400  0.365500  0.187700  1.0  0.1547
  C  C644  1  0.794700  0.206300  0.786000  1.0  0.1579
  C  C645  1  0.455800  0.761300  0.851500  1.0  0.1408
  C  C646  1  0.472200  0.543200  0.671700  1.0  -0.1362
  C  C647  1  0.080600  0.865500  0.687700  1.0  0.1559
  C  C648  1  0.367400  0.389200  0.697900  1.0  0.1475
  C  C649  1  0.970400  0.037900  0.661900  1.0  -0.0241
  C  C650  1  0.552800  0.487500  0.819400  1.0  -0.1435
  C  C651  1  0.412900  0.296200  0.119700  1.0  0.156
  C  C652  1  0.686100  0.305000  0.170300  1.0  0.1629
  C  C653  1  0.587800  0.684300  0.645600  1.0  0.1183
  C  C654  1  0.829800  0.168800  0.173900  1.0  0.2104
  C  C655  1  0.237900  0.271000  0.217900  1.0  -0.1178
  C  C656  1  0.442200  0.367000  0.961200  1.0  -0.3724
  C  C657  1  0.738500  0.232200  0.627000  1.0  -0.0017
  C  C658  1  0.912200  0.184300  0.145600  1.0  0.1184
  C  C659  1  0.632600  0.610800  0.302100  1.0  0.1485
  C  C660  1  0.645300  0.857800  0.773700  1.0  0.0027
  C  C661  1  0.016300  0.627600  0.787100  1.0  0.0109
  C  C662  1  0.558000  0.020900  0.711000  1.0  -0.0939
  C  C663  1  0.944300  0.192300  0.902400  1.0  0.1621
  C  C664  1  0.727100  0.196300  0.236700  1.0  -0.0284
  C  C665  1  0.443500  0.826900  0.267600  1.0  0.054
  C  C666  1  0.005500  0.291600  0.732100  1.0  -0.1827
  C  C667  1  0.943500  0.750100  0.304100  1.0  -0.0107
  C  C668  1  0.867400  0.110800  0.802100  1.0  0.1484
  C  C669  1  0.713500  0.848200  0.206900  1.0  0.1343
  C  C670  1  0.253100  0.786700  0.101500  1.0  0.1416
  C  C671  1  0.645300  0.410300  0.956000  1.0  -0.1741
  C  C672  1  0.896300  0.801100  0.592300  1.0  0.1837
  C  C673  1  0.968800  0.836100  0.469000  1.0  0.2101
  C  C674  1  0.875000  0.527500  0.177800  1.0  -0.1511
  C  C675  1  0.338000  0.801000  0.377800  1.0  -0.1418
  C  C676  1  0.211500  0.654800  0.019800  1.0  0.1774
  C  C677  1  0.837600  0.487900  0.348200  1.0  -0.3613
  C  C678  1  0.653400  0.830700  0.125500  1.0  -0.3529
  C  C679  1  0.286500  0.151800  0.793100  1.0  0.1335
  C  C680  1  0.511300  0.292500  0.221800  1.0  0.13
  N  N681  1  0.238300  0.171600  0.762000  1.0  -0.201
  N  N682  1  0.141100  0.889700  0.704900  1.0  -0.5161
  N  N683  1  0.846700  0.218500  0.400400  1.0  -0.4723
  N  N684  1  0.698600  0.331500  0.977700  1.0  -0.275
  N  N685  1  0.500100  0.301300  0.570100  1.0  -0.4402
  N  N686  1  0.728300  0.721300  0.252800  1.0  -0.4424
  N  N687  1  0.481100  0.178900  0.310100  1.0  -0.3442
  N  N688  1  0.968300  0.790100  0.477400  1.0  -0.3645
  N  N689  1  0.137500  0.211500  0.441700  1.0  -0.47
  N  N690  1  0.344400  0.198200  0.229100  1.0  -0.3787
  N  N691  1  0.878600  0.074900  0.777400  1.0  -0.4373
  N  N692  1  0.877700  0.025300  0.682100  1.0  -0.3448
  N  N693  1  0.518900  0.821100  0.689900  1.0  -0.3464
  N  N694  1  0.668500  0.583100  0.412800  1.0  -0.4556
  N  N695  1  0.031700  0.209900  0.522600  1.0  -0.365
  N  N696  1  0.763100  0.509200  0.232300  1.0  -0.2874
  N  N697  1  0.619600  0.803600  0.355900  1.0  -0.4598
  N  N698  1  0.507500  0.727100  0.747100  1.0  -0.4456
  N  N699  1  0.266600  0.201900  0.321500  1.0  -0.5037
  N  N700  1  0.880400  0.303600  0.855900  1.0  -0.4593
  N  N701  1  0.801800  0.732600  0.425600  1.0  -0.4416
  N  N702  1  0.310100  0.518900  0.695000  1.0  -0.3422
  N  N703  1  0.377700  0.474700  0.817900  1.0  -0.3457
  N  N704  1  0.771700  0.221300  0.752800  1.0  -0.4405
  N  N705  1  0.689800  0.763900  0.505200  1.0  -0.369
  N  N706  1  0.831500  0.083100  0.912800  1.0  -0.456
  N  N707  1  0.189900  0.018900  0.195000  1.0  -0.3415
  N  N708  1  0.228300  0.778700  0.247200  1.0  -0.4426
  N  N709  1  0.253000  0.726300  0.338000  1.0  -0.1974
  N  N710  1  0.631400  0.190100  0.005800  1.0  -0.3392
  N  N711  1  0.870300  0.922100  0.717400  1.0  -0.4548
  N  N712  1  0.236900  0.490800  0.767700  1.0  -0.286
  N  N713  1  0.693700  0.701100  0.707000  1.0  -0.3762
  N  N714  1  0.346700  0.281500  0.099600  1.0  -0.4729
  N  N715  1  0.468300  0.709900  0.022600  1.0  -0.3633
  N  N716  1  0.007500  0.772900  0.752900  1.0  -0.4467
  N  N717  1  0.499900  0.698700  0.429900  1.0  -0.4396
  N  N718  1  0.153300  0.781500  0.599600  1.0  -0.472
  N  N719  1  0.655600  0.801800  0.770900  1.0  -0.3777
  N  N720  1  0.766600  0.298100  0.178500  1.0  -0.5023
  N  N721  1  0.455400  0.805100  0.856200  1.0  -0.4468
  N  N722  1  0.306300  0.298900  0.293000  1.0  -0.3778
  N  N723  1  0.408900  0.796400  0.301100  1.0  -0.2885
  N  N724  1  0.698200  0.232600  0.925600  1.0  -0.4403
  N  N725  1  0.477900  0.583000  0.905900  1.0  -0.4334
  N  N726  1  0.492500  0.272900  0.252900  1.0  -0.4466
  N  N727  1  0.168500  0.916900  0.087200  1.0  -0.454
  N  N728  1  0.358900  0.389700  0.204900  1.0  -0.5165
  N  N729  1  0.155600  0.698200  0.729100  1.0  -0.3786
  N  N730  1  0.383200  0.717800  0.215600  1.0  -0.3311
  N  N731  1  0.370300  0.577900  0.782600  1.0  -0.4554
  N  N732  1  0.247000  0.226300  0.838000  1.0  -0.1977
  N  N733  1  0.128200  0.375300  0.669200  1.0  -0.5055
  N  N734  1  0.122300  0.974700  0.317900  1.0  -0.3456
  N  N735  1  0.883200  0.782200  0.284400  1.0  -0.33
  N  N736  1  0.761700  0.828400  0.238000  1.0  -0.2011
  N  N737  1  0.131400  0.309900  0.494200  1.0  -0.3392
  N  N738  1  0.052900  0.191500  0.802000  1.0  -0.4567
  N  N739  1  0.233400  0.701900  0.821500  1.0  -0.5043
  N  N740  1  0.736900  0.009200  0.732300  1.0  -0.2868
  N  N741  1  0.261700  0.671600  0.262000  1.0  -0.2008
  N  N742  1  0.119600  0.696400  0.144100  1.0  -0.4566
  N  N743  1  0.380400  0.196400  0.644100  1.0  -0.4564
  N  N744  1  0.868600  0.690100  0.505800  1.0  -0.3383
  N  N745  1  0.738300  0.328400  0.738000  1.0  -0.2009
  N  N746  1  0.091100  0.296400  0.801100  1.0  -0.2876
  N  N747  1  0.531700  0.290100  0.977400  1.0  -0.3654
  N  N748  1  0.193700  0.798900  0.793000  1.0  -0.3756
  N  N749  1  0.544600  0.194900  0.143800  1.0  -0.4437
  N  N750  1  0.801400  0.831500  0.477700  1.0  -0.2747
  N  N751  1  0.977900  0.917000  0.594100  1.0  -0.4346
  N  N752  1  0.198600  0.168500  0.522300  1.0  -0.2763
  N  N753  1  0.810200  0.263900  0.005200  1.0  -0.3683
  N  N754  1  0.362500  0.711500  0.941700  1.0  -0.4705
  N  N755  1  0.271700  0.278700  0.747200  1.0  -0.441
  N  N756  1  0.121400  0.925100  0.222600  1.0  -0.4392
  N  N757  1  0.858900  0.110300  0.295100  1.0  -0.5173
  N  N758  1  0.871800  0.624700  0.330800  1.0  -0.5063
  N  N759  1  0.938000  0.231100  0.155200  1.0  -0.3192
  N  N760  1  0.862500  0.788500  0.558300  1.0  -0.4717
  N  N761  1  0.689900  0.481100  0.305000  1.0  -0.3411
  N  N762  1  0.044600  0.305100  0.356200  1.0  -0.4463
  N  N763  1  0.263100  0.990800  0.267700  1.0  -0.2823
  N  N764  1  0.368600  0.809900  0.994200  1.0  -0.3385
  N  N765  1  0.513100  0.510300  0.743100  1.0  -0.3491
  N  N766  1  0.992500  0.227100  0.247100  1.0  -0.4449
  N  N767  1  0.747000  0.273700  0.662000  1.0  -0.1954
  N  N768  1  0.301400  0.668500  0.022300  1.0  -0.2762
  N  N769  1  0.616800  0.282200  0.784400  1.0  -0.3296
  N  N770  1  0.018900  0.678900  0.810100  1.0  -0.3456
  N  N771  1  0.628200  0.124700  0.830800  1.0  -0.5054
  N  N772  1  0.062000  0.768900  0.844800  1.0  -0.3198
  N  N773  1  0.641100  0.610300  0.795100  1.0  -0.5166
  N  N774  1  0.189800  0.736100  0.994800  1.0  -0.3697
  N  N775  1  0.653300  0.718500  0.900400  1.0  -0.4721
  N  N776  1  0.810100  0.981100  0.805000  1.0  -0.3413
  N  N777  1  0.486900  0.489700  0.256900  1.0  -0.3486
  N  N778  1  0.438000  0.268900  0.344800  1.0  -0.3191
  N  N779  1  0.116800  0.217800  0.715600  1.0  -0.3317
  N  N780  1  0.522100  0.417000  0.094100  1.0  -0.434
  N  N781  1  0.622300  0.525300  0.182100  1.0  -0.3439
  N  N782  1  0.301800  0.767400  0.074400  1.0  -0.4424
  N  N783  1  0.908900  0.703600  0.198900  1.0  -0.2885
  N  N784  1  0.806300  0.201100  0.207000  1.0  -0.3779
  N  N785  1  0.552900  0.308500  0.698000  1.0  -0.457
  N  N786  1  0.198200  0.267400  0.574400  1.0  -0.4404
  N  N787  1  0.022100  0.083000  0.405900  1.0  -0.4324
  N  N788  1  0.371800  0.875300  0.169200  1.0  -0.5074
  N  N789  1  0.955400  0.694900  0.643800  1.0  -0.4439
  N  N790  1  0.981100  0.321100  0.189900  1.0  -0.3452
  N  N791  1  0.947100  0.808500  0.198000  1.0  -0.4575
  N  N792  1  0.621400  0.574900  0.277400  1.0  -0.4371
  N  N793  1  0.000100  0.198700  0.929900  1.0  -0.4402
  N  N794  1  0.591100  0.203600  0.698900  1.0  -0.287
  N  N795  1  0.331500  0.416900  0.587200  1.0  -0.4538
  N  N796  1  0.999900  0.801300  0.070100  1.0  -0.4408
  N  N797  1  0.986900  0.010300  0.243100  1.0  -0.3492
  N  N798  1  0.129700  0.077900  0.282600  1.0  -0.4542
  N  N799  1  0.844400  0.301800  0.270900  1.0  -0.3787
  N  N800  1  0.753000  0.773700  0.162000  1.0  -0.1953
  N  N801  1  0.310200  0.236100  0.494800  1.0  -0.3689
  N  N802  1  0.013100  0.989700  0.756900  1.0  -0.3484
  N  N803  1  0.629700  0.422100  0.217400  1.0  -0.4541
  N  N804  1  0.733400  0.798100  0.678500  1.0  -0.5036
  N  N805  1  0.447100  0.691500  0.302000  1.0  -0.4566
  N  N806  1  0.637500  0.288500  0.058300  1.0  -0.4718
  N  N807  1  0.562000  0.731100  0.655200  1.0  -0.3199
  N  N808  1  0.378600  0.425100  0.722600  1.0  -0.4389
