# generated using pymatgen
data_AgPH12(C2N)3
_symmetry_space_group_name_H-M   'P 1'
_cell_length_a   26.30600000
_cell_length_b   49.55500000
_cell_length_c   10.71010000
_cell_angle_alpha   90.00000000
_cell_angle_beta   90.00000000
_cell_angle_gamma   90.00000000
_symmetry_Int_Tables_number   1
_chemical_formula_structural   AgPH12(C2N)3
_chemical_formula_sum   'Ag48 P48 H576 C288 N144'
_cell_volume   13961.62027868
_cell_formula_units_Z   48
loop_
 _symmetry_equiv_pos_site_id
 _symmetry_equiv_pos_as_xyz
  1  'x, y, z'
loop_
 _atom_site_type_symbol
 _atom_site_label
 _atom_site_symmetry_multiplicity
 _atom_site_fract_x
 _atom_site_fract_y
 _atom_site_fract_z
 _atom_site_occupancy
 _atom_site_charge
  Ag  Ag1  1  0.285760  0.172410  0.017890  1.0  0.3081
  Ag  Ag2  1  0.396030  0.257210  0.605100  1.0  0.3283
  Ag  Ag3  1  0.519000  0.156210  0.814020  1.0  0.2744
  Ag  Ag4  1  0.285760  0.672410  0.517890  1.0  0.3081
  Ag  Ag5  1  0.396030  0.757210  0.105100  1.0  0.3283
  Ag  Ag6  1  0.519000  0.656210  0.314020  1.0  0.2744
  Ag  Ag7  1  0.785760  0.172410  0.517890  1.0  0.3081
  Ag  Ag8  1  0.896030  0.257210  0.105100  1.0  0.3283
  Ag  Ag9  1  0.019000  0.156210  0.314020  1.0  0.2744
  Ag  Ag10  1  0.785760  0.672410  0.017890  1.0  0.3081
  Ag  Ag11  1  0.896030  0.757210  0.605100  1.0  0.3283
  Ag  Ag12  1  0.019000  0.656210  0.814020  1.0  0.2744
  Ag  Ag13  1  0.714240  0.827590  0.017890  1.0  0.3083
  Ag  Ag14  1  0.603970  0.742790  0.605100  1.0  0.3274
  Ag  Ag15  1  0.481000  0.843790  0.814020  1.0  0.2736
  Ag  Ag16  1  0.714240  0.327590  0.517890  1.0  0.3083
  Ag  Ag17  1  0.603970  0.242790  0.105100  1.0  0.3274
  Ag  Ag18  1  0.481000  0.343790  0.314020  1.0  0.2736
  Ag  Ag19  1  0.214240  0.827590  0.517890  1.0  0.3083
  Ag  Ag20  1  0.103970  0.742790  0.105100  1.0  0.3274
  Ag  Ag21  1  0.981000  0.843790  0.314020  1.0  0.2736
  Ag  Ag22  1  0.214240  0.327590  0.017890  1.0  0.3083
  Ag  Ag23  1  0.103970  0.242790  0.605100  1.0  0.3274
  Ag  Ag24  1  0.981000  0.343790  0.814020  1.0  0.2736
  Ag  Ag25  1  0.535760  0.077590  0.267890  1.0  0.3082
  Ag  Ag26  1  0.646030  0.992790  0.855100  1.0  0.3277
  Ag  Ag27  1  0.769000  0.093790  0.064020  1.0  0.2726
  Ag  Ag28  1  0.535760  0.577590  0.767890  1.0  0.3082
  Ag  Ag29  1  0.646030  0.492790  0.355100  1.0  0.3277
  Ag  Ag30  1  0.769000  0.593790  0.564020  1.0  0.2726
  Ag  Ag31  1  0.035760  0.077590  0.767890  1.0  0.3082
  Ag  Ag32  1  0.146030  0.992790  0.355100  1.0  0.3277
  Ag  Ag33  1  0.269000  0.093790  0.564020  1.0  0.2726
  Ag  Ag34  1  0.035760  0.577590  0.267890  1.0  0.3082
  Ag  Ag35  1  0.146030  0.492790  0.855100  1.0  0.3277
  Ag  Ag36  1  0.269000  0.593790  0.064020  1.0  0.2726
  Ag  Ag37  1  0.964240  0.422410  0.267890  1.0  0.3076
  Ag  Ag38  1  0.853970  0.507210  0.855100  1.0  0.328
  Ag  Ag39  1  0.731000  0.406210  0.064020  1.0  0.2752
  Ag  Ag40  1  0.964240  0.922410  0.767890  1.0  0.3076
  Ag  Ag41  1  0.853970  0.007210  0.355100  1.0  0.328
  Ag  Ag42  1  0.731000  0.906210  0.564020  1.0  0.2752
  Ag  Ag43  1  0.464240  0.422410  0.767890  1.0  0.3076
  Ag  Ag44  1  0.353970  0.507210  0.355100  1.0  0.328
  Ag  Ag45  1  0.231000  0.406210  0.564020  1.0  0.2752
  Ag  Ag46  1  0.464240  0.922410  0.267890  1.0  0.3076
  Ag  Ag47  1  0.353970  0.007210  0.855100  1.0  0.328
  Ag  Ag48  1  0.231000  0.906210  0.064020  1.0  0.2752
  P  P49  1  0.346240  0.215910  0.812820  1.0  1.2385
  P  P50  1  0.393840  0.165790  0.833280  1.0  1.3283
  P  P51  1  0.454720  0.211170  0.780590  1.0  1.2042
  P  P52  1  0.346240  0.715910  0.312820  1.0  1.2385
  P  P53  1  0.393840  0.665790  0.333280  1.0  1.3283
  P  P54  1  0.454720  0.711170  0.280590  1.0  1.2042
  P  P55  1  0.846240  0.215910  0.312820  1.0  1.2385
  P  P56  1  0.893840  0.165790  0.333280  1.0  1.3283
  P  P57  1  0.954720  0.211170  0.280590  1.0  1.2042
  P  P58  1  0.846240  0.715910  0.812820  1.0  1.2385
  P  P59  1  0.893840  0.665790  0.833280  1.0  1.3283
  P  P60  1  0.954720  0.711170  0.780590  1.0  1.2042
  P  P61  1  0.653760  0.784090  0.812820  1.0  1.2322
  P  P62  1  0.606160  0.834210  0.833280  1.0  1.3307
  P  P63  1  0.545280  0.788830  0.780590  1.0  1.2059
  P  P64  1  0.653760  0.284090  0.312820  1.0  1.2322
  P  P65  1  0.606160  0.334210  0.333280  1.0  1.3307
  P  P66  1  0.545280  0.288830  0.280590  1.0  1.2059
  P  P67  1  0.153760  0.784090  0.312820  1.0  1.2322
  P  P68  1  0.106160  0.834210  0.333280  1.0  1.3307
  P  P69  1  0.045280  0.788830  0.280590  1.0  1.2059
  P  P70  1  0.153760  0.284090  0.812820  1.0  1.2322
  P  P71  1  0.106160  0.334210  0.833280  1.0  1.3307
  P  P72  1  0.045280  0.288830  0.780590  1.0  1.2059
  P  P73  1  0.596240  0.034090  0.062820  1.0  1.2374
  P  P74  1  0.643840  0.084210  0.083280  1.0  1.3306
  P  P75  1  0.704720  0.038830  0.030590  1.0  1.2022
  P  P76  1  0.596240  0.534090  0.562820  1.0  1.2374
  P  P77  1  0.643840  0.584210  0.583280  1.0  1.3306
  P  P78  1  0.704720  0.538830  0.530590  1.0  1.2022
  P  P79  1  0.096240  0.034090  0.562820  1.0  1.2374
  P  P80  1  0.143840  0.084210  0.583280  1.0  1.3306
  P  P81  1  0.204720  0.038830  0.530590  1.0  1.2022
  P  P82  1  0.096240  0.534090  0.062820  1.0  1.2374
  P  P83  1  0.143840  0.584210  0.083280  1.0  1.3306
  P  P84  1  0.204720  0.538830  0.030590  1.0  1.2022
  P  P85  1  0.903760  0.465910  0.062820  1.0  1.2335
  P  P86  1  0.856160  0.415790  0.083280  1.0  1.3284
  P  P87  1  0.795280  0.461170  0.030590  1.0  1.2074
  P  P88  1  0.903760  0.965910  0.562820  1.0  1.2335
  P  P89  1  0.856160  0.915790  0.583280  1.0  1.3284
  P  P90  1  0.795280  0.961170  0.530590  1.0  1.2074
  P  P91  1  0.403760  0.465910  0.562820  1.0  1.2335
  P  P92  1  0.356160  0.415790  0.583280  1.0  1.3284
  P  P93  1  0.295280  0.461170  0.530590  1.0  1.2074
  P  P94  1  0.403760  0.965910  0.062820  1.0  1.2335
  P  P95  1  0.356160  0.915790  0.083280  1.0  1.3284
  P  P96  1  0.295280  0.961170  0.030590  1.0  1.2074
  H  H97  1  0.302600  0.248400  0.904000  1.0  0.1818
  H  H98  1  0.344600  0.249500  0.090900  1.0  0.0452
  H  H99  1  0.370200  0.221200  0.056400  1.0  0.0594
  H  H100  1  0.310400  0.209500  0.207900  1.0  0.0434
  H  H101  1  0.239000  0.221900  0.027300  1.0  0.0846
  H  H102  1  0.229400  0.205100  0.157600  1.0  0.1416
  H  H103  1  0.391800  0.124300  0.903800  1.0  0.1402
  H  H104  1  0.405400  0.164400  0.084300  1.0  0.0667
  H  H105  1  0.418900  0.133300  0.106900  1.0  0.0707
  H  H106  1  0.337700  0.150100  0.206600  1.0  0.0351
  H  H107  1  0.307200  0.118400  0.009200  1.0  0.1093
  H  H108  1  0.274100  0.126400  0.134100  1.0  0.1361
  H  H109  1  0.515400  0.237200  0.853000  1.0  0.1911
  H  H110  1  0.462200  0.207900  0.031300  1.0  0.0553
  H  H111  1  0.481800  0.237900  0.057400  1.0  0.0385
  H  H112  1  0.539400  0.206800  0.158100  1.0  0.0213
  H  H113  1  0.581800  0.205900  0.919200  1.0  0.1196
  H  H114  1  0.609500  0.196500  0.049800  1.0  0.1123
  H  H115  1  0.275400  0.229000  0.719900  1.0  0.1787
  H  H116  1  0.283700  0.200700  0.546600  1.0  0.0737
  H  H117  1  0.343000  0.198600  0.577000  1.0  0.0535
  H  H118  1  0.341200  0.228500  0.406800  1.0  0.0466
  H  H119  1  0.294700  0.265100  0.573000  1.0  0.0799
  H  H120  1  0.319500  0.272500  0.436200  1.0  0.1519
  H  H121  1  0.411300  0.153400  0.643000  1.0  0.2411
  H  H122  1  0.338100  0.141300  0.554800  1.0  0.0518
  H  H123  1  0.309100  0.157200  0.663800  1.0  0.0399
  H  H124  1  0.345700  0.103100  0.701600  1.0  0.0268
  H  H125  1  0.254000  0.127200  0.769100  1.0  0.1121
  H  H126  1  0.271700  0.096000  0.799400  1.0  0.1021
  H  H127  1  0.470500  0.223300  0.586600  1.0  0.2256
  H  H128  1  0.559000  0.211200  0.702600  1.0  0.0546
  H  H129  1  0.552300  0.213900  0.554900  1.0  0.0846
  H  H130  1  0.516500  0.165600  0.577400  1.0  0.0074
  H  H131  1  0.610300  0.169700  0.697500  1.0  0.174
  H  H132  1  0.583500  0.141900  0.645600  1.0  0.123
  H  H133  1  0.302600  0.748400  0.404000  1.0  0.1818
  H  H134  1  0.344600  0.749500  0.590900  1.0  0.0452
  H  H135  1  0.370200  0.721200  0.556400  1.0  0.0594
  H  H136  1  0.310400  0.709500  0.707900  1.0  0.0434
  H  H137  1  0.239000  0.721900  0.527300  1.0  0.0846
  H  H138  1  0.229400  0.705100  0.657600  1.0  0.1416
  H  H139  1  0.391800  0.624300  0.403800  1.0  0.1402
  H  H140  1  0.405400  0.664400  0.584300  1.0  0.0667
  H  H141  1  0.418900  0.633300  0.606900  1.0  0.0707
  H  H142  1  0.337700  0.650100  0.706600  1.0  0.0351
  H  H143  1  0.307200  0.618400  0.509200  1.0  0.1093
  H  H144  1  0.274100  0.626400  0.634100  1.0  0.1361
  H  H145  1  0.515400  0.737200  0.353000  1.0  0.1911
  H  H146  1  0.462200  0.707900  0.531300  1.0  0.0553
  H  H147  1  0.481800  0.737900  0.557400  1.0  0.0385
  H  H148  1  0.539400  0.706800  0.658100  1.0  0.0213
  H  H149  1  0.581800  0.705900  0.419200  1.0  0.1196
  H  H150  1  0.609500  0.696500  0.549800  1.0  0.1123
  H  H151  1  0.275400  0.729000  0.219900  1.0  0.1787
  H  H152  1  0.283700  0.700700  0.046600  1.0  0.0737
  H  H153  1  0.343000  0.698600  0.077000  1.0  0.0535
  H  H154  1  0.341200  0.728500  0.906800  1.0  0.0466
  H  H155  1  0.294700  0.765100  0.073000  1.0  0.0799
  H  H156  1  0.319500  0.772500  0.936200  1.0  0.1519
  H  H157  1  0.411300  0.653400  0.143000  1.0  0.2411
  H  H158  1  0.338100  0.641300  0.054800  1.0  0.0518
  H  H159  1  0.309100  0.657200  0.163800  1.0  0.0399
  H  H160  1  0.345700  0.603100  0.201600  1.0  0.0268
  H  H161  1  0.254000  0.627200  0.269100  1.0  0.1121
  H  H162  1  0.271700  0.596000  0.299400  1.0  0.1021
  H  H163  1  0.470500  0.723300  0.086600  1.0  0.2256
  H  H164  1  0.559000  0.711200  0.202600  1.0  0.0546
  H  H165  1  0.552300  0.713900  0.054900  1.0  0.0846
  H  H166  1  0.516500  0.665600  0.077400  1.0  0.0074
  H  H167  1  0.610300  0.669700  0.197500  1.0  0.174
  H  H168  1  0.583500  0.641900  0.145600  1.0  0.123
  H  H169  1  0.802600  0.248400  0.404000  1.0  0.1818
  H  H170  1  0.844600  0.249500  0.590900  1.0  0.0452
  H  H171  1  0.870200  0.221200  0.556400  1.0  0.0594
  H  H172  1  0.810400  0.209500  0.707900  1.0  0.0434
  H  H173  1  0.739000  0.221900  0.527300  1.0  0.0846
  H  H174  1  0.729400  0.205100  0.657600  1.0  0.1416
  H  H175  1  0.891800  0.124300  0.403800  1.0  0.1402
  H  H176  1  0.905400  0.164400  0.584300  1.0  0.0667
  H  H177  1  0.918900  0.133300  0.606900  1.0  0.0707
  H  H178  1  0.837700  0.150100  0.706600  1.0  0.0351
  H  H179  1  0.807200  0.118400  0.509200  1.0  0.1093
  H  H180  1  0.774100  0.126400  0.634100  1.0  0.1361
  H  H181  1  0.015400  0.237200  0.353000  1.0  0.1911
  H  H182  1  0.962200  0.207900  0.531300  1.0  0.0553
  H  H183  1  0.981800  0.237900  0.557400  1.0  0.0385
  H  H184  1  0.039400  0.206800  0.658100  1.0  0.0213
  H  H185  1  0.081800  0.205900  0.419200  1.0  0.1196
  H  H186  1  0.109500  0.196500  0.549800  1.0  0.1123
  H  H187  1  0.775400  0.229000  0.219900  1.0  0.1787
  H  H188  1  0.783700  0.200700  0.046600  1.0  0.0737
  H  H189  1  0.843000  0.198600  0.077000  1.0  0.0535
  H  H190  1  0.841200  0.228500  0.906800  1.0  0.0466
  H  H191  1  0.794700  0.265100  0.073000  1.0  0.0799
  H  H192  1  0.819500  0.272500  0.936200  1.0  0.1519
  H  H193  1  0.911300  0.153400  0.143000  1.0  0.2411
  H  H194  1  0.838100  0.141300  0.054800  1.0  0.0518
  H  H195  1  0.809100  0.157200  0.163800  1.0  0.0399
  H  H196  1  0.845700  0.103100  0.201600  1.0  0.0268
  H  H197  1  0.754000  0.127200  0.269100  1.0  0.1121
  H  H198  1  0.771700  0.096000  0.299400  1.0  0.1021
  H  H199  1  0.970500  0.223300  0.086600  1.0  0.2256
  H  H200  1  0.059000  0.211200  0.202600  1.0  0.0546
  H  H201  1  0.052300  0.213900  0.054900  1.0  0.0846
  H  H202  1  0.016500  0.165600  0.077400  1.0  0.0074
  H  H203  1  0.110300  0.169700  0.197500  1.0  0.174
  H  H204  1  0.083500  0.141900  0.145600  1.0  0.123
  H  H205  1  0.802600  0.748400  0.904000  1.0  0.1818
  H  H206  1  0.844600  0.749500  0.090900  1.0  0.0452
  H  H207  1  0.870200  0.721200  0.056400  1.0  0.0594
  H  H208  1  0.810400  0.709500  0.207900  1.0  0.0434
  H  H209  1  0.739000  0.721900  0.027300  1.0  0.0846
  H  H210  1  0.729400  0.705100  0.157600  1.0  0.1416
  H  H211  1  0.891800  0.624300  0.903800  1.0  0.1402
  H  H212  1  0.905400  0.664400  0.084300  1.0  0.0667
  H  H213  1  0.918900  0.633300  0.106900  1.0  0.0707
  H  H214  1  0.837700  0.650100  0.206600  1.0  0.0351
  H  H215  1  0.807200  0.618400  0.009200  1.0  0.1093
  H  H216  1  0.774100  0.626400  0.134100  1.0  0.1361
  H  H217  1  0.015400  0.737200  0.853000  1.0  0.1911
  H  H218  1  0.962200  0.707900  0.031300  1.0  0.0553
  H  H219  1  0.981800  0.737900  0.057400  1.0  0.0385
  H  H220  1  0.039400  0.706800  0.158100  1.0  0.0213
  H  H221  1  0.081800  0.705900  0.919200  1.0  0.1196
  H  H222  1  0.109500  0.696500  0.049800  1.0  0.1123
  H  H223  1  0.775400  0.729000  0.719900  1.0  0.1787
  H  H224  1  0.783700  0.700700  0.546600  1.0  0.0737
  H  H225  1  0.843000  0.698600  0.577000  1.0  0.0535
  H  H226  1  0.841200  0.728500  0.406800  1.0  0.0466
  H  H227  1  0.794700  0.765100  0.573000  1.0  0.0799
  H  H228  1  0.819500  0.772500  0.436200  1.0  0.1519
  H  H229  1  0.911300  0.653400  0.643000  1.0  0.2411
  H  H230  1  0.838100  0.641300  0.554800  1.0  0.0518
  H  H231  1  0.809100  0.657200  0.663800  1.0  0.0399
  H  H232  1  0.845700  0.603100  0.701600  1.0  0.0268
  H  H233  1  0.754000  0.627200  0.769100  1.0  0.1121
  H  H234  1  0.771700  0.596000  0.799400  1.0  0.1021
  H  H235  1  0.970500  0.723300  0.586600  1.0  0.2256
  H  H236  1  0.059000  0.711200  0.702600  1.0  0.0546
  H  H237  1  0.052300  0.713900  0.554900  1.0  0.0846
  H  H238  1  0.016500  0.665600  0.577400  1.0  0.0074
  H  H239  1  0.110300  0.669700  0.697500  1.0  0.174
  H  H240  1  0.083500  0.641900  0.645600  1.0  0.123
  H  H241  1  0.697400  0.751600  0.904000  1.0  0.1812
  H  H242  1  0.655400  0.750500  0.090900  1.0  0.0457
  H  H243  1  0.629800  0.778800  0.056400  1.0  0.0596
  H  H244  1  0.689600  0.790500  0.207900  1.0  0.0432
  H  H245  1  0.761000  0.778100  0.027300  1.0  0.0842
  H  H246  1  0.770600  0.794900  0.157600  1.0  0.1403
  H  H247  1  0.608200  0.875700  0.903800  1.0  0.1377
  H  H248  1  0.594600  0.835600  0.084300  1.0  0.0665
  H  H249  1  0.581100  0.866700  0.106900  1.0  0.0699
  H  H250  1  0.662300  0.849900  0.206600  1.0  0.0359
  H  H251  1  0.692800  0.881600  0.009200  1.0  0.1084
  H  H252  1  0.725900  0.873600  0.134100  1.0  0.1389
  H  H253  1  0.484600  0.762800  0.853000  1.0  0.1915
  H  H254  1  0.537800  0.792100  0.031300  1.0  0.0545
  H  H255  1  0.518200  0.762100  0.057400  1.0  0.0387
  H  H256  1  0.460600  0.793200  0.158100  1.0  0.0209
  H  H257  1  0.418200  0.794100  0.919200  1.0  0.1211
  H  H258  1  0.390500  0.803500  0.049800  1.0  0.1105
  H  H259  1  0.724600  0.771000  0.719900  1.0  0.1768
  H  H260  1  0.716300  0.799300  0.546600  1.0  0.0735
  H  H261  1  0.657000  0.801400  0.577000  1.0  0.0552
  H  H262  1  0.658800  0.771500  0.406800  1.0  0.0467
  H  H263  1  0.705300  0.734900  0.573000  1.0  0.0809
  H  H264  1  0.680500  0.727500  0.436200  1.0  0.1536
  H  H265  1  0.588700  0.846600  0.643000  1.0  0.2412
  H  H266  1  0.661900  0.858700  0.554800  1.0  0.0515
  H  H267  1  0.690900  0.842800  0.663800  1.0  0.0396
  H  H268  1  0.654300  0.896900  0.701600  1.0  0.0268
  H  H269  1  0.746000  0.872800  0.769100  1.0  0.1122
  H  H270  1  0.728300  0.904000  0.799400  1.0  0.1039
  H  H271  1  0.529500  0.776700  0.586600  1.0  0.2261
  H  H272  1  0.441000  0.788800  0.702600  1.0  0.0559
  H  H273  1  0.447700  0.786100  0.554900  1.0  0.0837
  H  H274  1  0.483500  0.834400  0.577400  1.0  0.0082
  H  H275  1  0.389700  0.830300  0.697500  1.0  0.173
  H  H276  1  0.416500  0.858100  0.645600  1.0  0.1229
  H  H277  1  0.697400  0.251600  0.404000  1.0  0.1812
  H  H278  1  0.655400  0.250500  0.590900  1.0  0.0457
  H  H279  1  0.629800  0.278800  0.556400  1.0  0.0596
  H  H280  1  0.689600  0.290500  0.707900  1.0  0.0432
  H  H281  1  0.761000  0.278100  0.527300  1.0  0.0842
  H  H282  1  0.770600  0.294900  0.657600  1.0  0.1403
  H  H283  1  0.608200  0.375700  0.403800  1.0  0.1377
  H  H284  1  0.594600  0.335600  0.584300  1.0  0.0665
  H  H285  1  0.581100  0.366700  0.606900  1.0  0.0699
  H  H286  1  0.662300  0.349900  0.706600  1.0  0.0359
  H  H287  1  0.692800  0.381600  0.509200  1.0  0.1084
  H  H288  1  0.725900  0.373600  0.634100  1.0  0.1389
  H  H289  1  0.484600  0.262800  0.353000  1.0  0.1915
  H  H290  1  0.537800  0.292100  0.531300  1.0  0.0545
  H  H291  1  0.518200  0.262100  0.557400  1.0  0.0387
  H  H292  1  0.460600  0.293200  0.658100  1.0  0.0209
  H  H293  1  0.418200  0.294100  0.419200  1.0  0.1211
  H  H294  1  0.390500  0.303500  0.549800  1.0  0.1105
  H  H295  1  0.724600  0.271000  0.219900  1.0  0.1768
  H  H296  1  0.716300  0.299300  0.046600  1.0  0.0735
  H  H297  1  0.657000  0.301400  0.077000  1.0  0.0552
  H  H298  1  0.658800  0.271500  0.906800  1.0  0.0467
  H  H299  1  0.705300  0.234900  0.073000  1.0  0.0809
  H  H300  1  0.680500  0.227500  0.936200  1.0  0.1536
  H  H301  1  0.588700  0.346600  0.143000  1.0  0.2412
  H  H302  1  0.661900  0.358700  0.054800  1.0  0.0515
  H  H303  1  0.690900  0.342800  0.163800  1.0  0.0396
  H  H304  1  0.654300  0.396900  0.201600  1.0  0.0268
  H  H305  1  0.746000  0.372800  0.269100  1.0  0.1122
  H  H306  1  0.728300  0.404000  0.299400  1.0  0.1039
  H  H307  1  0.529500  0.276700  0.086600  1.0  0.2261
  H  H308  1  0.441000  0.288800  0.202600  1.0  0.0559
  H  H309  1  0.447700  0.286100  0.054900  1.0  0.0837
  H  H310  1  0.483500  0.334400  0.077400  1.0  0.0082
  H  H311  1  0.389700  0.330300  0.197500  1.0  0.173
  H  H312  1  0.416500  0.358100  0.145600  1.0  0.1229
  H  H313  1  0.197400  0.751600  0.404000  1.0  0.1812
  H  H314  1  0.155400  0.750500  0.590900  1.0  0.0457
  H  H315  1  0.129800  0.778800  0.556400  1.0  0.0596
  H  H316  1  0.189600  0.790500  0.707900  1.0  0.0432
  H  H317  1  0.261000  0.778100  0.527300  1.0  0.0842
  H  H318  1  0.270600  0.794900  0.657600  1.0  0.1403
  H  H319  1  0.108200  0.875700  0.403800  1.0  0.1377
  H  H320  1  0.094600  0.835600  0.584300  1.0  0.0665
  H  H321  1  0.081100  0.866700  0.606900  1.0  0.0699
  H  H322  1  0.162300  0.849900  0.706600  1.0  0.0359
  H  H323  1  0.192800  0.881600  0.509200  1.0  0.1084
  H  H324  1  0.225900  0.873600  0.634100  1.0  0.1389
  H  H325  1  0.984600  0.762800  0.353000  1.0  0.1915
  H  H326  1  0.037800  0.792100  0.531300  1.0  0.0545
  H  H327  1  0.018200  0.762100  0.557400  1.0  0.0387
  H  H328  1  0.960600  0.793200  0.658100  1.0  0.0209
  H  H329  1  0.918200  0.794100  0.419200  1.0  0.1211
  H  H330  1  0.890500  0.803500  0.549800  1.0  0.1105
  H  H331  1  0.224600  0.771000  0.219900  1.0  0.1768
  H  H332  1  0.216300  0.799300  0.046600  1.0  0.0735
  H  H333  1  0.157000  0.801400  0.077000  1.0  0.0552
  H  H334  1  0.158800  0.771500  0.906800  1.0  0.0467
  H  H335  1  0.205300  0.734900  0.073000  1.0  0.0809
  H  H336  1  0.180500  0.727500  0.936200  1.0  0.1536
  H  H337  1  0.088700  0.846600  0.143000  1.0  0.2412
  H  H338  1  0.161900  0.858700  0.054800  1.0  0.0515
  H  H339  1  0.190900  0.842800  0.163800  1.0  0.0396
  H  H340  1  0.154300  0.896900  0.201600  1.0  0.0268
  H  H341  1  0.246000  0.872800  0.269100  1.0  0.1122
  H  H342  1  0.228300  0.904000  0.299400  1.0  0.1039
  H  H343  1  0.029500  0.776700  0.086600  1.0  0.2261
  H  H344  1  0.941000  0.788800  0.202600  1.0  0.0559
  H  H345  1  0.947700  0.786100  0.054900  1.0  0.0837
  H  H346  1  0.983500  0.834400  0.077400  1.0  0.0082
  H  H347  1  0.889700  0.830300  0.197500  1.0  0.173
  H  H348  1  0.916500  0.858100  0.145600  1.0  0.1229
  H  H349  1  0.197400  0.251600  0.904000  1.0  0.1812
  H  H350  1  0.155400  0.250500  0.090900  1.0  0.0457
  H  H351  1  0.129800  0.278800  0.056400  1.0  0.0596
  H  H352  1  0.189600  0.290500  0.207900  1.0  0.0432
  H  H353  1  0.261000  0.278100  0.027300  1.0  0.0842
  H  H354  1  0.270600  0.294900  0.157600  1.0  0.1403
  H  H355  1  0.108200  0.375700  0.903800  1.0  0.1377
  H  H356  1  0.094600  0.335600  0.084300  1.0  0.0665
  H  H357  1  0.081100  0.366700  0.106900  1.0  0.0699
  H  H358  1  0.162300  0.349900  0.206600  1.0  0.0359
  H  H359  1  0.192800  0.381600  0.009200  1.0  0.1084
  H  H360  1  0.225900  0.373600  0.134100  1.0  0.1389
  H  H361  1  0.984600  0.262800  0.853000  1.0  0.1915
  H  H362  1  0.037800  0.292100  0.031300  1.0  0.0545
  H  H363  1  0.018200  0.262100  0.057400  1.0  0.0387
  H  H364  1  0.960600  0.293200  0.158100  1.0  0.0209
  H  H365  1  0.918200  0.294100  0.919200  1.0  0.1211
  H  H366  1  0.890500  0.303500  0.049800  1.0  0.1105
  H  H367  1  0.224600  0.271000  0.719900  1.0  0.1768
  H  H368  1  0.216300  0.299300  0.546600  1.0  0.0735
  H  H369  1  0.157000  0.301400  0.577000  1.0  0.0552
  H  H370  1  0.158800  0.271500  0.406800  1.0  0.0467
  H  H371  1  0.205300  0.234900  0.573000  1.0  0.0809
  H  H372  1  0.180500  0.227500  0.436200  1.0  0.1536
  H  H373  1  0.088700  0.346600  0.643000  1.0  0.2412
  H  H374  1  0.161900  0.358700  0.554800  1.0  0.0515
  H  H375  1  0.190900  0.342800  0.663800  1.0  0.0396
  H  H376  1  0.154300  0.396900  0.701600  1.0  0.0268
  H  H377  1  0.246000  0.372800  0.769100  1.0  0.1122
  H  H378  1  0.228300  0.404000  0.799400  1.0  0.1039
  H  H379  1  0.029500  0.276700  0.586600  1.0  0.2261
  H  H380  1  0.941000  0.288800  0.702600  1.0  0.0559
  H  H381  1  0.947700  0.286100  0.554900  1.0  0.0837
  H  H382  1  0.983500  0.334400  0.577400  1.0  0.0082
  H  H383  1  0.889700  0.330300  0.697500  1.0  0.173
  H  H384  1  0.916500  0.358100  0.645600  1.0  0.1229
  H  H385  1  0.552600  0.001600  0.154000  1.0  0.1819
  H  H386  1  0.594600  0.000500  0.340900  1.0  0.0465
  H  H387  1  0.620200  0.028800  0.306400  1.0  0.0591
  H  H388  1  0.560400  0.040500  0.457900  1.0  0.0429
  H  H389  1  0.489000  0.028100  0.277300  1.0  0.085
  H  H390  1  0.479400  0.044900  0.407600  1.0  0.1405
  H  H391  1  0.641800  0.125700  0.153800  1.0  0.1377
  H  H392  1  0.655400  0.085600  0.334300  1.0  0.0664
  H  H393  1  0.668900  0.116700  0.356900  1.0  0.0693
  H  H394  1  0.587700  0.099900  0.456600  1.0  0.0357
  H  H395  1  0.557200  0.131600  0.259200  1.0  0.1088
  H  H396  1  0.524100  0.123600  0.384100  1.0  0.133
  H  H397  1  0.765400  0.012800  0.103000  1.0  0.1906
  H  H398  1  0.712200  0.042100  0.281300  1.0  0.0548
  H  H399  1  0.731800  0.012100  0.307400  1.0  0.0393
  H  H400  1  0.789400  0.043200  0.408100  1.0  0.021
  H  H401  1  0.831800  0.044100  0.169200  1.0  0.1194
  H  H402  1  0.859500  0.053500  0.299800  1.0  0.1116
  H  H403  1  0.525400  0.021000  0.969900  1.0  0.1785
  H  H404  1  0.533700  0.049300  0.796600  1.0  0.0729
  H  H405  1  0.593000  0.051400  0.827000  1.0  0.0544
  H  H406  1  0.591200  0.021500  0.656800  1.0  0.0468
  H  H407  1  0.544700  0.984900  0.823000  1.0  0.0806
  H  H408  1  0.569500  0.977500  0.686200  1.0  0.1539
  H  H409  1  0.661300  0.096600  0.893000  1.0  0.2409
  H  H410  1  0.588100  0.108700  0.804800  1.0  0.0516
  H  H411  1  0.559100  0.092800  0.913800  1.0  0.0398
  H  H412  1  0.595700  0.146900  0.951600  1.0  0.0269
  H  H413  1  0.504000  0.122800  0.019100  1.0  0.1125
  H  H414  1  0.521700  0.154000  0.049400  1.0  0.1039
  H  H415  1  0.720500  0.026700  0.836600  1.0  0.2259
  H  H416  1  0.809000  0.038800  0.952600  1.0  0.055
  H  H417  1  0.802300  0.036100  0.804900  1.0  0.0851
  H  H418  1  0.766500  0.084400  0.827400  1.0  0.0077
  H  H419  1  0.860300  0.080300  0.947500  1.0  0.1744
  H  H420  1  0.833500  0.108100  0.895600  1.0  0.1224
  H  H421  1  0.552600  0.501600  0.654000  1.0  0.1819
  H  H422  1  0.594600  0.500500  0.840900  1.0  0.0465
  H  H423  1  0.620200  0.528800  0.806400  1.0  0.0591
  H  H424  1  0.560400  0.540500  0.957900  1.0  0.0429
  H  H425  1  0.489000  0.528100  0.777300  1.0  0.085
  H  H426  1  0.479400  0.544900  0.907600  1.0  0.1405
  H  H427  1  0.641800  0.625700  0.653800  1.0  0.1377
  H  H428  1  0.655400  0.585600  0.834300  1.0  0.0664
  H  H429  1  0.668900  0.616700  0.856900  1.0  0.0693
  H  H430  1  0.587700  0.599900  0.956600  1.0  0.0357
  H  H431  1  0.557200  0.631600  0.759200  1.0  0.1088
  H  H432  1  0.524100  0.623600  0.884100  1.0  0.133
  H  H433  1  0.765400  0.512800  0.603000  1.0  0.1906
  H  H434  1  0.712200  0.542100  0.781300  1.0  0.0548
  H  H435  1  0.731800  0.512100  0.807400  1.0  0.0393
  H  H436  1  0.789400  0.543200  0.908100  1.0  0.021
  H  H437  1  0.831800  0.544100  0.669200  1.0  0.1194
  H  H438  1  0.859500  0.553500  0.799800  1.0  0.1116
  H  H439  1  0.525400  0.521000  0.469900  1.0  0.1785
  H  H440  1  0.533700  0.549300  0.296600  1.0  0.0729
  H  H441  1  0.593000  0.551400  0.327000  1.0  0.0544
  H  H442  1  0.591200  0.521500  0.156800  1.0  0.0468
  H  H443  1  0.544700  0.484900  0.323000  1.0  0.0806
  H  H444  1  0.569500  0.477500  0.186200  1.0  0.1539
  H  H445  1  0.661300  0.596600  0.393000  1.0  0.2409
  H  H446  1  0.588100  0.608700  0.304800  1.0  0.0516
  H  H447  1  0.559100  0.592800  0.413800  1.0  0.0398
  H  H448  1  0.595700  0.646900  0.451600  1.0  0.0269
  H  H449  1  0.504000  0.622800  0.519100  1.0  0.1125
  H  H450  1  0.521700  0.654000  0.549400  1.0  0.1039
  H  H451  1  0.720500  0.526700  0.336600  1.0  0.2259
  H  H452  1  0.809000  0.538800  0.452600  1.0  0.055
  H  H453  1  0.802300  0.536100  0.304900  1.0  0.0851
  H  H454  1  0.766500  0.584400  0.327400  1.0  0.0077
  H  H455  1  0.860300  0.580300  0.447500  1.0  0.1744
  H  H456  1  0.833500  0.608100  0.395600  1.0  0.1224
  H  H457  1  0.052600  0.001600  0.654000  1.0  0.1819
  H  H458  1  0.094600  0.000500  0.840900  1.0  0.0465
  H  H459  1  0.120200  0.028800  0.806400  1.0  0.0591
  H  H460  1  0.060400  0.040500  0.957900  1.0  0.0429
  H  H461  1  0.989000  0.028100  0.777300  1.0  0.085
  H  H462  1  0.979400  0.044900  0.907600  1.0  0.1405
  H  H463  1  0.141800  0.125700  0.653800  1.0  0.1377
  H  H464  1  0.155400  0.085600  0.834300  1.0  0.0664
  H  H465  1  0.168900  0.116700  0.856900  1.0  0.0693
  H  H466  1  0.087700  0.099900  0.956600  1.0  0.0357
  H  H467  1  0.057200  0.131600  0.759200  1.0  0.1088
  H  H468  1  0.024100  0.123600  0.884100  1.0  0.133
  H  H469  1  0.265400  0.012800  0.603000  1.0  0.1906
  H  H470  1  0.212200  0.042100  0.781300  1.0  0.0548
  H  H471  1  0.231800  0.012100  0.807400  1.0  0.0393
  H  H472  1  0.289400  0.043200  0.908100  1.0  0.021
  H  H473  1  0.331800  0.044100  0.669200  1.0  0.1194
  H  H474  1  0.359500  0.053500  0.799800  1.0  0.1116
  H  H475  1  0.025400  0.021000  0.469900  1.0  0.1785
  H  H476  1  0.033700  0.049300  0.296600  1.0  0.0729
  H  H477  1  0.093000  0.051400  0.327000  1.0  0.0544
  H  H478  1  0.091200  0.021500  0.156800  1.0  0.0468
  H  H479  1  0.044700  0.984900  0.323000  1.0  0.0806
  H  H480  1  0.069500  0.977500  0.186200  1.0  0.1539
  H  H481  1  0.161300  0.096600  0.393000  1.0  0.2409
  H  H482  1  0.088100  0.108700  0.304800  1.0  0.0516
  H  H483  1  0.059100  0.092800  0.413800  1.0  0.0398
  H  H484  1  0.095700  0.146900  0.451600  1.0  0.0269
  H  H485  1  0.004000  0.122800  0.519100  1.0  0.1125
  H  H486  1  0.021700  0.154000  0.549400  1.0  0.1039
  H  H487  1  0.220500  0.026700  0.336600  1.0  0.2259
  H  H488  1  0.309000  0.038800  0.452600  1.0  0.055
  H  H489  1  0.302300  0.036100  0.304900  1.0  0.0851
  H  H490  1  0.266500  0.084400  0.327400  1.0  0.0077
  H  H491  1  0.360300  0.080300  0.447500  1.0  0.1744
  H  H492  1  0.333500  0.108100  0.395600  1.0  0.1224
  H  H493  1  0.052600  0.501600  0.154000  1.0  0.1819
  H  H494  1  0.094600  0.500500  0.340900  1.0  0.0465
  H  H495  1  0.120200  0.528800  0.306400  1.0  0.0591
  H  H496  1  0.060400  0.540500  0.457900  1.0  0.0429
  H  H497  1  0.989000  0.528100  0.277300  1.0  0.085
  H  H498  1  0.979400  0.544900  0.407600  1.0  0.1405
  H  H499  1  0.141800  0.625700  0.153800  1.0  0.1377
  H  H500  1  0.155400  0.585600  0.334300  1.0  0.0664
  H  H501  1  0.168900  0.616700  0.356900  1.0  0.0693
  H  H502  1  0.087700  0.599900  0.456600  1.0  0.0357
  H  H503  1  0.057200  0.631600  0.259200  1.0  0.1088
  H  H504  1  0.024100  0.623600  0.384100  1.0  0.133
  H  H505  1  0.265400  0.512800  0.103000  1.0  0.1906
  H  H506  1  0.212200  0.542100  0.281300  1.0  0.0548
  H  H507  1  0.231800  0.512100  0.307400  1.0  0.0393
  H  H508  1  0.289400  0.543200  0.408100  1.0  0.021
  H  H509  1  0.331800  0.544100  0.169200  1.0  0.1194
  H  H510  1  0.359500  0.553500  0.299800  1.0  0.1116
  H  H511  1  0.025400  0.521000  0.969900  1.0  0.1785
  H  H512  1  0.033700  0.549300  0.796600  1.0  0.0729
  H  H513  1  0.093000  0.551400  0.827000  1.0  0.0544
  H  H514  1  0.091200  0.521500  0.656800  1.0  0.0468
  H  H515  1  0.044700  0.484900  0.823000  1.0  0.0806
  H  H516  1  0.069500  0.477500  0.686200  1.0  0.1539
  H  H517  1  0.161300  0.596600  0.893000  1.0  0.2409
  H  H518  1  0.088100  0.608700  0.804800  1.0  0.0516
  H  H519  1  0.059100  0.592800  0.913800  1.0  0.0398
  H  H520  1  0.095700  0.646900  0.951600  1.0  0.0269
  H  H521  1  0.004000  0.622800  0.019100  1.0  0.1125
  H  H522  1  0.021700  0.654000  0.049400  1.0  0.1039
  H  H523  1  0.220500  0.526700  0.836600  1.0  0.2259
  H  H524  1  0.309000  0.538800  0.952600  1.0  0.055
  H  H525  1  0.302300  0.536100  0.804900  1.0  0.0851
  H  H526  1  0.266500  0.584400  0.827400  1.0  0.0077
  H  H527  1  0.360300  0.580300  0.947500  1.0  0.1744
  H  H528  1  0.333500  0.608100  0.895600  1.0  0.1224
  H  H529  1  0.947400  0.498400  0.154000  1.0  0.1809
  H  H530  1  0.905400  0.499500  0.340900  1.0  0.0443
  H  H531  1  0.879800  0.471200  0.306400  1.0  0.0596
  H  H532  1  0.939600  0.459500  0.457900  1.0  0.0436
  H  H533  1  0.011000  0.471900  0.277300  1.0  0.084
  H  H534  1  0.020600  0.455100  0.407600  1.0  0.1412
  H  H535  1  0.858200  0.374300  0.153800  1.0  0.1402
  H  H536  1  0.844600  0.414400  0.334300  1.0  0.0667
  H  H537  1  0.831100  0.383300  0.356900  1.0  0.0702
  H  H538  1  0.912300  0.400100  0.456600  1.0  0.0353
  H  H539  1  0.942800  0.368400  0.259200  1.0  0.1086
  H  H540  1  0.975900  0.376400  0.384100  1.0  0.1369
  H  H541  1  0.734600  0.487200  0.103000  1.0  0.1921
  H  H542  1  0.787800  0.457900  0.281300  1.0  0.055
  H  H543  1  0.768200  0.487900  0.307400  1.0  0.0382
  H  H544  1  0.710600  0.456800  0.408100  1.0  0.0215
  H  H545  1  0.668200  0.455900  0.169200  1.0  0.1212
  H  H546  1  0.640500  0.446500  0.299800  1.0  0.1114
  H  H547  1  0.974600  0.479000  0.969900  1.0  0.177
  H  H548  1  0.966300  0.450700  0.796600  1.0  0.0737
  H  H549  1  0.907000  0.448600  0.827000  1.0  0.054
  H  H550  1  0.908800  0.478500  0.656800  1.0  0.0467
  H  H551  1  0.955300  0.515100  0.823000  1.0  0.0797
  H  H552  1  0.930500  0.522500  0.686200  1.0  0.1517
  H  H553  1  0.838700  0.403400  0.893000  1.0  0.2412
  H  H554  1  0.911900  0.391300  0.804800  1.0  0.0517
  H  H555  1  0.940900  0.407200  0.913800  1.0  0.0389
  H  H556  1  0.904300  0.353100  0.951600  1.0  0.0265
  H  H557  1  0.996000  0.377200  0.019100  1.0  0.1117
  H  H558  1  0.978300  0.346000  0.049400  1.0  0.1016
  H  H559  1  0.779500  0.473300  0.836600  1.0  0.2258
  H  H560  1  0.691000  0.461200  0.952600  1.0  0.0555
  H  H561  1  0.697700  0.463900  0.804900  1.0  0.0833
  H  H562  1  0.733500  0.415600  0.827400  1.0  0.0081
  H  H563  1  0.639700  0.419700  0.947500  1.0  0.1724
  H  H564  1  0.666500  0.391900  0.895600  1.0  0.123
  H  H565  1  0.947400  0.998400  0.654000  1.0  0.1809
  H  H566  1  0.905400  0.999500  0.840900  1.0  0.0443
  H  H567  1  0.879800  0.971200  0.806400  1.0  0.0596
  H  H568  1  0.939600  0.959500  0.957900  1.0  0.0436
  H  H569  1  0.011000  0.971900  0.777300  1.0  0.084
  H  H570  1  0.020600  0.955100  0.907600  1.0  0.1412
  H  H571  1  0.858200  0.874300  0.653800  1.0  0.1402
  H  H572  1  0.844600  0.914400  0.834300  1.0  0.0667
  H  H573  1  0.831100  0.883300  0.856900  1.0  0.0702
  H  H574  1  0.912300  0.900100  0.956600  1.0  0.0353
  H  H575  1  0.942800  0.868400  0.759200  1.0  0.1086
  H  H576  1  0.975900  0.876400  0.884100  1.0  0.1369
  H  H577  1  0.734600  0.987200  0.603000  1.0  0.1921
  H  H578  1  0.787800  0.957900  0.781300  1.0  0.055
  H  H579  1  0.768200  0.987900  0.807400  1.0  0.0382
  H  H580  1  0.710600  0.956800  0.908100  1.0  0.0215
  H  H581  1  0.668200  0.955900  0.669200  1.0  0.1212
  H  H582  1  0.640500  0.946500  0.799800  1.0  0.1114
  H  H583  1  0.974600  0.979000  0.469900  1.0  0.177
  H  H584  1  0.966300  0.950700  0.296600  1.0  0.0737
  H  H585  1  0.907000  0.948600  0.327000  1.0  0.054
  H  H586  1  0.908800  0.978500  0.156800  1.0  0.0467
  H  H587  1  0.955300  0.015100  0.323000  1.0  0.0797
  H  H588  1  0.930500  0.022500  0.186200  1.0  0.1517
  H  H589  1  0.838700  0.903400  0.393000  1.0  0.2412
  H  H590  1  0.911900  0.891300  0.304800  1.0  0.0517
  H  H591  1  0.940900  0.907200  0.413800  1.0  0.0389
  H  H592  1  0.904300  0.853100  0.451600  1.0  0.0265
  H  H593  1  0.996000  0.877200  0.519100  1.0  0.1117
  H  H594  1  0.978300  0.846000  0.549400  1.0  0.1016
  H  H595  1  0.779500  0.973300  0.336600  1.0  0.2258
  H  H596  1  0.691000  0.961200  0.452600  1.0  0.0555
  H  H597  1  0.697700  0.963900  0.304900  1.0  0.0833
  H  H598  1  0.733500  0.915600  0.327400  1.0  0.0081
  H  H599  1  0.639700  0.919700  0.447500  1.0  0.1724
  H  H600  1  0.666500  0.891900  0.395600  1.0  0.123
  H  H601  1  0.447400  0.498400  0.654000  1.0  0.1809
  H  H602  1  0.405400  0.499500  0.840900  1.0  0.0443
  H  H603  1  0.379800  0.471200  0.806400  1.0  0.0596
  H  H604  1  0.439600  0.459500  0.957900  1.0  0.0436
  H  H605  1  0.511000  0.471900  0.777300  1.0  0.084
  H  H606  1  0.520600  0.455100  0.907600  1.0  0.1412
  H  H607  1  0.358200  0.374300  0.653800  1.0  0.1402
  H  H608  1  0.344600  0.414400  0.834300  1.0  0.0667
  H  H609  1  0.331100  0.383300  0.856900  1.0  0.0702
  H  H610  1  0.412300  0.400100  0.956600  1.0  0.0353
  H  H611  1  0.442800  0.368400  0.759200  1.0  0.1086
  H  H612  1  0.475900  0.376400  0.884100  1.0  0.1369
  H  H613  1  0.234600  0.487200  0.603000  1.0  0.1921
  H  H614  1  0.287800  0.457900  0.781300  1.0  0.055
  H  H615  1  0.268200  0.487900  0.807400  1.0  0.0382
  H  H616  1  0.210600  0.456800  0.908100  1.0  0.0215
  H  H617  1  0.168200  0.455900  0.669200  1.0  0.1212
  H  H618  1  0.140500  0.446500  0.799800  1.0  0.1114
  H  H619  1  0.474600  0.479000  0.469900  1.0  0.177
  H  H620  1  0.466300  0.450700  0.296600  1.0  0.0737
  H  H621  1  0.407000  0.448600  0.327000  1.0  0.054
  H  H622  1  0.408800  0.478500  0.156800  1.0  0.0467
  H  H623  1  0.455300  0.515100  0.323000  1.0  0.0797
  H  H624  1  0.430500  0.522500  0.186200  1.0  0.1517
  H  H625  1  0.338700  0.403400  0.393000  1.0  0.2412
  H  H626  1  0.411900  0.391300  0.304800  1.0  0.0517
  H  H627  1  0.440900  0.407200  0.413800  1.0  0.0389
  H  H628  1  0.404300  0.353100  0.451600  1.0  0.0265
  H  H629  1  0.496000  0.377200  0.519100  1.0  0.1117
  H  H630  1  0.478300  0.346000  0.549400  1.0  0.1016
  H  H631  1  0.279500  0.473300  0.336600  1.0  0.2258
  H  H632  1  0.191000  0.461200  0.452600  1.0  0.0555
  H  H633  1  0.197700  0.463900  0.304900  1.0  0.0833
  H  H634  1  0.233500  0.415600  0.327400  1.0  0.0081
  H  H635  1  0.139700  0.419700  0.447500  1.0  0.1724
  H  H636  1  0.166500  0.391900  0.395600  1.0  0.123
  H  H637  1  0.447400  0.998400  0.154000  1.0  0.1809
  H  H638  1  0.405400  0.999500  0.340900  1.0  0.0443
  H  H639  1  0.379800  0.971200  0.306400  1.0  0.0596
  H  H640  1  0.439600  0.959500  0.457900  1.0  0.0436
  H  H641  1  0.511000  0.971900  0.277300  1.0  0.084
  H  H642  1  0.520600  0.955100  0.407600  1.0  0.1412
  H  H643  1  0.358200  0.874300  0.153800  1.0  0.1402
  H  H644  1  0.344600  0.914400  0.334300  1.0  0.0667
  H  H645  1  0.331100  0.883300  0.356900  1.0  0.0702
  H  H646  1  0.412300  0.900100  0.456600  1.0  0.0353
  H  H647  1  0.442800  0.868400  0.259200  1.0  0.1086
  H  H648  1  0.475900  0.876400  0.384100  1.0  0.1369
  H  H649  1  0.234600  0.987200  0.103000  1.0  0.1921
  H  H650  1  0.287800  0.957900  0.281300  1.0  0.055
  H  H651  1  0.268200  0.987900  0.307400  1.0  0.0382
  H  H652  1  0.210600  0.956800  0.408100  1.0  0.0215
  H  H653  1  0.168200  0.955900  0.169200  1.0  0.1212
  H  H654  1  0.140500  0.946500  0.299800  1.0  0.1114
  H  H655  1  0.474600  0.979000  0.969900  1.0  0.177
  H  H656  1  0.466300  0.950700  0.796600  1.0  0.0737
  H  H657  1  0.407000  0.948600  0.827000  1.0  0.054
  H  H658  1  0.408800  0.978500  0.656800  1.0  0.0467
  H  H659  1  0.455300  0.015100  0.823000  1.0  0.0797
  H  H660  1  0.430500  0.022500  0.686200  1.0  0.1517
  H  H661  1  0.338700  0.903400  0.893000  1.0  0.2412
  H  H662  1  0.411900  0.891300  0.804800  1.0  0.0517
  H  H663  1  0.440900  0.907200  0.913800  1.0  0.0389
  H  H664  1  0.404300  0.853100  0.951600  1.0  0.0265
  H  H665  1  0.496000  0.877200  0.019100  1.0  0.1117
  H  H666  1  0.478300  0.846000  0.049400  1.0  0.1016
  H  H667  1  0.279500  0.973300  0.836600  1.0  0.2258
  H  H668  1  0.191000  0.961200  0.952600  1.0  0.0555
  H  H669  1  0.197700  0.963900  0.804900  1.0  0.0833
  H  H670  1  0.233500  0.915600  0.827400  1.0  0.0081
  H  H671  1  0.139700  0.919700  0.947500  1.0  0.1724
  H  H672  1  0.166500  0.891900  0.895600  1.0  0.123
  C  C673  1  0.338100  0.231540  0.053400  1.0  -0.1461
  C  C674  1  0.299200  0.217170  0.131500  1.0  -0.2069
  C  C675  1  0.251700  0.214480  0.103000  1.0  -0.0928
  C  C676  1  0.393900  0.145690  0.068100  1.0  -0.1909
  C  C677  1  0.342700  0.141460  0.128400  1.0  -0.2038
  C  C678  1  0.304600  0.127520  0.086900  1.0  -0.0488
  C  C679  1  0.490200  0.220790  0.014500  1.0  -0.2073
  C  C680  1  0.538900  0.209580  0.070400  1.0  -0.2154
  C  C681  1  0.580700  0.203390  0.007100  1.0  -0.1244
  C  C682  1  0.313600  0.211040  0.575300  1.0  -0.2044
  C  C683  1  0.324300  0.233270  0.482100  1.0  -0.2422
  C  C684  1  0.311600  0.259630  0.498800  1.0  -0.1175
  C  C685  1  0.335900  0.143710  0.646400  1.0  -0.1762
  C  C686  1  0.321900  0.117470  0.705800  1.0  -0.2423
  C  C687  1  0.278500  0.113160  0.763400  1.0  -0.1001
  C  C688  1  0.538200  0.205270  0.630700  1.0  -0.2014
  C  C689  1  0.543400  0.175070  0.617300  1.0  -0.2325
  C  C690  1  0.582700  0.160910  0.657200  1.0  -0.0484
  C  C691  1  0.338100  0.731540  0.553400  1.0  -0.1461
  C  C692  1  0.299200  0.717170  0.631500  1.0  -0.2069
  C  C693  1  0.251700  0.714480  0.603000  1.0  -0.0928
  C  C694  1  0.393900  0.645690  0.568100  1.0  -0.1909
  C  C695  1  0.342700  0.641460  0.628400  1.0  -0.2038
  C  C696  1  0.304600  0.627520  0.586900  1.0  -0.0488
  C  C697  1  0.490200  0.720790  0.514500  1.0  -0.2073
  C  C698  1  0.538900  0.709580  0.570400  1.0  -0.2154
  C  C699  1  0.580700  0.703390  0.507100  1.0  -0.1244
  C  C700  1  0.313600  0.711040  0.075300  1.0  -0.2044
  C  C701  1  0.324300  0.733270  0.982100  1.0  -0.2422
  C  C702  1  0.311600  0.759630  0.998800  1.0  -0.1175
  C  C703  1  0.335900  0.643710  0.146400  1.0  -0.1762
  C  C704  1  0.321900  0.617470  0.205800  1.0  -0.2423
  C  C705  1  0.278500  0.613160  0.263400  1.0  -0.1001
  C  C706  1  0.538200  0.705270  0.130700  1.0  -0.2014
  C  C707  1  0.543400  0.675070  0.117300  1.0  -0.2325
  C  C708  1  0.582700  0.660910  0.157200  1.0  -0.0484
  C  C709  1  0.838100  0.231540  0.553400  1.0  -0.1461
  C  C710  1  0.799200  0.217170  0.631500  1.0  -0.2069
  C  C711  1  0.751700  0.214480  0.603000  1.0  -0.0928
  C  C712  1  0.893900  0.145690  0.568100  1.0  -0.1909
  C  C713  1  0.842700  0.141460  0.628400  1.0  -0.2038
  C  C714  1  0.804600  0.127520  0.586900  1.0  -0.0488
  C  C715  1  0.990200  0.220790  0.514500  1.0  -0.2073
  C  C716  1  0.038900  0.209580  0.570400  1.0  -0.2154
  C  C717  1  0.080700  0.203390  0.507100  1.0  -0.1244
  C  C718  1  0.813600  0.211040  0.075300  1.0  -0.2044
  C  C719  1  0.824300  0.233270  0.982100  1.0  -0.2422
  C  C720  1  0.811600  0.259630  0.998800  1.0  -0.1175
  C  C721  1  0.835900  0.143710  0.146400  1.0  -0.1762
  C  C722  1  0.821900  0.117470  0.205800  1.0  -0.2423
  C  C723  1  0.778500  0.113160  0.263400  1.0  -0.1001
  C  C724  1  0.038200  0.205270  0.130700  1.0  -0.2014
  C  C725  1  0.043400  0.175070  0.117300  1.0  -0.2325
  C  C726  1  0.082700  0.160910  0.157200  1.0  -0.0484
  C  C727  1  0.838100  0.731540  0.053400  1.0  -0.1461
  C  C728  1  0.799200  0.717170  0.131500  1.0  -0.2069
  C  C729  1  0.751700  0.714480  0.103000  1.0  -0.0928
  C  C730  1  0.893900  0.645690  0.068100  1.0  -0.1909
  C  C731  1  0.842700  0.641460  0.128400  1.0  -0.2038
  C  C732  1  0.804600  0.627520  0.086900  1.0  -0.0488
  C  C733  1  0.990200  0.720790  0.014500  1.0  -0.2073
  C  C734  1  0.038900  0.709580  0.070400  1.0  -0.2154
  C  C735  1  0.080700  0.703390  0.007100  1.0  -0.1244
  C  C736  1  0.813600  0.711040  0.575300  1.0  -0.2044
  C  C737  1  0.824300  0.733270  0.482100  1.0  -0.2422
  C  C738  1  0.811600  0.759630  0.498800  1.0  -0.1175
  C  C739  1  0.835900  0.643710  0.646400  1.0  -0.1762
  C  C740  1  0.821900  0.617470  0.705800  1.0  -0.2423
  C  C741  1  0.778500  0.613160  0.763400  1.0  -0.1001
  C  C742  1  0.038200  0.705270  0.630700  1.0  -0.2014
  C  C743  1  0.043400  0.675070  0.617300  1.0  -0.2325
  C  C744  1  0.082700  0.660910  0.657200  1.0  -0.0484
  C  C745  1  0.661900  0.768460  0.053400  1.0  -0.1482
  C  C746  1  0.700800  0.782830  0.131500  1.0  -0.2052
  C  C747  1  0.748300  0.785520  0.103000  1.0  -0.0951
  C  C748  1  0.606100  0.854310  0.068100  1.0  -0.1911
  C  C749  1  0.657300  0.858540  0.128400  1.0  -0.2029
  C  C750  1  0.695400  0.872480  0.086900  1.0  -0.0513
  C  C751  1  0.509800  0.779210  0.014500  1.0  -0.2061
  C  C752  1  0.461100  0.790420  0.070400  1.0  -0.2161
  C  C753  1  0.419300  0.796610  0.007100  1.0  -0.123
  C  C754  1  0.686400  0.788960  0.575300  1.0  -0.2054
  C  C755  1  0.675700  0.766730  0.482100  1.0  -0.2419
  C  C756  1  0.688400  0.740370  0.498800  1.0  -0.1173
  C  C757  1  0.664100  0.856290  0.646400  1.0  -0.1769
  C  C758  1  0.678100  0.882530  0.705800  1.0  -0.2434
  C  C759  1  0.721500  0.886840  0.763400  1.0  -0.0997
  C  C760  1  0.461800  0.794730  0.630700  1.0  -0.199
  C  C761  1  0.456600  0.824930  0.617300  1.0  -0.2348
  C  C762  1  0.417300  0.839090  0.657200  1.0  -0.0452
  C  C763  1  0.661900  0.268460  0.553400  1.0  -0.1482
  C  C764  1  0.700800  0.282830  0.631500  1.0  -0.2052
  C  C765  1  0.748300  0.285520  0.603000  1.0  -0.0951
  C  C766  1  0.606100  0.354310  0.568100  1.0  -0.1911
  C  C767  1  0.657300  0.358540  0.628400  1.0  -0.2029
  C  C768  1  0.695400  0.372480  0.586900  1.0  -0.0513
  C  C769  1  0.509800  0.279210  0.514500  1.0  -0.2061
  C  C770  1  0.461100  0.290420  0.570400  1.0  -0.2161
  C  C771  1  0.419300  0.296610  0.507100  1.0  -0.123
  C  C772  1  0.686400  0.288960  0.075300  1.0  -0.2054
  C  C773  1  0.675700  0.266730  0.982100  1.0  -0.2419
  C  C774  1  0.688400  0.240370  0.998800  1.0  -0.1173
  C  C775  1  0.664100  0.356290  0.146400  1.0  -0.1769
  C  C776  1  0.678100  0.382530  0.205800  1.0  -0.2434
  C  C777  1  0.721500  0.386840  0.263400  1.0  -0.0997
  C  C778  1  0.461800  0.294730  0.130700  1.0  -0.199
  C  C779  1  0.456600  0.324930  0.117300  1.0  -0.2348
  C  C780  1  0.417300  0.339090  0.157200  1.0  -0.0452
  C  C781  1  0.161900  0.768460  0.553400  1.0  -0.1482
  C  C782  1  0.200800  0.782830  0.631500  1.0  -0.2052
  C  C783  1  0.248300  0.785520  0.603000  1.0  -0.0951
  C  C784  1  0.106100  0.854310  0.568100  1.0  -0.1911
  C  C785  1  0.157300  0.858540  0.628400  1.0  -0.2029
  C  C786  1  0.195400  0.872480  0.586900  1.0  -0.0513
  C  C787  1  0.009800  0.779210  0.514500  1.0  -0.2061
  C  C788  1  0.961100  0.790420  0.570400  1.0  -0.2161
  C  C789  1  0.919300  0.796610  0.507100  1.0  -0.123
  C  C790  1  0.186400  0.788960  0.075300  1.0  -0.2054
  C  C791  1  0.175700  0.766730  0.982100  1.0  -0.2419
  C  C792  1  0.188400  0.740370  0.998800  1.0  -0.1173
  C  C793  1  0.164100  0.856290  0.146400  1.0  -0.1769
  C  C794  1  0.178100  0.882530  0.205800  1.0  -0.2434
  C  C795  1  0.221500  0.886840  0.263400  1.0  -0.0997
  C  C796  1  0.961800  0.794730  0.130700  1.0  -0.199
  C  C797  1  0.956600  0.824930  0.117300  1.0  -0.2348
  C  C798  1  0.917300  0.839090  0.157200  1.0  -0.0452
  C  C799  1  0.161900  0.268460  0.053400  1.0  -0.1482
  C  C800  1  0.200800  0.282830  0.131500  1.0  -0.2052
  C  C801  1  0.248300  0.285520  0.103000  1.0  -0.0951
  C  C802  1  0.106100  0.354310  0.068100  1.0  -0.1911
  C  C803  1  0.157300  0.358540  0.128400  1.0  -0.2029
  C  C804  1  0.195400  0.372480  0.086900  1.0  -0.0513
  C  C805  1  0.009800  0.279210  0.014500  1.0  -0.2061
  C  C806  1  0.961100  0.290420  0.070400  1.0  -0.2161
  C  C807  1  0.919300  0.296610  0.007100  1.0  -0.123
  C  C808  1  0.186400  0.288960  0.575300  1.0  -0.2054
  C  C809  1  0.175700  0.266730  0.482100  1.0  -0.2419
  C  C810  1  0.188400  0.240370  0.498800  1.0  -0.1173
  C  C811  1  0.164100  0.356290  0.646400  1.0  -0.1769
  C  C812  1  0.178100  0.382530  0.705800  1.0  -0.2434
  C  C813  1  0.221500  0.386840  0.763400  1.0  -0.0997
  C  C814  1  0.961800  0.294730  0.630700  1.0  -0.199
  C  C815  1  0.956600  0.324930  0.617300  1.0  -0.2348
  C  C816  1  0.917300  0.339090  0.657200  1.0  -0.0452
  C  C817  1  0.588100  0.018460  0.303400  1.0  -0.1459
  C  C818  1  0.549200  0.032830  0.381500  1.0  -0.2068
  C  C819  1  0.501700  0.035520  0.353000  1.0  -0.0929
  C  C820  1  0.643900  0.104310  0.318100  1.0  -0.1912
  C  C821  1  0.592700  0.108540  0.378400  1.0  -0.204
  C  C822  1  0.554600  0.122480  0.336900  1.0  -0.0488
  C  C823  1  0.740200  0.029210  0.264500  1.0  -0.2072
  C  C824  1  0.788900  0.040420  0.320400  1.0  -0.2154
  C  C825  1  0.830700  0.046610  0.257100  1.0  -0.1239
  C  C826  1  0.563600  0.038960  0.825300  1.0  -0.2042
  C  C827  1  0.574300  0.016730  0.732100  1.0  -0.2424
  C  C828  1  0.561600  0.990370  0.748800  1.0  -0.1175
  C  C829  1  0.585900  0.106290  0.896400  1.0  -0.1765
  C  C830  1  0.571900  0.132530  0.955800  1.0  -0.242
  C  C831  1  0.528500  0.136840  0.013400  1.0  -0.1004
  C  C832  1  0.788200  0.044730  0.880700  1.0  -0.1999
  C  C833  1  0.793400  0.074930  0.867300  1.0  -0.2329
  C  C834  1  0.832700  0.089090  0.907200  1.0  -0.0469
  C  C835  1  0.588100  0.518460  0.803400  1.0  -0.1459
  C  C836  1  0.549200  0.532830  0.881500  1.0  -0.2068
  C  C837  1  0.501700  0.535520  0.853000  1.0  -0.0929
  C  C838  1  0.643900  0.604310  0.818100  1.0  -0.1912
  C  C839  1  0.592700  0.608540  0.878400  1.0  -0.204
  C  C840  1  0.554600  0.622480  0.836900  1.0  -0.0488
  C  C841  1  0.740200  0.529210  0.764500  1.0  -0.2072
  C  C842  1  0.788900  0.540420  0.820400  1.0  -0.2154
  C  C843  1  0.830700  0.546610  0.757100  1.0  -0.1239
  C  C844  1  0.563600  0.538960  0.325300  1.0  -0.2042
  C  C845  1  0.574300  0.516730  0.232100  1.0  -0.2424
  C  C846  1  0.561600  0.490370  0.248800  1.0  -0.1175
  C  C847  1  0.585900  0.606290  0.396400  1.0  -0.1765
  C  C848  1  0.571900  0.632530  0.455800  1.0  -0.242
  C  C849  1  0.528500  0.636840  0.513400  1.0  -0.1004
  C  C850  1  0.788200  0.544730  0.380700  1.0  -0.1999
  C  C851  1  0.793400  0.574930  0.367300  1.0  -0.2329
  C  C852  1  0.832700  0.589090  0.407200  1.0  -0.0469
  C  C853  1  0.088100  0.018460  0.803400  1.0  -0.1459
  C  C854  1  0.049200  0.032830  0.881500  1.0  -0.2068
  C  C855  1  0.001700  0.035520  0.853000  1.0  -0.0929
  C  C856  1  0.143900  0.104310  0.818100  1.0  -0.1912
  C  C857  1  0.092700  0.108540  0.878400  1.0  -0.204
  C  C858  1  0.054600  0.122480  0.836900  1.0  -0.0488
  C  C859  1  0.240200  0.029210  0.764500  1.0  -0.2072
  C  C860  1  0.288900  0.040420  0.820400  1.0  -0.2154
  C  C861  1  0.330700  0.046610  0.757100  1.0  -0.1239
  C  C862  1  0.063600  0.038960  0.325300  1.0  -0.2042
  C  C863  1  0.074300  0.016730  0.232100  1.0  -0.2424
  C  C864  1  0.061600  0.990370  0.248800  1.0  -0.1175
  C  C865  1  0.085900  0.106290  0.396400  1.0  -0.1765
  C  C866  1  0.071900  0.132530  0.455800  1.0  -0.242
  C  C867  1  0.028500  0.136840  0.513400  1.0  -0.1004
  C  C868  1  0.288200  0.044730  0.380700  1.0  -0.1999
  C  C869  1  0.293400  0.074930  0.367300  1.0  -0.2329
  C  C870  1  0.332700  0.089090  0.407200  1.0  -0.0469
  C  C871  1  0.088100  0.518460  0.303400  1.0  -0.1459
  C  C872  1  0.049200  0.532830  0.381500  1.0  -0.2068
  C  C873  1  0.001700  0.535520  0.353000  1.0  -0.0929
  C  C874  1  0.143900  0.604310  0.318100  1.0  -0.1912
  C  C875  1  0.092700  0.608540  0.378400  1.0  -0.204
  C  C876  1  0.054600  0.622480  0.336900  1.0  -0.0488
  C  C877  1  0.240200  0.529210  0.264500  1.0  -0.2072
  C  C878  1  0.288900  0.540420  0.320400  1.0  -0.2154
  C  C879  1  0.330700  0.546610  0.257100  1.0  -0.1239
  C  C880  1  0.063600  0.538960  0.825300  1.0  -0.2042
  C  C881  1  0.074300  0.516730  0.732100  1.0  -0.2424
  C  C882  1  0.061600  0.490370  0.748800  1.0  -0.1175
  C  C883  1  0.085900  0.606290  0.896400  1.0  -0.1765
  C  C884  1  0.071900  0.632530  0.955800  1.0  -0.242
  C  C885  1  0.028500  0.636840  0.013400  1.0  -0.1004
  C  C886  1  0.288200  0.544730  0.880700  1.0  -0.1999
  C  C887  1  0.293400  0.574930  0.867300  1.0  -0.2329
  C  C888  1  0.332700  0.589090  0.907200  1.0  -0.0469
  C  C889  1  0.911900  0.481540  0.303400  1.0  -0.1485
  C  C890  1  0.950800  0.467170  0.381500  1.0  -0.2056
  C  C891  1  0.998300  0.464480  0.353000  1.0  -0.0959
  C  C892  1  0.856100  0.395690  0.318100  1.0  -0.1906
  C  C893  1  0.907300  0.391460  0.378400  1.0  -0.2031
  C  C894  1  0.945400  0.377520  0.336900  1.0  -0.0508
  C  C895  1  0.759800  0.470790  0.264500  1.0  -0.206
  C  C896  1  0.711100  0.459580  0.320400  1.0  -0.216
  C  C897  1  0.669300  0.453390  0.257100  1.0  -0.1238
  C  C898  1  0.936400  0.461040  0.825300  1.0  -0.2052
  C  C899  1  0.925700  0.483270  0.732100  1.0  -0.2417
  C  C900  1  0.938400  0.509630  0.748800  1.0  -0.1165
  C  C901  1  0.914100  0.393710  0.896400  1.0  -0.1766
  C  C902  1  0.928100  0.367470  0.955800  1.0  -0.244
  C  C903  1  0.971500  0.363160  0.013400  1.0  -0.0996
  C  C904  1  0.711800  0.455270  0.880700  1.0  -0.2012
  C  C905  1  0.706600  0.425070  0.867300  1.0  -0.2344
  C  C906  1  0.667300  0.410910  0.907200  1.0  -0.046
  C  C907  1  0.911900  0.981540  0.803400  1.0  -0.1485
  C  C908  1  0.950800  0.967170  0.881500  1.0  -0.2056
  C  C909  1  0.998300  0.964480  0.853000  1.0  -0.0959
  C  C910  1  0.856100  0.895690  0.818100  1.0  -0.1906
  C  C911  1  0.907300  0.891460  0.878400  1.0  -0.2031
  C  C912  1  0.945400  0.877520  0.836900  1.0  -0.0508
  C  C913  1  0.759800  0.970790  0.764500  1.0  -0.206
  C  C914  1  0.711100  0.959580  0.820400  1.0  -0.216
  C  C915  1  0.669300  0.953390  0.757100  1.0  -0.1238
  C  C916  1  0.936400  0.961040  0.325300  1.0  -0.2052
  C  C917  1  0.925700  0.983270  0.232100  1.0  -0.2417
  C  C918  1  0.938400  0.009630  0.248800  1.0  -0.1165
  C  C919  1  0.914100  0.893710  0.396400  1.0  -0.1766
  C  C920  1  0.928100  0.867470  0.455800  1.0  -0.244
  C  C921  1  0.971500  0.863160  0.513400  1.0  -0.0996
  C  C922  1  0.711800  0.955270  0.380700  1.0  -0.2012
  C  C923  1  0.706600  0.925070  0.367300  1.0  -0.2344
  C  C924  1  0.667300  0.910910  0.407200  1.0  -0.046
  C  C925  1  0.411900  0.481540  0.803400  1.0  -0.1485
  C  C926  1  0.450800  0.467170  0.881500  1.0  -0.2056
  C  C927  1  0.498300  0.464480  0.853000  1.0  -0.0959
  C  C928  1  0.356100  0.395690  0.818100  1.0  -0.1906
  C  C929  1  0.407300  0.391460  0.878400  1.0  -0.2031
  C  C930  1  0.445400  0.377520  0.836900  1.0  -0.0508
  C  C931  1  0.259800  0.470790  0.764500  1.0  -0.206
  C  C932  1  0.211100  0.459580  0.820400  1.0  -0.216
  C  C933  1  0.169300  0.453390  0.757100  1.0  -0.1238
  C  C934  1  0.436400  0.461040  0.325300  1.0  -0.2052
  C  C935  1  0.425700  0.483270  0.232100  1.0  -0.2417
  C  C936  1  0.438400  0.509630  0.248800  1.0  -0.1165
  C  C937  1  0.414100  0.393710  0.396400  1.0  -0.1766
  C  C938  1  0.428100  0.367470  0.455800  1.0  -0.244
  C  C939  1  0.471500  0.363160  0.513400  1.0  -0.0996
  C  C940  1  0.211800  0.455270  0.380700  1.0  -0.2012
  C  C941  1  0.206600  0.425070  0.367300  1.0  -0.2344
  C  C942  1  0.167300  0.410910  0.407200  1.0  -0.046
  C  C943  1  0.411900  0.981540  0.303400  1.0  -0.1485
  C  C944  1  0.450800  0.967170  0.381500  1.0  -0.2056
  C  C945  1  0.498300  0.964480  0.353000  1.0  -0.0959
  C  C946  1  0.356100  0.895690  0.318100  1.0  -0.1906
  C  C947  1  0.407300  0.891460  0.378400  1.0  -0.2031
  C  C948  1  0.445400  0.877520  0.336900  1.0  -0.0508
  C  C949  1  0.259800  0.970790  0.264500  1.0  -0.206
  C  C950  1  0.211100  0.959580  0.320400  1.0  -0.216
  C  C951  1  0.169300  0.953390  0.257100  1.0  -0.1238
  C  C952  1  0.436400  0.961040  0.825300  1.0  -0.2052
  C  C953  1  0.425700  0.983270  0.732100  1.0  -0.2417
  C  C954  1  0.438400  0.009630  0.748800  1.0  -0.1165
  C  C955  1  0.414100  0.893710  0.896400  1.0  -0.1766
  C  C956  1  0.428100  0.867470  0.955800  1.0  -0.244
  C  C957  1  0.471500  0.863160  0.013400  1.0  -0.0996
  C  C958  1  0.211800  0.955270  0.880700  1.0  -0.2012
  C  C959  1  0.206600  0.925070  0.867300  1.0  -0.2344
  C  C960  1  0.167300  0.910910  0.907200  1.0  -0.046
  N  N961  1  0.348850  0.186060  0.872300  1.0  -0.6527
  N  N962  1  0.400420  0.225220  0.751300  1.0  -0.6273
  N  N963  1  0.448350  0.180830  0.832400  1.0  -0.6229
  N  N964  1  0.323800  0.235310  0.923600  1.0  -0.5262
  N  N965  1  0.392900  0.140950  0.932000  1.0  -0.5336
  N  N966  1  0.492510  0.225790  0.881100  1.0  -0.5514
  N  N967  1  0.304000  0.220640  0.702600  1.0  -0.5445
  N  N968  1  0.385100  0.153830  0.693700  1.0  -0.5487
  N  N969  1  0.485800  0.215060  0.648900  1.0  -0.5462
  N  N970  1  0.348850  0.686060  0.372300  1.0  -0.6527
  N  N971  1  0.400420  0.725220  0.251300  1.0  -0.6273
  N  N972  1  0.448350  0.680830  0.332400  1.0  -0.6229
  N  N973  1  0.323800  0.735310  0.423600  1.0  -0.5262
  N  N974  1  0.392900  0.640950  0.432000  1.0  -0.5336
  N  N975  1  0.492510  0.725790  0.381100  1.0  -0.5514
  N  N976  1  0.304000  0.720640  0.202600  1.0  -0.5445
  N  N977  1  0.385100  0.653830  0.193700  1.0  -0.5487
  N  N978  1  0.485800  0.715060  0.148900  1.0  -0.5462
  N  N979  1  0.848850  0.186060  0.372300  1.0  -0.6527
  N  N980  1  0.900420  0.225220  0.251300  1.0  -0.6273
  N  N981  1  0.948350  0.180830  0.332400  1.0  -0.6229
  N  N982  1  0.823800  0.235310  0.423600  1.0  -0.5262
  N  N983  1  0.892900  0.140950  0.432000  1.0  -0.5336
  N  N984  1  0.992510  0.225790  0.381100  1.0  -0.5514
  N  N985  1  0.804000  0.220640  0.202600  1.0  -0.5445
  N  N986  1  0.885100  0.153830  0.193700  1.0  -0.5487
  N  N987  1  0.985800  0.215060  0.148900  1.0  -0.5462
  N  N988  1  0.848850  0.686060  0.872300  1.0  -0.6527
  N  N989  1  0.900420  0.725220  0.751300  1.0  -0.6273
  N  N990  1  0.948350  0.680830  0.832400  1.0  -0.6229
  N  N991  1  0.823800  0.735310  0.923600  1.0  -0.5262
  N  N992  1  0.892900  0.640950  0.932000  1.0  -0.5336
  N  N993  1  0.992510  0.725790  0.881100  1.0  -0.5514
  N  N994  1  0.804000  0.720640  0.702600  1.0  -0.5445
  N  N995  1  0.885100  0.653830  0.693700  1.0  -0.5487
  N  N996  1  0.985800  0.715060  0.648900  1.0  -0.5462
  N  N997  1  0.651150  0.813940  0.872300  1.0  -0.6525
  N  N998  1  0.599580  0.774780  0.751300  1.0  -0.628
  N  N999  1  0.551650  0.819170  0.832400  1.0  -0.6229
  N  N1000  1  0.676200  0.764690  0.923600  1.0  -0.5275
  N  N1001  1  0.607100  0.859050  0.932000  1.0  -0.5338
  N  N1002  1  0.507490  0.774210  0.881100  1.0  -0.5499
  N  N1003  1  0.696000  0.779360  0.702600  1.0  -0.5452
  N  N1004  1  0.614900  0.846170  0.693700  1.0  -0.5508
  N  N1005  1  0.514200  0.784940  0.648900  1.0  -0.5459
  N  N1006  1  0.651150  0.313940  0.372300  1.0  -0.6525
  N  N1007  1  0.599580  0.274780  0.251300  1.0  -0.628
  N  N1008  1  0.551650  0.319170  0.332400  1.0  -0.6229
  N  N1009  1  0.676200  0.264690  0.423600  1.0  -0.5275
  N  N1010  1  0.607100  0.359050  0.432000  1.0  -0.5338
  N  N1011  1  0.507490  0.274210  0.381100  1.0  -0.5499
  N  N1012  1  0.696000  0.279360  0.202600  1.0  -0.5452
  N  N1013  1  0.614900  0.346170  0.193700  1.0  -0.5508
  N  N1014  1  0.514200  0.284940  0.148900  1.0  -0.5459
  N  N1015  1  0.151150  0.813940  0.372300  1.0  -0.6525
  N  N1016  1  0.099580  0.774780  0.251300  1.0  -0.628
  N  N1017  1  0.051650  0.819170  0.332400  1.0  -0.6229
  N  N1018  1  0.176200  0.764690  0.423600  1.0  -0.5275
  N  N1019  1  0.107100  0.859050  0.432000  1.0  -0.5338
  N  N1020  1  0.007490  0.774210  0.381100  1.0  -0.5499
  N  N1021  1  0.196000  0.779360  0.202600  1.0  -0.5452
  N  N1022  1  0.114900  0.846170  0.193700  1.0  -0.5508
  N  N1023  1  0.014200  0.784940  0.148900  1.0  -0.5459
  N  N1024  1  0.151150  0.313940  0.872300  1.0  -0.6525
  N  N1025  1  0.099580  0.274780  0.751300  1.0  -0.628
  N  N1026  1  0.051650  0.319170  0.832400  1.0  -0.6229
  N  N1027  1  0.176200  0.264690  0.923600  1.0  -0.5275
  N  N1028  1  0.107100  0.359050  0.932000  1.0  -0.5338
  N  N1029  1  0.007490  0.274210  0.881100  1.0  -0.5499
  N  N1030  1  0.196000  0.279360  0.702600  1.0  -0.5452
  N  N1031  1  0.114900  0.346170  0.693700  1.0  -0.5508
  N  N1032  1  0.014200  0.284940  0.648900  1.0  -0.5459
  N  N1033  1  0.598850  0.063940  0.122300  1.0  -0.6527
  N  N1034  1  0.650420  0.024780  0.001300  1.0  -0.6275
  N  N1035  1  0.698350  0.069170  0.082400  1.0  -0.6227
  N  N1036  1  0.573800  0.014690  0.173600  1.0  -0.5264
  N  N1037  1  0.642900  0.109050  0.182000  1.0  -0.5335
  N  N1038  1  0.742510  0.024210  0.131100  1.0  -0.5514
  N  N1039  1  0.554000  0.029360  0.952600  1.0  -0.5446
  N  N1040  1  0.635100  0.096170  0.943700  1.0  -0.549
  N  N1041  1  0.735800  0.034940  0.898900  1.0  -0.5462
  N  N1042  1  0.598850  0.563940  0.622300  1.0  -0.6527
  N  N1043  1  0.650420  0.524780  0.501300  1.0  -0.6275
  N  N1044  1  0.698350  0.569170  0.582400  1.0  -0.6227
  N  N1045  1  0.573800  0.514690  0.673600  1.0  -0.5264
  N  N1046  1  0.642900  0.609050  0.682000  1.0  -0.5335
  N  N1047  1  0.742510  0.524210  0.631100  1.0  -0.5514
  N  N1048  1  0.554000  0.529360  0.452600  1.0  -0.5446
  N  N1049  1  0.635100  0.596170  0.443700  1.0  -0.549
  N  N1050  1  0.735800  0.534940  0.398900  1.0  -0.5462
  N  N1051  1  0.098850  0.063940  0.622300  1.0  -0.6527
  N  N1052  1  0.150420  0.024780  0.501300  1.0  -0.6275
  N  N1053  1  0.198350  0.069170  0.582400  1.0  -0.6227
  N  N1054  1  0.073800  0.014690  0.673600  1.0  -0.5264
  N  N1055  1  0.142900  0.109050  0.682000  1.0  -0.5335
  N  N1056  1  0.242510  0.024210  0.631100  1.0  -0.5514
  N  N1057  1  0.054000  0.029360  0.452600  1.0  -0.5446
  N  N1058  1  0.135100  0.096170  0.443700  1.0  -0.549
  N  N1059  1  0.235800  0.034940  0.398900  1.0  -0.5462
  N  N1060  1  0.098850  0.563940  0.122300  1.0  -0.6527
  N  N1061  1  0.150420  0.524780  0.001300  1.0  -0.6275
  N  N1062  1  0.198350  0.569170  0.082400  1.0  -0.6227
  N  N1063  1  0.073800  0.514690  0.173600  1.0  -0.5264
  N  N1064  1  0.142900  0.609050  0.182000  1.0  -0.5335
  N  N1065  1  0.242510  0.524210  0.131100  1.0  -0.5514
  N  N1066  1  0.054000  0.529360  0.952600  1.0  -0.5446
  N  N1067  1  0.135100  0.596170  0.943700  1.0  -0.549
  N  N1068  1  0.235800  0.534940  0.898900  1.0  -0.5462
  N  N1069  1  0.901150  0.436060  0.122300  1.0  -0.6523
  N  N1070  1  0.849580  0.475220  0.001300  1.0  -0.6278
  N  N1071  1  0.801650  0.430830  0.082400  1.0  -0.6231
  N  N1072  1  0.926200  0.485310  0.173600  1.0  -0.5268
  N  N1073  1  0.857100  0.390950  0.182000  1.0  -0.5338
  N  N1074  1  0.757490  0.475790  0.131100  1.0  -0.5512
  N  N1075  1  0.946000  0.470640  0.952600  1.0  -0.5452
  N  N1076  1  0.864900  0.403830  0.943700  1.0  -0.5506
  N  N1077  1  0.764200  0.465060  0.898900  1.0  -0.5463
  N  N1078  1  0.901150  0.936060  0.622300  1.0  -0.6523
  N  N1079  1  0.849580  0.975220  0.501300  1.0  -0.6278
  N  N1080  1  0.801650  0.930830  0.582400  1.0  -0.6231
  N  N1081  1  0.926200  0.985310  0.673600  1.0  -0.5268
  N  N1082  1  0.857100  0.890950  0.682000  1.0  -0.5338
  N  N1083  1  0.757490  0.975790  0.631100  1.0  -0.5512
  N  N1084  1  0.946000  0.970640  0.452600  1.0  -0.5452
  N  N1085  1  0.864900  0.903830  0.443700  1.0  -0.5506
  N  N1086  1  0.764200  0.965060  0.398900  1.0  -0.5463
  N  N1087  1  0.401150  0.436060  0.622300  1.0  -0.6523
  N  N1088  1  0.349580  0.475220  0.501300  1.0  -0.6278
  N  N1089  1  0.301650  0.430830  0.582400  1.0  -0.6231
  N  N1090  1  0.426200  0.485310  0.673600  1.0  -0.5268
  N  N1091  1  0.357100  0.390950  0.682000  1.0  -0.5338
  N  N1092  1  0.257490  0.475790  0.631100  1.0  -0.5512
  N  N1093  1  0.446000  0.470640  0.452600  1.0  -0.5452
  N  N1094  1  0.364900  0.403830  0.443700  1.0  -0.5506
  N  N1095  1  0.264200  0.465060  0.398900  1.0  -0.5463
  N  N1096  1  0.401150  0.936060  0.122300  1.0  -0.6523
  N  N1097  1  0.349580  0.975220  0.001300  1.0  -0.6278
  N  N1098  1  0.301650  0.930830  0.082400  1.0  -0.6231
  N  N1099  1  0.426200  0.985310  0.173600  1.0  -0.5268
  N  N1100  1  0.357100  0.890950  0.182000  1.0  -0.5338
  N  N1101  1  0.257490  0.975790  0.131100  1.0  -0.5512
  N  N1102  1  0.446000  0.970640  0.952600  1.0  -0.5452
  N  N1103  1  0.364900  0.903830  0.943700  1.0  -0.5506
  N  N1104  1  0.264200  0.965060  0.898900  1.0  -0.5463
