# generated using pymatgen
data_InH10C18(NO4)2
_symmetry_space_group_name_H-M   'P 1'
_cell_length_a   29.01280000
_cell_length_b   29.01290000
_cell_length_c   29.01290000
_cell_angle_alpha   72.18880000
_cell_angle_beta   72.18890000
_cell_angle_gamma   112.84500000
_symmetry_Int_Tables_number   1
_chemical_formula_structural   InH10C18(NO4)2
_chemical_formula_sum   'In24 H240 C432 N48 O192'
_cell_volume   18750.45591725
_cell_formula_units_Z   24
loop_
 _symmetry_equiv_pos_site_id
 _symmetry_equiv_pos_as_xyz
  1  'x, y, z'
loop_
 _atom_site_type_symbol
 _atom_site_label
 _atom_site_symmetry_multiplicity
 _atom_site_fract_x
 _atom_site_fract_y
 _atom_site_fract_z
 _atom_site_occupancy
 _atom_site_charge
  In  In1  1  0.837980  0.771240  0.143980  1.0  1.4924
  In  In2  1  0.362370  0.343550  0.226740  1.0  1.5063
  In  In3  1  0.040220  0.374500  0.380120  1.0  1.4839
  In  In4  1  0.084780  0.518040  0.643980  1.0  1.493
  In  In5  1  0.137630  0.410890  0.518820  1.0  1.5056
  In  In6  1  0.745380  0.125500  0.334280  1.0  1.4826
  In  In7  1  0.070290  0.843550  0.018820  1.0  1.505
  In  In8  1  0.570290  0.089110  0.273260  1.0  1.5069
  In  In9  1  0.245380  0.079660  0.880120  1.0  1.4838
  In  In10  1  0.959780  0.625500  0.619880  1.0  1.484
  In  In11  1  0.754620  0.920340  0.119880  1.0  1.4834
  In  In12  1  0.162020  0.228760  0.856020  1.0  1.4924
  In  In13  1  0.540220  0.420340  0.834280  1.0  1.4827
  In  In14  1  0.929710  0.156450  0.981180  1.0  1.5049
  In  In15  1  0.254620  0.874500  0.665720  1.0  1.4835
  In  In16  1  0.415220  0.271240  0.066740  1.0  1.4928
  In  In17  1  0.429710  0.910890  0.726740  1.0  1.5058
  In  In18  1  0.337980  0.981960  0.433260  1.0  1.4914
  In  In19  1  0.915220  0.481960  0.356020  1.0  1.4927
  In  In20  1  0.662020  0.018040  0.566740  1.0  1.4925
  In  In21  1  0.459780  0.579660  0.165720  1.0  1.4836
  In  In22  1  0.637630  0.656450  0.773260  1.0  1.5061
  In  In23  1  0.862370  0.589110  0.481180  1.0  1.5056
  In  In24  1  0.584780  0.728760  0.933260  1.0  1.4934
  H  H25  1  0.358400  0.815500  0.228500  1.0  0.2627
  H  H26  1  0.071000  0.833400  0.507400  1.0  0.1141
  H  H27  1  0.459100  0.056300  0.178600  1.0  0.1292
  H  H28  1  0.021000  0.869800  0.341800  1.0  0.1278
  H  H29  1  0.054600  0.836100  0.709700  1.0  0.1171
  H  H30  1  0.501400  0.857800  0.076000  1.0  0.1283
  H  H31  1  0.621200  0.688400  0.517400  1.0  0.1219
  H  H32  1  0.353600  0.313100  0.729500  1.0  0.1145
  H  H33  1  0.840500  0.908400  0.534100  1.0  0.1253
  H  H34  1  0.341300  0.524900  0.431200  1.0  0.1184
  H  H35  1  0.294200  0.811600  0.067200  1.0  0.1251
  H  H36  1  0.367700  0.936200  0.967500  1.0  0.1247
  H  H37  1  0.713400  0.030100  0.726900  1.0  0.1216
  H  H38  1  0.544000  0.315500  0.542900  1.0  0.2655
  H  H39  1  0.773000  0.503200  0.141200  1.0  0.1171
  H  H40  1  0.863500  0.856300  0.777400  1.0  0.1319
  H  H41  1  0.615100  0.958400  0.964100  1.0  0.1209
  H  H42  1  0.479000  0.637200  0.651200  1.0  0.1279
  H  H43  1  0.581800  0.204300  0.791100  1.0  0.123
  H  H44  1  0.914100  0.408800  0.003100  1.0  0.2622
  H  H45  1  0.240100  0.086200  0.430500  1.0  0.1256
  H  H46  1  0.132700  0.033500  0.640400  1.0  0.1236
  H  H47  1  0.426200  0.498400  0.585400  1.0  0.2068
  H  H48  1  0.259900  0.329400  0.653900  1.0  0.1249
  H  H49  1  0.853600  0.083100  0.459500  1.0  0.1152
  H  H50  1  0.794200  0.361400  0.017400  1.0  0.1248
  H  H51  1  0.018000  0.430400  0.070200  1.0  0.2514
  H  H52  1  0.077500  0.920800  0.464100  1.0  0.1178
  H  H53  1  0.554600  0.764300  0.281500  1.0  0.1147
  H  H54  1  0.504600  0.295700  0.622500  1.0  0.1201
  H  H55  1  0.543900  0.975100  0.183600  1.0  0.1188
  H  H56  1  0.288400  0.630200  0.848800  1.0  0.1269
  H  H57  1  0.583800  0.709700  0.479300  1.0  0.2634
  H  H58  1  0.265100  0.443700  0.597200  1.0  0.1294
  H  H59  1  0.442500  0.874600  0.965900  1.0  0.1249
  H  H60  1  0.227000  0.496800  0.858800  1.0  0.1185
  H  H61  1  0.495400  0.704300  0.377500  1.0  0.1199
  H  H62  1  0.740100  0.670600  0.346100  1.0  0.1256
  H  H63  1  0.136500  0.143700  0.222600  1.0  0.133
  H  H64  1  0.476900  0.371200  0.294900  1.0  0.1212
  H  H65  1  0.145900  0.053900  0.381000  1.0  0.1252
  H  H66  1  0.765400  0.801100  0.828500  1.0  0.1197
  H  H67  1  0.434900  0.026900  0.119000  1.0  0.126
  H  H68  1  0.934900  0.553900  0.092000  1.0  0.129
  H  H69  1  0.115100  0.579200  0.843300  1.0  0.1201
  H  H70  1  0.995400  0.872900  0.708900  1.0  0.1212
  H  H71  1  0.251300  0.736700  0.928800  1.0  0.1174
  H  H72  1  0.691300  0.833100  0.304600  1.0  0.1237
  H  H73  1  0.334500  0.319900  0.428800  1.0  0.1167
  H  H74  1  0.066200  0.922600  0.576000  1.0  0.1258
  H  H75  1  0.506800  0.933800  0.136000  1.0  0.1242
  H  H76  1  0.083800  0.511600  0.914600  1.0  0.2107
  H  H77  1  0.445400  0.235700  0.718500  1.0  0.115
  H  H78  1  0.191300  0.995900  0.641800  1.0  0.1232
  H  H79  1  0.998600  0.422600  0.143600  1.0  0.1291
  H  H80  1  0.566200  0.642200  0.356400  1.0  0.1272
  H  H81  1  0.403700  0.436200  0.431500  1.0  0.1233
  H  H82  1  0.057500  0.591600  0.067900  1.0  0.1272
  H  H83  1  0.663800  0.017100  0.085900  1.0  0.1204
  H  H84  1  0.979000  0.130200  0.658200  1.0  0.1281
  H  H85  1  0.666100  0.271800  0.205100  1.0  0.1221
  H  H86  1  0.959100  0.637700  0.097200  1.0  0.1291
  H  H87  1  0.308700  0.166900  0.695400  1.0  0.1238
  H  H88  1  0.435500  0.622300  0.602200  1.0  0.2654
  H  H89  1  0.234600  0.198900  0.171500  1.0  0.1195
  H  H90  1  0.265400  0.593900  0.535700  1.0  0.1198
  H  H91  1  0.811000  0.436900  0.979300  1.0  0.2652
  H  H92  1  0.498600  0.142200  0.924000  1.0  0.1288
  H  H93  1  0.456000  0.684500  0.457100  1.0  0.2654
  H  H94  1  0.911900  0.908800  0.505300  1.0  0.2621
  H  H95  1  0.646400  0.686900  0.270500  1.0  0.1145
  H  H96  1  0.499400  0.411800  0.570200  1.0  0.2519
  H  H97  1  0.411900  0.417200  0.496900  1.0  0.2622
  H  H98  1  0.957400  0.416900  0.229500  1.0  0.1146
  H  H99  1  0.836200  0.250300  0.146700  1.0  0.1207
  H  H100  1  0.641600  0.184500  0.771500  1.0  0.2644
  H  H101  1  0.840800  0.333400  0.237600  1.0  0.1151
  H  H102  1  0.585900  0.082800  0.005300  1.0  0.2647
  H  H103  1  0.858400  0.586900  0.957100  1.0  0.2654
  H  H104  1  0.103000  0.249700  0.414100  1.0  0.1204
  H  H105  1  0.040900  0.362300  0.902800  1.0  0.1287
  H  H106  1  0.573800  0.501600  0.414600  1.0  0.2074
  H  H107  1  0.956000  0.913100  0.728500  1.0  0.2632
  H  H108  1  0.930200  0.857200  0.636000  1.0  0.1257
  H  H109  1  0.982000  0.569600  0.929800  1.0  0.2508
  H  H110  1  0.004600  0.127100  0.291100  1.0  0.1213
  H  H111  1  0.224500  0.537700  0.897800  1.0  0.2667
  H  H112  1  0.159500  0.091600  0.465900  1.0  0.1266
  H  H113  1  0.862300  0.504100  0.804600  1.0  0.122
  H  H114  1  0.878800  0.861400  0.432800  1.0  0.1207
  H  H115  1  0.363500  0.640900  0.492800  1.0  0.13
  H  H116  1  0.158700  0.227500  0.316400  1.0  0.1199
  H  H117  1  0.189000  0.563100  0.020700  1.0  0.2659
  H  H118  1  0.129600  0.301100  0.964300  1.0  0.1189
  H  H119  1  0.133700  0.356300  0.007200  1.0  0.1315
  H  H120  1  0.855600  0.996800  0.730200  1.0  0.1185
  H  H121  1  0.748700  0.263300  0.071200  1.0  0.1165
  H  H122  1  0.870400  0.698900  0.035700  1.0  0.1194
  H  H123  1  0.213400  0.440300  0.816700  1.0  0.1208
  H  H124  1  0.542600  0.813100  0.040500  1.0  0.1146
  H  H125  1  0.088100  0.091200  0.494700  1.0  0.2617
  H  H126  1  0.929000  0.166600  0.492600  1.0  0.1142
  H  H127  1  0.596300  0.563800  0.568500  1.0  0.1224
  H  H128  1  0.173900  0.533500  0.099200  1.0  0.1245
  H  H129  1  0.500600  0.588200  0.429800  1.0  0.2498
  H  H130  1  0.454200  0.735700  0.209700  1.0  0.1158
  H  H131  1  0.234900  0.137700  0.321400  1.0  0.1289
  H  H132  1  0.922500  0.079200  0.535900  1.0  0.1178
  H  H133  1  0.211600  0.862800  0.158200  1.0  0.1279
  H  H134  1  0.788400  0.137200  0.841800  1.0  0.1277
  H  H135  1  0.416200  0.290300  0.520700  1.0  0.2651
  H  H136  1  0.711600  0.369800  0.151200  1.0  0.1269
  H  H137  1  0.518000  0.088200  0.912400  1.0  0.2485
  H  H138  1  0.633700  0.140900  0.722600  1.0  0.1333
  H  H139  1  0.933800  0.077400  0.424000  1.0  0.1256
  H  H140  1  0.493200  0.066200  0.864000  1.0  0.1233
  H  H141  1  0.065100  0.446100  0.908000  1.0  0.1274
  H  H142  1  0.248700  0.819900  0.014600  1.0  0.1166
  H  H143  1  0.045800  0.336100  0.218500  1.0  0.1169
  H  H144  1  0.418200  0.795700  0.208900  1.0  0.1229
  H  H145  1  0.743000  0.469900  0.316700  1.0  0.1213
  H  H146  1  0.983300  0.413800  0.846100  1.0  0.1252
  H  H147  1  0.942500  0.408400  0.932100  1.0  0.127
  H  H148  1  0.557500  0.125400  0.034100  1.0  0.1274
  H  H149  1  0.137700  0.495900  0.195400  1.0  0.1225
  H  H150  1  0.999400  0.069600  0.412400  1.0  0.249
  H  H151  1  0.132300  0.664800  0.931500  1.0  0.1259
  H  H152  1  0.765100  0.862300  0.678600  1.0  0.1292
  H  H153  1  0.001400  0.577400  0.856400  1.0  0.1284
  H  H154  1  0.569800  0.433800  0.573000  1.0  0.1236
  H  H155  1  0.146400  0.916900  0.540500  1.0  0.1149
  H  H156  1  0.751300  0.180100  0.985400  1.0  0.1161
  H  H157  1  0.073800  0.988400  0.427800  1.0  0.2097
  H  H158  1  0.945400  0.163900  0.290300  1.0  0.1171
  H  H159  1  0.483300  0.829400  0.930500  1.0  0.1249
  H  H160  1  0.397000  0.482900  0.353300  1.0  0.1194
  H  H161  1  0.808700  0.004100  0.358200  1.0  0.1232
  H  H162  1  0.918200  0.627100  0.877500  1.0  0.1203
  H  H163  1  0.705800  0.188400  0.932800  1.0  0.1246
  H  H164  1  0.457400  0.186900  0.959500  1.0  0.1147
  H  H165  1  0.775500  0.462300  0.102200  1.0  0.2655
  H  H166  1  0.326100  0.726900  0.140400  1.0  0.1265
  H  H167  1  0.854100  0.946100  0.619000  1.0  0.1261
  H  H168  1  0.521000  0.362800  0.348800  1.0  0.1279
  H  H169  1  0.367300  0.226900  0.599200  1.0  0.1266
  H  H170  1  0.000600  0.930400  0.587600  1.0  0.251
  H  H171  1  0.016700  0.586200  0.153900  1.0  0.1255
  H  H172  1  0.673900  0.273100  0.859600  1.0  0.128
  H  H173  1  0.081800  0.372900  0.122500  1.0  0.1211
  H  H174  1  0.571000  0.578400  0.262400  1.0  0.1141
  H  H175  1  0.023100  0.228200  0.605700  1.0  0.1224
  H  H176  1  0.867300  0.966500  0.359600  1.0  0.1238
  H  H177  1  0.166100  0.871200  0.105700  1.0  0.122
  H  H178  1  0.629600  0.093900  0.671500  1.0  0.1201
  H  H179  1  0.144400  0.003200  0.269800  1.0  0.1187
  H  H180  1  0.632700  0.773100  0.400800  1.0  0.1285
  H  H181  1  0.866300  0.643700  0.992800  1.0  0.1313
  H  H182  1  0.340500  0.374600  0.567900  1.0  0.1251
  H  H183  1  0.867700  0.335200  0.068500  1.0  0.1255
  H  H184  1  0.422500  0.458400  0.656700  1.0  0.1208
  H  H185  1  0.043900  0.727500  0.931200  1.0  0.12
  H  H186  1  0.370400  0.906100  0.328500  1.0  0.1197
  H  H187  1  0.976900  0.771800  0.394300  1.0  0.1216
  H  H188  1  0.085900  0.591200  0.996900  1.0  0.2629
  H  H189  1  0.121200  0.138600  0.567200  1.0  0.1197
  H  H190  1  0.757000  0.940300  0.773100  1.0  0.1209
  H  H191  1  0.658700  0.475100  0.568800  1.0  0.1181
  H  H192  1  0.935500  0.037700  0.686800  1.0  0.2657
  H  H193  1  0.926200  0.011600  0.572200  1.0  0.2078
  H  H194  1  0.993200  0.357200  0.073000  1.0  0.1257
  H  H195  1  0.841300  0.772500  0.683600  1.0  0.1195
  H  H196  1  0.064500  0.962300  0.313200  1.0  0.2674
  H  H197  1  0.833900  0.128800  0.894300  1.0  0.1218
  H  H198  1  0.336200  0.982900  0.914100  1.0  0.1198
  H  H199  1  0.141600  0.413100  0.042900  1.0  0.266
  H  H200  1  0.583800  0.998400  0.927800  1.0  0.207
  H  H201  1  0.378800  0.311600  0.482600  1.0  0.1228
  H  H202  1  0.903700  0.835200  0.532500  1.0  0.1247
  H  H203  1  0.954200  0.663900  0.781500  1.0  0.1169
  H  H204  1  0.916200  0.488400  0.085400  1.0  0.2103
  H  H205  1  0.384900  0.041600  0.035900  1.0  0.1223
  H  H206  1  0.257000  0.530100  0.683300  1.0  0.1217
  H  H207  1  0.956100  0.272500  0.068800  1.0  0.1196
  H  H208  1  0.637700  0.333100  0.858200  1.0  0.1234
  H  H209  1  0.645900  0.526900  0.408000  1.0  0.1266
  H  H210  1  0.416200  0.001600  0.072200  1.0  0.2067
  H  H211  1  0.826100  0.466500  0.900800  1.0  0.124
  H  H212  1  0.523100  0.628800  0.705100  1.0  0.1209
  H  H213  1  0.042600  0.583100  0.770500  1.0  0.1148
  H  H214  1  0.603000  0.517100  0.646700  1.0  0.119
  H  H215  1  0.069800  0.142800  0.364000  1.0  0.1239
  H  H216  1  0.897000  0.750300  0.585900  1.0  0.1209
  H  H217  1  0.414100  0.917200  0.994700  1.0  0.2639
  H  H218  1  0.159200  0.666667  0.762400  1.0  0.1136
  H  H219  1  0.632300  0.063800  0.032500  1.0  0.1247
  H  H220  1  0.636500  0.359100  0.507200  1.0  0.1312
  H  H221  1  0.564500  0.377700  0.397800  1.0  0.2675
  H  H222  1  0.430200  0.566200  0.427000  1.0  0.1216
  H  H223  1  0.724500  0.122300  0.813200  1.0  0.2675
  H  H224  1  0.482000  0.911800  0.087600  1.0  0.2506
  H  H225  1  0.565100  0.973100  0.881000  1.0  0.1251
  H  H226  1  0.355600  0.585800  0.641200  1.0  0.1213
  H  H227  1  0.659200  0.921600  0.007400  1.0  0.1148
  H  H228  1  0.665500  0.680100  0.571200  1.0  0.1163
  H  H229  1  0.205800  0.638600  0.982600  1.0  0.1243
  H  H230  1  0.786600  0.559700  0.183300  1.0  0.1205
  H  H231  1  0.340800  0.078400  0.992600  1.0  0.1153
  H  H232  1  0.044000  0.086900  0.271500  1.0  0.2642
  H  H233  1  0.354100  0.473100  0.592000  1.0  0.1255
  H  H234  1  0.366300  0.859100  0.277400  1.0  0.1324
  H  H235  1  0.362300  0.666900  0.141800  1.0  0.123
  H  H236  1  0.433800  0.357800  0.643600  1.0  0.1282
  H  H237  1  0.243000  0.059700  0.226900  1.0  0.1208
  H  H238  1  0.884900  0.420800  0.156700  1.0  0.1219
  H  H239  1  0.734900  0.556300  0.402800  1.0  0.1291
  H  H240  1  0.163800  0.749700  0.853300  1.0  0.121
  H  H241  1  0.916200  0.936900  0.374100  1.0  0.2672
  H  H242  1  0.516700  0.170600  0.069500  1.0  0.1246
  H  H243  1  0.834500  0.763300  0.485400  1.0  0.1161
  H  H244  1  0.096300  0.164800  0.467500  1.0  0.1244
  H  H245  1  0.545800  0.264300  0.790300  1.0  0.1152
  H  H246  1  0.456100  0.024900  0.816400  1.0  0.1184
  H  H247  1  0.540900  0.943700  0.821400  1.0  0.1286
  H  H248  1  0.286600  0.969900  0.273100  1.0  0.1214
  H  H249  1  0.659500  0.625400  0.432100  1.0  0.1258
  H  H250  1  0.588100  0.582800  0.503100  1.0  0.2622
  H  H251  1  0.275500  0.877700  0.186800  1.0  0.2664
  H  H252  1  0.644400  0.414200  0.358800  1.0  0.1206
  H  H253  1  0.006800  0.642800  0.927000  1.0  0.1246
  H  H254  1  0.727000  0.085800  0.769800  1.0  0.1181
  H  H255  1  0.759900  0.913800  0.569500  1.0  0.124
  H  H256  1  0.689000  0.209700  0.874100  1.0  0.263
  H  H257  1  0.734600  0.406100  0.464300  1.0  0.1191
  H  H258  1  0.165500  0.236700  0.514600  1.0  0.1172
  H  H259  1  0.333900  0.728200  0.794900  1.0  0.1217
  H  H260  1  0.311000  0.790300  0.125900  1.0  0.2655
  H  H261  1  0.083800  0.063100  0.625900  1.0  0.2658
  H  H262  1  0.429000  0.421600  0.737600  1.0  0.1145
  H  H263  1  0.273000  0.914200  0.230200  1.0  0.1173
  H  H264  1  0.577500  0.541600  0.343300  1.0  0.1195
  C  C265  1  0.242800  0.624900  0.920700  1.0  -0.0182
  C  C266  1  0.298700  0.467200  0.562300  1.0  -0.14
  C  C267  1  0.589400  0.037500  0.970100  1.0  0.3629
  C  C268  1  0.058400  0.956800  0.674600  1.0  -0.0279
  C  C269  1  0.741100  0.285100  0.087600  1.0  -0.0346
  C  C270  1  0.058200  0.380800  0.475600  1.0  0.624
  C  C271  1  0.896400  0.858200  0.643400  1.0  -0.1412
  C  C272  1  0.428300  0.734100  0.195800  1.0  -0.038
  C  C273  1  0.947400  0.989000  0.461000  1.0  0.3339
  C  C274  1  0.778800  0.923300  0.776300  1.0  -0.092
  C  C275  1  0.856400  0.033800  0.024400  1.0  0.6282
  C  C276  1  0.873700  0.529000  0.819300  1.0  -0.0479
  C  C277  1  0.537200  0.550200  0.296800  1.0  -0.0098
  C  C278  1  0.410600  0.962500  0.029900  1.0  0.3588
  C  C279  1  0.016600  0.217300  0.452700  1.0  -0.1314
  C  C280  1  0.338700  0.797800  0.176500  1.0  0.2757
  C  C281  1  0.012800  0.552900  0.151900  1.0  -0.0572
  C  C282  1  0.982600  0.500600  0.200200  1.0  -0.0833
  C  C283  1  0.135500  0.664800  0.897900  1.0  -0.1396
  C  C284  1  0.003400  0.457200  0.365800  1.0  0.6746
  C  C285  1  0.116700  0.993500  0.654600  1.0  -0.1936
  C  C286  1  0.062700  0.164800  0.470700  1.0  -0.1411
  C  C287  1  0.650900  0.118900  0.722800  1.0  -0.1477
  C  C288  1  0.299200  0.317200  0.700200  1.0  -0.0804
  C  C289  1  0.035000  0.897900  0.695300  1.0  -0.1084
  C  C290  1  0.486400  0.334700  0.454500  1.0  0.3024
  C  C291  1  0.780800  0.146000  0.871200  1.0  -0.1107
  C  C292  1  0.462800  0.449800  0.703200  1.0  -0.0098
  C  C293  1  0.850900  0.658500  0.057400  1.0  -0.054
  C  C294  1  0.348300  0.193000  0.680700  1.0  -0.05
  C  C295  1  0.381800  0.986200  0.004600  1.0  -0.0837
  C  C296  1  0.873600  0.693100  0.471300  1.0  0.6612
  C  C297  1  0.429900  0.234100  0.694200  1.0  -0.038
  C  C298  1  0.497800  0.852100  0.046500  1.0  -0.1224
  C  C299  1  0.241100  0.828700  0.044000  1.0  -0.036
  C  C300  1  0.192200  0.859000  0.097800  1.0  -0.091
  C  C301  1  0.295200  0.335300  0.651900  1.0  -0.0555
  C  C302  1  0.437300  0.466600  0.397900  1.0  -0.1399
  C  C303  1  0.710800  0.165300  0.848300  1.0  0.3005
  C  C304  1  0.849100  0.626300  0.032000  1.0  -0.1446
  C  C305  1  0.749300  0.716300  0.246400  1.0  0.7123
  C  C306  1  0.343200  0.362100  0.600700  1.0  -0.1178
  C  C307  1  0.649100  0.674400  0.303300  1.0  -0.08
  C  C308  1  0.161300  0.484800  0.040900  1.0  0.2759
  C  C309  1  0.830000  0.282700  0.200700  1.0  -0.1296
  C  C310  1  0.670000  0.969300  0.047300  1.0  -0.1325
  C  C311  1  0.337000  0.585200  0.619400  1.0  -0.1732
  C  C312  1  0.677800  0.114600  0.754000  1.0  -0.0079
  C  C313  1  0.150900  0.373700  0.968000  1.0  -0.1428
  C  C314  1  0.643600  0.119200  0.322600  1.0  0.6245
  C  C315  1  0.721200  0.444900  0.355500  1.0  -0.0917
  C  C316  1  0.962800  0.166000  0.487000  1.0  -0.0107
  C  C317  1  0.840700  0.043200  0.075500  1.0  0.6506
  C  C318  1  0.948900  0.399500  0.391600  1.0  0.6339
  C  C319  1  0.045600  0.124900  0.617900  1.0  -0.0182
  C  C320  1  0.823000  0.869200  0.134200  1.0  0.6752
  C  C321  1  0.438400  0.658100  0.175300  1.0  0.65
  C  C322  1  0.982800  0.848000  0.371200  1.0  -0.1129
  C  C323  1  0.043700  0.191700  0.892000  1.0  0.5771
  C  C324  1  0.976700  0.724000  0.579100  1.0  0.7056
  C  C325  1  0.105200  0.007900  0.524300  1.0  -0.0836
  C  C326  1  0.118200  0.613600  0.895600  1.0  -0.0819
  C  C327  1  0.205300  0.190500  0.312800  1.0  -0.1316
  C  C328  1  0.562700  0.533400  0.602100  1.0  -0.1427
  C  C329  1  0.974300  0.015200  0.323500  1.0  0.2749
  C  C330  1  0.433300  0.492000  0.350500  1.0  -0.0144
  C  C331  1  0.731900  0.176200  0.924900  1.0  -0.1763
  C  C332  1  0.954300  0.589400  0.059300  1.0  -0.1205
  C  C333  1  0.626300  0.307000  0.844700  1.0  -0.0545
  C  C334  1  0.653000  0.949800  0.013000  1.0  -0.0133
  C  C335  1  0.098900  0.242100  0.554800  1.0  -0.1126
  C  C336  1  0.126300  0.471000  0.180700  1.0  -0.0448
  C  C337  1  0.612800  0.668000  0.881400  1.0  0.4196
  C  C338  1  0.545700  0.986400  0.864900  1.0  -0.1231
  C  C339  1  0.351300  0.486400  0.559300  1.0  -0.1124
  C  C340  1  0.795400  0.543600  0.119400  1.0  -0.1804
  C  C341  1  0.470500  0.032800  0.168500  1.0  -0.1413
  C  C342  1  0.394800  0.370500  0.597300  1.0  -0.0849
  C  C343  1  0.503300  0.018100  0.187200  1.0  -0.1341
  C  C344  1  0.470900  0.948500  0.787000  1.0  0.6567
  C  C345  1  0.204800  0.052900  0.459900  1.0  -0.059
  C  C346  1  0.307800  0.710000  0.833200  1.0  -0.0938
  C  C347  1  0.300400  0.944900  0.276300  1.0  -0.0917
  C  C348  1  0.967800  0.492100  0.902700  1.0  -0.0831
  C  C349  1  0.148100  0.493500  0.123200  1.0  -0.1908
  C  C350  1  0.498400  0.960200  0.143400  1.0  -0.143
  C  C351  1  0.906800  0.602100  0.862900  1.0  -0.105
  C  C352  1  0.561600  0.341900  0.824700  1.0  0.65
  C  C353  1  0.518900  0.983300  0.173000  1.0  -0.0577
  C  C354  1  0.112800  0.494200  0.555200  1.0  0.4229
  C  C355  1  0.549400  0.994200  0.618600  1.0  0.4227
  C  C356  1  0.529500  0.967200  0.831500  1.0  -0.1397
  C  C357  1  0.868600  0.931800  0.746000  1.0  -0.0068
  C  C358  1  0.900000  0.909300  0.624700  1.0  0.0164
  C  C359  1  0.174600  0.365700  0.886300  1.0  -0.102
  C  C360  1  0.881800  0.386400  0.104400  1.0  -0.084
  C  C361  1  0.317500  0.850300  0.212800  1.0  0.3067
  C  C362  1  0.458800  0.471700  0.655100  1.0  -0.0749
  C  C363  1  0.264500  0.242100  0.287000  1.0  0.6569
  C  C364  1  0.509200  0.513800  0.604400  1.0  -0.0826
  C  C365  1  0.383300  0.228700  0.623200  1.0  -0.1874
  C  C366  1  0.456300  0.064300  0.352000  1.0  0.5728
  C  C367  1  0.296900  0.742100  0.856800  1.0  -0.1142
  C  C368  1  0.916300  0.564300  0.392000  1.0  0.5747
  C  C369  1  0.387200  0.332000  0.118600  1.0  0.4204
  C  C370  1  0.350900  0.908300  0.307600  1.0  -0.0541
  C  C371  1  0.252000  0.560900  0.613700  1.0  -0.0995
  C  C372  1  0.118700  0.416200  0.424500  1.0  0.6503
  C  C373  1  0.552600  0.591600  0.458400  1.0  0.334
  C  C374  1  0.992400  0.940500  0.470100  1.0  0.3613
  C  C375  1  0.847000  0.334000  0.203200  1.0  -0.0123
  C  C376  1  0.406800  0.769700  0.195300  1.0  -0.1109
  C  C377  1  0.901100  0.757900  0.445200  1.0  -0.1135
  C  C378  1  0.951300  0.536500  0.007800  1.0  0.3971
  C  C379  1  0.550000  0.091600  0.961000  1.0  0.3365
  C  C380  1  0.938400  0.613700  0.719700  1.0  0.6495
  C  C381  1  0.941800  0.619200  0.524400  1.0  0.6269
  C  C382  1  0.600000  0.475300  0.490700  1.0  0.019
  C  C383  1  0.911600  0.587200  0.784200  1.0  -0.1336
  C  C384  1  0.294700  0.481900  0.514800  1.0  -0.139
  C  C385  1  0.034000  0.409300  0.990700  1.0  0.0176
  C  C386  1  0.149100  0.341500  0.942600  1.0  -0.055
  C  C387  1  0.929900  0.124100  0.304200  1.0  -0.0367
  C  C388  1  0.522300  0.825600  0.025300  1.0  -0.0787
  C  C389  1  0.182500  0.469700  0.967200  1.0  0.3054
  C  C390  1  0.958800  0.113900  0.512900  1.0  -0.0736
  C  C391  1  0.601100  0.676200  0.555700  1.0  -0.1765
  C  C392  1  0.411600  0.695800  0.175600  1.0  -0.13
  C  C393  1  0.618700  0.543200  0.797500  1.0  0.6523
  C  C394  1  0.312800  0.175400  0.152200  1.0  0.5889
  C  C395  1  0.351900  0.728700  0.154600  1.0  -0.1892
  C  C396  1  0.601400  0.647900  0.354300  1.0  -0.1237
  C  C397  1  0.364500  0.966600  0.970700  1.0  -0.1387
  C  C398  1  0.156800  0.056100  0.481100  1.0  -0.1163
  C  C399  1  0.496600  0.630800  0.046200  1.0  0.6759
  C  C400  1  0.203100  0.846300  0.054800  1.0  -0.1131
  C  C401  1  0.558400  0.733000  0.398400  1.0  -0.0284
  C  C402  1  0.838700  0.515200  0.959100  1.0  0.2757
  C  C403  1  0.462700  0.216300  0.033000  1.0  0.7118
  C  C404  1  0.088400  0.412800  0.215800  1.0  -0.1347
  C  C405  1  0.812800  0.465000  0.362600  1.0  0.5871
  C  C406  1  0.822200  0.568200  0.063200  1.0  -0.0074
  C  C407  1  0.825400  0.634300  0.113700  1.0  -0.1006
  C  C408  1  0.873200  0.386100  0.155100  1.0  -0.074
  C  C409  1  0.196900  0.776000  0.747300  1.0  0.7068
  C  C410  1  0.583700  0.691700  0.852000  1.0  0.5773
  C  C411  1  0.658300  0.381100  0.468000  1.0  -0.1443
  C  C412  1  0.231900  0.656800  0.944300  1.0  -0.1692
  C  C413  1  0.335600  0.806900  0.819500  1.0  0.6599
  C  C414  1  0.448900  0.340500  0.950600  1.0  0.6308
  C  C415  1  0.049400  0.168000  0.944800  1.0  0.4189
  C  C416  1  0.588400  0.304200  0.824400  1.0  -0.1324
  C  C417  1  0.465000  0.269700  0.637100  1.0  -0.1051
  C  C418  1  0.347000  0.050200  0.987000  1.0  -0.0145
  C  C419  1  0.481100  0.016700  0.827000  1.0  -0.0575
  C  C420  1  0.450000  0.908400  0.039000  1.0  0.336
  C  C421  1  0.794700  0.809500  0.687200  1.0  -0.1327
  C  C422  1  0.635500  0.033400  0.029300  1.0  -0.1389
  C  C423  1  0.851900  0.506500  0.876800  1.0  -0.1915
  C  C424  1  0.981100  0.308100  0.035600  1.0  -0.0624
  C  C425  1  0.512800  0.164700  0.040100  1.0  -0.0547
  C  C426  1  0.164400  0.844900  0.028700  1.0  0.6617
  C  C427  1  0.029500  0.361000  0.937700  1.0  -0.1357
  C  C428  1  0.616700  0.771300  0.376800  1.0  -0.1863
  C  C429  1  0.571700  0.265900  0.804200  1.0  -0.0383
  C  C430  1  0.003300  0.690500  0.014800  1.0  -0.1285
  C  C431  1  0.605200  0.629500  0.402700  1.0  -0.0849
  C  C432  1  0.025700  0.984800  0.676500  1.0  0.2784
  C  C433  1  0.289200  0.834700  0.151700  1.0  0.2974
  C  C434  1  0.663000  0.414800  0.380600  1.0  -0.1737
  C  C435  1  0.466000  0.975300  0.124700  1.0  0.0208
  C  C436  1  0.598900  0.653700  0.643200  1.0  -0.115
  C  C437  1  0.936900  0.969700  0.712800  1.0  0.3049
  C  C438  1  0.037200  0.556100  0.100700  1.0  -0.1194
  C  C439  1  0.029100  0.742100  0.022400  1.0  0.6583
  C  C440  1  0.013600  0.059100  0.651700  1.0  0.3011
  C  C441  1  0.341700  0.618900  0.532000  1.0  -0.1465
  C  C442  1  0.835600  0.155100  0.971300  1.0  0.6605
  C  C443  1  0.955700  0.963500  0.585200  1.0  0.397
  C  C444  1  0.701300  0.532800  0.437700  1.0  -0.1405
  C  C445  1  0.235500  0.448500  0.522400  1.0  0.6574
  C  C446  1  0.398900  0.323800  0.444300  1.0  -0.1795
  C  C447  1  0.898900  0.843200  0.424900  1.0  -0.1783
  C  C448  1  0.956800  0.790000  0.402200  1.0  -0.0913
  C  C449  1  0.657500  0.008000  0.058700  1.0  -0.0142
  C  C450  1  0.210800  0.559100  0.954500  1.0  0.3018
  C  C451  1  0.651700  0.807000  0.319300  1.0  -0.0477
  C  C452  1  0.937300  0.835200  0.529300  1.0  -0.1421
  C  C453  1  0.764500  0.551500  0.477600  1.0  0.6547
  C  C454  1  0.997800  0.544300  0.854300  1.0  -0.1245
  C  C455  1  0.656300  0.483300  0.535600  1.0  -0.0598
  C  C456  1  0.303100  0.055800  0.920900  1.0  0.7042
  C  C457  1  0.373600  0.344900  0.319500  1.0  0.6594
  C  C458  1  0.201300  0.139000  0.331500  1.0  -0.1409
  C  C459  1  0.456800  0.359000  0.333200  1.0  -0.0897
  C  C460  1  0.750700  0.004300  0.533000  1.0  0.7153
  C  C461  1  0.151700  0.971000  0.655300  1.0  -0.0485
  C  C462  1  0.628600  0.804200  0.284200  1.0  -0.135
  C  C463  1  0.447400  0.408400  0.541600  1.0  0.3339
  C  C464  1  0.258900  0.714900  0.912400  1.0  -0.035
  C  C465  1  0.965000  0.102100  0.304700  1.0  -0.1046
  C  C466  1  0.017200  0.152000  0.628800  1.0  -0.114
  C  C467  1  0.368600  0.767000  0.174600  1.0  -0.0264
  C  C468  1  0.649100  0.091700  0.692400  1.0  -0.0485
  C  C469  1  0.833400  0.113700  0.324700  1.0  0.6464
  C  C470  1  0.280800  0.652000  0.865200  1.0  -0.111
  C  C471  1  0.063100  0.030300  0.287200  1.0  0.3053
  C  C472  1  0.563100  0.350300  0.467200  1.0  0.3092
  C  C473  1  0.349100  0.881100  0.277200  1.0  -0.1498
  C  C474  1  0.219200  0.854000  0.128800  1.0  -0.1109
  C  C475  1  0.705300  0.518100  0.485200  1.0  -0.1374
  C  C476  1  0.340700  0.916200  0.702500  1.0  0.645
  C  C477  1  0.295400  0.914800  0.248200  1.0  -0.1694
  C  C478  1  0.157500  0.716200  0.850500  1.0  -0.0152
  C  C479  1  0.784100  0.841500  0.807600  1.0  -0.061
  C  C480  1  0.066700  0.216200  0.441300  1.0  -0.0132
  C  C481  1  0.603600  0.460200  0.538200  1.0  -0.1373
  C  C482  1  0.441800  0.466200  0.177400  1.0  0.6268
  C  C483  1  0.525700  0.702200  0.459100  1.0  0.2764
  C  C484  1  0.343700  0.516700  0.464400  1.0  -0.0593
  C  C485  1  0.791100  0.840500  0.108400  1.0  0.6326
  C  C486  1  0.373700  0.693000  0.155300  1.0  -0.0525
  C  C487  1  0.881300  0.583800  0.575500  1.0  0.6512
  C  C488  1  0.503400  0.369200  0.953800  1.0  0.6739
  C  C489  1  0.009200  0.113600  0.504600  1.0  -0.0844
  C  C490  1  0.156300  0.191900  0.327000  1.0  -0.059
  C  C491  1  0.798700  0.861000  0.668500  1.0  -0.1391
  C  C492  1  0.748000  0.439100  0.386300  1.0  -0.1012
  C  C493  1  0.672400  0.035000  0.652200  1.0  0.588
  C  C494  1  0.864500  0.335200  0.102100  1.0  -0.1387
  C  C495  1  0.704800  0.664700  0.348100  1.0  -0.051
  C  C496  1  0.742800  0.163500  0.882100  1.0  -0.0178
  C  C497  1  0.221200  0.076700  0.223700  1.0  -0.0891
  C  C498  1  0.401100  0.346300  0.356800  1.0  -0.1126
  C  C499  1  0.248000  0.134300  0.191100  1.0  -0.1022
  C  C500  1  0.523300  0.444200  0.752700  1.0  0.7049
  C  C501  1  0.396400  0.539800  0.461800  1.0  -0.1379
  C  C502  1  0.687200  0.824600  0.847800  1.0  0.5891
  C  C503  1  0.474300  0.297800  0.540900  1.0  0.2762
  C  C504  1  0.149100  0.952400  0.525300  1.0  -0.0802
  C  C505  1  0.842500  0.283800  0.149500  1.0  -0.0163
  C  C506  1  0.398600  0.352100  0.645700  1.0  -0.1226
  C  C507  1  0.061600  0.386300  0.280300  1.0  0.6473
  C  C508  1  0.544300  0.459100  0.492200  1.0  0.3969
  C  C509  1  0.872700  0.785100  0.456000  1.0  -0.0371
  C  C510  1  0.128600  0.912800  0.675600  1.0  -0.133
  C  C511  1  0.450600  0.005800  0.381400  1.0  0.4239
  C  C512  1  0.208900  0.159500  0.891600  1.0  0.6321
  C  C513  1  0.023300  0.276000  0.420900  1.0  0.7072
  C  C514  1  0.800400  0.576700  0.144500  1.0  -0.0921
  C  C515  1  0.950000  0.489000  0.958400  1.0  0.3402
  C  C516  1  0.177000  0.130800  0.865800  1.0  0.6771
  C  C517  1  0.462800  0.862100  0.981100  1.0  -0.1157
  C  C518  1  0.103600  0.141800  0.356600  1.0  -0.1435
  C  C519  1  0.487200  0.835300  0.959900  1.0  -0.0554
  C  C520  1  0.325400  0.939100  0.308900  1.0  -0.1016
  C  C521  1  0.322200  0.885400  0.246000  1.0  -0.0086
  C  C522  1  0.758900  0.171300  0.956000  1.0  -0.0358
  C  C523  1  0.987200  0.447100  0.848100  1.0  -0.0599
  C  C524  1  0.841700  0.873700  0.777200  1.0  -0.1491
  C  C525  1  0.131400  0.456800  0.101600  1.0  -0.0302
  C  C526  1  0.381300  0.456800  0.202500  1.0  0.6466
  C  C527  1  0.627300  0.671300  0.587600  1.0  -0.0362
  C  C528  1  0.700800  0.682800  0.299800  1.0  -0.0816
  C  C529  1  0.048700  0.463500  0.992200  1.0  0.3963
  C  C530  1  0.631400  0.233000  0.825400  1.0  -0.0273
  C  C531  1  0.093200  0.397900  0.137100  1.0  -0.1063
  C  C532  1  0.044300  0.036500  0.414800  1.0  0.3964
  C  C533  1  0.719200  0.348000  0.134800  1.0  -0.1107
  C  C534  1  0.496700  0.981900  0.812800  1.0  -0.1329
  C  C535  1  0.537200  0.137900  0.018900  1.0  -0.1148
  C  C536  1  0.170000  0.717300  0.799300  1.0  -0.1294
  C  C537  1  0.752000  0.865700  0.808900  1.0  -0.1006
  C  C538  1  0.330000  0.030700  0.952700  1.0  -0.1353
  C  C539  1  0.843200  0.943900  0.518900  1.0  -0.1173
  C  C540  1  0.674600  0.060900  0.691100  1.0  -0.1025
  C  C541  1  0.126800  0.613900  0.844900  1.0  -0.0699
  C  C542  1  0.454400  0.336500  0.420700  1.0  -0.0192
  C  C543  1  0.018900  0.691900  0.964400  1.0  -0.0607
  C  C544  1  0.954400  0.875100  0.382100  1.0  -0.0191
  C  C545  1  0.966000  0.590700  0.009300  1.0  0.016
  C  C546  1  0.570100  0.765900  0.305800  1.0  -0.0397
  C  C547  1  0.501600  0.039800  0.856600  1.0  -0.141
  C  C548  1  0.373200  0.028300  0.012900  1.0  -0.0739
  C  C549  1  0.648700  0.513600  0.440700  1.0  -0.1135
  C  C550  1  0.537300  0.783700  0.967000  1.0  0.7114
  C  C551  1  0.257200  0.836500  0.117900  1.0  -0.0191
  C  C552  1  0.372700  0.328700  0.412400  1.0  -0.0377
  C  C553  1  0.851300  0.910600  0.635100  1.0  -0.1284
  C  C554  1  0.127300  0.214900  0.544000  1.0  -0.0345
  C  C555  1  0.037300  0.504300  0.746400  1.0  0.7185
  C  C556  1  0.883300  0.006500  0.345400  1.0  -0.1932
  C  C557  1  0.071700  0.375900  0.194200  1.0  -0.035
  C  C558  1  0.215900  0.158500  0.192400  1.0  -0.0581
  C  C559  1  0.850900  0.047600  0.474700  1.0  -0.0807
  C  C560  1  0.416300  0.308300  0.148000  1.0  0.5749
  C  C561  1  0.659300  0.083800  0.297500  1.0  0.6522
  C  C562  1  0.158300  0.126300  0.222800  1.0  -0.1484
  C  C563  1  0.664400  0.193100  0.180500  1.0  0.6586
  C  C564  1  0.626400  0.655100  0.680500  1.0  0.6591
  C  C565  1  0.043200  0.210000  0.597800  1.0  -0.0955
  C  C566  1  0.041200  0.886100  0.487100  1.0  -0.0726
  C  C567  1  0.032200  0.507900  0.097300  1.0  -0.0842
  C  C568  1  0.001600  0.358200  0.038200  1.0  -0.1481
  C  C569  1  0.249300  0.995700  0.467000  1.0  0.7125
  C  C570  1  0.887200  0.505800  0.444800  1.0  0.4239
  C  C571  1  0.163000  0.043600  0.251800  1.0  -0.1759
  C  C572  1  0.807800  0.141000  0.902200  1.0  -0.0859
  C  C573  1  0.532200  0.129500  0.975700  1.0  -0.0833
  C  C574  1  0.089400  0.559500  0.948100  1.0  0.3607
  C  C575  1  0.626800  0.971700  0.987100  1.0  -0.0732
  C  C576  1  0.441600  0.267000  0.601600  1.0  -0.0283
  C  C577  1  0.131400  0.068200  0.254000  1.0  -0.0113
  C  C578  1  0.682500  0.149700  0.787200  1.0  0.3085
  C  C579  1  0.692200  0.290000  0.166800  1.0  -0.0929
  C  C580  1  0.715900  0.408300  0.442600  1.0  -0.0535
  C  C581  1  0.541200  0.528300  0.344900  1.0  -0.0726
  C  C582  1  0.996600  0.542800  0.634200  1.0  0.6762
  C  C583  1  0.455700  0.540900  0.507800  1.0  0.3939
  C  C584  1  0.436900  0.649700  0.532800  1.0  0.3077
  C  C585  1  0.177800  0.431800  0.936800  1.0  -0.007
  C  C586  1  0.970500  0.639000  0.062300  1.0  -0.1382
  C  C587  1  0.371400  0.195800  0.715800  1.0  -0.1334
  C  C588  1  0.986400  0.940900  0.348300  1.0  0.2994
  C  C589  1  0.566700  0.508000  0.649500  1.0  -0.016
  C  C590  1  0.703100  0.257900  0.143200  1.0  -0.1139
  C  C591  1  0.803100  0.224000  0.252700  1.0  0.7054
  C  C592  1  0.848300  0.029000  0.344700  1.0  -0.0489
  C  C593  1  0.490800  0.486200  0.395600  1.0  -0.0815
  C  C594  1  0.323000  0.957200  0.546200  1.0  0.6759
  C  C595  1  0.327600  0.965000  0.347800  1.0  0.5897
  C  C596  1  0.070100  0.875900  0.695800  1.0  -0.0378
  C  C597  1  0.350900  0.325600  0.696700  1.0  -0.0809
  C  C598  1  0.148700  0.089400  0.364900  1.0  -0.1217
  C  C599  1  0.545600  0.663500  0.579300  1.0  -0.02
  C  C600  1  0.517200  0.646000  0.634800  1.0  -0.1092
  C  C601  1  0.941600  0.043200  0.325400  1.0  -0.0289
  C  C602  1  0.513600  0.665300  0.545500  1.0  0.2998
  C  C603  1  0.451300  0.959100  0.085200  1.0  0.4009
  C  C604  1  0.789200  0.440900  0.045500  1.0  0.2985
  C  C605  1  0.100000  0.090700  0.375300  1.0  0.0198
  C  C606  1  0.543200  0.641000  0.666800  1.0  -0.0897
  C  C607  1  0.454300  0.013600  0.135100  1.0  -0.1234
  C  C608  1  0.356400  0.880800  0.677400  1.0  0.6266
  C  C609  1  0.534000  0.024700  0.875300  1.0  0.0201
  C  C610  1  0.757200  0.375100  0.079300  1.0  -0.0175
  C  C611  1  0.284100  0.591700  0.557400  1.0  -0.0493
  C  C612  1  0.482800  0.354000  0.365200  1.0  -0.1085
  C  C613  1  0.535000  0.730300  0.362900  1.0  -0.1058
  C  C614  1  0.962700  0.495700  0.253600  1.0  0.7212
  C  C615  1  0.291100  0.899500  0.549400  1.0  0.6333
  C  C616  1  0.871400  0.087200  0.324400  1.0  -0.1342
  C  C617  1  0.517400  0.817200  0.982000  1.0  -0.0844
  C  C618  1  0.933300  0.783800  0.558700  1.0  -0.0128
  C  C619  1  0.278800  0.555100  0.644500  1.0  -0.0928
  C  C620  1  0.083700  0.435700  0.608000  1.0  0.574
  C  C621  1  0.558200  0.533800  0.822600  1.0  0.6251
  C  C622  1  0.051100  0.600500  0.608400  1.0  0.6314
  C  C623  1  0.516600  0.469300  0.700700  1.0  -0.1329
  C  C624  1  0.467800  0.870500  0.024300  1.0  -0.0828
  C  C625  1  0.052600  0.011000  0.539000  1.0  0.3363
  C  C626  1  0.204600  0.456400  0.880600  1.0  -0.181
  C  C627  1  0.827600  0.675400  0.137400  1.0  0.5901
  C  C628  1  0.970900  0.257900  0.977600  1.0  0.6551
  C  C629  1  0.101400  0.955700  0.546500  1.0  -0.1171
  C  C630  1  0.868600  0.543200  0.898400  1.0  -0.03
  C  C631  1  0.002200  0.455700  0.145700  1.0  -0.1259
  C  C632  1  0.268100  0.823800  0.075100  1.0  -0.1797
  C  C633  1  0.666667  0.841900  0.219700  1.0  0.6356
  C  C634  1  0.618200  0.013800  0.995400  1.0  -0.082
  C  C635  1  0.507600  0.537500  0.551900  1.0  0.3656
  C  C636  1  0.477700  0.174400  0.974700  1.0  -0.0804
  C  C637  1  0.837000  0.956400  0.748200  1.0  -0.1749
  C  C638  1  0.483400  0.530700  0.299300  1.0  -0.1314
  C  C639  1  0.543700  0.935700  0.648000  1.0  0.5731
  C  C640  1  0.342500  0.992000  0.941300  1.0  -0.0112
  C  C641  1  0.050000  0.511000  0.041600  1.0  0.3382
  C  C642  1  0.143600  0.966200  0.975600  1.0  0.6269
  C  C643  1  0.529100  0.051500  0.213000  1.0  0.6604
  C  C644  1  0.333400  0.158100  0.780300  1.0  0.651
  C  C645  1  0.502200  0.147900  0.953500  1.0  -0.1169
  C  C646  1  0.928300  0.624100  0.805800  1.0  -0.0356
  C  C647  1  0.200800  0.000600  0.482000  1.0  -0.0812
  C  C648  1  0.799200  0.999400  0.518000  1.0  -0.0809
  C  C649  1  0.962800  0.443900  0.899300  1.0  -0.1202
  C  C650  1  0.631400  0.385400  0.436800  1.0  -0.0101
  C  C651  1  0.735500  0.757900  0.713000  1.0  0.6579
  C  C652  1  0.045700  0.410600  0.940700  1.0  -0.1205
  C  C653  1  0.910600  0.440500  0.051900  1.0  0.3604
  C  C654  1  0.250700  0.283700  0.753600  1.0  0.7174
  C  C655  1  0.648100  0.271300  0.845400  1.0  -0.1855
  C  C656  1  0.983400  0.782700  0.547300  1.0  -0.1292
  C  C657  1  0.593200  0.230300  0.804700  1.0  -0.1074
  C  C658  1  0.551100  0.659500  0.049400  1.0  0.6336
  C  C659  1  0.476700  0.555800  0.247300  1.0  0.7051
  C  C660  1  0.101100  0.156800  0.575100  1.0  -0.1747
  C  C661  1  0.159300  0.956800  0.924500  1.0  0.6512
  C  C662  1  0.795200  0.947100  0.540100  1.0  -0.0577
  C  C663  1  0.548700  0.040900  0.914800  1.0  0.398
  C  C664  1  0.950600  0.832000  0.055200  1.0  0.4204
  C  C665  1  0.368600  0.614600  0.563200  1.0  -0.0067
  C  C666  1  0.998400  0.641800  0.961800  1.0  -0.1477
  C  C667  1  0.990800  0.886400  0.495400  1.0  -0.0805
  C  C668  1  0.126400  0.306900  0.528700  1.0  0.6591
  C  C669  1  0.199600  0.423300  0.855500  1.0  -0.0908
  C  C670  1  0.492400  0.462500  0.448100  1.0  0.3638
  C  C671  1  0.696900  0.944200  0.079100  1.0  0.7047
  C  C672  1  0.796900  0.153700  0.945200  1.0  -0.1177
  C  C673  1  0.677000  0.042800  0.453800  1.0  0.6771
  C  C674  1  0.708900  0.100500  0.450600  1.0  0.6327
  C  C675  1  0.768100  0.343200  0.055700  1.0  -0.1746
  C  C676  1  0.400000  0.524700  0.509300  1.0  0.0174
  C  C677  1  0.894800  0.992100  0.475700  1.0  -0.0816
  C  C678  1  0.704600  0.085200  0.751800  1.0  -0.1728
  C  C679  1  0.482600  0.182800  0.018000  1.0  -0.0831
  C  C680  1  0.172400  0.324600  0.862600  1.0  0.5889
  C  C681  1  0.956300  0.808300  0.108000  1.0  0.5771
  C  C682  1  0.898600  0.044300  0.453500  1.0  -0.1187
  C  C683  1  0.166600  0.886300  0.675300  1.0  0.6457
  C  C684  1  0.153000  0.666000  0.796800  1.0  -0.019
  C  C685  1  0.977700  0.452400  0.196700  1.0  -0.0824
  C  C686  1  0.843700  0.808100  0.673000  1.0  -0.0607
  C  C687  1  0.007600  0.059500  0.529900  1.0  0.3582
  C  C688  1  0.817500  0.530300  0.032800  1.0  0.3066
  C  C689  1  0.022300  0.547600  0.803300  1.0  -0.0808
  C  C690  1  0.187200  0.535000  0.637400  1.0  0.588
  C  C691  1  0.037200  0.834000  0.513000  1.0  -0.0103
  C  C692  1  0.996700  0.309500  0.985200  1.0  -0.1314
  C  C693  1  0.017400  0.499400  0.799800  1.0  -0.0835
  C  C694  1  0.699600  0.055100  0.723700  1.0  -0.0904
  C  C695  1  0.656800  0.637900  0.399300  1.0  -0.1179
  C  C696  1  0.661300  0.202200  0.823500  1.0  0.2785
  N  N697  1  0.042000  0.988600  0.436200  1.0  -0.3499
  N  N698  1  0.687500  0.194700  0.852000  1.0  -0.2807
  N  N699  1  0.458000  0.521800  0.553400  1.0  -0.3493
  N  N700  1  0.497600  0.424500  0.539500  1.0  -0.34
  N  N701  1  0.659000  0.179500  0.790900  1.0  -0.3311
  N  N702  1  0.945200  0.941000  0.482400  1.0  -0.3441
  N  N703  1  0.041800  0.975700  0.315700  1.0  -0.2846
  N  N704  1  0.970400  0.949900  0.709100  1.0  -0.3314
  N  N705  1  0.029600  0.050100  0.290900  1.0  -0.333
  N  N706  1  0.536000  0.075500  0.926900  1.0  -0.3393
  N  N707  1  0.187500  0.539500  0.007200  1.0  -0.2841
  N  N708  1  0.458200  0.642500  0.566100  1.0  -0.283
  N  N709  1  0.036000  0.462900  0.039500  1.0  -0.3399
  N  N710  1  0.054800  0.059000  0.517600  1.0  -0.3431
  N  N711  1  0.312500  0.805300  0.148000  1.0  -0.2838
  N  N712  1  0.964000  0.537100  0.960500  1.0  -0.3398
  N  N713  1  0.575200  0.021800  0.936200  1.0  -0.3475
  N  N714  1  0.453300  0.305300  0.507200  1.0  -0.2868
  N  N715  1  0.046700  0.039500  0.648000  1.0  -0.2859
  N  N716  1  0.464000  0.924500  0.073100  1.0  -0.3386
  N  N717  1  0.958200  0.024300  0.684300  1.0  -0.2824
  N  N718  1  0.542000  0.478200  0.446600  1.0  -0.3493
  N  N719  1  0.791400  0.475700  0.066100  1.0  -0.2848
  N  N720  1  0.997600  0.037100  0.426900  1.0  -0.3377
  N  N721  1  0.076600  0.559000  0.995800  1.0  -0.3445
  N  N722  1  0.708600  0.142500  0.815700  1.0  -0.2787
  N  N723  1  0.470400  0.679500  0.479500  1.0  -0.3278
  N  N724  1  0.002400  0.962900  0.573100  1.0  -0.3377
  N  N725  1  0.924800  0.488600  0.053400  1.0  -0.3522
  N  N726  1  0.812500  0.460500  0.992800  1.0  -0.2856
  N  N727  1  0.423400  0.927600  0.017600  1.0  -0.3484
  N  N728  1  0.341000  0.820500  0.209100  1.0  -0.337
  N  N729  1  0.445200  0.427600  0.495800  1.0  -0.3456
  N  N730  1  0.923400  0.441000  0.004200  1.0  -0.3464
  N  N731  1  0.841000  0.550100  0.979500  1.0  -0.3301
  N  N732  1  0.546700  0.694700  0.492800  1.0  -0.2844
  N  N733  1  0.502400  0.575500  0.460500  1.0  -0.3396
  N  N734  1  0.291400  0.857500  0.184300  1.0  -0.2803
  N  N735  1  0.576600  0.072400  0.982400  1.0  -0.3486
  N  N736  1  0.075200  0.511400  0.946600  1.0  -0.3525
  N  N737  1  0.208600  0.524300  0.933900  1.0  -0.2817
  N  N738  1  0.424800  0.978200  0.063800  1.0  -0.3492
  N  N739  1  0.554800  0.572400  0.504200  1.0  -0.3455
  N  N740  1  0.953300  0.960500  0.352000  1.0  -0.2888
  N  N741  1  0.541800  0.357500  0.433900  1.0  -0.283
  N  N742  1  0.159000  0.449900  0.020500  1.0  -0.3288
  N  N743  1  0.958000  0.011400  0.563800  1.0  -0.3511
  N  N744  1  0.529600  0.320500  0.520500  1.0  -0.3299
  O  O745  1  0.682000  0.038200  0.414400  1.0  -0.5472
  O  O746  1  0.052100  0.379000  0.519100  1.0  -0.5323
  O  O747  1  0.338900  0.410000  0.218900  1.0  -0.5607
  O  O748  1  0.708000  0.964000  0.107600  1.0  -0.5865
  O  O749  1  0.818000  0.903600  0.143800  1.0  -0.5442
  O  O750  1  0.600500  0.695700  0.008600  1.0  -0.5795
  O  O751  1  0.393800  0.342200  0.276400  1.0  -0.5655
  O  O752  1  0.830500  0.440600  0.390500  1.0  -0.5506
  O  O753  1  0.838200  0.509600  0.314000  1.0  -0.4679
  O  O754  1  0.404000  0.616400  0.175600  1.0  -0.6186
  O  O755  1  0.360400  0.351900  0.150900  1.0  -0.5641
  O  O756  1  0.548400  0.641800  0.097600  1.0  -0.5734
  O  O757  1  0.021200  0.363900  0.462900  1.0  -0.5402
  O  O758  1  0.689800  0.755900  0.729100  1.0  -0.5624
  O  O759  1  0.979300  0.662500  0.691200  1.0  -0.4942
  O  O760  1  0.996700  0.499000  0.348900  1.0  -0.5748
  O  O761  1  0.504200  0.111400  0.312600  1.0  -0.5429
  O  O762  1  0.381400  0.829800  0.776400  1.0  -0.5671
  O  O763  1  0.661100  0.590000  0.781100  1.0  -0.5612
  O  O764  1  0.881400  0.157800  0.948400  1.0  -0.5647
  O  O765  1  0.208000  0.920400  0.675600  1.0  -0.6178
  O  O766  1  0.257000  0.275500  0.795300  1.0  -0.5888
  O  O767  1  0.667600  0.653100  0.659700  1.0  -0.4234
  O  O768  1  0.106200  0.329800  0.551600  1.0  -0.5679
  O  O769  1  0.652100  0.001000  0.502300  1.0  -0.5766
  O  O770  1  0.292000  0.116400  0.787600  1.0  -0.6163
  O  O771  1  0.521200  0.484100  0.842700  1.0  -0.5413
  O  O772  1  0.571600  0.464000  0.744000  1.0  -0.591
  O  O773  1  0.938400  0.567600  0.344000  1.0  -0.5792
  O  O774  1  0.618600  0.170200  0.223600  1.0  -0.5663
  O  O775  1  0.980200  0.276400  0.433400  1.0  -0.5379
  O  O776  1  0.290200  0.086400  0.933400  1.0  -0.5378
  O  O777  1  0.029400  0.460500  0.743900  1.0  -0.6476
  O  O778  1  0.208000  0.815600  0.756000  1.0  -0.5891
  O  O779  1  0.398100  0.879000  0.673100  1.0  -0.5297
  O  O780  1  0.704400  0.960500  0.568900  1.0  -0.6477
  O  O781  1  0.673200  0.136100  0.342700  1.0  -0.5455
  O  O782  1  0.792000  0.079600  0.324400  1.0  -0.6166
  O  O783  1  0.429200  0.224500  0.018500  1.0  -0.5919
  O  O784  1  0.576000  0.683200  0.812600  1.0  -0.5452
  O  O785  1  0.312800  0.827300  0.840300  1.0  -0.4329
  O  O786  1  0.978800  0.636100  0.537100  1.0  -0.5381
  O  O787  1  0.502800  0.011300  0.349100  1.0  -0.5639
  O  O788  1  0.167600  0.327300  0.485500  1.0  -0.4299
  O  O789  1  0.668900  0.059400  0.610100  1.0  -0.5506
  O  O790  1  0.995800  0.183200  0.892800  1.0  -0.5416
  O  O791  1  0.552100  0.571200  0.826900  1.0  -0.5296
  O  O792  1  0.695800  0.074000  0.303200  1.0  -0.5329
  O  O793  1  0.204300  0.195700  0.904800  1.0  -0.5851
  O  O794  1  0.812800  0.153100  0.014500  1.0  -0.4294
  O  O795  1  0.353700  0.170500  0.808800  1.0  -0.5025
  O  O796  1  0.004200  0.816800  0.107200  1.0  -0.5409
  O  O797  1  0.002800  0.851900  0.008500  1.0  -0.567
  O  O798  1  0.907500  0.828100  0.055600  1.0  -0.5145
  O  O799  1  0.076000  0.388600  0.607200  1.0  -0.5453
  O  O800  1  0.019800  0.723600  0.566600  1.0  -0.5382
  O  O801  1  0.810200  0.581100  0.433900  1.0  -0.5582
  O  O802  1  0.204400  0.273300  0.756100  1.0  -0.653
  O  O803  1  0.832400  0.672700  0.514500  1.0  -0.4308
  O  O804  1  0.661800  0.847800  0.828600  1.0  -0.4711
  O  O805  1  0.428400  0.536000  0.256000  1.0  -0.591
  O  O806  1  0.152100  0.154400  0.848900  1.0  -0.5755
  O  O807  1  0.924000  0.611400  0.392800  1.0  -0.5428
  O  O808  1  0.970600  0.539500  0.256100  1.0  -0.6474
  O  O809  1  0.331100  0.940600  0.389900  1.0  -0.5497
  O  O810  1  0.015000  0.744100  0.066100  1.0  -0.556
  O  O811  1  0.547400  0.403600  0.914400  1.0  -0.5417
  O  O812  1  0.947900  0.621000  0.480900  1.0  -0.5298
  O  O813  1  0.601900  0.121000  0.326900  1.0  -0.532
  O  O814  1  0.295600  0.039500  0.431100  1.0  -0.6485
  O  O815  1  0.452600  0.596400  0.085600  1.0  -0.5424
  O  O816  1  0.265200  0.287800  0.273200  1.0  -0.604
  O  O817  1  0.757000  0.052300  0.518500  1.0  -0.5922
  O  O818  1  0.529400  0.773300  0.931100  1.0  -0.6509
  O  O819  1  0.616300  0.671900  0.920600  1.0  -0.5129
  O  O820  1  0.760600  0.858200  0.093400  1.0  -0.5724
  O  O821  1  0.048400  0.646000  0.593400  1.0  -0.5704
  O  O822  1  0.495800  0.888600  0.687400  1.0  -0.5434
  O  O823  1  0.146300  0.837500  0.683200  1.0  -0.4989
  O  O824  1  0.592500  0.036900  0.579400  1.0  -0.5146
  O  O825  1  0.823600  0.652200  0.186000  1.0  -0.4686
  O  O826  1  0.497200  0.988700  0.650900  1.0  -0.5639
  O  O827  1  0.330500  0.221000  0.110100  1.0  -0.5515
  O  O828  1  0.704300  0.109100  0.491400  1.0  -0.5805
  O  O829  1  0.168900  0.279000  0.890500  1.0  -0.5498
  O  O830  1  0.411600  0.067600  0.370800  1.0  -0.5735
  O  O831  1  0.092500  0.171900  0.944400  1.0  -0.5138
  O  O832  1  0.893800  0.670200  0.448400  1.0  -0.5666
  O  O833  1  0.189800  0.418900  0.566100  1.0  -0.558
  O  O834  1  0.377200  0.499000  0.196800  1.0  -0.5314
  O  O835  1  0.596000  0.383600  0.824400  1.0  -0.6194
  O  O836  1  0.734800  0.712200  0.726800  1.0  -0.6064
  O  O837  1  0.838900  0.557800  0.571100  1.0  -0.561
  O  O838  1  0.985000  0.255900  0.933900  1.0  -0.5524
  O  O839  1  0.588400  0.932400  0.629200  1.0  -0.5733
  O  O840  1  0.310200  0.244100  0.270900  1.0  -0.5594
  O  O841  1  0.176400  0.347800  0.814000  1.0  -0.4693
  O  O842  1  0.407500  0.963100  0.420600  1.0  -0.5137
  O  O843  1  0.790200  0.223600  0.296200  1.0  -0.5372
  O  O844  1  0.860400  0.511300  0.491500  1.0  -0.5675
  O  O845  1  0.795600  0.726700  0.243900  1.0  -0.6582
  O  O846  1  0.871100  0.090000  0.071100  1.0  -0.5582
  O  O847  1  0.161100  0.442200  0.428900  1.0  -0.5587
  O  O848  1  0.743000  0.724500  0.204700  1.0  -0.5847
  O  O849  1  0.795700  0.804300  0.095200  1.0  -0.5833
  O  O850  1  0.326800  0.863900  0.657300  1.0  -0.5418
  O  O851  1  0.118600  0.842200  0.051600  1.0  -0.5664
  O  O852  1  0.116300  0.536900  0.555600  1.0  -0.5127
  O  O853  1  0.739400  0.146000  0.402400  1.0  -0.5708
  O  O854  1  0.669500  0.779000  0.889900  1.0  -0.5509
  O  O855  1  0.292000  0.036000  0.892400  1.0  -0.5818
  O  O856  1  0.479300  0.670500  0.183200  1.0  -0.5032
  O  O857  1  0.071600  0.315600  0.392400  1.0  -0.5865
  O  O858  1  0.318000  0.961800  0.585600  1.0  -0.547
  O  O859  1  0.209800  0.776400  0.703800  1.0  -0.5334
  O  O860  1  0.561000  0.038400  0.226800  1.0  -0.606
  O  O861  1  0.708000  0.883600  0.212400  1.0  -0.6172
  O  O862  1  0.883700  0.463100  0.444400  1.0  -0.5102
  O  O863  1  0.676400  0.990400  0.671400  1.0  -0.4644
  O  O864  1  0.929200  0.447700  0.295300  1.0  -0.5909
  O  O865  1  0.101900  0.928800  0.019100  1.0  -0.5313
  O  O866  1  0.904000  0.579600  0.712400  1.0  -0.6227
  O  O867  1  0.187200  0.846900  0.985500  1.0  -0.4298
  O  O868  1  0.332400  0.346900  0.340300  1.0  -0.4287
  O  O869  1  0.383700  0.328100  0.079400  1.0  -0.5149
  O  O870  1  0.338200  0.152200  0.171400  1.0  -0.4687
  O  O871  1  0.439000  0.961600  0.773200  1.0  -0.605
  O  O872  1  0.952600  0.538200  0.643800  1.0  -0.5463
  O  O873  1  0.096000  0.420400  0.287600  1.0  -0.622
  O  O874  1  0.173200  0.015900  0.962900  1.0  -0.5456
  O  O875  1  0.898100  0.071200  0.980900  1.0  -0.5291
  O  O876  1  0.515000  0.081100  0.229100  1.0  -0.5585
  O  O877  1  0.070800  0.552300  0.704700  1.0  -0.5876
  O  O878  1  0.100500  0.609100  0.595200  1.0  -0.5837
  O  O879  1  0.347900  0.999000  0.497700  1.0  -0.5729
  O  O880  1  0.570800  0.775500  0.981500  1.0  -0.5918
  O  O881  1  0.003300  0.501000  0.651100  1.0  -0.5756
  O  O882  1  0.480200  0.413600  0.796200  1.0  -0.538
  O  O883  1  0.853700  0.162500  0.316800  1.0  -0.4979
  O  O884  1  0.877200  0.574000  0.621800  1.0  -0.5346
  O  O885  1  0.606200  0.657800  0.723600  1.0  -0.5677
  O  O886  1  0.047400  0.461800  0.356200  1.0  -0.5442
  O  O887  1  0.831100  0.721000  0.109500  1.0  -0.5495
  O  O888  1  0.139600  0.488700  0.508500  1.0  -0.5679
  O  O889  1  0.304200  0.926000  0.696800  1.0  -0.534
  O  O890  1  0.451600  0.358200  0.902400  1.0  -0.5734
  O  O891  1  0.485000  0.918900  0.770900  1.0  -0.559
  O  O892  1  0.639600  0.648100  0.849100  1.0  -0.5645
  O  O893  1  0.561600  0.717600  0.870800  1.0  -0.5703
  O  O894  1  0.470600  0.226700  0.068900  1.0  -0.6538
  O  O895  1  0.899500  0.390900  0.404800  1.0  -0.583
  O  O896  1  0.628900  0.057800  0.281100  1.0  -0.5611
  O  O897  1  0.804200  0.001000  0.121800  1.0  -0.5302
  O  O898  1  0.424000  0.316800  0.187400  1.0  -0.5437
  O  O899  1  0.997200  0.148100  0.991500  1.0  -0.5664
  O  O900  1  0.622800  0.501000  0.803200  1.0  -0.5303
  O  O901  1  0.195800  0.999000  0.878200  1.0  -0.5314
  O  O902  1  0.826800  0.984100  0.037100  1.0  -0.5431
  O  O903  1  0.646300  0.829500  0.191200  1.0  -0.5042
  O  O904  1  0.239400  0.141800  0.906600  1.0  -0.5709
  O  O905  1  0.939000  0.212200  0.022600  1.0  -0.6043
  O  O906  1  0.234800  0.461600  0.477400  1.0  -0.5984
  O  O907  1  0.399500  0.304300  0.991400  1.0  -0.5759
  O  O908  1  0.503300  0.654400  0.997700  1.0  -0.5758
  O  O909  1  0.371100  0.942200  0.718900  1.0  -0.5615
  O  O910  1  0.519800  0.586400  0.203800  1.0  -0.5392
  O  O911  1  0.122800  0.426000  0.378200  1.0  -0.5325
  O  O912  1  0.323600  0.009600  0.328600  1.0  -0.4676
  O  O913  1  0.061600  0.432400  0.656000  1.0  -0.5787
  O  O914  1  0.061000  0.787800  0.977400  1.0  -0.6038
  O  O915  1  0.088400  0.217600  0.844000  1.0  -0.5783
  O  O916  1  0.447900  0.428800  0.173100  1.0  -0.5285
  O  O917  1  0.928400  0.684400  0.607600  1.0  -0.5872
  O  O918  1  0.260600  0.854000  0.597600  1.0  -0.5715
  O  O919  1  0.243000  0.947700  0.481500  1.0  -0.592
  O  O920  1  0.020700  0.337500  0.308800  1.0  -0.4966
  O  O921  1  0.182000  0.096400  0.856200  1.0  -0.5456
  O  O922  1  0.161800  0.490400  0.686000  1.0  -0.4664
  O  O923  1  0.520700  0.329500  0.816800  1.0  -0.5029
  O  O924  1  0.951600  0.354000  0.406600  1.0  -0.5707
  O  O925  1  0.687200  0.172700  0.159700  1.0  -0.4295
  O  O926  1  0.765200  0.538400  0.522600  1.0  -0.5979
  O  O927  1  0.295700  0.890900  0.508600  1.0  -0.5823
  O  O928  1  0.128900  0.910000  0.928900  1.0  -0.5608
  O  O929  1  0.792000  0.184400  0.244000  1.0  -0.5876
  O  O930  1  0.478800  0.515900  0.157300  1.0  -0.5397
  O  O931  1  0.169500  0.559400  0.609500  1.0  -0.5504
  O  O932  1  0.496700  0.345600  0.002300  1.0  -0.5754
  O  O933  1  0.847900  0.845600  0.151100  1.0  -0.5737
  O  O934  1  0.709800  0.913600  0.066600  1.0  -0.5361
  O  O935  1  0.911600  0.782400  0.156000  1.0  -0.5753
  O  O936  1  0.438400  0.282400  0.129200  1.0  -0.5696
