# generated using pymatgen
data_Tb4H43C57(N3O8)2
_symmetry_space_group_name_H-M   'P 1'
_cell_length_a   27.29500000
_cell_length_b   27.29500000
_cell_length_c   27.29500000
_cell_angle_alpha   109.47100000
_cell_angle_beta   109.47100000
_cell_angle_gamma   109.47100000
_symmetry_Int_Tables_number   1
_chemical_formula_structural   Tb4H43C57(N3O8)2
_chemical_formula_sum   'Tb32 H344 C456 N48 O128'
_cell_volume   15654.20269109
_cell_formula_units_Z   8
loop_
 _symmetry_equiv_pos_site_id
 _symmetry_equiv_pos_as_xyz
  1  'x, y, z'
loop_
 _atom_site_type_symbol
 _atom_site_label
 _atom_site_symmetry_multiplicity
 _atom_site_fract_x
 _atom_site_fract_y
 _atom_site_fract_z
 _atom_site_occupancy
 _atom_site_charge
  Tb  Tb1  1  0.579040  0.087570  0.816700  1.0  2.1926
  Tb  Tb2  1  0.770880  0.762340  0.683300  1.0  2.182
  Tb  Tb3  1  0.729120  0.412430  0.991470  1.0  2.2022
  Tb  Tb4  1  0.920960  0.737660  0.508530  1.0  2.2022
  Tb  Tb5  1  0.816700  0.579040  0.087570  1.0  2.2014
  Tb  Tb6  1  0.683300  0.770880  0.762340  1.0  2.2024
  Tb  Tb7  1  0.991470  0.729120  0.412430  1.0  2.1826
  Tb  Tb8  1  0.508530  0.920960  0.737660  1.0  2.1934
  Tb  Tb9  1  0.087570  0.816700  0.579040  1.0  2.1976
  Tb  Tb10  1  0.762340  0.683300  0.770880  1.0  2.201
  Tb  Tb11  1  0.412430  0.991470  0.729120  1.0  2.1945
  Tb  Tb12  1  0.737660  0.508530  0.920960  1.0  2.1792
  Tb  Tb13  1  0.500000  0.000000  0.648120  1.0  2.1919
  Tb  Tb14  1  0.851880  0.851880  0.851880  1.0  2.2012
  Tb  Tb15  1  0.648120  0.500000  0.000000  1.0  2.2041
  Tb  Tb16  1  0.000000  0.648120  0.500000  1.0  2.2028
  Tb  Tb17  1  0.587570  0.079040  0.316700  1.0  2.1923
  Tb  Tb18  1  0.262340  0.270880  0.183300  1.0  2.1817
  Tb  Tb19  1  0.912430  0.229120  0.491470  1.0  2.2015
  Tb  Tb20  1  0.237660  0.420960  0.008530  1.0  2.2024
  Tb  Tb21  1  0.079040  0.316700  0.587570  1.0  2.1974
  Tb  Tb22  1  0.270880  0.183300  0.262340  1.0  2.2021
  Tb  Tb23  1  0.229120  0.491470  0.912430  1.0  2.1795
  Tb  Tb24  1  0.420960  0.008530  0.237660  1.0  2.1944
  Tb  Tb25  1  0.316700  0.587570  0.079040  1.0  2.2008
  Tb  Tb26  1  0.183300  0.262340  0.270880  1.0  2.2021
  Tb  Tb27  1  0.491470  0.912430  0.229120  1.0  2.1933
  Tb  Tb28  1  0.008530  0.237660  0.420960  1.0  2.1826
  Tb  Tb29  1  0.500000  0.000000  0.148120  1.0  2.1919
  Tb  Tb30  1  0.351880  0.351880  0.351880  1.0  2.2012
  Tb  Tb31  1  0.000000  0.148120  0.500000  1.0  2.2028
  Tb  Tb32  1  0.148120  0.500000  0.000000  1.0  2.2041
  H  H33  1  0.606900  0.172700  0.644400  1.0  0.0743
  H  H34  1  0.681700  0.351900  0.749600  1.0  0.0559
  H  H35  1  0.654500  0.251900  0.822800  1.0  0.0779
  H  H36  1  0.683700  0.307400  0.647100  1.0  0.0799
  H  H37  1  0.648200  0.236100  0.605100  1.0  0.0582
  H  H38  1  0.552600  0.187500  0.537900  1.0  0.0888
  H  H39  1  0.464100  0.186100  0.486200  1.0  0.0933
  H  H40  1  0.550700  0.360200  0.600100  1.0  0.0559
  H  H41  1  0.632300  0.358400  0.651300  1.0  0.0832
  H  H42  1  0.378900  0.178200  0.461300  1.0  0.0815
  H  H43  1  0.296400  0.179100  0.404500  1.0  0.0512
  H  H44  1  0.382900  0.358900  0.495600  1.0  0.0557
  H  H45  1  0.474100  0.364100  0.553400  1.0  0.104
  H  H46  1  0.596800  0.012100  0.735300  1.0  0.421
  H  H47  1  0.028300  0.962500  0.855600  1.0  0.0752
  H  H48  1  0.102300  0.932100  0.750400  1.0  0.0555
  H  H49  1  0.929100  0.831700  0.677200  1.0  0.0765
  H  H50  1  0.160300  0.036600  0.852900  1.0  0.0801
  H  H51  1  0.131000  0.043100  0.894900  1.0  0.0593
  H  H52  1  0.149600  0.014700  0.962100  1.0  0.0896
  H  H53  1  0.199900  0.977900  0.013800  1.0  0.0923
  H  H54  1  0.260100  0.950600  0.899900  1.0  0.0542
  H  H55  1  0.207100  0.981000  0.848700  1.0  0.0865
  H  H56  1  0.216900  0.917600  0.038700  1.0  0.0798
  H  H57  1  0.274600  0.891900  0.095500  1.0  0.0518
  H  H58  1  0.363300  0.887300  0.004400  1.0  0.0553
  H  H59  1  0.310700  0.920700  0.946600  1.0  0.1027
  H  H60  1  0.776800  0.861500  0.764700  1.0  0.4186
  H  H61  1  0.471700  0.327300  0.934200  1.0  0.0755
  H  H62  1  0.397700  0.148100  0.829800  1.0  0.0556
  H  H63  1  0.570900  0.248100  0.902600  1.0  0.0767
  H  H64  1  0.339700  0.192600  0.876300  1.0  0.0812
  H  H65  1  0.369000  0.263900  0.912100  1.0  0.0601
  H  H66  1  0.350400  0.312500  0.865100  1.0  0.0886
  H  H67  1  0.300100  0.313900  0.778000  1.0  0.0935
  H  H68  1  0.239900  0.139800  0.690500  1.0  0.0559
  H  H69  1  0.292900  0.141600  0.773900  1.0  0.0841
  H  H70  1  0.283100  0.321800  0.700700  1.0  0.0812
  H  H71  1  0.225400  0.320900  0.617300  1.0  0.0507
  H  H72  1  0.136700  0.141100  0.524000  1.0  0.0555
  H  H73  1  0.189300  0.135900  0.610000  1.0  0.1041
  H  H74  1  0.723200  0.487900  0.084700  1.0  0.4194
  H  H75  1  0.893100  0.537500  0.565800  1.0  0.0755
  H  H76  1  0.818300  0.567900  0.670200  1.0  0.0569
  H  H77  1  0.845500  0.668300  0.597400  1.0  0.0762
  H  H78  1  0.816300  0.463400  0.623700  1.0  0.082
  H  H79  1  0.851800  0.456900  0.587900  1.0  0.0595
  H  H80  1  0.947400  0.485300  0.634900  1.0  0.0903
  H  H81  1  0.035900  0.522100  0.722000  1.0  0.0928
  H  H82  1  0.949300  0.549400  0.809500  1.0  0.056
  H  H83  1  0.867700  0.519000  0.726100  1.0  0.0859
  H  H84  1  0.121100  0.582400  0.799300  1.0  0.0804
  H  H85  1  0.203600  0.608100  0.882700  1.0  0.0506
  H  H86  1  0.117100  0.612700  0.976000  1.0  0.0582
  H  H87  1  0.025900  0.579300  0.890000  1.0  0.0996
  H  H88  1  0.903200  0.638500  0.415300  1.0  0.4182
  H  H89  1  0.644400  0.606900  0.172700  1.0  0.073
  H  H90  1  0.749600  0.681700  0.351900  1.0  0.0556
  H  H91  1  0.822800  0.654500  0.251900  1.0  0.0763
  H  H92  1  0.647100  0.683700  0.307400  1.0  0.0799
  H  H93  1  0.605100  0.648200  0.236100  1.0  0.0591
  H  H94  1  0.537900  0.552600  0.187500  1.0  0.0906
  H  H95  1  0.486200  0.464100  0.186100  1.0  0.093
  H  H96  1  0.600100  0.550700  0.360200  1.0  0.0558
  H  H97  1  0.651300  0.632300  0.358400  1.0  0.084
  H  H98  1  0.461300  0.378900  0.178200  1.0  0.0805
  H  H99  1  0.404500  0.296400  0.179100  1.0  0.0512
  H  H100  1  0.495600  0.382900  0.358900  1.0  0.0553
  H  H101  1  0.553400  0.474100  0.364100  1.0  0.1015
  H  H102  1  0.735300  0.596800  0.012100  1.0  0.4173
  H  H103  1  0.855600  0.028300  0.962500  1.0  0.0737
  H  H104  1  0.750400  0.102300  0.932100  1.0  0.0558
  H  H105  1  0.677200  0.929100  0.831700  1.0  0.0758
  H  H106  1  0.852900  0.160300  0.036600  1.0  0.0811
  H  H107  1  0.894900  0.131000  0.043100  1.0  0.059
  H  H108  1  0.962100  0.149600  0.014700  1.0  0.0892
  H  H109  1  0.013800  0.199900  0.977900  1.0  0.0931
  H  H110  1  0.899900  0.260100  0.950600  1.0  0.0534
  H  H111  1  0.848700  0.207100  0.981000  1.0  0.0847
  H  H112  1  0.038700  0.216900  0.917600  1.0  0.0794
  H  H113  1  0.095500  0.274600  0.891900  1.0  0.0501
  H  H114  1  0.004400  0.363300  0.887300  1.0  0.0546
  H  H115  1  0.946600  0.310700  0.920700  1.0  0.0998
  H  H116  1  0.764700  0.776800  0.861500  1.0  0.419
  H  H117  1  0.934200  0.471700  0.327300  1.0  0.0757
  H  H118  1  0.829800  0.397700  0.148100  1.0  0.0559
  H  H119  1  0.902600  0.570900  0.248100  1.0  0.0776
  H  H120  1  0.876300  0.339700  0.192600  1.0  0.0801
  H  H121  1  0.912100  0.369000  0.263900  1.0  0.0551
  H  H122  1  0.865100  0.350400  0.312500  1.0  0.0896
  H  H123  1  0.778000  0.300100  0.313900  1.0  0.0926
  H  H124  1  0.690500  0.239900  0.139800  1.0  0.0553
  H  H125  1  0.773900  0.292900  0.141600  1.0  0.0861
  H  H126  1  0.700700  0.283100  0.321800  1.0  0.0812
  H  H127  1  0.617300  0.225400  0.320900  1.0  0.0514
  H  H128  1  0.524000  0.136700  0.141100  1.0  0.056
  H  H129  1  0.610000  0.189300  0.135900  1.0  0.1027
  H  H130  1  0.084700  0.723200  0.487900  1.0  0.4219
  H  H131  1  0.565800  0.893100  0.537500  1.0  0.0744
  H  H132  1  0.670200  0.818300  0.567900  1.0  0.0555
  H  H133  1  0.597400  0.845500  0.668300  1.0  0.0779
  H  H134  1  0.623700  0.816300  0.463400  1.0  0.0806
  H  H135  1  0.587900  0.851800  0.456900  1.0  0.0561
  H  H136  1  0.634900  0.947400  0.485300  1.0  0.0902
  H  H137  1  0.722000  0.035900  0.522100  1.0  0.091
  H  H138  1  0.809500  0.949300  0.549400  1.0  0.0548
  H  H139  1  0.726100  0.867700  0.519000  1.0  0.0846
  H  H140  1  0.799300  0.121100  0.582400  1.0  0.0798
  H  H141  1  0.882700  0.203600  0.608100  1.0  0.0503
  H  H142  1  0.976000  0.117100  0.612700  1.0  0.0575
  H  H143  1  0.890000  0.025900  0.579300  1.0  0.1008
  H  H144  1  0.415300  0.903200  0.638500  1.0  0.4192
  H  H145  1  0.172700  0.644400  0.606900  1.0  0.0739
  H  H146  1  0.351900  0.749600  0.681700  1.0  0.0558
  H  H147  1  0.251900  0.822800  0.654500  1.0  0.0772
  H  H148  1  0.307400  0.647100  0.683700  1.0  0.0826
  H  H149  1  0.236100  0.605100  0.648200  1.0  0.0604
  H  H150  1  0.187500  0.537900  0.552600  1.0  0.0896
  H  H151  1  0.186100  0.486200  0.464100  1.0  0.0917
  H  H152  1  0.360200  0.600100  0.550700  1.0  0.0549
  H  H153  1  0.358400  0.651300  0.632300  1.0  0.0849
  H  H154  1  0.178200  0.461300  0.378900  1.0  0.0797
  H  H155  1  0.179100  0.404500  0.296400  1.0  0.0497
  H  H156  1  0.358900  0.495600  0.382900  1.0  0.0541
  H  H157  1  0.364100  0.553400  0.474100  1.0  0.1018
  H  H158  1  0.012100  0.735300  0.596800  1.0  0.4181
  H  H159  1  0.962500  0.855600  0.028300  1.0  0.0743
  H  H160  1  0.932100  0.750400  0.102300  1.0  0.0566
  H  H161  1  0.831700  0.677200  0.929100  1.0  0.0764
  H  H162  1  0.036600  0.852900  0.160300  1.0  0.0803
  H  H163  1  0.043100  0.894900  0.131000  1.0  0.0579
  H  H164  1  0.014700  0.962100  0.149600  1.0  0.0908
  H  H165  1  0.977900  0.013800  0.199900  1.0  0.094
  H  H166  1  0.950600  0.899900  0.260100  1.0  0.0567
  H  H167  1  0.981000  0.848700  0.207100  1.0  0.0848
  H  H168  1  0.917600  0.038700  0.216900  1.0  0.0806
  H  H169  1  0.891900  0.095500  0.274600  1.0  0.0509
  H  H170  1  0.887300  0.004400  0.363300  1.0  0.0561
  H  H171  1  0.920700  0.946600  0.310700  1.0  0.1037
  H  H172  1  0.861500  0.764700  0.776800  1.0  0.4207
  H  H173  1  0.327300  0.934200  0.471700  1.0  0.075
  H  H174  1  0.148100  0.829800  0.397700  1.0  0.0557
  H  H175  1  0.248100  0.902600  0.570900  1.0  0.0778
  H  H176  1  0.192600  0.876300  0.339700  1.0  0.0762
  H  H177  1  0.263900  0.912100  0.369000  1.0  0.0589
  H  H178  1  0.312500  0.865100  0.350400  1.0  0.0898
  H  H179  1  0.313900  0.778000  0.300100  1.0  0.0926
  H  H180  1  0.139800  0.690500  0.239900  1.0  0.0547
  H  H181  1  0.141600  0.773900  0.292900  1.0  0.0843
  H  H182  1  0.321800  0.700700  0.283100  1.0  0.079
  H  H183  1  0.320900  0.617300  0.225400  1.0  0.0513
  H  H184  1  0.141100  0.524000  0.136700  1.0  0.0549
  H  H185  1  0.135900  0.610000  0.189300  1.0  0.0993
  H  H186  1  0.487900  0.084700  0.723200  1.0  0.4186
  H  H187  1  0.537500  0.565800  0.893100  1.0  0.0755
  H  H188  1  0.567900  0.670200  0.818300  1.0  0.0557
  H  H189  1  0.668300  0.597400  0.845500  1.0  0.0778
  H  H190  1  0.463400  0.623700  0.816300  1.0  0.0803
  H  H191  1  0.456900  0.587900  0.851800  1.0  0.0593
  H  H192  1  0.485300  0.634900  0.947400  1.0  0.0902
  H  H193  1  0.522100  0.722000  0.035900  1.0  0.092
  H  H194  1  0.549400  0.809500  0.949300  1.0  0.0559
  H  H195  1  0.519000  0.726100  0.867700  1.0  0.0855
  H  H196  1  0.582400  0.799300  0.121100  1.0  0.0805
  H  H197  1  0.608100  0.882700  0.203600  1.0  0.0516
  H  H198  1  0.612700  0.976000  0.117100  1.0  0.0582
  H  H199  1  0.579300  0.890000  0.025900  1.0  0.1041
  H  H200  1  0.638500  0.415300  0.903200  1.0  0.4169
  H  H201  1  0.500000  0.000000  0.829200  1.0  0.3179
  H  H202  1  0.670800  0.670800  0.670800  1.0  0.317
  H  H203  1  0.829200  0.500000  0.000000  1.0  0.3148
  H  H204  1  0.000000  0.829200  0.500000  1.0  0.3176
  H  H205  1  0.672700  0.106900  0.144400  1.0  0.0732
  H  H206  1  0.851900  0.181700  0.249600  1.0  0.056
  H  H207  1  0.751900  0.154500  0.322800  1.0  0.078
  H  H208  1  0.807400  0.183700  0.147100  1.0  0.0796
  H  H209  1  0.736100  0.148200  0.105100  1.0  0.0558
  H  H210  1  0.687500  0.052600  0.037900  1.0  0.09
  H  H211  1  0.686100  0.964100  0.986200  1.0  0.0908
  H  H212  1  0.860200  0.050700  0.100100  1.0  0.055
  H  H213  1  0.858400  0.132300  0.151300  1.0  0.0844
  H  H214  1  0.678200  0.878900  0.961300  1.0  0.0801
  H  H215  1  0.679100  0.796400  0.904500  1.0  0.0504
  H  H216  1  0.858900  0.882900  0.995600  1.0  0.0548
  H  H217  1  0.864100  0.974100  0.053400  1.0  0.1006
  H  H218  1  0.512100  0.096800  0.235300  1.0  0.4189
  H  H219  1  0.462500  0.528300  0.355600  1.0  0.0747
  H  H220  1  0.432100  0.602300  0.250400  1.0  0.056
  H  H221  1  0.331700  0.429100  0.177200  1.0  0.077
  H  H222  1  0.536600  0.660300  0.352900  1.0  0.0799
  H  H223  1  0.543100  0.631000  0.394900  1.0  0.0552
  H  H224  1  0.514700  0.649600  0.462100  1.0  0.0896
  H  H225  1  0.477900  0.699900  0.513800  1.0  0.0929
  H  H226  1  0.450600  0.760100  0.399900  1.0  0.0547
  H  H227  1  0.481000  0.707100  0.348700  1.0  0.0861
  H  H228  1  0.417600  0.716900  0.538700  1.0  0.0814
  H  H229  1  0.391900  0.774600  0.595500  1.0  0.0518
  H  H230  1  0.387300  0.863300  0.504400  1.0  0.0562
  H  H231  1  0.420700  0.810700  0.446600  1.0  0.1029
  H  H232  1  0.361500  0.276800  0.264700  1.0  0.4215
  H  H233  1  0.827300  0.971700  0.434200  1.0  0.0748
  H  H234  1  0.648100  0.897700  0.329800  1.0  0.0556
  H  H235  1  0.748100  0.070900  0.402600  1.0  0.0765
  H  H236  1  0.692600  0.839700  0.376300  1.0  0.0818
  H  H237  1  0.763900  0.869000  0.412100  1.0  0.059
  H  H238  1  0.812500  0.850400  0.365100  1.0  0.0891
  H  H239  1  0.813900  0.800100  0.278000  1.0  0.0932
  H  H240  1  0.639800  0.739900  0.190500  1.0  0.0532
  H  H241  1  0.641600  0.792900  0.273900  1.0  0.0848
  H  H242  1  0.821800  0.783100  0.200700  1.0  0.0796
  H  H243  1  0.820900  0.725400  0.117300  1.0  0.0501
  H  H244  1  0.641100  0.636700  0.024000  1.0  0.054
  H  H245  1  0.635900  0.689300  0.110000  1.0  0.0996
  H  H246  1  0.987900  0.223200  0.584700  1.0  0.4191
  H  H247  1  0.037500  0.393100  0.065800  1.0  0.0741
  H  H248  1  0.067900  0.318300  0.170200  1.0  0.056
  H  H249  1  0.168300  0.345500  0.097400  1.0  0.0762
  H  H250  1  0.963400  0.316300  0.123700  1.0  0.0818
  H  H251  1  0.956900  0.351800  0.087900  1.0  0.0596
  H  H252  1  0.985300  0.447400  0.134900  1.0  0.0906
  H  H253  1  0.022100  0.535900  0.222000  1.0  0.0931
  H  H254  1  0.049400  0.449300  0.309500  1.0  0.0558
  H  H255  1  0.019000  0.367700  0.226100  1.0  0.0843
  H  H256  1  0.082400  0.621100  0.299300  1.0  0.0808
  H  H257  1  0.108100  0.703600  0.382700  1.0  0.051
  H  H258  1  0.112700  0.617100  0.476000  1.0  0.0585
  H  H259  1  0.079300  0.525900  0.390000  1.0  0.1017
  H  H260  1  0.138500  0.403200  0.915300  1.0  0.4167
  H  H261  1  0.106900  0.144400  0.672700  1.0  0.0746
  H  H262  1  0.181700  0.249600  0.851900  1.0  0.0564
  H  H263  1  0.154500  0.322800  0.751900  1.0  0.077
  H  H264  1  0.183700  0.147100  0.807400  1.0  0.0805
  H  H265  1  0.148200  0.105100  0.736100  1.0  0.0582
  H  H266  1  0.052600  0.037900  0.687500  1.0  0.0908
  H  H267  1  0.964100  0.986200  0.686100  1.0  0.0934
  H  H268  1  0.050700  0.100100  0.860200  1.0  0.0565
  H  H269  1  0.132300  0.151300  0.858400  1.0  0.0843
  H  H270  1  0.878900  0.961300  0.678200  1.0  0.0803
  H  H271  1  0.796400  0.904500  0.679100  1.0  0.0506
  H  H272  1  0.882900  0.995600  0.858900  1.0  0.0556
  H  H273  1  0.974100  0.053400  0.864100  1.0  0.103
  H  H274  1  0.096800  0.235300  0.512100  1.0  0.4205
  H  H275  1  0.528300  0.355600  0.462500  1.0  0.0742
  H  H276  1  0.602300  0.250400  0.432100  1.0  0.0557
  H  H277  1  0.429100  0.177200  0.331700  1.0  0.0763
  H  H278  1  0.660300  0.352900  0.536600  1.0  0.0824
  H  H279  1  0.631000  0.394900  0.543100  1.0  0.0606
  H  H280  1  0.649600  0.462100  0.514700  1.0  0.0895
  H  H281  1  0.699900  0.513800  0.477900  1.0  0.0919
  H  H282  1  0.760100  0.399900  0.450600  1.0  0.0541
  H  H283  1  0.707100  0.348700  0.481000  1.0  0.0852
  H  H284  1  0.716900  0.538700  0.417600  1.0  0.08
  H  H285  1  0.774600  0.595500  0.391900  1.0  0.0501
  H  H286  1  0.863300  0.504400  0.387300  1.0  0.0541
  H  H287  1  0.810700  0.446600  0.420700  1.0  0.1019
  H  H288  1  0.276800  0.264700  0.361500  1.0  0.4187
  H  H289  1  0.971700  0.434200  0.827300  1.0  0.0755
  H  H290  1  0.897700  0.329800  0.648100  1.0  0.0553
  H  H291  1  0.070900  0.402600  0.748100  1.0  0.0776
  H  H292  1  0.839700  0.376300  0.692600  1.0  0.0802
  H  H293  1  0.869000  0.412100  0.763900  1.0  0.059
  H  H294  1  0.850400  0.365100  0.812500  1.0  0.0896
  H  H295  1  0.800100  0.278000  0.813900  1.0  0.092
  H  H296  1  0.739900  0.190500  0.639800  1.0  0.0567
  H  H297  1  0.792900  0.273900  0.641600  1.0  0.0853
  H  H298  1  0.783100  0.200700  0.821800  1.0  0.0802
  H  H299  1  0.725400  0.117300  0.820900  1.0  0.0516
  H  H300  1  0.636700  0.024000  0.641100  1.0  0.056
  H  H301  1  0.689300  0.110000  0.635900  1.0  0.1037
  H  H302  1  0.223200  0.584700  0.987900  1.0  0.4169
  H  H303  1  0.393100  0.065800  0.037500  1.0  0.0752
  H  H304  1  0.318300  0.170200  0.067900  1.0  0.0561
  H  H305  1  0.345500  0.097400  0.168300  1.0  0.0781
  H  H306  1  0.316300  0.123700  0.963400  1.0  0.0763
  H  H307  1  0.351800  0.087900  0.956900  1.0  0.0596
  H  H308  1  0.447400  0.134900  0.985300  1.0  0.0898
  H  H309  1  0.535900  0.222000  0.022100  1.0  0.092
  H  H310  1  0.449300  0.309500  0.049400  1.0  0.0551
  H  H311  1  0.367700  0.226100  0.019000  1.0  0.0841
  H  H312  1  0.621100  0.299300  0.082400  1.0  0.0792
  H  H313  1  0.703600  0.382700  0.108100  1.0  0.0514
  H  H314  1  0.617100  0.476000  0.112700  1.0  0.0577
  H  H315  1  0.525900  0.390000  0.079300  1.0  0.0995
  H  H316  1  0.403200  0.915300  0.138500  1.0  0.4193
  H  H317  1  0.144400  0.672700  0.106900  1.0  0.0736
  H  H318  1  0.249600  0.851900  0.181700  1.0  0.0557
  H  H319  1  0.322800  0.751900  0.154500  1.0  0.0768
  H  H320  1  0.147100  0.807400  0.183700  1.0  0.0808
  H  H321  1  0.105100  0.736100  0.148200  1.0  0.0595
  H  H322  1  0.037900  0.687500  0.052600  1.0  0.0894
  H  H323  1  0.986200  0.686100  0.964100  1.0  0.0935
  H  H324  1  0.100100  0.860200  0.050700  1.0  0.0552
  H  H325  1  0.151300  0.858400  0.132300  1.0  0.0838
  H  H326  1  0.961300  0.678200  0.878900  1.0  0.0811
  H  H327  1  0.904500  0.679100  0.796400  1.0  0.0505
  H  H328  1  0.995600  0.858900  0.882900  1.0  0.0555
  H  H329  1  0.053400  0.864100  0.974100  1.0  0.1041
  H  H330  1  0.235300  0.512100  0.096800  1.0  0.4188
  H  H331  1  0.355600  0.462500  0.528300  1.0  0.074
  H  H332  1  0.250400  0.432100  0.602300  1.0  0.0565
  H  H333  1  0.177200  0.331700  0.429100  1.0  0.0754
  H  H334  1  0.352900  0.536600  0.660300  1.0  0.0812
  H  H335  1  0.394900  0.543100  0.631000  1.0  0.0587
  H  H336  1  0.462100  0.514700  0.649600  1.0  0.0905
  H  H337  1  0.513800  0.477900  0.699900  1.0  0.093
  H  H338  1  0.399900  0.450600  0.760100  1.0  0.056
  H  H339  1  0.348700  0.481000  0.707100  1.0  0.0859
  H  H340  1  0.538700  0.417600  0.716900  1.0  0.0803
  H  H341  1  0.595500  0.391900  0.774600  1.0  0.0509
  H  H342  1  0.504400  0.387300  0.863300  1.0  0.0562
  H  H343  1  0.446600  0.420700  0.810700  1.0  0.0994
  H  H344  1  0.264700  0.361500  0.276800  1.0  0.4184
  H  H345  1  0.434200  0.827300  0.971700  1.0  0.0754
  H  H346  1  0.329800  0.648100  0.897700  1.0  0.0557
  H  H347  1  0.402600  0.748100  0.070900  1.0  0.0779
  H  H348  1  0.376300  0.692600  0.839700  1.0  0.0797
  H  H349  1  0.412100  0.763900  0.869000  1.0  0.0585
  H  H350  1  0.365100  0.812500  0.850400  1.0  0.0887
  H  H351  1  0.278000  0.813900  0.800100  1.0  0.0931
  H  H352  1  0.190500  0.639800  0.739900  1.0  0.0564
  H  H353  1  0.273900  0.641600  0.792900  1.0  0.0836
  H  H354  1  0.200700  0.821800  0.783100  1.0  0.0814
  H  H355  1  0.117300  0.820900  0.725400  1.0  0.0512
  H  H356  1  0.024000  0.641100  0.636700  1.0  0.056
  H  H357  1  0.110000  0.635900  0.689300  1.0  0.1044
  H  H358  1  0.584700  0.987900  0.223200  1.0  0.4215
  H  H359  1  0.065800  0.037500  0.393100  1.0  0.0762
  H  H360  1  0.170200  0.067900  0.318300  1.0  0.0557
  H  H361  1  0.097400  0.168300  0.345500  1.0  0.0773
  H  H362  1  0.123700  0.963400  0.316300  1.0  0.0802
  H  H363  1  0.087900  0.956900  0.351800  1.0  0.0599
  H  H364  1  0.134900  0.985300  0.447400  1.0  0.0902
  H  H365  1  0.222000  0.022100  0.535900  1.0  0.0925
  H  H366  1  0.309500  0.049400  0.449300  1.0  0.0543
  H  H367  1  0.226100  0.019000  0.367700  1.0  0.0864
  H  H368  1  0.299300  0.082400  0.621100  1.0  0.0798
  H  H369  1  0.382700  0.108100  0.703600  1.0  0.0513
  H  H370  1  0.476000  0.112700  0.617100  1.0  0.0578
  H  H371  1  0.390000  0.079300  0.525900  1.0  0.1028
  H  H372  1  0.915300  0.138500  0.403200  1.0  0.4185
  H  H373  1  0.500000  0.000000  0.329200  1.0  0.3179
  H  H374  1  0.170800  0.170800  0.170800  1.0  0.317
  H  H375  1  0.000000  0.329200  0.500000  1.0  0.3176
  H  H376  1  0.329200  0.500000  0.000000  1.0  0.3148
  C  C377  1  0.600500  0.141900  0.728200  1.0  0.627
  C  C378  1  0.628000  0.202700  0.732700  1.0  -0.1881
  C  C379  1  0.626000  0.208000  0.682000  1.0  -0.1298
  C  C380  1  0.651000  0.262400  0.686400  1.0  0.0
  C  C381  1  0.670900  0.313400  0.745900  1.0  -0.1493
  C  C382  1  0.674300  0.308400  0.792500  1.0  0.0131
  C  C383  1  0.653100  0.255200  0.788900  1.0  -0.0965
  C  C384  1  0.695500  0.361600  0.849900  1.0  0.6735
  C  C385  1  0.647700  0.269800  0.633100  1.0  -0.086
  C  C386  1  0.549800  0.222600  0.552800  1.0  -0.0033
  C  C387  1  0.496900  0.221600  0.521900  1.0  -0.2301
  C  C388  1  0.492500  0.273800  0.544100  1.0  -0.0145
  C  C389  1  0.547600  0.322000  0.589000  1.0  -0.1257
  C  C390  1  0.597000  0.322100  0.618700  1.0  -0.0339
  C  C391  1  0.436200  0.270700  0.511900  1.0  -0.0583
  C  C392  1  0.380900  0.215400  0.467900  1.0  -0.1682
  C  C393  1  0.331400  0.216200  0.435800  1.0  0.115
  C  C394  1  0.383200  0.322600  0.489200  1.0  0.1124
  C  C395  1  0.438500  0.326700  0.524200  1.0  -0.1946
  C  C396  1  0.913700  0.872300  0.771800  1.0  0.6281
  C  C397  1  0.970000  0.895300  0.767300  1.0  -0.1865
  C  C398  1  0.026000  0.944000  0.818000  1.0  -0.1291
  C  C399  1  0.076000  0.964600  0.813600  1.0  0.0002
  C  C400  1  0.067500  0.925000  0.754100  1.0  -0.146
  C  C401  1  0.015900  0.881800  0.707500  1.0  0.012
  C  C402  1  0.966300  0.864200  0.711100  1.0  -0.1008
  C  C403  1  0.011700  0.845600  0.650100  1.0  0.6802
  C  C404  1  0.136700  0.014600  0.866900  1.0  -0.0912
  C  C405  1  0.169800  0.997000  0.947200  1.0  -0.0048
  C  C406  1  0.199700  0.975000  0.978100  1.0  -0.2298
  C  C407  1  0.229700  0.948400  0.955900  1.0  -0.0128
  C  C408  1  0.233000  0.958600  0.911000  1.0  -0.1223
  C  C409  1  0.203400  0.978300  0.881300  1.0  -0.03
  C  C410  1  0.258800  0.924300  0.988100  1.0  -0.0563
  C  C411  1  0.247500  0.913000  0.032100  1.0  -0.1653
  C  C412  1  0.280400  0.895600  0.064200  1.0  0.1127
  C  C413  1  0.333400  0.894000  0.010800  1.0  0.1118
  C  C414  1  0.302500  0.914300  0.975800  1.0  -0.1884
  C  C415  1  0.586300  0.358100  0.958600  1.0  0.6282
  C  C416  1  0.530000  0.297300  0.925300  1.0  -0.1875
  C  C417  1  0.474000  0.292000  0.918000  1.0  -0.1299
  C  C418  1  0.424000  0.237600  0.888600  1.0  -0.0008
  C  C419  1  0.432500  0.186600  0.857500  1.0  -0.149
  C  C420  1  0.484100  0.191600  0.865900  1.0  0.008
  C  C421  1  0.533700  0.244800  0.897900  1.0  -0.0946
  C  C422  1  0.488300  0.138400  0.833900  1.0  0.6702
  C  C423  1  0.363300  0.230200  0.877900  1.0  -0.0904
  C  C424  1  0.330200  0.277400  0.827200  1.0  -0.0016
  C  C425  1  0.300300  0.278400  0.775300  1.0  -0.2304
  C  C426  1  0.270300  0.226200  0.718700  1.0  -0.013
  C  C427  1  0.267000  0.178000  0.725600  1.0  -0.1207
  C  C428  1  0.296600  0.177900  0.774900  1.0  -0.0362
  C  C429  1  0.241200  0.229300  0.665500  1.0  -0.0571
  C  C430  1  0.252500  0.284600  0.665500  1.0  -0.1681
  C  C431  1  0.219600  0.283800  0.615200  1.0  0.1151
  C  C432  1  0.166600  0.177400  0.560600  1.0  0.1135
  C  C433  1  0.197500  0.173300  0.611800  1.0  -0.1933
  C  C434  1  0.899500  0.627700  0.541400  1.0  0.6287
  C  C435  1  0.872000  0.604700  0.574700  1.0  -0.1849
  C  C436  1  0.874000  0.556000  0.582000  1.0  -0.1281
  C  C437  1  0.849000  0.535400  0.611400  1.0  -0.0009
  C  C438  1  0.829100  0.575000  0.642500  1.0  -0.1448
  C  C439  1  0.825700  0.618200  0.634100  1.0  0.0083
  C  C440  1  0.846900  0.635800  0.602100  1.0  -0.0983
  C  C441  1  0.804500  0.654400  0.666100  1.0  0.6715
  C  C442  1  0.852300  0.485400  0.622100  1.0  -0.0921
  C  C443  1  0.950200  0.503000  0.672800  1.0  -0.0017
  C  C444  1  0.003100  0.525000  0.724700  1.0  -0.2296
  C  C445  1  0.007500  0.551600  0.781300  1.0  -0.0106
  C  C446  1  0.952400  0.541400  0.774400  1.0  -0.1216
  C  C447  1  0.903000  0.521700  0.725100  1.0  -0.0345
  C  C448  1  0.063800  0.575700  0.834500  1.0  -0.0559
  C  C449  1  0.119100  0.587000  0.834500  1.0  -0.1666
  C  C450  1  0.168600  0.604400  0.884800  1.0  0.1152
  C  C451  1  0.116800  0.606000  0.939400  1.0  0.1103
  C  C452  1  0.061500  0.585700  0.888200  1.0  -0.192
  C  C453  1  0.728200  0.600500  0.141900  1.0  0.6192
  C  C454  1  0.732700  0.628000  0.202700  1.0  -0.1881
  C  C455  1  0.682000  0.626000  0.208000  1.0  -0.1303
  C  C456  1  0.686400  0.651000  0.262400  1.0  -0.0005
  C  C457  1  0.745900  0.670900  0.313400  1.0  -0.1442
  C  C458  1  0.792500  0.674300  0.308400  1.0  0.0073
  C  C459  1  0.788900  0.653100  0.255200  1.0  -0.0922
  C  C460  1  0.849900  0.695500  0.361600  1.0  0.6691
  C  C461  1  0.633100  0.647700  0.269800  1.0  -0.0869
  C  C462  1  0.552800  0.549800  0.222600  1.0  -0.0055
  C  C463  1  0.521900  0.496900  0.221600  1.0  -0.2293
  C  C464  1  0.544100  0.492500  0.273800  1.0  -0.0138
  C  C465  1  0.589000  0.547600  0.322000  1.0  -0.1188
  C  C466  1  0.618700  0.597000  0.322100  1.0  -0.0322
  C  C467  1  0.511900  0.436200  0.270700  1.0  -0.0593
  C  C468  1  0.467900  0.380900  0.215400  1.0  -0.1653
  C  C469  1  0.435800  0.331400  0.216200  1.0  0.1141
  C  C470  1  0.489200  0.383200  0.322600  1.0  0.113
  C  C471  1  0.524200  0.438500  0.326700  1.0  -0.1892
  C  C472  1  0.771800  0.913700  0.872300  1.0  0.6193
  C  C473  1  0.767300  0.970000  0.895300  1.0  -0.1872
  C  C474  1  0.818000  0.026000  0.944000  1.0  -0.1287
  C  C475  1  0.813600  0.076000  0.964600  1.0  -0.0011
  C  C476  1  0.754100  0.067500  0.925000  1.0  -0.1442
  C  C477  1  0.707500  0.015900  0.881800  1.0  0.0055
  C  C478  1  0.711100  0.966300  0.864200  1.0  -0.0955
  C  C479  1  0.650100  0.011700  0.845600  1.0  0.6681
  C  C480  1  0.866900  0.136700  0.014600  1.0  -0.0901
  C  C481  1  0.947200  0.169800  0.997000  1.0  -0.0014
  C  C482  1  0.978100  0.199700  0.975000  1.0  -0.2319
  C  C483  1  0.955900  0.229700  0.948400  1.0  -0.0125
  C  C484  1  0.911000  0.233000  0.958600  1.0  -0.1152
  C  C485  1  0.881300  0.203400  0.978300  1.0  -0.0346
  C  C486  1  0.988100  0.258800  0.924300  1.0  -0.0577
  C  C487  1  0.032100  0.247500  0.913000  1.0  -0.1675
  C  C488  1  0.064200  0.280400  0.895600  1.0  0.1182
  C  C489  1  0.010800  0.333400  0.894000  1.0  0.116
  C  C490  1  0.975800  0.302500  0.914300  1.0  -0.1917
  C  C491  1  0.958600  0.586300  0.358100  1.0  0.6186
  C  C492  1  0.925300  0.530000  0.297300  1.0  -0.1869
  C  C493  1  0.918000  0.474000  0.292000  1.0  -0.1281
  C  C494  1  0.888600  0.424000  0.237600  1.0  0.001
  C  C495  1  0.857500  0.432500  0.186600  1.0  -0.1452
  C  C496  1  0.865900  0.484100  0.191600  1.0  0.0102
  C  C497  1  0.897900  0.533700  0.244800  1.0  -0.0968
  C  C498  1  0.833900  0.488300  0.138400  1.0  0.68
  C  C499  1  0.877900  0.363300  0.230200  1.0  -0.0845
  C  C500  1  0.827200  0.330200  0.277400  1.0  -0.0005
  C  C501  1  0.775300  0.300300  0.278400  1.0  -0.2278
  C  C502  1  0.718700  0.270300  0.226200  1.0  -0.0126
  C  C503  1  0.725600  0.267000  0.178000  1.0  -0.1203
  C  C504  1  0.774900  0.296600  0.177900  1.0  -0.0307
  C  C505  1  0.665500  0.241200  0.229300  1.0  -0.0563
  C  C506  1  0.665500  0.252500  0.284600  1.0  -0.1684
  C  C507  1  0.615200  0.219600  0.283800  1.0  0.1159
  C  C508  1  0.560600  0.166600  0.177400  1.0  0.1146
  C  C509  1  0.611800  0.197500  0.173300  1.0  -0.1876
  C  C510  1  0.541400  0.899500  0.627700  1.0  0.6189
  C  C511  1  0.574700  0.872000  0.604700  1.0  -0.1858
  C  C512  1  0.582000  0.874000  0.556000  1.0  -0.1315
  C  C513  1  0.611400  0.849000  0.535400  1.0  1e-04
  C  C514  1  0.642500  0.829100  0.575000  1.0  -0.1457
  C  C515  1  0.634100  0.825700  0.618200  1.0  0.0085
  C  C516  1  0.602100  0.846900  0.635800  1.0  -0.0973
  C  C517  1  0.666100  0.804500  0.654400  1.0  0.6704
  C  C518  1  0.622100  0.852300  0.485400  1.0  -0.0913
  C  C519  1  0.672800  0.950200  0.503000  1.0  -0.0047
  C  C520  1  0.724700  0.003100  0.525000  1.0  -0.23
  C  C521  1  0.781300  0.007500  0.551600  1.0  -0.0129
  C  C522  1  0.774400  0.952400  0.541400  1.0  -0.1205
  C  C523  1  0.725100  0.903000  0.521700  1.0  -0.0317
  C  C524  1  0.834500  0.063800  0.575700  1.0  -0.0583
  C  C525  1  0.834500  0.119100  0.587000  1.0  -0.1664
  C  C526  1  0.884800  0.168600  0.604400  1.0  0.1151
  C  C527  1  0.939400  0.116800  0.606000  1.0  0.1142
  C  C528  1  0.888200  0.061500  0.585700  1.0  -0.1901
  C  C529  1  0.141900  0.728200  0.600500  1.0  0.6164
  C  C530  1  0.202700  0.732700  0.628000  1.0  -0.1869
  C  C531  1  0.208000  0.682000  0.626000  1.0  -0.1313
  C  C532  1  0.262400  0.686400  0.651000  1.0  -0.0016
  C  C533  1  0.313400  0.745900  0.670900  1.0  -0.148
  C  C534  1  0.308400  0.792500  0.674300  1.0  0.0141
  C  C535  1  0.255200  0.788900  0.653100  1.0  -0.0992
  C  C536  1  0.361600  0.849900  0.695500  1.0  0.6702
  C  C537  1  0.269800  0.633100  0.647700  1.0  -0.091
  C  C538  1  0.222600  0.552800  0.549800  1.0  -0.0088
  C  C539  1  0.221600  0.521900  0.496900  1.0  -0.2292
  C  C540  1  0.273800  0.544100  0.492500  1.0  -0.0132
  C  C541  1  0.322000  0.589000  0.547600  1.0  -0.1198
  C  C542  1  0.322100  0.618700  0.597000  1.0  -0.0376
  C  C543  1  0.270700  0.511900  0.436200  1.0  -0.0564
  C  C544  1  0.215400  0.467900  0.380900  1.0  -0.1654
  C  C545  1  0.216200  0.435800  0.331400  1.0  0.1189
  C  C546  1  0.322600  0.489200  0.383200  1.0  0.1153
  C  C547  1  0.326700  0.524200  0.438500  1.0  -0.1925
  C  C548  1  0.872300  0.771800  0.913700  1.0  0.6193
  C  C549  1  0.895300  0.767300  0.970000  1.0  -0.1871
  C  C550  1  0.944000  0.818000  0.026000  1.0  -0.1298
  C  C551  1  0.964600  0.813600  0.076000  1.0  -0.0015
  C  C552  1  0.925000  0.754100  0.067500  1.0  -0.1449
  C  C553  1  0.881800  0.707500  0.015900  1.0  0.0141
  C  C554  1  0.864200  0.711100  0.966300  1.0  -0.0964
  C  C555  1  0.845600  0.650100  0.011700  1.0  0.6721
  C  C556  1  0.014600  0.866900  0.136700  1.0  -0.0848
  C  C557  1  0.997000  0.947200  0.169800  1.0  -0.002
  C  C558  1  0.975000  0.978100  0.199700  1.0  -0.23
  C  C559  1  0.948400  0.955900  0.229700  1.0  -0.0138
  C  C560  1  0.958600  0.911000  0.233000  1.0  -0.1214
  C  C561  1  0.978300  0.881300  0.203400  1.0  -0.0336
  C  C562  1  0.924300  0.988100  0.258800  1.0  -0.0581
  C  C563  1  0.913000  0.032100  0.247500  1.0  -0.1655
  C  C564  1  0.895600  0.064200  0.280400  1.0  0.1151
  C  C565  1  0.894000  0.010800  0.333400  1.0  0.1125
  C  C566  1  0.914300  0.975800  0.302500  1.0  -0.1925
  C  C567  1  0.358100  0.958600  0.586300  1.0  0.6197
  C  C568  1  0.297300  0.925300  0.530000  1.0  -0.1875
  C  C569  1  0.292000  0.918000  0.474000  1.0  -0.1296
  C  C570  1  0.237600  0.888600  0.424000  1.0  0.0
  C  C571  1  0.186600  0.857500  0.432500  1.0  -0.1445
  C  C572  1  0.191600  0.865900  0.484100  1.0  0.0088
  C  C573  1  0.244800  0.897900  0.533700  1.0  -0.0969
  C  C574  1  0.138400  0.833900  0.488300  1.0  0.672
  C  C575  1  0.230200  0.877900  0.363300  1.0  -0.0889
  C  C576  1  0.277400  0.827200  0.330200  1.0  -0.0046
  C  C577  1  0.278400  0.775300  0.300300  1.0  -0.23
  C  C578  1  0.226200  0.718700  0.270300  1.0  -0.0143
  C  C579  1  0.178000  0.725600  0.267000  1.0  -0.1204
  C  C580  1  0.177900  0.774900  0.296600  1.0  -0.0336
  C  C581  1  0.229300  0.665500  0.241200  1.0  -0.0594
  C  C582  1  0.284600  0.665500  0.252500  1.0  -0.1631
  C  C583  1  0.283800  0.615200  0.219600  1.0  0.1155
  C  C584  1  0.177400  0.560600  0.166600  1.0  0.1114
  C  C585  1  0.173300  0.611800  0.197500  1.0  -0.192
  C  C586  1  0.627700  0.541400  0.899500  1.0  0.6201
  C  C587  1  0.604700  0.574700  0.872000  1.0  -0.1863
  C  C588  1  0.556000  0.582000  0.874000  1.0  -0.1285
  C  C589  1  0.535400  0.611400  0.849000  1.0  1e-04
  C  C590  1  0.575000  0.642500  0.829100  1.0  -0.1458
  C  C591  1  0.618200  0.634100  0.825700  1.0  0.0093
  C  C592  1  0.635800  0.602100  0.846900  1.0  -0.094
  C  C593  1  0.654400  0.666100  0.804500  1.0  0.6779
  C  C594  1  0.485400  0.622100  0.852300  1.0  -0.0852
  C  C595  1  0.503000  0.672800  0.950200  1.0  -0.0008
  C  C596  1  0.525000  0.724700  0.003100  1.0  -0.2305
  C  C597  1  0.551600  0.781300  0.007500  1.0  -0.0133
  C  C598  1  0.541400  0.774400  0.952400  1.0  -0.1226
  C  C599  1  0.521700  0.725100  0.903000  1.0  -0.0314
  C  C600  1  0.575700  0.834500  0.063800  1.0  -0.0586
  C  C601  1  0.587000  0.834500  0.119100  1.0  -0.1643
  C  C602  1  0.604400  0.884800  0.168600  1.0  0.1147
  C  C603  1  0.606000  0.939400  0.116800  1.0  0.1122
  C  C604  1  0.585700  0.888200  0.061500  1.0  -0.192
  C  C605  1  0.641900  0.100500  0.228200  1.0  0.6275
  C  C606  1  0.702700  0.128000  0.232700  1.0  -0.1873
  C  C607  1  0.708000  0.126000  0.182000  1.0  -0.1314
  C  C608  1  0.762400  0.151000  0.186400  1.0  0.001
  C  C609  1  0.813400  0.170900  0.245900  1.0  -0.1456
  C  C610  1  0.808400  0.174300  0.292500  1.0  0.0082
  C  C611  1  0.755200  0.153100  0.288900  1.0  -0.0976
  C  C612  1  0.861600  0.195500  0.349900  1.0  0.6713
  C  C613  1  0.769800  0.147700  0.133100  1.0  -0.0903
  C  C614  1  0.722600  0.049800  0.052800  1.0  -0.0039
  C  C615  1  0.721600  0.996900  0.021900  1.0  -0.2295
  C  C616  1  0.773800  0.992500  0.044100  1.0  -0.0138
  C  C617  1  0.822000  0.047600  0.089000  1.0  -0.1202
  C  C618  1  0.822100  0.097000  0.118700  1.0  -0.0332
  C  C619  1  0.770700  0.936200  0.011900  1.0  -0.0591
  C  C620  1  0.715400  0.880900  0.967900  1.0  -0.1649
  C  C621  1  0.716200  0.831400  0.935800  1.0  0.1152
  C  C622  1  0.822600  0.883200  0.989200  1.0  0.1139
  C  C623  1  0.826700  0.938500  0.024200  1.0  -0.1889
  C  C624  1  0.372300  0.413700  0.271800  1.0  0.6272
  C  C625  1  0.395300  0.470000  0.267300  1.0  -0.1873
  C  C626  1  0.444000  0.526000  0.318000  1.0  -0.1283
  C  C627  1  0.464600  0.576000  0.313600  1.0  0.0002
  C  C628  1  0.425000  0.567500  0.254100  1.0  -0.1448
  C  C629  1  0.381800  0.515900  0.207500  1.0  0.0094
  C  C630  1  0.364200  0.466300  0.211100  1.0  -0.0959
  C  C631  1  0.345600  0.511700  0.150100  1.0  0.6808
  C  C632  1  0.514600  0.636700  0.366900  1.0  -0.0841
  C  C633  1  0.497000  0.669800  0.447200  1.0  -0.0007
  C  C634  1  0.475000  0.699700  0.478100  1.0  -0.2291
  C  C635  1  0.448400  0.729700  0.455900  1.0  -0.0123
  C  C636  1  0.458600  0.733000  0.411000  1.0  -0.1209
  C  C637  1  0.478300  0.703400  0.381300  1.0  -0.0309
  C  C638  1  0.424300  0.758800  0.488100  1.0  -0.0577
  C  C639  1  0.413000  0.747500  0.532100  1.0  -0.1682
  C  C640  1  0.395600  0.780400  0.564200  1.0  0.1163
  C  C641  1  0.394000  0.833400  0.510800  1.0  0.1143
  C  C642  1  0.414300  0.802500  0.475800  1.0  -0.188
  C  C643  1  0.858100  0.086300  0.458600  1.0  0.6278
  C  C644  1  0.797300  0.030000  0.425300  1.0  -0.1862
  C  C645  1  0.792000  0.974000  0.418000  1.0  -0.1284
  C  C646  1  0.737600  0.924000  0.388600  1.0  -0.0006
  C  C647  1  0.686600  0.932500  0.357500  1.0  -0.145
  C  C648  1  0.691600  0.984100  0.365900  1.0  0.0057
  C  C649  1  0.744800  0.033700  0.397900  1.0  -0.0961
  C  C650  1  0.638400  0.988300  0.333900  1.0  0.6699
  C  C651  1  0.730200  0.863300  0.377900  1.0  -0.0907
  C  C652  1  0.777400  0.830200  0.327200  1.0  -0.001
  C  C653  1  0.778400  0.800300  0.275300  1.0  -0.232
  C  C654  1  0.726200  0.770300  0.218700  1.0  -0.0133
  C  C655  1  0.678000  0.767000  0.225600  1.0  -0.1151
  C  C656  1  0.677900  0.796600  0.274900  1.0  -0.0348
  C  C657  1  0.729300  0.741200  0.165500  1.0  -0.0562
  C  C658  1  0.784600  0.752500  0.165500  1.0  -0.1657
  C  C659  1  0.783800  0.719600  0.115200  1.0  0.118
  C  C660  1  0.677400  0.666667  0.060600  1.0  0.1165
  C  C661  1  0.673300  0.697500  0.111800  1.0  -0.1917
  C  C662  1  0.127700  0.399500  0.041400  1.0  0.6276
  C  C663  1  0.104700  0.372000  0.074700  1.0  -0.1865
  C  C664  1  0.056000  0.374000  0.082000  1.0  -0.13
  C  C665  1  0.035400  0.349000  0.111400  1.0  -0.0013
  C  C666  1  0.075000  0.329100  0.142500  1.0  -0.1448
  C  C667  1  0.118200  0.325700  0.134100  1.0  0.0078
  C  C668  1  0.135800  0.346900  0.102100  1.0  -0.0921
  C  C669  1  0.154400  0.304500  0.166100  1.0  0.6701
  C  C670  1  0.985400  0.352300  0.122100  1.0  -0.0884
  C  C671  1  0.003000  0.450200  0.172800  1.0  -0.0061
  C  C672  1  0.025000  0.503100  0.224700  1.0  -0.2296
  C  C673  1  0.051600  0.507500  0.281300  1.0  -0.0131
  C  C674  1  0.041400  0.452400  0.274400  1.0  -0.1191
  C  C675  1  0.021700  0.403000  0.225100  1.0  -0.0311
  C  C676  1  0.075700  0.563800  0.334500  1.0  -0.059
  C  C677  1  0.087000  0.619100  0.334500  1.0  -0.166
  C  C678  1  0.104400  0.668600  0.384800  1.0  0.1147
  C  C679  1  0.106000  0.616800  0.439400  1.0  0.1131
  C  C680  1  0.085700  0.561500  0.388200  1.0  -0.1901
  C  C681  1  0.100500  0.228200  0.641900  1.0  0.6192
  C  C682  1  0.128000  0.232700  0.702700  1.0  -0.1871
  C  C683  1  0.126000  0.182000  0.708000  1.0  -0.1298
  C  C684  1  0.151000  0.186400  0.762400  1.0  -0.0013
  C  C685  1  0.170900  0.245900  0.813400  1.0  -0.1449
  C  C686  1  0.174300  0.292500  0.808400  1.0  0.0165
  C  C687  1  0.153100  0.288900  0.755200  1.0  -0.0972
  C  C688  1  0.195500  0.349900  0.861600  1.0  0.6723
  C  C689  1  0.147700  0.133100  0.769800  1.0  -0.085
  C  C690  1  0.049800  0.052800  0.722600  1.0  -0.0034
  C  C691  1  0.996900  0.021900  0.721600  1.0  -0.23
  C  C692  1  0.992500  0.044100  0.773800  1.0  -0.0133
  C  C693  1  0.047600  0.089000  0.822000  1.0  -0.1229
  C  C694  1  0.097000  0.118700  0.822100  1.0  -0.0339
  C  C695  1  0.936200  0.011900  0.770700  1.0  -0.0565
  C  C696  1  0.880900  0.967900  0.715400  1.0  -0.1653
  C  C697  1  0.831400  0.935800  0.716200  1.0  0.115
  C  C698  1  0.883200  0.989200  0.822600  1.0  0.1127
  C  C699  1  0.938500  0.024200  0.826700  1.0  -0.1935
  C  C700  1  0.413700  0.271800  0.372300  1.0  0.6164
  C  C701  1  0.470000  0.267300  0.395300  1.0  -0.1872
  C  C702  1  0.526000  0.318000  0.444000  1.0  -0.1317
  C  C703  1  0.576000  0.313600  0.464600  1.0  -0.0018
  C  C704  1  0.567500  0.254100  0.425000  1.0  -0.1481
  C  C705  1  0.515900  0.207500  0.381800  1.0  0.0117
  C  C706  1  0.466300  0.211100  0.364200  1.0  -0.0986
  C  C707  1  0.511700  0.150100  0.345600  1.0  0.6691
  C  C708  1  0.636700  0.366900  0.514600  1.0  -0.0907
  C  C709  1  0.669800  0.447200  0.497000  1.0  -0.0088
  C  C710  1  0.699700  0.478100  0.475000  1.0  -0.2281
  C  C711  1  0.729700  0.455900  0.448400  1.0  -0.0131
  C  C712  1  0.733000  0.411000  0.458600  1.0  -0.1203
  C  C713  1  0.703400  0.381300  0.478300  1.0  -0.0365
  C  C714  1  0.758800  0.488100  0.424300  1.0  -0.0581
  C  C715  1  0.747500  0.532100  0.413000  1.0  -0.1655
  C  C716  1  0.780400  0.564200  0.395600  1.0  0.1186
  C  C717  1  0.833400  0.510800  0.394000  1.0  0.1152
  C  C718  1  0.802500  0.475800  0.414300  1.0  -0.1925
  C  C719  1  0.086300  0.458600  0.858100  1.0  0.6203
  C  C720  1  0.030000  0.425300  0.797300  1.0  -0.1873
  C  C721  1  0.974000  0.418000  0.792000  1.0  -0.1283
  C  C722  1  0.924000  0.388600  0.737600  1.0  0.0003
  C  C723  1  0.932500  0.357500  0.686600  1.0  -0.1455
  C  C724  1  0.984100  0.365900  0.691600  1.0  0.0094
  C  C725  1  0.033700  0.397900  0.744800  1.0  -0.094
  C  C726  1  0.988300  0.333900  0.638400  1.0  0.6788
  C  C727  1  0.863300  0.377900  0.730200  1.0  -0.0848
  C  C728  1  0.830200  0.327200  0.777400  1.0  -0.0017
  C  C729  1  0.800300  0.275300  0.778400  1.0  -0.2297
  C  C730  1  0.770300  0.218700  0.726200  1.0  -0.0148
  C  C731  1  0.767000  0.225600  0.678000  1.0  -0.1225
  C  C732  1  0.796600  0.274900  0.677900  1.0  -0.0302
  C  C733  1  0.741200  0.165500  0.729300  1.0  -0.0594
  C  C734  1  0.752500  0.165500  0.784600  1.0  -0.1631
  C  C735  1  0.719600  0.115200  0.783800  1.0  0.1146
  C  C736  1  0.666667  0.060600  0.677400  1.0  0.1118
  C  C737  1  0.697500  0.111800  0.673300  1.0  -0.1898
  C  C738  1  0.399500  0.041400  0.127700  1.0  0.6193
  C  C739  1  0.372000  0.074700  0.104700  1.0  -0.1867
  C  C740  1  0.374000  0.082000  0.056000  1.0  -0.1295
  C  C741  1  0.349000  0.111400  0.035400  1.0  1e-04
  C  C742  1  0.329100  0.142500  0.075000  1.0  -0.1447
  C  C743  1  0.325700  0.134100  0.118200  1.0  0.0088
  C  C744  1  0.346900  0.102100  0.135800  1.0  -0.0971
  C  C745  1  0.304500  0.166100  0.154400  1.0  0.6721
  C  C746  1  0.352300  0.122100  0.985400  1.0  -0.0893
  C  C747  1  0.450200  0.172800  0.003000  1.0  -0.0032
  C  C748  1  0.503100  0.224700  0.025000  1.0  -0.2304
  C  C749  1  0.507500  0.281300  0.051600  1.0  -0.0129
  C  C750  1  0.452400  0.274400  0.041400  1.0  -0.1218
  C  C751  1  0.403000  0.225100  0.021700  1.0  -0.036
  C  C752  1  0.563800  0.334500  0.075700  1.0  -0.0589
  C  C753  1  0.619100  0.334500  0.087000  1.0  -0.1636
  C  C754  1  0.668600  0.384800  0.104400  1.0  0.1158
  C  C755  1  0.616800  0.439400  0.106000  1.0  0.1119
  C  C756  1  0.561500  0.388200  0.085700  1.0  -0.1938
  C  C757  1  0.228200  0.641900  0.100500  1.0  0.6196
  C  C758  1  0.232700  0.702700  0.128000  1.0  -0.1884
  C  C759  1  0.182000  0.708000  0.126000  1.0  -0.1286
  C  C760  1  0.186400  0.762400  0.151000  1.0  -0.0006
  C  C761  1  0.245900  0.813400  0.170900  1.0  -0.1496
  C  C762  1  0.292500  0.808400  0.174300  1.0  0.0082
  C  C763  1  0.288900  0.755200  0.153100  1.0  -0.095
  C  C764  1  0.349900  0.861600  0.195500  1.0  0.6691
  C  C765  1  0.133100  0.769800  0.147700  1.0  -0.0902
  C  C766  1  0.052800  0.722600  0.049800  1.0  -0.003
  C  C767  1  0.021900  0.721600  0.996900  1.0  -0.2311
  C  C768  1  0.044100  0.773800  0.992500  1.0  -0.0134
  C  C769  1  0.089000  0.822000  0.047600  1.0  -0.1214
  C  C770  1  0.118700  0.822100  0.097000  1.0  -0.036
  C  C771  1  0.011900  0.770700  0.936200  1.0  -0.0573
  C  C772  1  0.967900  0.715400  0.880900  1.0  -0.1683
  C  C773  1  0.935800  0.716200  0.831400  1.0  0.1147
  C  C774  1  0.989200  0.822600  0.883200  1.0  0.1134
  C  C775  1  0.024200  0.826700  0.938500  1.0  -0.1944
  C  C776  1  0.271800  0.372300  0.413700  1.0  0.6205
  C  C777  1  0.267300  0.395300  0.470000  1.0  -0.1865
  C  C778  1  0.318000  0.444000  0.526000  1.0  -0.1287
  C  C779  1  0.313600  0.464600  0.576000  1.0  -0.001
  C  C780  1  0.254100  0.425000  0.567500  1.0  -0.1447
  C  C781  1  0.207500  0.381800  0.515900  1.0  0.0077
  C  C782  1  0.211100  0.364200  0.466300  1.0  -0.0984
  C  C783  1  0.150100  0.345600  0.511700  1.0  0.6697
  C  C784  1  0.366900  0.514600  0.636700  1.0  -0.0927
  C  C785  1  0.447200  0.497000  0.669800  1.0  -0.0019
  C  C786  1  0.478100  0.475000  0.699700  1.0  -0.2299
  C  C787  1  0.455900  0.448400  0.729700  1.0  -0.0127
  C  C788  1  0.411000  0.458600  0.733000  1.0  -0.1199
  C  C789  1  0.381300  0.478300  0.703400  1.0  -0.0335
  C  C790  1  0.488100  0.424300  0.758800  1.0  -0.0556
  C  C791  1  0.532100  0.413000  0.747500  1.0  -0.1673
  C  C792  1  0.564200  0.395600  0.780400  1.0  0.1131
  C  C793  1  0.510800  0.394000  0.833400  1.0  0.1106
  C  C794  1  0.475800  0.414300  0.802500  1.0  -0.1913
  C  C795  1  0.458600  0.858100  0.086300  1.0  0.6186
  C  C796  1  0.425300  0.797300  0.030000  1.0  -0.188
  C  C797  1  0.418000  0.792000  0.974000  1.0  -0.1305
  C  C798  1  0.388600  0.737600  0.924000  1.0  -0.0
  C  C799  1  0.357500  0.686600  0.932500  1.0  -0.1493
  C  C800  1  0.365900  0.691600  0.984100  1.0  0.0128
  C  C801  1  0.397900  0.744800  0.033700  1.0  -0.0965
  C  C802  1  0.333900  0.638400  0.988300  1.0  0.6726
  C  C803  1  0.377900  0.730200  0.863300  1.0  -0.0857
  C  C804  1  0.327200  0.777400  0.830200  1.0  -0.0012
  C  C805  1  0.275300  0.778400  0.800300  1.0  -0.2298
  C  C806  1  0.218700  0.726200  0.770300  1.0  -0.0145
  C  C807  1  0.225600  0.678000  0.767000  1.0  -0.1242
  C  C808  1  0.274900  0.677900  0.796600  1.0  -0.0335
  C  C809  1  0.165500  0.729300  0.741200  1.0  -0.0587
  C  C810  1  0.165500  0.784600  0.752500  1.0  -0.1687
  C  C811  1  0.115200  0.783800  0.719600  1.0  0.1153
  C  C812  1  0.060600  0.677400  0.666667  1.0  0.1127
  C  C813  1  0.111800  0.673300  0.697500  1.0  -0.1933
  C  C814  1  0.041400  0.127700  0.399500  1.0  0.6195
  C  C815  1  0.074700  0.104700  0.372000  1.0  -0.1847
  C  C816  1  0.082000  0.056000  0.374000  1.0  -0.1292
  C  C817  1  0.111400  0.035400  0.349000  1.0  0.0002
  C  C818  1  0.142500  0.075000  0.329100  1.0  -0.1459
  C  C819  1  0.134100  0.118200  0.325700  1.0  0.0129
  C  C820  1  0.102100  0.135800  0.346900  1.0  -0.1005
  C  C821  1  0.166100  0.154400  0.304500  1.0  0.6786
  C  C822  1  0.122100  0.985400  0.352300  1.0  -0.0903
  C  C823  1  0.172800  0.003000  0.450200  1.0  -0.0049
  C  C824  1  0.224700  0.025000  0.503100  1.0  -0.2298
  C  C825  1  0.281300  0.051600  0.507500  1.0  -0.0109
  C  C826  1  0.274400  0.041400  0.452400  1.0  -0.1218
  C  C827  1  0.225100  0.021700  0.403000  1.0  -0.031
  C  C828  1  0.334500  0.075700  0.563800  1.0  -0.0563
  C  C829  1  0.334500  0.087000  0.619100  1.0  -0.1651
  C  C830  1  0.384800  0.104400  0.668600  1.0  0.1132
  C  C831  1  0.439400  0.106000  0.616800  1.0  0.1127
  C  C832  1  0.388200  0.085700  0.561500  1.0  -0.1895
  N  N833  1  0.329600  0.268500  0.446500  1.0  -0.4225
  N  N834  1  0.595900  0.271600  0.602300  1.0  0.083
  N  N835  1  0.322000  0.883100  0.053500  1.0  -0.423
  N  N836  1  0.169300  0.993600  0.897700  1.0  0.0824
  N  N837  1  0.178000  0.231500  0.561100  1.0  -0.4168
  N  N838  1  0.330700  0.228400  0.824300  1.0  0.083
  N  N839  1  0.170400  0.616900  0.938900  1.0  -0.42
  N  N840  1  0.904100  0.506400  0.675700  1.0  0.0825
  N  N841  1  0.446500  0.329600  0.268500  1.0  -0.4158
  N  N842  1  0.602300  0.595900  0.271600  1.0  0.0823
  N  N843  1  0.053500  0.322000  0.883100  1.0  -0.4193
  N  N844  1  0.897700  0.169300  0.993600  1.0  0.0834
  N  N845  1  0.561100  0.178000  0.231500  1.0  -0.4184
  N  N846  1  0.824300  0.330700  0.228400  1.0  0.0827
  N  N847  1  0.938900  0.170400  0.616900  1.0  -0.4155
  N  N848  1  0.675700  0.904100  0.506400  1.0  0.0829
  N  N849  1  0.268500  0.446500  0.329600  1.0  -0.4205
  N  N850  1  0.271600  0.602300  0.595900  1.0  0.0833
  N  N851  1  0.883100  0.053500  0.322000  1.0  -0.4175
  N  N852  1  0.993600  0.897700  0.169300  1.0  0.0825
  N  N853  1  0.231500  0.561100  0.178000  1.0  -0.4155
  N  N854  1  0.228400  0.824300  0.330700  1.0  0.0825
  N  N855  1  0.616900  0.938900  0.170400  1.0  -0.4165
  N  N856  1  0.506400  0.675700  0.904100  1.0  0.0833
  N  N857  1  0.768500  0.829600  0.946500  1.0  -0.4149
  N  N858  1  0.771600  0.095900  0.102300  1.0  0.0826
  N  N859  1  0.383100  0.822000  0.553500  1.0  -0.4187
  N  N860  1  0.493600  0.669300  0.397700  1.0  0.0829
  N  N861  1  0.731500  0.678000  0.061100  1.0  -0.4206
  N  N862  1  0.728400  0.830700  0.324300  1.0  0.0833
  N  N863  1  0.116900  0.670400  0.438900  1.0  -0.4169
  N  N864  1  0.006400  0.404100  0.175700  1.0  0.0827
  N  N865  1  0.829600  0.946500  0.768500  1.0  -0.4177
  N  N866  1  0.095900  0.102300  0.771600  1.0  0.0823
  N  N867  1  0.822000  0.553500  0.383100  1.0  -0.4189
  N  N868  1  0.669300  0.397700  0.493600  1.0  0.0834
  N  N869  1  0.678000  0.061100  0.731500  1.0  -0.4159
  N  N870  1  0.830700  0.324300  0.728400  1.0  0.0831
  N  N871  1  0.670400  0.438900  0.116900  1.0  -0.4157
  N  N872  1  0.404100  0.175700  0.006400  1.0  0.0827
  N  N873  1  0.946500  0.768500  0.829600  1.0  -0.4169
  N  N874  1  0.102300  0.771600  0.095900  1.0  0.0833
  N  N875  1  0.553500  0.383100  0.822000  1.0  -0.4227
  N  N876  1  0.397700  0.493600  0.669300  1.0  0.0824
  N  N877  1  0.061100  0.731500  0.678000  1.0  -0.4225
  N  N878  1  0.324300  0.728400  0.830700  1.0  0.0826
  N  N879  1  0.438900  0.116900  0.670400  1.0  -0.4199
  N  N880  1  0.175700  0.006400  0.404100  1.0  0.0824
  O  O881  1  0.566200  0.095400  0.676400  1.0  -0.6785
  O  O882  1  0.615200  0.143500  0.779100  1.0  -0.7377
  O  O883  1  0.702300  0.356200  0.894900  1.0  -0.68
  O  O884  1  0.708500  0.411900  0.851800  1.0  -0.6895
  O  O885  1  0.564200  0.008700  0.733900  1.0  -1.069
  O  O886  1  0.919000  0.889800  0.823600  1.0  -0.6783
  O  O887  1  0.864400  0.836100  0.720900  1.0  -0.7382
  O  O888  1  0.961300  0.807400  0.605100  1.0  -0.675
  O  O889  1  0.060100  0.856700  0.648200  1.0  -0.6906
  O  O890  1  0.774800  0.830300  0.766100  1.0  -1.0715
  O  O891  1  0.581000  0.404600  0.970800  1.0  -0.6781
  O  O892  1  0.635600  0.356500  0.971700  1.0  -0.7347
  O  O893  1  0.538700  0.143800  0.846100  1.0  -0.6769
  O  O894  1  0.439900  0.088100  0.796600  1.0  -0.6891
  O  O895  1  0.725200  0.491300  0.055500  1.0  -1.0727
  O  O896  1  0.933800  0.610200  0.529200  1.0  -0.6513
  O  O897  1  0.884800  0.663900  0.528300  1.0  -0.7364
  O  O898  1  0.797700  0.692600  0.653900  1.0  -0.6792
  O  O899  1  0.791500  0.643300  0.703400  1.0  -0.6877
  O  O900  1  0.935800  0.669700  0.444500  1.0  -1.0715
  O  O901  1  0.676400  0.566200  0.095400  1.0  -0.6775
  O  O902  1  0.779100  0.615200  0.143500  1.0  -0.7336
  O  O903  1  0.894900  0.702300  0.356200  1.0  -0.6773
  O  O904  1  0.851800  0.708500  0.411900  1.0  -0.6894
  O  O905  1  0.733900  0.564200  0.008700  1.0  -1.0705
  O  O906  1  0.823600  0.919000  0.889800  1.0  -0.6785
  O  O907  1  0.720900  0.864400  0.836100  1.0  -0.7337
  O  O908  1  0.605100  0.961300  0.807400  1.0  -0.6751
  O  O909  1  0.648200  0.060100  0.856700  1.0  -0.6907
  O  O910  1  0.766100  0.774800  0.830300  1.0  -1.0736
  O  O911  1  0.970800  0.581000  0.404600  1.0  -0.677
  O  O912  1  0.971700  0.635600  0.356500  1.0  -0.7381
  O  O913  1  0.846100  0.538700  0.143800  1.0  -0.6765
  O  O914  1  0.796600  0.439900  0.088100  1.0  -0.6903
  O  O915  1  0.055500  0.725200  0.491300  1.0  -1.0699
  O  O916  1  0.529200  0.933800  0.610200  1.0  -0.6512
  O  O917  1  0.528300  0.884800  0.663900  1.0  -0.7395
  O  O918  1  0.653900  0.797700  0.692600  1.0  -0.6763
  O  O919  1  0.703400  0.791500  0.643300  1.0  -0.6903
  O  O920  1  0.444500  0.935800  0.669700  1.0  -1.0716
  O  O921  1  0.095400  0.676400  0.566200  1.0  -0.6742
  O  O922  1  0.143500  0.779100  0.615200  1.0  -0.7324
  O  O923  1  0.356200  0.894900  0.702300  1.0  -0.6758
  O  O924  1  0.411900  0.851800  0.708500  1.0  -0.691
  O  O925  1  0.008700  0.733900  0.564200  1.0  -1.0736
  O  O926  1  0.889800  0.823600  0.919000  1.0  -0.6739
  O  O927  1  0.836100  0.720900  0.864400  1.0  -0.7334
  O  O928  1  0.807400  0.605100  0.961300  1.0  -0.6786
  O  O929  1  0.856700  0.648200  0.060100  1.0  -0.6901
  O  O930  1  0.830300  0.766100  0.774800  1.0  -1.0688
  O  O931  1  0.404600  0.970800  0.581000  1.0  -0.6785
  O  O932  1  0.356500  0.971700  0.635600  1.0  -0.7393
  O  O933  1  0.143800  0.846100  0.538700  1.0  -0.6769
  O  O934  1  0.088100  0.796600  0.439900  1.0  -0.689
  O  O935  1  0.491300  0.055500  0.725200  1.0  -1.0717
  O  O936  1  0.610200  0.529200  0.933800  1.0  -0.6519
  O  O937  1  0.663900  0.528300  0.884800  1.0  -0.7365
  O  O938  1  0.692600  0.653900  0.797700  1.0  -0.6753
  O  O939  1  0.643300  0.703400  0.791500  1.0  -0.6892
  O  O940  1  0.669700  0.444500  0.935800  1.0  -1.0709
  O  O941  1  0.500000  0.000000  0.792600  1.0  -0.8949
  O  O942  1  0.707400  0.707400  0.707400  1.0  -0.9005
  O  O943  1  0.792600  0.500000  0.000000  1.0  -0.9012
  O  O944  1  0.000000  0.792600  0.500000  1.0  -0.8993
  O  O945  1  0.595400  0.066200  0.176400  1.0  -0.678
  O  O946  1  0.643500  0.115200  0.279100  1.0  -0.74
  O  O947  1  0.856200  0.202300  0.394900  1.0  -0.678
  O  O948  1  0.911900  0.208500  0.351800  1.0  -0.6904
  O  O949  1  0.508700  0.064200  0.233900  1.0  -1.0717
  O  O950  1  0.389800  0.419000  0.323600  1.0  -0.677
  O  O951  1  0.336100  0.364400  0.220900  1.0  -0.7385
  O  O952  1  0.307400  0.461300  0.105100  1.0  -0.6781
  O  O953  1  0.356700  0.560100  0.148200  1.0  -0.6903
  O  O954  1  0.330300  0.274800  0.266100  1.0  -1.0698
  O  O955  1  0.904600  0.081000  0.470800  1.0  -0.6785
  O  O956  1  0.856500  0.135600  0.471700  1.0  -0.7347
  O  O957  1  0.643800  0.038700  0.346100  1.0  -0.6757
  O  O958  1  0.588100  0.939900  0.296600  1.0  -0.689
  O  O959  1  0.991300  0.225200  0.555500  1.0  -1.0738
  O  O960  1  0.110200  0.433800  0.029200  1.0  -0.652
  O  O961  1  0.163900  0.384800  0.028300  1.0  -0.7342
  O  O962  1  0.192600  0.297700  0.153900  1.0  -0.6767
  O  O963  1  0.143300  0.291500  0.203400  1.0  -0.6886
  O  O964  1  0.169700  0.435800  0.944500  1.0  -1.0704
  O  O965  1  0.066200  0.176400  0.595400  1.0  -0.6737
  O  O966  1  0.115200  0.279100  0.643500  1.0  -0.7337
  O  O967  1  0.202300  0.394900  0.856200  1.0  -0.6785
  O  O968  1  0.208500  0.351800  0.911900  1.0  -0.6901
  O  O969  1  0.064200  0.233900  0.508700  1.0  -1.069
  O  O970  1  0.419000  0.323600  0.389800  1.0  -0.6739
  O  O971  1  0.364400  0.220900  0.336100  1.0  -0.733
  O  O972  1  0.461300  0.105100  0.307400  1.0  -0.6753
  O  O973  1  0.560100  0.148200  0.356700  1.0  -0.691
  O  O974  1  0.274800  0.266100  0.330300  1.0  -1.0732
  O  O975  1  0.081000  0.470800  0.904600  1.0  -0.6783
  O  O976  1  0.135600  0.471700  0.856500  1.0  -0.7367
  O  O977  1  0.038700  0.346100  0.643800  1.0  -0.6767
  O  O978  1  0.939900  0.296600  0.588100  1.0  -0.6893
  O  O979  1  0.225200  0.555500  0.991300  1.0  -1.0711
  O  O980  1  0.433800  0.029200  0.110200  1.0  -0.6513
  O  O981  1  0.384800  0.028300  0.163900  1.0  -0.7386
  O  O982  1  0.297700  0.153900  0.192600  1.0  -0.677
  O  O983  1  0.291500  0.203400  0.143300  1.0  -0.6887
  O  O984  1  0.435800  0.944500  0.169700  1.0  -1.0716
  O  O985  1  0.176400  0.595400  0.066200  1.0  -0.6766
  O  O986  1  0.279100  0.643500  0.115200  1.0  -0.7339
  O  O987  1  0.394900  0.856200  0.202300  1.0  -0.6763
  O  O988  1  0.351800  0.911900  0.208500  1.0  -0.6909
  O  O989  1  0.233900  0.508700  0.064200  1.0  -1.0733
  O  O990  1  0.323600  0.389800  0.419000  1.0  -0.6777
  O  O991  1  0.220900  0.336100  0.364400  1.0  -0.7368
  O  O992  1  0.105100  0.307400  0.461300  1.0  -0.6785
  O  O993  1  0.148200  0.356700  0.560100  1.0  -0.6892
  O  O994  1  0.266100  0.330300  0.274800  1.0  -1.0711
  O  O995  1  0.470800  0.904600  0.081000  1.0  -0.6788
  O  O996  1  0.471700  0.856500  0.135600  1.0  -0.7369
  O  O997  1  0.346100  0.643800  0.038700  1.0  -0.6792
  O  O998  1  0.296600  0.588100  0.939900  1.0  -0.6906
  O  O999  1  0.555500  0.991300  0.225200  1.0  -1.0684
  O  O1000  1  0.029200  0.110200  0.433800  1.0  -0.6524
  O  O1001  1  0.028300  0.163900  0.384800  1.0  -0.7368
  O  O1002  1  0.153900  0.192600  0.297700  1.0  -0.675
  O  O1003  1  0.203400  0.143300  0.291500  1.0  -0.6899
  O  O1004  1  0.944500  0.169700  0.435800  1.0  -1.072
  O  O1005  1  0.500000  0.000000  0.292600  1.0  -0.8949
  O  O1006  1  0.207400  0.207400  0.207400  1.0  -0.9005
  O  O1007  1  0.000000  0.292600  0.500000  1.0  -0.8993
  O  O1008  1  0.292600  0.500000  0.000000  1.0  -0.9012
