# generated using pymatgen
data_Si3H6C18O13
_symmetry_space_group_name_H-M   'P 1'
_cell_length_a   50.69040000
_cell_length_b   50.69040000
_cell_length_c   50.69040000
_cell_angle_alpha   60.00000000
_cell_angle_beta   60.00000000
_cell_angle_gamma   60.00000000
_symmetry_Int_Tables_number   1
_chemical_formula_structural   Si3H6C18O13
_chemical_formula_sum   'Si204 H408 C1224 O884'
_cell_volume   92100.53585265
_cell_formula_units_Z   68
loop_
 _symmetry_equiv_pos_site_id
 _symmetry_equiv_pos_as_xyz
  1  'x, y, z'
loop_
 _atom_site_type_symbol
 _atom_site_label
 _atom_site_symmetry_multiplicity
 _atom_site_fract_x
 _atom_site_fract_y
 _atom_site_fract_z
 _atom_site_occupancy
 _atom_site_charge
  Si  Si1  1  0.670240  0.232960  0.378840  1.0  1.6451
  Si  Si2  1  0.286060  0.581520  0.786060  1.0  1.6017
  Si  Si3  1  0.486190  0.192790  0.782290  1.0  1.6323
  Si  Si4  1  0.134370  0.146710  0.634370  1.0  1.529
  Si  Si5  1  0.415450  0.853290  0.365630  1.0  1.5258
  Si  Si6  1  0.692790  0.538730  0.782290  1.0  1.6311
  Si  Si7  1  0.692790  0.986190  0.782290  1.0  1.6324
  Si  Si8  1  0.307210  0.217710  0.461270  1.0  1.6313
  Si  Si9  1  0.513810  0.217710  0.461270  1.0  1.6343
  Si  Si10  1  0.329760  0.621160  0.767040  1.0  1.6405
  Si  Si11  1  0.081520  0.786060  0.786060  1.0  1.6
  Si  Si12  1  0.000000  0.848820  0.000000  1.0  1.4069
  Si  Si13  1  0.038730  0.782290  0.986190  1.0  1.6321
  Si  Si14  1  0.267040  0.829760  0.621160  1.0  1.6422
  Si  Si15  1  0.878840  0.170240  0.717960  1.0  1.6437
  Si  Si16  1  0.782040  0.829760  0.621160  1.0  1.6421
  Si  Si17  1  0.961270  0.807210  0.217710  1.0  1.6317
  Si  Si18  1  0.807880  0.307880  0.370660  1.0  1.6426
  Si  Si19  1  0.329760  0.621160  0.282040  1.0  1.6407
  Si  Si20  1  0.732960  0.170240  0.717960  1.0  1.6445
  Si  Si21  1  0.878840  0.717960  0.170240  1.0  1.6453
  Si  Si22  1  0.286060  0.786060  0.581520  1.0  1.6028
  Si  Si23  1  0.121160  0.282040  0.767040  1.0  1.6452
  Si  Si24  1  0.717710  0.807210  0.013810  1.0  1.631
  Si  Si25  1  0.013580  0.307880  0.370660  1.0  1.6416
  Si  Si26  1  0.513810  0.807210  0.217710  1.0  1.6305
  Si  Si27  1  0.878840  0.232960  0.170240  1.0  1.646
  Si  Si28  1  0.348820  0.500000  0.151180  1.0  1.4026
  Si  Si29  1  0.732960  0.170240  0.378840  1.0  1.6454
  Si  Si30  1  0.692790  0.782290  0.986190  1.0  1.6309
  Si  Si31  1  0.081520  0.346360  0.786060  1.0  1.599
  Si  Si32  1  0.000000  0.848820  0.151180  1.0  1.4088
  Si  Si33  1  0.217960  0.232960  0.170240  1.0  1.6432
  Si  Si34  1  0.000000  0.151180  0.848820  1.0  1.4071
  Si  Si35  1  0.986420  0.692120  0.629340  1.0  1.6423
  Si  Si36  1  0.865630  0.915450  0.365630  1.0  1.5337
  Si  Si37  1  0.878840  0.170240  0.232960  1.0  1.6436
  Si  Si38  1  0.870660  0.513580  0.307880  1.0  1.6409
  Si  Si39  1  0.807880  0.370660  0.513580  1.0  1.6407
  Si  Si40  1  0.486190  0.782290  0.538730  1.0  1.6313
  Si  Si41  1  0.282290  0.192790  0.986190  1.0  1.6305
  Si  Si42  1  0.329760  0.282040  0.621160  1.0  1.6462
  Si  Si43  1  0.013580  0.307880  0.307880  1.0  1.6434
  Si  Si44  1  0.095650  0.154350  0.154350  1.0  1.6941
  Si  Si45  1  0.353290  0.915450  0.365630  1.0  1.5339
  Si  Si46  1  0.038730  0.192790  0.986190  1.0  1.6295
  Si  Si47  1  0.217960  0.170240  0.232960  1.0  1.645
  Si  Si48  1  0.807880  0.513580  0.370660  1.0  1.6414
  Si  Si49  1  0.865630  0.365630  0.915450  1.0  1.5358
  Si  Si50  1  0.870660  0.307880  0.513580  1.0  1.6406
  Si  Si51  1  0.013580  0.370660  0.307880  1.0  1.6424
  Si  Si52  1  0.121160  0.767040  0.282040  1.0  1.6463
  Si  Si53  1  0.732960  0.717960  0.170240  1.0  1.6426
  Si  Si54  1  0.654350  0.154350  0.595650  1.0  1.6929
  Si  Si55  1  0.348820  0.500000  0.000000  1.0  1.4005
  Si  Si56  1  0.846360  0.786060  0.786060  1.0  1.5962
  Si  Si57  1  0.345650  0.404350  0.845650  1.0  1.6955
  Si  Si58  1  0.654350  0.595650  0.154350  1.0  1.6959
  Si  Si59  1  0.500000  0.500000  0.848820  1.0  1.4054
  Si  Si60  1  0.153640  0.213940  0.418480  1.0  1.6012
  Si  Si61  1  0.267040  0.282040  0.829760  1.0  1.6434
  Si  Si62  1  0.121160  0.829760  0.767040  1.0  1.6431
  Si  Si63  1  0.865630  0.853290  0.365630  1.0  1.53
  Si  Si64  1  0.717710  0.013810  0.807210  1.0  1.6297
  Si  Si65  1  0.670240  0.717960  0.378840  1.0  1.6451
  Si  Si66  1  0.732960  0.378840  0.717960  1.0  1.646
  Si  Si67  1  0.646710  0.084550  0.634370  1.0  1.5372
  Si  Si68  1  0.904350  0.845650  0.845650  1.0  1.695
  Si  Si69  1  0.670240  0.378840  0.232960  1.0  1.6373
  Si  Si70  1  0.846360  0.581520  0.786060  1.0  1.5994
  Si  Si71  1  0.000000  0.000000  0.151180  1.0  1.4068
  Si  Si72  1  0.486190  0.538730  0.782290  1.0  1.6326
  Si  Si73  1  0.865630  0.365630  0.853290  1.0  1.5298
  Si  Si74  1  0.486190  0.782290  0.192790  1.0  1.6322
  Si  Si75  1  0.307210  0.461270  0.217710  1.0  1.6297
  Si  Si76  1  0.513810  0.807210  0.461270  1.0  1.632
  Si  Si77  1  0.584550  0.634370  0.146710  1.0  1.5266
  Si  Si78  1  0.807880  0.307880  0.513580  1.0  1.6445
  Si  Si79  1  0.217960  0.378840  0.170240  1.0  1.6439
  Si  Si80  1  0.670240  0.378840  0.717960  1.0  1.6375
  Si  Si81  1  0.782040  0.621160  0.767040  1.0  1.645
  Si  Si82  1  0.651180  0.848820  0.500000  1.0  1.4072
  Si  Si83  1  0.513810  0.461270  0.807210  1.0  1.6314
  Si  Si84  1  0.134370  0.146710  0.084550  1.0  1.5361
  Si  Si85  1  0.918480  0.213940  0.213940  1.0  1.6
  Si  Si86  1  0.134370  0.084550  0.146710  1.0  1.5367
  Si  Si87  1  0.513810  0.217710  0.807210  1.0  1.6325
  Si  Si88  1  0.651180  0.000000  0.500000  1.0  1.4056
  Si  Si89  1  0.192120  0.692120  0.486420  1.0  1.6417
  Si  Si90  1  0.782040  0.829760  0.767040  1.0  1.6439
  Si  Si91  1  0.961270  0.807210  0.013810  1.0  1.6318
  Si  Si92  1  0.192120  0.486420  0.692120  1.0  1.6413
  Si  Si93  1  0.500000  0.500000  0.151180  1.0  1.4068
  Si  Si94  1  0.713940  0.213940  0.653640  1.0  1.6024
  Si  Si95  1  0.670240  0.232960  0.717960  1.0  1.643
  Si  Si96  1  0.129340  0.486420  0.692120  1.0  1.6396
  Si  Si97  1  0.986420  0.629340  0.692120  1.0  1.6442
  Si  Si98  1  0.348820  0.000000  0.151180  1.0  1.4026
  Si  Si99  1  0.713940  0.653640  0.213940  1.0  1.6002
  Si  Si100  1  0.651180  0.000000  0.848820  1.0  1.4032
  Si  Si101  1  0.286060  0.786060  0.346360  1.0  1.6001
  Si  Si102  1  0.121160  0.829760  0.282040  1.0  1.6428
  Si  Si103  1  0.713940  0.418480  0.213940  1.0  1.6021
  Si  Si104  1  0.732960  0.378840  0.170240  1.0  1.645
  Si  Si105  1  0.267040  0.621160  0.282040  1.0  1.6452
  Si  Si106  1  0.121160  0.282040  0.829760  1.0  1.6443
  Si  Si107  1  0.134370  0.634370  0.084550  1.0  1.5362
  Si  Si108  1  0.192120  0.692120  0.629340  1.0  1.6452
  Si  Si109  1  0.584550  0.146710  0.634370  1.0  1.5289
  Si  Si110  1  0.217960  0.170240  0.378840  1.0  1.6454
  Si  Si111  1  0.153640  0.418480  0.213940  1.0  1.6024
  Si  Si112  1  0.081520  0.786060  0.346360  1.0  1.5986
  Si  Si113  1  0.692790  0.538730  0.986190  1.0  1.6306
  Si  Si114  1  0.192120  0.486420  0.629340  1.0  1.6424
  Si  Si115  1  0.348820  0.151180  0.000000  1.0  1.408
  Si  Si116  1  0.782040  0.767040  0.829760  1.0  1.6432
  Si  Si117  1  0.717710  0.461270  0.807210  1.0  1.6302
  Si  Si118  1  0.486190  0.538730  0.192790  1.0  1.631
  Si  Si119  1  0.134370  0.084550  0.634370  1.0  1.537
  Si  Si120  1  0.217960  0.232960  0.378840  1.0  1.6418
  Si  Si121  1  0.904350  0.404350  0.845650  1.0  1.6929
  Si  Si122  1  0.692790  0.782290  0.538730  1.0  1.6298
  Si  Si123  1  0.000000  0.151180  0.000000  1.0  1.4086
  Si  Si124  1  0.348820  0.000000  0.500000  1.0  1.4005
  Si  Si125  1  0.329760  0.767040  0.621160  1.0  1.6451
  Si  Si126  1  0.038730  0.782290  0.192790  1.0  1.6317
  Si  Si127  1  0.282290  0.538730  0.192790  1.0  1.6304
  Si  Si128  1  0.846360  0.786060  0.581520  1.0  1.5968
  Si  Si129  1  0.961270  0.217710  0.013810  1.0  1.6316
  Si  Si130  1  0.651180  0.848820  0.000000  1.0  1.4072
  Si  Si131  1  0.807880  0.370660  0.307880  1.0  1.6423
  Si  Si132  1  0.986420  0.692120  0.692120  1.0  1.6404
  Si  Si133  1  0.282290  0.538730  0.986190  1.0  1.6309
  Si  Si134  1  0.192120  0.629340  0.692120  1.0  1.6418
  Si  Si135  1  0.500000  0.151180  0.848820  1.0  1.4071
  Si  Si136  1  0.121160  0.767040  0.829760  1.0  1.6454
  Si  Si137  1  0.345650  0.404350  0.404350  1.0  1.6941
  Si  Si138  1  0.654350  0.595650  0.595650  1.0  1.695
  Si  Si139  1  0.000000  0.000000  0.848820  1.0  1.4054
  Si  Si140  1  0.670240  0.717960  0.232960  1.0  1.6437
  Si  Si141  1  0.307210  0.013810  0.461270  1.0  1.6335
  Si  Si142  1  0.267040  0.829760  0.282040  1.0  1.6444
  Si  Si143  1  0.282290  0.192790  0.538730  1.0  1.6285
  Si  Si144  1  0.646710  0.634370  0.634370  1.0  1.5292
  Si  Si145  1  0.651180  0.500000  0.848820  1.0  1.4032
  Si  Si146  1  0.904350  0.845650  0.404350  1.0  1.6959
  Si  Si147  1  0.307210  0.217710  0.013810  1.0  1.6307
  Si  Si148  1  0.095650  0.595650  0.154350  1.0  1.6935
  Si  Si149  1  0.486190  0.192790  0.538730  1.0  1.6293
  Si  Si150  1  0.584550  0.634370  0.634370  1.0  1.5271
  Si  Si151  1  0.415450  0.365630  0.853290  1.0  1.5248
  Si  Si152  1  0.286060  0.346360  0.786060  1.0  1.5983
  Si  Si153  1  0.870660  0.307880  0.307880  1.0  1.6412
  Si  Si154  1  0.153640  0.213940  0.213940  1.0  1.6016
  Si  Si155  1  0.513810  0.461270  0.217710  1.0  1.6307
  Si  Si156  1  0.267040  0.282040  0.621160  1.0  1.6446
  Si  Si157  1  0.865630  0.853290  0.915450  1.0  1.536
  Si  Si158  1  0.865630  0.915450  0.853290  1.0  1.5342
  Si  Si159  1  0.651180  0.500000  0.000000  1.0  1.4056
  Si  Si160  1  0.095650  0.154350  0.595650  1.0  1.6955
  Si  Si161  1  0.307210  0.461270  0.013810  1.0  1.6299
  Si  Si162  1  0.307210  0.013810  0.217710  1.0  1.6311
  Si  Si163  1  0.192120  0.629340  0.486420  1.0  1.6426
  Si  Si164  1  0.500000  0.848820  0.500000  1.0  1.4069
  Si  Si165  1  0.717710  0.013810  0.461270  1.0  1.6308
  Si  Si166  1  0.329760  0.767040  0.282040  1.0  1.6459
  Si  Si167  1  0.713940  0.213940  0.418480  1.0  1.6
  Si  Si168  1  0.329760  0.282040  0.767040  1.0  1.6456
  Si  Si169  1  0.038730  0.986190  0.192790  1.0  1.6286
  Si  Si170  1  0.646710  0.634370  0.084550  1.0  1.5368
  Si  Si171  1  0.129340  0.692120  0.692120  1.0  1.6439
  Si  Si172  1  0.500000  0.151180  0.500000  1.0  1.4086
  Si  Si173  1  0.732960  0.717960  0.378840  1.0  1.6412
  Si  Si174  1  0.961270  0.013810  0.807210  1.0  1.6333
  Si  Si175  1  0.918480  0.653640  0.213940  1.0  1.5999
  Si  Si176  1  0.807880  0.513580  0.307880  1.0  1.6441
  Si  Si177  1  0.717710  0.461270  0.013810  1.0  1.6298
  Si  Si178  1  0.961270  0.217710  0.807210  1.0  1.6324
  Si  Si179  1  0.713940  0.418480  0.653640  1.0  1.6027
  Si  Si180  1  0.282290  0.986190  0.192790  1.0  1.6326
  Si  Si181  1  0.878840  0.232960  0.717960  1.0  1.646
  Si  Si182  1  0.282290  0.986190  0.538730  1.0  1.6317
  Si  Si183  1  0.353290  0.365630  0.915450  1.0  1.5358
  Si  Si184  1  0.500000  0.848820  0.151180  1.0  1.4088
  Si  Si185  1  0.713940  0.653640  0.418480  1.0  1.5999
  Si  Si186  1  0.038730  0.192790  0.782290  1.0  1.6299
  Si  Si187  1  0.129340  0.692120  0.486420  1.0  1.6459
  Si  Si188  1  0.353290  0.365630  0.365630  1.0  1.5297
  Si  Si189  1  0.286060  0.346360  0.581520  1.0  1.599
  Si  Si190  1  0.878840  0.717960  0.232960  1.0  1.6433
  Si  Si191  1  0.348820  0.151180  0.500000  1.0  1.408
  Si  Si192  1  0.415450  0.365630  0.365630  1.0  1.5245
  Si  Si193  1  0.918480  0.213940  0.653640  1.0  1.6
  Si  Si194  1  0.782040  0.621160  0.829760  1.0  1.6421
  Si  Si195  1  0.717710  0.807210  0.461270  1.0  1.6305
  Si  Si196  1  0.286060  0.581520  0.346360  1.0  1.6005
  Si  Si197  1  0.217960  0.378840  0.232960  1.0  1.6442
  Si  Si198  1  0.134370  0.634370  0.146710  1.0  1.5289
  Si  Si199  1  0.267040  0.621160  0.829760  1.0  1.6435
  Si  Si200  1  0.782040  0.767040  0.621160  1.0  1.6443
  Si  Si201  1  0.961270  0.013810  0.217710  1.0  1.6319
  Si  Si202  1  0.692790  0.986190  0.538730  1.0  1.6308
  Si  Si203  1  0.345650  0.845650  0.404350  1.0  1.6935
  Si  Si204  1  0.038730  0.986190  0.782290  1.0  1.6294
  H  H205  1  0.914300  0.105100  0.185900  1.0  0.0968
  H  H206  1  0.068100  0.568100  0.648700  1.0  0.1083
  H  H207  1  0.960700  0.927900  0.927900  1.0  0.104
  H  H208  1  0.553700  0.692300  0.200500  1.0  0.0957
  H  H209  1  0.299500  0.946300  0.446500  1.0  0.0964
  H  H210  1  0.402900  0.538700  0.902900  1.0  0.0963
  H  H211  1  0.356900  0.360300  0.492900  1.0  0.1118
  H  H212  1  0.269100  0.544100  0.275900  1.0  0.1051
  H  H213  1  0.908500  0.953700  0.265900  1.0  0.1053
  H  H214  1  0.705300  0.585700  0.814100  1.0  0.0984
  H  H215  1  0.685900  0.414300  0.105100  1.0  0.097
  H  H216  1  0.427900  0.183500  0.460700  1.0  0.1047
  H  H217  1  0.344500  0.097100  0.461300  1.0  0.0942
  H  H218  1  0.294700  0.105100  0.185900  1.0  0.0978
  H  H219  1  0.053500  0.692300  0.053700  1.0  0.0971
  H  H220  1  0.683500  0.927900  0.927900  1.0  0.1037
  H  H221  1  0.095000  0.297800  0.231200  1.0  0.0843
  H  H222  1  0.731200  0.297800  0.595000  1.0  0.086
  H  H223  1  0.992900  0.789900  0.360300  1.0  0.1095
  H  H224  1  0.779700  0.740500  0.200100  1.0  0.103
  H  H225  1  0.643100  0.639700  0.210100  1.0  0.1114
  H  H226  1  0.091500  0.734100  0.128100  1.0  0.1071
  H  H227  1  0.955900  0.089100  0.230900  1.0  0.1062
  H  H228  1  0.044100  0.275900  0.910900  1.0  0.1058
  H  H229  1  0.731200  0.595000  0.376000  1.0  0.0847
  H  H230  1  0.710100  0.507100  0.639700  1.0  0.11
  H  H231  1  0.643100  0.210100  0.639700  1.0  0.1089
  H  H232  1  0.044100  0.910900  0.769100  1.0  0.1064
  H  H233  1  0.007100  0.639700  0.210100  1.0  0.1097
  H  H234  1  0.344500  0.461300  0.097100  1.0  0.0955
  H  H235  1  0.628100  0.591500  0.046300  1.0  0.1058
  H  H236  1  0.797800  0.231200  0.595000  1.0  0.0863
  H  H237  1  0.139700  0.507100  0.143100  1.0  0.1091
  H  H238  1  0.931900  0.431900  0.284900  1.0  0.1077
  H  H239  1  0.685900  0.794700  0.414300  1.0  0.0976
  H  H240  1  0.605100  0.185900  0.414300  1.0  0.0978
  H  H241  1  0.775900  0.910900  0.544100  1.0  0.1076
  H  H242  1  0.705300  0.894900  0.585700  1.0  0.0981
  H  H243  1  0.091500  0.046300  0.128100  1.0  0.1053
  H  H244  1  0.797800  0.595000  0.376000  1.0  0.0846
  H  H245  1  0.202200  0.405000  0.624000  1.0  0.0844
  H  H246  1  0.765900  0.408500  0.953700  1.0  0.1085
  H  H247  1  0.914300  0.185900  0.105100  1.0  0.0958
  H  H248  1  0.007100  0.143100  0.210100  1.0  0.1117
  H  H249  1  0.589100  0.230900  0.724100  1.0  0.1071
  H  H250  1  0.628100  0.046300  0.734100  1.0  0.1067
  H  H251  1  0.824500  0.324500  0.175900  1.0  0.0996
  H  H252  1  0.908500  0.871900  0.265900  1.0  0.1041
  H  H253  1  0.453700  0.265900  0.408500  1.0  0.1044
  H  H254  1  0.824900  0.675500  0.824100  1.0  0.1001
  H  H255  1  0.914300  0.185900  0.794700  1.0  0.0965
  H  H256  1  0.095000  0.231200  0.297800  1.0  0.0852
  H  H257  1  0.992900  0.856900  0.360300  1.0  0.1111
  H  H258  1  0.139700  0.507100  0.210100  1.0  0.1093
  H  H259  1  0.053500  0.200500  0.053700  1.0  0.0969
  H  H260  1  0.851300  0.284900  0.431900  1.0  0.1088
  H  H261  1  0.124000  0.702200  0.405000  1.0  0.0852
  H  H262  1  0.731200  0.376000  0.297800  1.0  0.0855
  H  H263  1  0.427900  0.927900  0.460700  1.0  0.1031
  H  H264  1  0.779700  0.200100  0.279700  1.0  0.1016
  H  H265  1  0.410900  0.544100  0.275900  1.0  0.1062
  H  H266  1  0.038700  0.155500  0.902900  1.0  0.0965
  H  H267  1  0.992900  0.789900  0.856900  1.0  0.1099
  H  H268  1  0.268800  0.624000  0.405000  1.0  0.086
  H  H269  1  0.643100  0.507100  0.639700  1.0  0.1105
  H  H270  1  0.955900  0.230900  0.089100  1.0  0.106
  H  H271  1  0.139700  0.210100  0.507100  1.0  0.1092
  H  H272  1  0.427900  0.183500  0.927900  1.0  0.1043
  H  H273  1  0.402900  0.902900  0.538700  1.0  0.0949
  H  H274  1  0.931900  0.351300  0.284900  1.0  0.1089
  H  H275  1  0.759500  0.720300  0.799900  1.0  0.1022
  H  H276  1  0.685900  0.414300  0.794700  1.0  0.0977
  H  H277  1  0.824900  0.824100  0.675500  1.0  0.1014
  H  H278  1  0.220300  0.799900  0.720300  1.0  0.1021
  H  H279  1  0.220300  0.720300  0.259500  1.0  0.1036
  H  H280  1  0.446300  0.307700  0.446500  1.0  0.0966
  H  H281  1  0.797800  0.595000  0.231200  1.0  0.085
  H  H282  1  0.139700  0.210100  0.143100  1.0  0.1093
  H  H283  1  0.589100  0.230900  0.455900  1.0  0.107
  H  H284  1  0.175500  0.675500  0.324900  1.0  0.0992
  H  H285  1  0.628100  0.734100  0.046300  1.0  0.1077
  H  H286  1  0.700500  0.692300  0.053700  1.0  0.0966
  H  H287  1  0.710100  0.639700  0.507100  1.0  0.1101
  H  H288  1  0.234100  0.046300  0.591500  1.0  0.1051
  H  H289  1  0.851300  0.431900  0.284900  1.0  0.1091
  H  H290  1  0.224100  0.089100  0.230900  1.0  0.1079
  H  H291  1  0.344500  0.097100  0.097100  1.0  0.0953
  H  H292  1  0.628100  0.046300  0.591500  1.0  0.1071
  H  H293  1  0.876000  0.595000  0.231200  1.0  0.0841
  H  H294  1  0.784900  0.351300  0.431900  1.0  0.108
  H  H295  1  0.175500  0.324900  0.824100  1.0  0.0999
  H  H296  1  0.779700  0.279700  0.740500  1.0  0.1041
  H  H297  1  0.299500  0.446500  0.307700  1.0  0.0951
  H  H298  1  0.192300  0.053700  0.200500  1.0  0.0954
  H  H299  1  0.705300  0.814100  0.585700  1.0  0.0967
  H  H300  1  0.453700  0.871900  0.265900  1.0  0.1046
  H  H301  1  0.410900  0.769100  0.275900  1.0  0.1075
  H  H302  1  0.730900  0.089100  0.724100  1.0  0.1058
  H  H303  1  0.316500  0.539300  0.072100  1.0  0.1023
  H  H304  1  0.731200  0.595000  0.297800  1.0  0.085
  H  H305  1  0.446300  0.799500  0.307700  1.0  0.0957
  H  H306  1  0.931900  0.284900  0.351300  1.0  0.1099
  H  H307  1  0.643100  0.210100  0.507100  1.0  0.1091
  H  H308  1  0.402900  0.902900  0.155500  1.0  0.095
  H  H309  1  0.234100  0.591500  0.128100  1.0  0.1079
  H  H310  1  0.192300  0.200500  0.053700  1.0  0.0968
  H  H311  1  0.807700  0.799500  0.946300  1.0  0.0957
  H  H312  1  0.402900  0.155500  0.902900  1.0  0.096
  H  H313  1  0.546300  0.591500  0.734100  1.0  0.105
  H  H314  1  0.946500  0.307700  0.799500  1.0  0.0961
  H  H315  1  0.446300  0.446500  0.307700  1.0  0.0981
  H  H316  1  0.946500  0.799500  0.946300  1.0  0.0967
  H  H317  1  0.685900  0.794700  0.105100  1.0  0.0979
  H  H318  1  0.085700  0.894900  0.205300  1.0  0.0962
  H  H319  1  0.876000  0.297800  0.231200  1.0  0.0849
  H  H320  1  0.710100  0.143100  0.639700  1.0  0.1086
  H  H321  1  0.765900  0.871900  0.953700  1.0  0.1074
  H  H322  1  0.095000  0.376000  0.297800  1.0  0.0847
  H  H323  1  0.765900  0.871900  0.408500  1.0  0.1065
  H  H324  1  0.427900  0.460700  0.183500  1.0  0.1027
  H  H325  1  0.294700  0.414300  0.105100  1.0  0.0987
  H  H326  1  0.139700  0.143100  0.210100  1.0  0.1096
  H  H327  1  0.095000  0.231200  0.376000  1.0  0.085
  H  H328  1  0.643100  0.507100  0.210100  1.0  0.1115
  H  H329  1  0.675900  0.675100  0.324500  1.0  0.099
  H  H330  1  0.289900  0.856900  0.360300  1.0  0.1086
  H  H331  1  0.371900  0.408500  0.265900  1.0  0.1052
  H  H332  1  0.992900  0.856900  0.789900  1.0  0.1103
  H  H333  1  0.905000  0.702200  0.768800  1.0  0.084
  H  H334  1  0.992900  0.360300  0.789900  1.0  0.1105
  H  H335  1  0.224100  0.089100  0.455900  1.0  0.1071
  H  H336  1  0.905000  0.768800  0.702200  1.0  0.0847
  H  H337  1  0.914300  0.794700  0.105100  1.0  0.0974
  H  H338  1  0.091500  0.128100  0.046300  1.0  0.1047
  H  H339  1  0.700500  0.692300  0.553500  1.0  0.0957
  H  H340  1  0.546300  0.591500  0.128100  1.0  0.1053
  H  H341  1  0.124000  0.702200  0.768800  1.0  0.0849
  H  H342  1  0.394900  0.814100  0.205300  1.0  0.098
  H  H343  1  0.553700  0.200500  0.553500  1.0  0.0968
  H  H344  1  0.589100  0.455900  0.230900  1.0  0.1057
  H  H345  1  0.946500  0.799500  0.307700  1.0  0.0957
  H  H346  1  0.553700  0.200500  0.692300  1.0  0.0965
  H  H347  1  0.730900  0.455900  0.724100  1.0  0.1043
  H  H348  1  0.124000  0.405000  0.702200  1.0  0.0829
  H  H349  1  0.655500  0.902900  0.538700  1.0  0.0944
  H  H350  1  0.905000  0.702200  0.624000  1.0  0.0842
  H  H351  1  0.589100  0.724100  0.455900  1.0  0.1061
  H  H352  1  0.446300  0.446500  0.799500  1.0  0.0979
  H  H353  1  0.914300  0.794700  0.185900  1.0  0.0976
  H  H354  1  0.268800  0.702200  0.624000  1.0  0.0858
  H  H355  1  0.240500  0.200100  0.279700  1.0  0.1023
  H  H356  1  0.605100  0.794700  0.414300  1.0  0.0976
  H  H357  1  0.775900  0.544100  0.769100  1.0  0.1071
  H  H358  1  0.730900  0.455900  0.089100  1.0  0.1044
  H  H359  1  0.961300  0.844500  0.097100  1.0  0.0968
  H  H360  1  0.779700  0.740500  0.279700  1.0  0.1027
  H  H361  1  0.960700  0.183500  0.927900  1.0  0.1038
  H  H362  1  0.851300  0.431900  0.431900  1.0  0.1088
  H  H363  1  0.597100  0.097100  0.461300  1.0  0.0946
  H  H364  1  0.299900  0.720300  0.259500  1.0  0.1015
  H  H365  1  0.589100  0.455900  0.724100  1.0  0.106
  H  H366  1  0.992900  0.360300  0.856900  1.0  0.1107
  H  H367  1  0.961300  0.097100  0.097100  1.0  0.097
  H  H368  1  0.446300  0.799500  0.446500  1.0  0.0958
  H  H369  1  0.807700  0.946300  0.446500  1.0  0.0961
  H  H370  1  0.299500  0.307700  0.946300  1.0  0.0967
  H  H371  1  0.091500  0.046300  0.734100  1.0  0.1047
  H  H372  1  0.905000  0.624000  0.768800  1.0  0.085
  H  H373  1  0.039300  0.072100  0.816500  1.0  0.105
  H  H374  1  0.394900  0.205300  0.814100  1.0  0.0977
  H  H375  1  0.700100  0.279700  0.740500  1.0  0.1018
  H  H376  1  0.410900  0.275900  0.769100  1.0  0.1063
  H  H377  1  0.324100  0.675500  0.675500  1.0  0.0995
  H  H378  1  0.314100  0.894900  0.205300  1.0  0.0971
  H  H379  1  0.784900  0.431900  0.351300  1.0  0.1074
  H  H380  1  0.824500  0.675100  0.324500  1.0  0.1001
  H  H381  1  0.700500  0.053700  0.692300  1.0  0.0965
  H  H382  1  0.224100  0.455900  0.089100  1.0  0.107
  H  H383  1  0.053500  0.053700  0.200500  1.0  0.097
  H  H384  1  0.700500  0.553500  0.692300  1.0  0.0945
  H  H385  1  0.299900  0.259500  0.720300  1.0  0.102
  H  H386  1  0.931900  0.284900  0.431900  1.0  0.1097
  H  H387  1  0.394900  0.585700  0.205300  1.0  0.0961
  H  H388  1  0.572100  0.072100  0.816500  1.0  0.1048
  H  H389  1  0.765900  0.408500  0.871900  1.0  0.1076
  H  H390  1  0.683500  0.927900  0.460700  1.0  0.1022
  H  H391  1  0.038700  0.902900  0.155500  1.0  0.0965
  H  H392  1  0.705300  0.814100  0.894900  1.0  0.0966
  H  H393  1  0.268800  0.702200  0.405000  1.0  0.0849
  H  H394  1  0.202200  0.768800  0.624000  1.0  0.0865
  H  H395  1  0.053500  0.053700  0.692300  1.0  0.098
  H  H396  1  0.765900  0.953700  0.871900  1.0  0.1059
  H  H397  1  0.192300  0.200500  0.553500  1.0  0.097
  H  H398  1  0.572100  0.816500  0.539300  1.0  0.1044
  H  H399  1  0.605100  0.185900  0.794700  1.0  0.0969
  H  H400  1  0.946500  0.946300  0.307700  1.0  0.0981
  H  H401  1  0.371900  0.265900  0.953700  1.0  0.1081
  H  H402  1  0.044100  0.769100  0.910900  1.0  0.1056
  H  H403  1  0.316500  0.072100  0.539300  1.0  0.1041
  H  H404  1  0.202200  0.768800  0.405000  1.0  0.0857
  H  H405  1  0.427900  0.927900  0.183500  1.0  0.1052
  H  H406  1  0.589100  0.724100  0.230900  1.0  0.1066
  H  H407  1  0.700500  0.553500  0.053700  1.0  0.0958
  H  H408  1  0.860300  0.856900  0.492900  1.0  0.1096
  H  H409  1  0.068100  0.715100  0.648700  1.0  0.1103
  H  H410  1  0.914300  0.105100  0.794700  1.0  0.096
  H  H411  1  0.824500  0.175900  0.324500  1.0  0.1009
  H  H412  1  0.068100  0.648700  0.568100  1.0  0.1088
  H  H413  1  0.759500  0.720300  0.720300  1.0  0.1022
  H  H414  1  0.446300  0.307700  0.799500  1.0  0.0968
  H  H415  1  0.234100  0.046300  0.128100  1.0  0.1052
  H  H416  1  0.371900  0.265900  0.408500  1.0  0.1072
  H  H417  1  0.007100  0.210100  0.639700  1.0  0.1094
  H  H418  1  0.955900  0.724100  0.089100  1.0  0.1066
  H  H419  1  0.908500  0.871900  0.953700  1.0  0.1027
  H  H420  1  0.085700  0.205300  0.894900  1.0  0.0973
  H  H421  1  0.224100  0.230900  0.455900  1.0  0.1055
  H  H422  1  0.175100  0.175900  0.324500  1.0  0.1015
  H  H423  1  0.710100  0.143100  0.507100  1.0  0.1086
  H  H424  1  0.324100  0.675500  0.324900  1.0  0.0995
  H  H425  1  0.044100  0.275900  0.769100  1.0  0.1056
  H  H426  1  0.175500  0.324900  0.675500  1.0  0.0995
  H  H427  1  0.546300  0.128100  0.734100  1.0  0.1048
  H  H428  1  0.091500  0.734100  0.046300  1.0  0.1073
  H  H429  1  0.124000  0.768800  0.702200  1.0  0.0838
  H  H430  1  0.007100  0.143100  0.639700  1.0  0.111
  H  H431  1  0.876000  0.595000  0.297800  1.0  0.0848
  H  H432  1  0.068100  0.715100  0.568100  1.0  0.1103
  H  H433  1  0.268800  0.405000  0.624000  1.0  0.0848
  H  H434  1  0.220300  0.720300  0.799900  1.0  0.1038
  H  H435  1  0.316500  0.072100  0.072100  1.0  0.1033
  H  H436  1  0.192300  0.053700  0.553500  1.0  0.0951
  H  H437  1  0.553700  0.553500  0.692300  1.0  0.0981
  H  H438  1  0.655500  0.902900  0.902900  1.0  0.0949
  H  H439  1  0.314100  0.205300  0.585700  1.0  0.0972
  H  H440  1  0.215100  0.568100  0.648700  1.0  0.1074
  H  H441  1  0.730900  0.724100  0.455900  1.0  0.1054
  H  H442  1  0.371900  0.408500  0.953700  1.0  0.1056
  H  H443  1  0.192300  0.553500  0.053700  1.0  0.0976
  H  H444  1  0.675900  0.324500  0.675100  1.0  0.0996
  H  H445  1  0.453700  0.408500  0.265900  1.0  0.1053
  H  H446  1  0.546300  0.734100  0.591500  1.0  0.1045
  H  H447  1  0.202200  0.405000  0.768800  1.0  0.0844
  H  H448  1  0.294700  0.185900  0.414300  1.0  0.0965
  H  H449  1  0.289900  0.492900  0.360300  1.0  0.11
  H  H450  1  0.410900  0.769100  0.544100  1.0  0.1071
  H  H451  1  0.876000  0.231200  0.297800  1.0  0.0844
  H  H452  1  0.946500  0.946300  0.799500  1.0  0.097
  H  H453  1  0.356900  0.360300  0.789900  1.0  0.1117
  H  H454  1  0.628100  0.591500  0.734100  1.0  0.1058
  H  H455  1  0.356900  0.492900  0.789900  1.0  0.1105
  H  H456  1  0.124000  0.405000  0.768800  1.0  0.0839
  H  H457  1  0.824500  0.175900  0.675100  1.0  0.101
  H  H458  1  0.427900  0.460700  0.927900  1.0  0.1043
  H  H459  1  0.960700  0.927900  0.183500  1.0  0.1036
  H  H460  1  0.269100  0.275900  0.910900  1.0  0.1054
  H  H461  1  0.797800  0.376000  0.595000  1.0  0.0845
  H  H462  1  0.148700  0.715100  0.568100  1.0  0.1094
  H  H463  1  0.730900  0.089100  0.455900  1.0  0.1063
  H  H464  1  0.175500  0.824100  0.675500  1.0  0.1007
  H  H465  1  0.643100  0.639700  0.507100  1.0  0.1114
  H  H466  1  0.371900  0.953700  0.408500  1.0  0.109
  H  H467  1  0.860300  0.789900  0.492900  1.0  0.1095
  H  H468  1  0.765900  0.953700  0.408500  1.0  0.1044
  H  H469  1  0.314100  0.585700  0.894900  1.0  0.0972
  H  H470  1  0.268800  0.405000  0.702200  1.0  0.0842
  H  H471  1  0.220300  0.259500  0.799900  1.0  0.1028
  H  H472  1  0.705300  0.585700  0.894900  1.0  0.0985
  H  H473  1  0.039300  0.072100  0.072100  1.0  0.1054
  H  H474  1  0.730900  0.724100  0.089100  1.0  0.1053
  H  H475  1  0.202200  0.624000  0.405000  1.0  0.0849
  H  H476  1  0.402900  0.538700  0.155500  1.0  0.096
  H  H477  1  0.605100  0.414300  0.185900  1.0  0.0967
  H  H478  1  0.068100  0.568100  0.715100  1.0  0.1083
  H  H479  1  0.289900  0.856900  0.492900  1.0  0.1081
  H  H480  1  0.148700  0.568100  0.568100  1.0  0.1093
  H  H481  1  0.224100  0.455900  0.230900  1.0  0.1067
  H  H482  1  0.175500  0.675500  0.824100  1.0  0.0998
  H  H483  1  0.085700  0.814100  0.894900  1.0  0.0965
  H  H484  1  0.775900  0.910900  0.769100  1.0  0.108
  H  H485  1  0.731200  0.297800  0.376000  1.0  0.0856
  H  H486  1  0.007100  0.210100  0.143100  1.0  0.1095
  H  H487  1  0.124000  0.768800  0.405000  1.0  0.0837
  H  H488  1  0.269100  0.910900  0.544100  1.0  0.1059
  H  H489  1  0.085700  0.205300  0.814100  1.0  0.0977
  H  H490  1  0.955900  0.089100  0.724100  1.0  0.1066
  H  H491  1  0.905000  0.624000  0.702200  1.0  0.0844
  H  H492  1  0.394900  0.814100  0.585700  1.0  0.0976
  H  H493  1  0.139700  0.143100  0.507100  1.0  0.1093
  H  H494  1  0.710100  0.639700  0.143100  1.0  0.11
  H  H495  1  0.675900  0.324500  0.324500  1.0  0.0993
  H  H496  1  0.955900  0.724100  0.230900  1.0  0.1064
  H  H497  1  0.605100  0.794700  0.185900  1.0  0.0977
  H  H498  1  0.946500  0.307700  0.946300  1.0  0.097
  H  H499  1  0.269100  0.275900  0.544100  1.0  0.1056
  H  H500  1  0.091500  0.128100  0.734100  1.0  0.1029
  H  H501  1  0.299500  0.446500  0.946300  1.0  0.0959
  H  H502  1  0.597100  0.097100  0.844500  1.0  0.0949
  H  H503  1  0.908500  0.265900  0.953700  1.0  0.1065
  H  H504  1  0.908500  0.953700  0.871900  1.0  0.1032
  H  H505  1  0.038700  0.902900  0.902900  1.0  0.0972
  H  H506  1  0.234100  0.128100  0.046300  1.0  0.1068
  H  H507  1  0.175100  0.324500  0.175900  1.0  0.1
  H  H508  1  0.775900  0.544100  0.910900  1.0  0.107
  H  H509  1  0.955900  0.230900  0.724100  1.0  0.1063
  H  H510  1  0.685900  0.105100  0.794700  1.0  0.0971
  H  H511  1  0.731200  0.376000  0.595000  1.0  0.0855
  H  H512  1  0.807700  0.799500  0.446500  1.0  0.0964
  H  H513  1  0.053500  0.692300  0.200500  1.0  0.0963
  H  H514  1  0.402900  0.155500  0.538700  1.0  0.0957
  H  H515  1  0.775900  0.769100  0.910900  1.0  0.1056
  H  H516  1  0.931900  0.351300  0.431900  1.0  0.1088
  H  H517  1  0.597100  0.844500  0.097100  1.0  0.0963
  H  H518  1  0.371900  0.953700  0.265900  1.0  0.1065
  H  H519  1  0.299500  0.946300  0.307700  1.0  0.0965
  H  H520  1  0.044100  0.910900  0.275900  1.0  0.1056
  H  H521  1  0.597100  0.461300  0.844500  1.0  0.096
  H  H522  1  0.220300  0.259500  0.720300  1.0  0.1028
  H  H523  1  0.775900  0.769100  0.544100  1.0  0.1051
  H  H524  1  0.908500  0.265900  0.871900  1.0  0.1047
  H  H525  1  0.700100  0.740500  0.279700  1.0  0.1018
  H  H526  1  0.224100  0.230900  0.089100  1.0  0.1057
  H  H527  1  0.410900  0.544100  0.769100  1.0  0.1072
  H  H528  1  0.240500  0.279700  0.200100  1.0  0.1018
  H  H529  1  0.234100  0.591500  0.046300  1.0  0.1077
  H  H530  1  0.860300  0.492900  0.856900  1.0  0.1095
  H  H531  1  0.085700  0.894900  0.814100  1.0  0.0964
  H  H532  1  0.044100  0.769100  0.275900  1.0  0.1055
  H  H533  1  0.356900  0.789900  0.360300  1.0  0.1088
  H  H534  1  0.876000  0.231200  0.595000  1.0  0.0843
  H  H535  1  0.453700  0.265900  0.871900  1.0  0.1049
  H  H536  1  0.220300  0.799900  0.259500  1.0  0.1013
  H  H537  1  0.807700  0.446500  0.799500  1.0  0.0977
  H  H538  1  0.268800  0.624000  0.702200  1.0  0.0858
  H  H539  1  0.215100  0.648700  0.568100  1.0  0.1081
  H  H540  1  0.175500  0.824100  0.324900  1.0  0.1007
  H  H541  1  0.700500  0.053700  0.553500  1.0  0.0966
  H  H542  1  0.314100  0.894900  0.585700  1.0  0.0966
  H  H543  1  0.085700  0.814100  0.205300  1.0  0.0962
  H  H544  1  0.453700  0.408500  0.871900  1.0  0.1051
  H  H545  1  0.202200  0.624000  0.768800  1.0  0.0848
  H  H546  1  0.453700  0.871900  0.408500  1.0  0.1075
  H  H547  1  0.807700  0.446500  0.946300  1.0  0.0971
  H  H548  1  0.824500  0.675100  0.175900  1.0  0.1001
  H  H549  1  0.759500  0.799900  0.720300  1.0  0.1014
  H  H550  1  0.797800  0.231200  0.376000  1.0  0.0859
  H  H551  1  0.269100  0.544100  0.910900  1.0  0.1056
  H  H552  1  0.314100  0.205300  0.894900  1.0  0.0968
  H  H553  1  0.572100  0.072100  0.539300  1.0  0.1053
  H  H554  1  0.039300  0.816500  0.072100  1.0  0.1052
  H  H555  1  0.148700  0.568100  0.715100  1.0  0.1092
  H  H556  1  0.779700  0.200100  0.740500  1.0  0.1018
  H  H557  1  0.797800  0.376000  0.231200  1.0  0.0846
  H  H558  1  0.192300  0.553500  0.200500  1.0  0.097
  H  H559  1  0.572100  0.539300  0.072100  1.0  0.1025
  H  H560  1  0.269100  0.910900  0.275900  1.0  0.1062
  H  H561  1  0.860300  0.789900  0.856900  1.0  0.1096
  H  H562  1  0.860300  0.492900  0.789900  1.0  0.1093
  H  H563  1  0.683500  0.460700  0.927900  1.0  0.1045
  H  H564  1  0.314100  0.585700  0.205300  1.0  0.0965
  H  H565  1  0.053500  0.200500  0.692300  1.0  0.0966
  H  H566  1  0.068100  0.648700  0.715100  1.0  0.1086
  H  H567  1  0.356900  0.492900  0.360300  1.0  0.1113
  H  H568  1  0.175100  0.324500  0.324500  1.0  0.1
  H  H569  1  0.394900  0.205300  0.585700  1.0  0.0985
  H  H570  1  0.546300  0.734100  0.128100  1.0  0.1046
  H  H571  1  0.961300  0.097100  0.844500  1.0  0.0964
  H  H572  1  0.572100  0.539300  0.816500  1.0  0.1032
  H  H573  1  0.824500  0.324500  0.675100  1.0  0.0993
  H  H574  1  0.628100  0.734100  0.591500  1.0  0.1087
  H  H575  1  0.215100  0.568100  0.568100  1.0  0.1078
  H  H576  1  0.784900  0.431900  0.431900  1.0  0.1074
  H  H577  1  0.876000  0.297800  0.595000  1.0  0.085
  H  H578  1  0.394900  0.585700  0.814100  1.0  0.0961
  H  H579  1  0.294700  0.185900  0.105100  1.0  0.0965
  H  H580  1  0.095000  0.297800  0.376000  1.0  0.0842
  H  H581  1  0.807700  0.946300  0.799500  1.0  0.0957
  H  H582  1  0.294700  0.105100  0.414300  1.0  0.0976
  H  H583  1  0.234100  0.128100  0.591500  1.0  0.1079
  H  H584  1  0.710100  0.507100  0.143100  1.0  0.1095
  H  H585  1  0.553700  0.692300  0.553500  1.0  0.0964
  H  H586  1  0.905000  0.768800  0.624000  1.0  0.0852
  H  H587  1  0.546300  0.128100  0.591500  1.0  0.1051
  H  H588  1  0.095000  0.376000  0.231200  1.0  0.0838
  H  H589  1  0.655500  0.538700  0.902900  1.0  0.0953
  H  H590  1  0.700100  0.279700  0.279700  1.0  0.1016
  H  H591  1  0.324100  0.324900  0.675500  1.0  0.0997
  H  H592  1  0.705300  0.894900  0.814100  1.0  0.0976
  H  H593  1  0.779700  0.279700  0.200100  1.0  0.1036
  H  H594  1  0.553700  0.553500  0.200500  1.0  0.0971
  H  H595  1  0.289900  0.360300  0.856900  1.0  0.1105
  H  H596  1  0.294700  0.414300  0.185900  1.0  0.0987
  H  H597  1  0.356900  0.789900  0.492900  1.0  0.1089
  H  H598  1  0.299500  0.307700  0.446500  1.0  0.0967
  H  H599  1  0.007100  0.639700  0.143100  1.0  0.1094
  H  H600  1  0.605100  0.414300  0.794700  1.0  0.0959
  H  H601  1  0.824900  0.675500  0.675500  1.0  0.1001
  H  H602  1  0.685900  0.105100  0.414300  1.0  0.0973
  H  H603  1  0.931900  0.431900  0.351300  1.0  0.1082
  H  H604  1  0.860300  0.856900  0.789900  1.0  0.1095
  H  H605  1  0.289900  0.360300  0.492900  1.0  0.1104
  H  H606  1  0.597100  0.461300  0.097100  1.0  0.0963
  H  H607  1  0.240500  0.279700  0.279700  1.0  0.1009
  H  H608  1  0.299900  0.720300  0.720300  1.0  0.1023
  H  H609  1  0.597100  0.844500  0.461300  1.0  0.096
  H  H610  1  0.289900  0.492900  0.856900  1.0  0.1095
  H  H611  1  0.572100  0.816500  0.072100  1.0  0.1029
  H  H612  1  0.410900  0.275900  0.544100  1.0  0.1063
  C  C613  1  0.106020  0.312220  0.358420  1.0  -0.0898
  C  C614  1  0.153640  0.190960  0.327700  1.0  0.018
  C  C615  1  0.615170  0.801270  0.163070  1.0  -0.018
  C  C616  1  0.659520  0.450520  0.830080  1.0  0.6985
  C  C617  1  0.384830  0.836930  0.579510  1.0  -0.0172
  C  C618  1  0.141210  0.567590  0.105010  1.0  0.6795
  C  C619  1  0.784920  0.237800  0.739480  1.0  -0.1745
  C  C620  1  0.706000  0.872200  0.973000  1.0  0.7202
  C  C621  1  0.022520  0.778500  0.318040  1.0  -0.1353
  C  C622  1  0.938480  0.821560  0.143620  1.0  -0.1621
  C  C623  1  0.619060  0.221500  0.681960  1.0  -0.1338
  C  C624  1  0.063900  0.610700  0.714700  1.0  -0.1467
  C  C625  1  0.172300  0.346360  0.672300  1.0  0.018
  C  C626  1  0.711010  0.658190  0.506610  1.0  -0.0831
  C  C627  1  0.976200  0.708700  0.223800  1.0  -0.0511
  C  C628  1  0.294000  0.027000  0.127800  1.0  0.7189
  C  C629  1  0.085200  0.109400  0.060400  1.0  -0.0423
  C  C630  1  0.294000  0.551200  0.027000  1.0  0.7204
  C  C631  1  0.412300  0.271100  0.404300  1.0  -0.1778
  C  C632  1  0.791300  0.776200  0.523800  1.0  -0.0492
  C  C633  1  0.706000  0.448800  0.973000  1.0  0.7267
  C  C634  1  0.946320  0.227520  0.679080  1.0  0.7062
  C  C635  1  0.412300  0.404300  0.912300  1.0  -0.1786
  C  C636  1  0.458800  0.499400  0.785600  1.0  0.6892
  C  C637  1  0.089140  0.850400  0.210060  1.0  -0.1689
  C  C638  1  0.965930  0.929130  0.794670  1.0  -0.0361
  C  C639  1  0.715700  0.067460  0.712680  1.0  -0.168
  C  C640  1  0.298220  0.336020  0.901180  1.0  -0.1565
  C  C641  1  0.172300  0.346360  0.809040  1.0  0.0188
  C  C642  1  0.161900  0.661900  0.409540  1.0  -0.0952
  C  C643  1  0.181960  0.119060  0.477480  1.0  -0.1359
  C  C644  1  0.276200  0.523800  0.291300  1.0  -0.0465
  C  C645  1  0.602200  0.564800  0.778200  1.0  -0.1224
  C  C646  1  0.284300  0.287320  0.932540  1.0  -0.1711
  C  C647  1  0.329800  0.829800  0.235260  1.0  0.7021
  C  C648  1  0.805870  0.201890  0.354410  1.0  -0.1427
  C  C649  1  0.389600  0.551920  0.168880  1.0  -0.0185
  C  C650  1  0.187780  0.641580  0.776660  1.0  -0.0921
  C  C651  1  0.575700  0.553700  0.794900  1.0  -0.0298
  C  C652  1  0.106020  0.312220  0.223340  1.0  -0.0911
  C  C653  1  0.340480  0.549480  0.169920  1.0  0.6996
  C  C654  1  0.214840  0.579000  0.627160  1.0  -0.0574
  C  C655  1  0.968500  0.371100  0.289300  1.0  0.7105
  C  C656  1  0.294000  0.027000  0.551200  1.0  0.7181
  C  C657  1  0.161900  0.409540  0.766660  1.0  -0.0919
  C  C658  1  0.706000  0.448800  0.872200  1.0  0.7195
  C  C659  1  0.445200  0.221800  0.435200  1.0  -0.1199
  C  C660  1  0.095700  0.087700  0.087700  1.0  -0.178
  C  C661  1  0.605010  0.186190  0.641210  1.0  0.6792
  C  C662  1  0.705330  0.070870  0.534070  1.0  -0.0363
  C  C663  1  0.128900  0.710700  0.531500  1.0  0.7111
  C  C664  1  0.701890  0.354410  0.637830  1.0  -0.1432
  C  C665  1  0.380940  0.522520  0.318040  1.0  -0.134
  C  C666  1  0.067590  0.105010  0.186190  1.0  0.6762
  C  C667  1  0.894860  0.764740  0.170200  1.0  0.7019
  C  C668  1  0.278100  0.730900  0.730900  1.0  -0.0163
  C  C669  1  0.721500  0.681960  0.477480  1.0  -0.135
  C  C670  1  0.356380  0.561520  0.903660  1.0  -0.1581
  C  C671  1  0.440120  0.549480  0.840480  1.0  0.6983
  C  C672  1  0.649600  0.789940  0.410860  1.0  -0.1719
  C  C673  1  0.266660  0.409540  0.661900  1.0  -0.0907
  C  C674  1  0.215080  0.762200  0.260520  1.0  -0.1766
  C  C675  1  0.034070  0.070870  0.689730  1.0  -0.0358
  C  C676  1  0.965930  0.794670  0.310270  1.0  -0.0335
  C  C677  1  0.705100  0.924300  0.924300  1.0  -0.031
  C  C678  1  0.791300  0.523800  0.776200  1.0  -0.0498
  C  C679  1  0.893980  0.776660  0.687780  1.0  -0.092
  C  C680  1  0.993390  0.875810  0.788990  1.0  -0.0824
  C  C681  1  0.627800  0.551200  0.794000  1.0  0.7259
  C  C682  1  0.541200  0.214400  0.500600  1.0  0.6904
  C  C683  1  0.862170  0.694130  0.645590  1.0  -0.1424
  C  C684  1  0.810270  0.794670  0.465930  1.0  -0.0363
  C  C685  1  0.727520  0.679080  0.446320  1.0  0.7105
  C  C686  1  0.172300  0.809040  0.672300  1.0  0.0189
  C  C687  1  0.401180  0.798220  0.336020  1.0  -0.152
  C  C688  1  0.458800  0.256200  0.785600  1.0  0.6894
  C  C689  1  0.932410  0.358790  0.894990  1.0  0.677
  C  C690  1  0.272480  0.553680  0.320920  1.0  0.7067
  C  C691  1  0.559880  0.450520  0.830080  1.0  0.6985
  C  C692  1  0.723340  0.312220  0.606020  1.0  -0.0909
  C  C693  1  0.298220  0.464580  0.901180  1.0  -0.1551
  C  C694  1  0.408700  0.776200  0.291300  1.0  -0.0504
  C  C695  1  0.587700  0.087700  0.595700  1.0  -0.1807
  C  C696  1  0.570870  0.689730  0.205330  1.0  -0.0345
  C  C697  1  0.827700  0.653640  0.190960  1.0  0.0189
  C  C698  1  0.715700  0.067460  0.504160  1.0  -0.168
  C  C699  1  0.541200  0.214400  0.743800  1.0  0.69
  C  C700  1  0.541200  0.500600  0.743800  1.0  0.6894
  C  C701  1  0.210700  0.531500  0.628900  1.0  0.7149
  C  C702  1  0.609400  0.585200  0.060400  1.0  -0.0433
  C  C703  1  0.329800  0.605140  0.829800  1.0  0.703
  C  C704  1  0.910860  0.789940  0.149600  1.0  -0.1695
  C  C705  1  0.965930  0.310270  0.794670  1.0  -0.0375
  C  C706  1  0.624190  0.506610  0.211010  1.0  -0.0847
  C  C707  1  0.394990  0.813810  0.432410  1.0  0.6781
  C  C708  1  0.591300  0.223800  0.476200  1.0  -0.0496
  C  C709  1  0.812220  0.223340  0.606020  1.0  -0.0905
  C  C710  1  0.245000  0.060400  0.585200  1.0  -0.0431
  C  C711  1  0.977480  0.681960  0.119060  1.0  -0.1351
  C  C712  1  0.610400  0.110400  0.448080  1.0  -0.016
  C  C713  1  0.821380  0.220800  0.737020  1.0  0.6996
  C  C714  1  0.663070  0.801270  0.420490  1.0  -0.0089
  C  C715  1  0.591300  0.708700  0.223800  1.0  -0.0529
  C  C716  1  0.846360  0.672300  0.809040  1.0  0.0169
  C  C717  1  0.375810  0.493390  0.788990  1.0  -0.0837
  C  C718  1  0.458800  0.785600  0.499400  1.0  0.6883
  C  C719  1  0.591300  0.476200  0.223800  1.0  -0.0486
  C  C720  1  0.721800  0.945200  0.435200  1.0  -0.1198
  C  C721  1  0.141210  0.105010  0.186190  1.0  0.681
  C  C722  1  0.189730  0.070870  0.205330  1.0  -0.0363
  C  C723  1  0.686190  0.641210  0.105010  1.0  0.6801
  C  C724  1  0.279200  0.262980  0.779200  1.0  0.7
  C  C725  1  0.408700  0.523800  0.291300  1.0  -0.0473
  C  C726  1  0.237020  0.321380  0.220800  1.0  0.7024
  C  C727  1  0.004160  0.215700  0.712680  1.0  -0.1692
  C  C728  1  0.858790  0.813810  0.432410  1.0  0.6771
  C  C729  1  0.294900  0.075700  0.075700  1.0  -0.0311
  C  C730  1  0.294000  0.127800  0.027000  1.0  0.7194
  C  C731  1  0.178620  0.779200  0.262980  1.0  0.7012
  C  C732  1  0.818040  0.880940  0.522520  1.0  -0.1357
  C  C733  1  0.163980  0.535420  0.201780  1.0  -0.1509
  C  C734  1  0.668880  0.551920  0.889600  1.0  -0.0164
  C  C735  1  0.936100  0.389300  0.389300  1.0  -0.1411
  C  C736  1  0.278500  0.318040  0.522520  1.0  -0.1352
  C  C737  1  0.844100  0.723500  0.806620  1.0  0.7111
  C  C738  1  0.278500  0.318040  0.880940  1.0  -0.1356
  C  C739  1  0.035420  0.098820  0.201780  1.0  -0.1547
  C  C740  1  0.698730  0.836930  0.579510  1.0  -0.0173
  C  C741  1  0.006610  0.124190  0.658190  1.0  -0.0826
  C  C742  1  0.288990  0.875810  0.341810  1.0  -0.0826
  C  C743  1  0.737800  0.237800  0.739480  1.0  -0.178
  C  C744  1  0.294900  0.553700  0.075700  1.0  -0.0285
  C  C745  1  0.575700  0.794900  0.553700  1.0  -0.0304
  C  C746  1  0.051200  0.027000  0.794000  1.0  0.7219
  C  C747  1  0.161900  0.766660  0.661900  1.0  -0.0941
  C  C748  1  0.006610  0.124190  0.211010  1.0  -0.0825
  C  C749  1  0.567460  0.504160  0.215700  1.0  -0.1696
  C  C750  1  0.854410  0.201890  0.637830  1.0  -0.1431
  C  C751  1  0.846360  0.672300  0.672300  1.0  0.0167
  C  C752  1  0.473000  0.448800  0.872200  1.0  0.7242
  C  C753  1  0.841810  0.788990  0.875810  1.0  -0.0863
  C  C754  1  0.791300  0.776200  0.908700  1.0  -0.0495
  C  C755  1  0.329800  0.605140  0.235260  1.0  0.7031
  C  C756  1  0.022520  0.318040  0.778500  1.0  -0.1345
  C  C757  1  0.591300  0.708700  0.476200  1.0  -0.0521
  C  C758  1  0.624190  0.211010  0.658190  1.0  -0.0845
  C  C759  1  0.412300  0.912300  0.271100  1.0  -0.1791
  C  C760  1  0.294670  0.929130  0.310270  1.0  -0.0385
  C  C761  1  0.776500  0.374220  0.655900  1.0  0.7136
  C  C762  1  0.619060  0.681960  0.477480  1.0  -0.1366
  C  C763  1  0.239480  0.237800  0.237800  1.0  -0.1745
  C  C764  1  0.004160  0.215700  0.067460  1.0  -0.1695
  C  C765  1  0.294670  0.465930  0.310270  1.0  -0.0321
  C  C766  1  0.784920  0.237800  0.237800  1.0  -0.1759
  C  C767  1  0.758440  0.341400  0.558760  1.0  0.7264
  C  C768  1  0.643620  0.821560  0.438480  1.0  -0.1611
  C  C769  1  0.591300  0.476200  0.708700  1.0  -0.0481
  C  C770  1  0.179080  0.227520  0.147080  1.0  0.7025
  C  C771  1  0.587700  0.595700  0.728900  1.0  -0.1793
  C  C772  1  0.787320  0.495840  0.932540  1.0  -0.1709
  C  C773  1  0.554800  0.778200  0.102200  1.0  -0.1208
  C  C774  1  0.137830  0.201890  0.354410  1.0  -0.1448
  C  C775  1  0.698730  0.579510  0.836930  1.0  -0.0211
  C  C776  1  0.212680  0.215700  0.067460  1.0  -0.1709
  C  C777  1  0.394990  0.358790  0.432410  1.0  0.6811
  C  C778  1  0.106020  0.358420  0.312220  1.0  -0.0905
  C  C779  1  0.145590  0.362170  0.798110  1.0  -0.1426
  C  C780  1  0.946320  0.679080  0.227520  1.0  0.7066
  C  C781  1  0.668880  0.889600  0.889600  1.0  -0.0156
  C  C782  1  0.993390  0.341810  0.788990  1.0  -0.0838
  C  C783  1  0.022520  0.778500  0.880940  1.0  -0.1354
  C  C784  1  0.137830  0.201890  0.305870  1.0  -0.1452
  C  C785  1  0.155900  0.374220  0.276500  1.0  0.7063
  C  C786  1  0.276660  0.687780  0.641580  1.0  -0.0926
  C  C787  1  0.595800  0.615400  0.693000  1.0  0.7116
  C  C788  1  0.331120  0.110400  0.110400  1.0  -0.0157
  C  C789  1  0.298110  0.362170  0.645590  1.0  -0.1398
  C  C790  1  0.587700  0.087700  0.728900  1.0  -0.1805
  C  C791  1  0.412300  0.404300  0.271100  1.0  -0.1778
  C  C792  1  0.769100  0.221900  0.269100  1.0  -0.0153
  C  C793  1  0.844100  0.806620  0.723500  1.0  0.7111
  C  C794  1  0.663070  0.420490  0.801270  1.0  -0.0148
  C  C795  1  0.141580  0.687780  0.776660  1.0  -0.0886
  C  C796  1  0.004160  0.067460  0.712680  1.0  -0.1677
  C  C797  1  0.627800  0.027000  0.551200  1.0  0.72
  C  C798  1  0.701780  0.663980  0.535420  1.0  -0.1542
  C  C799  1  0.686190  0.105010  0.567590  1.0  0.6821
  C  C800  1  0.921000  0.285160  0.421000  1.0  -0.0616
  C  C801  1  0.627800  0.551200  0.027000  1.0  0.7204
  C  C802  1  0.670200  0.170200  0.764740  1.0  0.7013
  C  C803  1  0.390600  0.255000  0.414800  1.0  -0.0432
  C  C804  1  0.239480  0.284920  0.237800  1.0  -0.1746
  C  C805  1  0.976200  0.223800  0.091300  1.0  -0.0499
  C  C806  1  0.330080  0.159520  0.450520  1.0  0.7021
  C  C807  1  0.756200  0.958800  0.785600  1.0  0.6913
  C  C808  1  0.721800  0.435200  0.945200  1.0  -0.1227
  C  C809  1  0.838100  0.590460  0.338100  1.0  -0.0931
  C  C810  1  0.158600  0.658600  0.741560  1.0  0.7233
  C  C811  1  0.950520  0.159520  0.059880  1.0  0.7039
  C  C812  1  0.609400  0.585200  0.745000  1.0  -0.0428
  C  C813  1  0.158600  0.741560  0.658600  1.0  0.7235
  C  C814  1  0.306620  0.625780  0.344100  1.0  0.7111
  C  C815  1  0.965930  0.794670  0.929130  1.0  -0.0352
  C  C816  1  0.239900  0.269100  0.269100  1.0  -0.0162
  C  C817  1  0.403660  0.856380  0.561520  1.0  -0.1569
  C  C818  1  0.858420  0.223340  0.606020  1.0  -0.0892
  C  C819  1  0.336930  0.579510  0.884830  1.0  -0.0168
  C  C820  1  0.827700  0.327700  0.190960  1.0  0.0177
  C  C821  1  0.871100  0.371100  0.468500  1.0  0.7143
  C  C822  1  0.541200  0.743800  0.500600  1.0  0.6899
  C  C823  1  0.429130  0.794670  0.465930  1.0  -0.0358
  C  C824  1  0.298110  0.645590  0.362170  1.0  -0.1429
  C  C825  1  0.711010  0.124190  0.658190  1.0  -0.0819
  C  C826  1  0.053680  0.852920  0.772480  1.0  0.7033
  C  C827  1  0.061520  0.856380  0.178440  1.0  -0.1576
  C  C828  1  0.266660  0.661900  0.661900  1.0  -0.0949
  C  C829  1  0.670200  0.764740  0.170200  1.0  0.7025
  C  C830  1  0.352920  0.320920  0.553680  1.0  0.712
  C  C831  1  0.340480  0.169920  0.940120  1.0  0.6988
  C  C832  1  0.964580  0.901180  0.798220  1.0  -0.1556
  C  C833  1  0.058760  0.341400  0.258440  1.0  0.7192
  C  C834  1  0.693380  0.374220  0.655900  1.0  0.7118
  C  C835  1  0.776500  0.193380  0.655900  1.0  0.7078
  C  C836  1  0.243800  0.214400  0.500600  1.0  0.6882
  C  C837  1  0.595800  0.095800  0.615400  1.0  0.7117
  C  C838  1  0.649600  0.789940  0.149600  1.0  -0.1721
  C  C839  1  0.874220  0.655900  0.276500  1.0  0.7086
  C  C840  1  0.995840  0.784300  0.932540  1.0  -0.1699
  C  C841  1  0.445200  0.435200  0.897800  1.0  -0.1213
  C  C842  1  0.350400  0.589140  0.210060  1.0  -0.1695
  C  C843  1  0.137830  0.354410  0.201890  1.0  -0.1427
  C  C844  1  0.006610  0.658190  0.124190  1.0  -0.0858
  C  C845  1  0.587700  0.728900  0.595700  1.0  -0.1791
  C  C846  1  0.570870  0.534070  0.205330  1.0  -0.033
  C  C847  1  0.106020  0.223340  0.312220  1.0  -0.0916
  C  C848  1  0.049480  0.940120  0.169920  1.0  0.7008
  C  C849  1  0.023800  0.291300  0.776200  1.0  -0.0496
  C  C850  1  0.701780  0.535420  0.663980  1.0  -0.1512
  C  C851  1  0.914800  0.939600  0.890600  1.0  -0.0396
  C  C852  1  0.384830  0.198730  0.579510  1.0  -0.0164
  C  C853  1  0.932410  0.813810  0.358790  1.0  0.678
  C  C854  1  0.527000  0.127800  0.794000  1.0  0.7194
  C  C855  1  0.245000  0.060400  0.109400  1.0  -0.0439
  C  C856  1  0.559880  0.159520  0.450520  1.0  0.6981
  C  C857  1  0.935200  0.221800  0.945200  1.0  -0.1203
  C  C858  1  0.187780  0.393980  0.776660  1.0  -0.0899
  C  C859  1  0.079000  0.579000  0.714840  1.0  -0.0572
  C  C860  1  0.690960  0.327700  0.327700  1.0  0.0183
  C  C861  1  0.237020  0.220800  0.220800  1.0  0.7046
  C  C862  1  0.698730  0.884830  0.579510  1.0  -0.0204
  C  C863  1  0.889300  0.436100  0.389300  1.0  -0.1415
  C  C864  1  0.128900  0.531500  0.628900  1.0  0.7118
  C  C865  1  0.760100  0.730900  0.730900  1.0  -0.0159
  C  C866  1  0.241560  0.658600  0.441240  1.0  0.7244
  C  C867  1  0.615170  0.420490  0.801270  1.0  -0.0168
  C  C868  1  0.432540  0.784300  0.287320  1.0  -0.1682
  C  C869  1  0.298110  0.694130  0.362170  1.0  -0.1414
  C  C870  1  0.023800  0.776200  0.908700  1.0  -0.0503
  C  C871  1  0.670200  0.764740  0.394860  1.0  0.7025
  C  C872  1  0.079510  0.836930  0.884830  1.0  -0.0155
  C  C873  1  0.212680  0.504160  0.067460  1.0  -0.1694
  C  C874  1  0.194130  0.645590  0.362170  1.0  -0.1444
  C  C875  1  0.285600  0.958800  0.499400  1.0  0.6913
  C  C876  1  0.208700  0.223800  0.091300  1.0  -0.0484
  C  C877  1  0.727520  0.147080  0.679080  1.0  0.7039
  C  C878  1  0.262200  0.762200  0.260520  1.0  -0.1784
  C  C879  1  0.384830  0.579510  0.198730  1.0  -0.0177
  C  C880  1  0.278200  0.564800  0.054800  1.0  -0.1207
  C  C881  1  0.995840  0.932540  0.784300  1.0  -0.1674
  C  C882  1  0.384830  0.198730  0.836930  1.0  -0.0192
  C  C883  1  0.968500  0.371100  0.371100  1.0  0.7114
  C  C884  1  0.755000  0.939600  0.414800  1.0  -0.0435
  C  C885  1  0.598820  0.535420  0.201780  1.0  -0.1523
  C  C886  1  0.760520  0.762200  0.762200  1.0  -0.1768
  C  C887  1  0.095700  0.087700  0.728900  1.0  -0.1789
  C  C888  1  0.340480  0.940120  0.169920  1.0  0.6968
  C  C889  1  0.137830  0.305870  0.354410  1.0  -0.1424
  C  C890  1  0.659520  0.830080  0.059880  1.0  0.6976
  C  C891  1  0.527000  0.551200  0.794000  1.0  0.7194
  C  C892  1  0.721900  0.739900  0.269100  1.0  -0.0151
  C  C893  1  0.105140  0.235260  0.829800  1.0  0.7042
  C  C894  1  0.527000  0.127800  0.551200  1.0  0.7283
  C  C895  1  0.061520  0.903660  0.178440  1.0  -0.159
  C  C896  1  0.051920  0.889600  0.168880  1.0  -0.0167
  C  C897  1  0.769100  0.739900  0.269100  1.0  -0.0161
  C  C898  1  0.079510  0.198730  0.836930  1.0  -0.0166
  C  C899  1  0.158190  0.211010  0.124190  1.0  -0.085
  C  C900  1  0.294670  0.929130  0.465930  1.0  -0.0381
  C  C901  1  0.596340  0.821560  0.438480  1.0  -0.1587
  C  C902  1  0.787320  0.784300  0.495840  1.0  -0.171
  C  C903  1  0.049480  0.169920  0.840480  1.0  0.6989
  C  C904  1  0.723800  0.708700  0.091300  1.0  -0.0466
  C  C905  1  0.560400  0.745000  0.585200  1.0  -0.044
  C  C906  1  0.262200  0.715080  0.762200  1.0  -0.1752
  C  C907  1  0.711010  0.658190  0.124190  1.0  -0.0841
  C  C908  1  0.298110  0.694130  0.645590  1.0  -0.141
  C  C909  1  0.145590  0.694130  0.362170  1.0  -0.144
  C  C910  1  0.946300  0.924300  0.205100  1.0  -0.0293
  C  C911  1  0.051200  0.794000  0.027000  1.0  0.7206
  C  C912  1  0.862170  0.694130  0.798110  1.0  -0.1419
  C  C913  1  0.920490  0.801270  0.163070  1.0  -0.0115
  C  C914  1  0.239900  0.269100  0.221900  1.0  -0.0161
  C  C915  1  0.155900  0.374220  0.193380  1.0  0.707
  C  C916  1  0.893980  0.776660  0.641580  1.0  -0.0914
  C  C917  1  0.914800  0.890600  0.939600  1.0  -0.0425
  C  C918  1  0.439600  0.255000  0.414800  1.0  -0.0423
  C  C919  1  0.125780  0.344100  0.723500  1.0  0.7078
  C  C920  1  0.394990  0.358790  0.813810  1.0  0.6812
  C  C921  1  0.938480  0.821560  0.096340  1.0  -0.1625
  C  C922  1  0.827700  0.327700  0.653640  1.0  0.016
  C  C923  1  0.223500  0.806620  0.625780  1.0  0.7097
  C  C924  1  0.230900  0.260100  0.730900  1.0  -0.0157
  C  C925  1  0.306620  0.344100  0.625780  1.0  0.7113
  C  C926  1  0.053680  0.320920  0.772480  1.0  0.7061
  C  C927  1  0.243800  0.041200  0.214400  1.0  0.6908
  C  C928  1  0.352920  0.772480  0.553680  1.0  0.7045
  C  C929  1  0.643620  0.438480  0.821560  1.0  -0.1605
  C  C930  1  0.737800  0.739480  0.237800  1.0  -0.174
  C  C931  1  0.649600  0.410860  0.149600  1.0  -0.1696
  C  C932  1  0.893980  0.687780  0.641580  1.0  -0.0907
  C  C933  1  0.473000  0.206000  0.448800  1.0  0.7265
  C  C934  1  0.705100  0.924300  0.446300  1.0  -0.0315
  C  C935  1  0.294000  0.127800  0.551200  1.0  0.726
  C  C936  1  0.125780  0.806620  0.723500  1.0  0.7099
  C  C937  1  0.836020  0.798220  0.901180  1.0  -0.1576
  C  C938  1  0.330080  0.450520  0.159520  1.0  0.7007
  C  C939  1  0.408700  0.291300  0.776200  1.0  -0.0503
  C  C940  1  0.276660  0.393980  0.687780  1.0  -0.0901
  C  C941  1  0.909540  0.661900  0.766660  1.0  -0.0924
  C  C942  1  0.721800  0.897800  0.435200  1.0  -0.1221
  C  C943  1  0.289940  0.410860  0.149600  1.0  -0.1704
  C  C944  1  0.329800  0.235260  0.829800  1.0  0.7019
  C  C945  1  0.161900  0.766660  0.409540  1.0  -0.0939
  C  C946  1  0.301270  0.420490  0.163070  1.0  -0.0173
  C  C947  1  0.276200  0.908700  0.523800  1.0  -0.0483
  C  C948  1  0.397800  0.435200  0.221800  1.0  -0.1222
  C  C949  1  0.115400  0.693000  0.095800  1.0  0.7117
  C  C950  1  0.445200  0.897800  0.435200  1.0  -0.1196
  C  C951  1  0.064800  0.778200  0.102200  1.0  -0.1177
  C  C952  1  0.812220  0.606020  0.223340  1.0  -0.0912
  C  C953  1  0.627800  0.794000  0.551200  1.0  0.7209
  C  C954  1  0.194130  0.645590  0.798110  1.0  -0.1453
  C  C955  1  0.610400  0.448080  0.110400  1.0  -0.0179
  C  C956  1  0.921000  0.372840  0.285160  1.0  -0.0603
  C  C957  1  0.179080  0.446320  0.227520  1.0  0.7064
  C  C958  1  0.158600  0.441240  0.658600  1.0  0.7216
  C  C959  1  0.760520  0.715080  0.762200  1.0  -0.1748
  C  C960  1  0.278500  0.880940  0.522520  1.0  -0.1347
  C  C961  1  0.372200  0.448800  0.206000  1.0  0.7256
  C  C962  1  0.288990  0.493390  0.341810  1.0  -0.0825
  C  C963  1  0.723340  0.358420  0.606020  1.0  -0.0887
  C  C964  1  0.158190  0.506610  0.124190  1.0  -0.0859
  C  C965  1  0.085200  0.745000  0.109400  1.0  -0.0429
  C  C966  1  0.000600  0.041200  0.743800  1.0  0.6899
  C  C967  1  0.976200  0.091300  0.223800  1.0  -0.0479
  C  C968  1  0.893980  0.687780  0.776660  1.0  -0.0903
  C  C969  1  0.776500  0.193380  0.374220  1.0  0.7082
  C  C970  1  0.715700  0.504160  0.712680  1.0  -0.1676
  C  C971  1  0.812220  0.358420  0.606020  1.0  -0.0906
  C  C972  1  0.189730  0.205330  0.070870  1.0  -0.0368
  C  C973  1  0.193000  0.095800  0.095800  1.0  0.7076
  C  C974  1  0.758440  0.341400  0.341400  1.0  0.7259
  C  C975  1  0.698730  0.884830  0.836930  1.0  -0.0195
  C  C976  1  0.053680  0.320920  0.852920  1.0  0.7028
  C  C977  1  0.189730  0.070870  0.534070  1.0  -0.0351
  C  C978  1  0.458800  0.499400  0.256200  1.0  0.6889
  C  C979  1  0.223500  0.344100  0.806620  1.0  0.7121
  C  C980  1  0.372200  0.206000  0.448800  1.0  0.7207
  C  C981  1  0.619060  0.477480  0.681960  1.0  -0.1359
  C  C982  1  0.762980  0.779200  0.779200  1.0  0.7039
  C  C983  1  0.128900  0.628900  0.531500  1.0  0.7148
  C  C984  1  0.760100  0.778100  0.730900  1.0  -0.0141
  C  C985  1  0.208700  0.223800  0.476200  1.0  -0.0485
  C  C986  1  0.760520  0.762200  0.715080  1.0  -0.1758
  C  C987  1  0.403660  0.561520  0.178440  1.0  -0.1598
  C  C988  1  0.871100  0.289300  0.371100  1.0  0.7108
  C  C989  1  0.432540  0.495840  0.287320  1.0  -0.1687
  C  C990  1  0.698730  0.579510  0.884830  1.0  -0.0203
  C  C991  1  0.678440  0.561520  0.856380  1.0  -0.1597
  C  C992  1  0.756200  0.785600  0.499400  1.0  0.6881
  C  C993  1  0.874220  0.276500  0.193380  1.0  0.7112
  C  C994  1  0.874220  0.655900  0.193380  1.0  0.7086
  C  C995  1  0.769100  0.221900  0.739900  1.0  -0.0145
  C  C996  1  0.401180  0.798220  0.464580  1.0  -0.1515
  C  C997  1  0.390600  0.414800  0.255000  1.0  -0.0442
  C  C998  1  0.278200  0.054800  0.102200  1.0  -0.1167
  C  C999  1  0.127160  0.579000  0.579000  1.0  -0.0588
  C  C1000  1  0.172300  0.672300  0.809040  1.0  0.0163
  C  C1001  1  0.210700  0.628900  0.628900  1.0  0.7147
  C  C1002  1  0.380940  0.318040  0.522520  1.0  -0.1357
  C  C1003  1  0.570870  0.205330  0.689730  1.0  -0.0361
  C  C1004  1  0.155900  0.193380  0.276500  1.0  0.7098
  C  C1005  1  0.031500  0.628900  0.628900  1.0  0.7115
  C  C1006  1  0.214700  0.563900  0.610700  1.0  -0.1413
  C  C1007  1  0.789300  0.468500  0.371100  1.0  0.7145
  C  C1008  1  0.309040  0.346360  0.672300  1.0  0.0211
  C  C1009  1  0.340480  0.169920  0.549480  1.0  0.6984
  C  C1010  1  0.705100  0.446300  0.924300  1.0  -0.0296
  C  C1011  1  0.403660  0.856380  0.178440  1.0  -0.1575
  C  C1012  1  0.805870  0.637830  0.354410  1.0  -0.1423
  C  C1013  1  0.854410  0.637830  0.201890  1.0  -0.1411
  C  C1014  1  0.904300  0.912300  0.912300  1.0  -0.1797
  C  C1015  1  0.058760  0.341400  0.341400  1.0  0.7185
  C  C1016  1  0.000600  0.214400  0.743800  1.0  0.6897
  C  C1017  1  0.948080  0.110400  0.831120  1.0  -0.0182
  C  C1018  1  0.587700  0.728900  0.087700  1.0  -0.1784
  C  C1019  1  0.053680  0.772480  0.320920  1.0  0.7066
  C  C1020  1  0.871100  0.468500  0.371100  1.0  0.712
  C  C1021  1  0.789300  0.371100  0.468500  1.0  0.7143
  C  C1022  1  0.031500  0.628900  0.710700  1.0  0.7112
  C  C1023  1  0.141580  0.393980  0.687780  1.0  -0.0873
  C  C1024  1  0.889300  0.436100  0.285300  1.0  -0.1441
  C  C1025  1  0.110700  0.610700  0.714700  1.0  -0.1471
  C  C1026  1  0.356380  0.178440  0.561520  1.0  -0.1601
  C  C1027  1  0.105140  0.829800  0.829800  1.0  0.7064
  C  C1028  1  0.313810  0.894990  0.432410  1.0  0.6809
  C  C1029  1  0.710060  0.850400  0.589140  1.0  -0.1696
  C  C1030  1  0.914800  0.255000  0.890600  1.0  -0.0419
  C  C1031  1  0.445200  0.221800  0.897800  1.0  -0.12
  C  C1032  1  0.285600  0.499400  0.958800  1.0  0.6917
  C  C1033  1  0.999400  0.785600  0.256200  1.0  0.6891
  C  C1034  1  0.193000  0.095800  0.615400  1.0  0.7074
  C  C1035  1  0.473000  0.872200  0.206000  1.0  0.7218
  C  C1036  1  0.276200  0.291300  0.908700  1.0  -0.0462
  C  C1037  1  0.298220  0.464580  0.336020  1.0  -0.1518
  C  C1038  1  0.278200  0.102200  0.564800  1.0  -0.1216
  C  C1039  1  0.285600  0.958800  0.256200  1.0  0.6917
  C  C1040  1  0.570870  0.689730  0.534070  1.0  -0.0335
  C  C1041  1  0.595800  0.615400  0.095800  1.0  0.7113
  C  C1042  1  0.284300  0.932540  0.495840  1.0  -0.1694
  C  C1043  1  0.051920  0.889600  0.889600  1.0  -0.0171
  C  C1044  1  0.061520  0.178440  0.856380  1.0  -0.1607
  C  C1045  1  0.733340  0.590460  0.338100  1.0  -0.0941
  C  C1046  1  0.541200  0.500600  0.214400  1.0  0.6886
  C  C1047  1  0.079000  0.627160  0.714840  1.0  -0.0579
  C  C1048  1  0.615170  0.801270  0.420490  1.0  -0.0197
  C  C1049  1  0.575700  0.553700  0.075700  1.0  -0.0296
  C  C1050  1  0.179080  0.446320  0.147080  1.0  0.7056
  C  C1051  1  0.575700  0.075700  0.794900  1.0  -0.0301
  C  C1052  1  0.605010  0.186190  0.567590  1.0  0.6793
  C  C1053  1  0.598820  0.535420  0.663980  1.0  -0.1522
  C  C1054  1  0.690960  0.653640  0.327700  1.0  0.0216
  C  C1055  1  0.187780  0.393980  0.641580  1.0  -0.0896
  C  C1056  1  0.610400  0.110400  0.831120  1.0  -0.0169
  C  C1057  1  0.127160  0.579000  0.714840  1.0  -0.0584
  C  C1058  1  0.841400  0.258440  0.341400  1.0  0.7227
  C  C1059  1  0.214700  0.610700  0.563900  1.0  -0.1408
  C  C1060  1  0.663070  0.115170  0.801270  1.0  -0.017
  C  C1061  1  0.862170  0.798110  0.694130  1.0  -0.1432
  C  C1062  1  0.858420  0.312220  0.223340  1.0  -0.0876
  C  C1063  1  0.701890  0.354410  0.305870  1.0  -0.1438
  C  C1064  1  0.805870  0.354410  0.201890  1.0  -0.1413
  C  C1065  1  0.575700  0.794900  0.075700  1.0  -0.0314
  C  C1066  1  0.705330  0.689730  0.534070  1.0  -0.0352
  C  C1067  1  0.161900  0.409540  0.661900  1.0  -0.094
  C  C1068  1  0.329800  0.235260  0.605140  1.0  0.7021
  C  C1069  1  0.710060  0.589140  0.850400  1.0  -0.1697
  C  C1070  1  0.941240  0.741560  0.658600  1.0  0.7233
  C  C1071  1  0.375810  0.788990  0.341810  1.0  -0.0848
  C  C1072  1  0.619060  0.221500  0.477480  1.0  -0.1345
  C  C1073  1  0.272480  0.320920  0.553680  1.0  0.7102
  C  C1074  1  0.807000  0.904200  0.904200  1.0  0.7082
  C  C1075  1  0.836020  0.464580  0.901180  1.0  -0.1544
  C  C1076  1  0.560400  0.109400  0.745000  1.0  -0.0424
  C  C1077  1  0.771100  0.912300  0.404300  1.0  -0.1787
  C  C1078  1  0.243800  0.214400  0.041200  1.0  0.6881
  C  C1079  1  0.163980  0.098820  0.201780  1.0  -0.1571
  C  C1080  1  0.678440  0.903660  0.856380  1.0  -0.1587
  C  C1081  1  0.067590  0.105010  0.641210  1.0  0.6775
  C  C1082  1  0.397800  0.945200  0.435200  1.0  -0.1196
  C  C1083  1  0.031500  0.710700  0.628900  1.0  0.7096
  C  C1084  1  0.187780  0.776660  0.393980  1.0  -0.0918
  C  C1085  1  0.706000  0.973000  0.448800  1.0  0.7259
  C  C1086  1  0.262200  0.260520  0.762200  1.0  -0.1739
  C  C1087  1  0.932410  0.894990  0.813810  1.0  0.6781
  C  C1088  1  0.964580  0.336020  0.901180  1.0  -0.1532
  C  C1089  1  0.429130  0.310270  0.465930  1.0  -0.0334
  C  C1090  1  0.720800  0.737020  0.220800  1.0  0.6982
  C  C1091  1  0.706000  0.872200  0.448800  1.0  0.7219
  C  C1092  1  0.701890  0.305870  0.637830  1.0  -0.1434
  C  C1093  1  0.158190  0.124190  0.506610  1.0  -0.0823
  C  C1094  1  0.735260  0.829800  0.829800  1.0  0.7067
  C  C1095  1  0.785160  0.421000  0.372840  1.0  -0.0572
  C  C1096  1  0.408700  0.291300  0.523800  1.0  -0.0513
  C  C1097  1  0.871100  0.289300  0.468500  1.0  0.7111
  C  C1098  1  0.701780  0.098820  0.663980  1.0  -0.1552
  C  C1099  1  0.554800  0.102200  0.564800  1.0  -0.1223
  C  C1100  1  0.223500  0.344100  0.625780  1.0  0.7136
  C  C1101  1  0.527000  0.794000  0.551200  1.0  0.717
  C  C1102  1  0.805870  0.354410  0.637830  1.0  -0.1426
  C  C1103  1  0.228900  0.087700  0.087700  1.0  -0.1792
  C  C1104  1  0.776500  0.655900  0.193380  1.0  0.714
  C  C1105  1  0.163980  0.201780  0.098820  1.0  -0.1565
  C  C1106  1  0.181960  0.119060  0.221500  1.0  -0.1355
  C  C1107  1  0.948080  0.831120  0.110400  1.0  -0.0177
  C  C1108  1  0.163980  0.201780  0.535420  1.0  -0.1538
  C  C1109  1  0.690960  0.327700  0.653640  1.0  0.0186
  C  C1110  1  0.298220  0.901180  0.464580  1.0  -0.1552
  C  C1111  1  0.000600  0.743800  0.214400  1.0  0.6896
  C  C1112  1  0.356380  0.178440  0.903660  1.0  -0.1611
  C  C1113  1  0.950520  0.059880  0.830080  1.0  0.7004
  C  C1114  1  0.404200  0.384600  0.904200  1.0  0.7105
  C  C1115  1  0.245000  0.109400  0.060400  1.0  -0.0378
  C  C1116  1  0.051200  0.794000  0.127800  1.0  0.7283
  C  C1117  1  0.085200  0.060400  0.745000  1.0  -0.0406
  C  C1118  1  0.403660  0.178440  0.856380  1.0  -0.1588
  C  C1119  1  0.874220  0.193380  0.276500  1.0  0.7092
  C  C1120  1  0.541200  0.743800  0.214400  1.0  0.6902
  C  C1121  1  0.155900  0.193380  0.374220  1.0  0.7098
  C  C1122  1  0.602200  0.778200  0.054800  1.0  -0.1211
  C  C1123  1  0.615170  0.163070  0.801270  1.0  -0.0179
  C  C1124  1  0.331120  0.110400  0.448080  1.0  -0.0149
  C  C1125  1  0.401180  0.336020  0.798220  1.0  -0.1528
  C  C1126  1  0.445200  0.435200  0.221800  1.0  -0.121
  C  C1127  1  0.762980  0.779200  0.678620  1.0  0.7035
  C  C1128  1  0.720800  0.220800  0.321380  1.0  0.6979
  C  C1129  1  0.920490  0.115170  0.801270  1.0  -0.0168
  C  C1130  1  0.838100  0.338100  0.590460  1.0  -0.0924
  C  C1131  1  0.884600  0.904200  0.307000  1.0  0.7126
  C  C1132  1  0.821380  0.737020  0.220800  1.0  0.6978
  C  C1133  1  0.615170  0.420490  0.163070  1.0  -0.0178
  C  C1134  1  0.079000  0.714840  0.627160  1.0  -0.0621
  C  C1135  1  0.723800  0.091300  0.708700  1.0  -0.0477
  C  C1136  1  0.298220  0.901180  0.336020  1.0  -0.1549
  C  C1137  1  0.053700  0.794900  0.075700  1.0  -0.0288
  C  C1138  1  0.678440  0.903660  0.561520  1.0  -0.1584
  C  C1139  1  0.701890  0.637830  0.305870  1.0  -0.1428
  C  C1140  1  0.935200  0.221800  0.897800  1.0  -0.1219
  C  C1141  1  0.473000  0.206000  0.872200  1.0  0.7248
  C  C1142  1  0.284300  0.932540  0.287320  1.0  -0.1691
  C  C1143  1  0.787320  0.784300  0.932540  1.0  -0.1708
  C  C1144  1  0.976200  0.708700  0.091300  1.0  -0.0507
  C  C1145  1  0.210700  0.628900  0.531500  1.0  0.7143
  C  C1146  1  0.872840  0.421000  0.285160  1.0  -0.0598
  C  C1147  1  0.128900  0.628900  0.710700  1.0  0.714
  C  C1148  1  0.051200  0.127800  0.027000  1.0  0.7203
  C  C1149  1  0.432540  0.287320  0.784300  1.0  -0.1684
  C  C1150  1  0.701890  0.305870  0.354410  1.0  -0.1432
  C  C1151  1  0.301270  0.420490  0.115170  1.0  -0.0199
  C  C1152  1  0.330080  0.159520  0.059880  1.0  0.7017
  C  C1153  1  0.243800  0.500600  0.041200  1.0  0.6908
  C  C1154  1  0.181960  0.477480  0.119060  1.0  -0.1337
  C  C1155  1  0.313810  0.432410  0.894990  1.0  0.6812
  C  C1156  1  0.993390  0.788990  0.875810  1.0  -0.0855
  C  C1157  1  0.404200  0.904200  0.307000  1.0  0.7139
  C  C1158  1  0.179080  0.227520  0.446320  1.0  0.7079
  C  C1159  1  0.807000  0.384600  0.904200  1.0  0.7098
  C  C1160  1  0.921000  0.285160  0.372840  1.0  -0.0612
  C  C1161  1  0.179080  0.147080  0.446320  1.0  0.7107
  C  C1162  1  0.352920  0.320920  0.772480  1.0  0.7113
  C  C1163  1  0.272480  0.320920  0.852920  1.0  0.7111
  C  C1164  1  0.935200  0.897800  0.945200  1.0  -0.1203
  C  C1165  1  0.950520  0.830080  0.159520  1.0  0.6988
  C  C1166  1  0.596340  0.143620  0.821560  1.0  -0.1573
  C  C1167  1  0.034070  0.689730  0.205330  1.0  -0.0352
  C  C1168  1  0.298110  0.645590  0.694130  1.0  -0.1424
  C  C1169  1  0.647080  0.227520  0.446320  1.0  0.7056
  C  C1170  1  0.686190  0.641210  0.567590  1.0  0.6808
  C  C1171  1  0.228900  0.595700  0.087700  1.0  -0.1783
  C  C1172  1  0.596340  0.821560  0.143620  1.0  -0.1594
  C  C1173  1  0.155900  0.276500  0.193380  1.0  0.7135
  C  C1174  1  0.999400  0.256200  0.785600  1.0  0.6893
  C  C1175  1  0.755000  0.414800  0.890600  1.0  -0.0435
  C  C1176  1  0.715700  0.712680  0.067460  1.0  -0.1704
  C  C1177  1  0.721900  0.269100  0.269100  1.0  -0.016
  C  C1178  1  0.053680  0.772480  0.852920  1.0  0.7063
  C  C1179  1  0.230900  0.778100  0.730900  1.0  -0.0152
  C  C1180  1  0.720800  0.220800  0.737020  1.0  0.6967
  C  C1181  1  0.737800  0.237800  0.284920  1.0  -0.1783
  C  C1182  1  0.380940  0.778500  0.522520  1.0  -0.1339
  C  C1183  1  0.904300  0.271100  0.912300  1.0  -0.1758
  C  C1184  1  0.321560  0.096340  0.438480  1.0  -0.1567
  C  C1185  1  0.999400  0.958800  0.256200  1.0  0.6901
  C  C1186  1  0.560400  0.109400  0.585200  1.0  -0.0432
  C  C1187  1  0.705330  0.534070  0.689730  1.0  -0.0298
  C  C1188  1  0.977480  0.221500  0.681960  1.0  -0.1352
  C  C1189  1  0.858420  0.606020  0.312220  1.0  -0.0875
  C  C1190  1  0.721500  0.477480  0.681960  1.0  -0.1318
  C  C1191  1  0.356380  0.561520  0.178440  1.0  -0.1592
  C  C1192  1  0.390600  0.939600  0.414800  1.0  -0.041
  C  C1193  1  0.567460  0.215700  0.712680  1.0  -0.1685
  C  C1194  1  0.336930  0.579510  0.198730  1.0  -0.0186
  C  C1195  1  0.340480  0.549480  0.940120  1.0  0.6999
  C  C1196  1  0.560400  0.585200  0.745000  1.0  -0.0424
  C  C1197  1  0.394990  0.432410  0.813810  1.0  0.6795
  C  C1198  1  0.705330  0.070870  0.689730  1.0  -0.0376
  C  C1199  1  0.920490  0.163070  0.801270  1.0  -0.0175
  C  C1200  1  0.110700  0.714700  0.563900  1.0  -0.1447
  C  C1201  1  0.278200  0.564800  0.102200  1.0  -0.1211
  C  C1202  1  0.999400  0.785600  0.958800  1.0  0.6885
  C  C1203  1  0.375810  0.788990  0.493390  1.0  -0.085
  C  C1204  1  0.306620  0.723500  0.625780  1.0  0.7105
  C  C1205  1  0.935200  0.945200  0.221800  1.0  -0.1206
  C  C1206  1  0.560400  0.745000  0.109400  1.0  -0.0427
  C  C1207  1  0.313810  0.358790  0.432410  1.0  0.6814
  C  C1208  1  0.820920  0.772480  0.553680  1.0  0.7059
  C  C1209  1  0.647080  0.679080  0.446320  1.0  0.7101
  C  C1210  1  0.079510  0.836930  0.198730  1.0  -0.015
  C  C1211  1  0.158600  0.741560  0.441240  1.0  0.7226
  C  C1212  1  0.321560  0.438480  0.143620  1.0  -0.1631
  C  C1213  1  0.706000  0.973000  0.872200  1.0  0.7185
  C  C1214  1  0.714400  0.500600  0.743800  1.0  0.6923
  C  C1215  1  0.262200  0.762200  0.715080  1.0  -0.1769
  C  C1216  1  0.714400  0.041200  0.500600  1.0  0.6916
  C  C1217  1  0.276200  0.908700  0.291300  1.0  -0.047
  C  C1218  1  0.380940  0.318040  0.778500  1.0  -0.136
  C  C1219  1  0.559880  0.159520  0.830080  1.0  0.7
  C  C1220  1  0.619060  0.681960  0.221500  1.0  -0.1365
  C  C1221  1  0.128900  0.531500  0.710700  1.0  0.7113
  C  C1222  1  0.424300  0.446300  0.205100  1.0  -0.0297
  C  C1223  1  0.721500  0.477480  0.119060  1.0  -0.1322
  C  C1224  1  0.812220  0.606020  0.358420  1.0  -0.0896
  C  C1225  1  0.827700  0.190960  0.653640  1.0  0.0176
  C  C1226  1  0.686190  0.567590  0.105010  1.0  0.6813
  C  C1227  1  0.208700  0.091300  0.476200  1.0  -0.0512
  C  C1228  1  0.649600  0.410860  0.789940  1.0  -0.1687
  C  C1229  1  0.737800  0.739480  0.284920  1.0  -0.1747
  C  C1230  1  0.424300  0.205100  0.924300  1.0  -0.029
  C  C1231  1  0.336930  0.198730  0.884830  1.0  -0.0173
  C  C1232  1  0.306620  0.723500  0.344100  1.0  0.7106
  C  C1233  1  0.810270  0.465930  0.929130  1.0  -0.0376
  C  C1234  1  0.841810  0.875810  0.493390  1.0  -0.083
  C  C1235  1  0.701890  0.637830  0.354410  1.0  -0.1424
  C  C1236  1  0.288990  0.493390  0.875810  1.0  -0.0835
  C  C1237  1  0.375810  0.341810  0.788990  1.0  -0.0834
  C  C1238  1  0.935200  0.945200  0.897800  1.0  -0.118
  C  C1239  1  0.313810  0.432410  0.358790  1.0  0.6811
  C  C1240  1  0.723340  0.606020  0.312220  1.0  -0.0898
  C  C1241  1  0.735260  0.829800  0.605140  1.0  0.7066
  C  C1242  1  0.241560  0.441240  0.658600  1.0  0.7239
  C  C1243  1  0.605010  0.567590  0.641210  1.0  0.6796
  C  C1244  1  0.212680  0.067460  0.504160  1.0  -0.1697
  C  C1245  1  0.841810  0.875810  0.788990  1.0  -0.082
  C  C1246  1  0.854410  0.305870  0.201890  1.0  -0.1417
  C  C1247  1  0.921000  0.372840  0.421000  1.0  -0.0569
  C  C1248  1  0.023800  0.908700  0.776200  1.0  -0.0454
  C  C1249  1  0.090460  0.338100  0.233340  1.0  -0.0941
  C  C1250  1  0.838100  0.233340  0.338100  1.0  -0.0945
  C  C1251  1  0.372200  0.973000  0.206000  1.0  0.7283
  C  C1252  1  0.858790  0.813810  0.894990  1.0  0.6774
  C  C1253  1  0.089140  0.210060  0.850400  1.0  -0.1706
  C  C1254  1  0.624190  0.506610  0.658190  1.0  -0.0839
  C  C1255  1  0.659520  0.059880  0.450520  1.0  0.6975
  C  C1256  1  0.440120  0.169920  0.549480  1.0  0.6954
  C  C1257  1  0.115400  0.095800  0.095800  1.0  0.7128
  C  C1258  1  0.022520  0.880940  0.778500  1.0  -0.1357
  C  C1259  1  0.276660  0.687780  0.393980  1.0  -0.0924
  C  C1260  1  0.946320  0.147080  0.227520  1.0  0.7036
  C  C1261  1  0.663070  0.801270  0.115170  1.0  -0.0144
  C  C1262  1  0.909540  0.766660  0.661900  1.0  -0.0904
  C  C1263  1  0.785300  0.389300  0.436100  1.0  -0.1436
  C  C1264  1  0.977480  0.119060  0.221500  1.0  -0.1336
  C  C1265  1  0.858420  0.223340  0.312220  1.0  -0.0891
  C  C1266  1  0.401180  0.464580  0.798220  1.0  -0.1534
  C  C1267  1  0.085200  0.109400  0.745000  1.0  -0.0386
  C  C1268  1  0.993390  0.341810  0.875810  1.0  -0.0849
  C  C1269  1  0.214700  0.610700  0.610700  1.0  -0.1419
  C  C1270  1  0.598820  0.201780  0.535420  1.0  -0.1499
  C  C1271  1  0.591300  0.223800  0.708700  1.0  -0.0507
  C  C1272  1  0.889300  0.389300  0.285300  1.0  -0.1462
  C  C1273  1  0.245000  0.585200  0.060400  1.0  -0.0431
  C  C1274  1  0.714400  0.743800  0.041200  1.0  0.6907
  C  C1275  1  0.567460  0.504160  0.712680  1.0  -0.1692
  C  C1276  1  0.647080  0.446320  0.679080  1.0  0.7065
  C  C1277  1  0.812220  0.358420  0.223340  1.0  -0.092
  C  C1278  1  0.720800  0.321380  0.220800  1.0  0.7001
  C  C1279  1  0.189730  0.534070  0.070870  1.0  -0.0376
  C  C1280  1  0.279200  0.262980  0.678620  1.0  0.6995
  C  C1281  1  0.110700  0.714700  0.610700  1.0  -0.1449
  C  C1282  1  0.659520  0.450520  0.059880  1.0  0.698
  C  C1283  1  0.787320  0.932540  0.495840  1.0  -0.1675
  C  C1284  1  0.264740  0.170200  0.170200  1.0  0.7085
  C  C1285  1  0.440120  0.169920  0.840480  1.0  0.695
  C  C1286  1  0.284300  0.495840  0.932540  1.0  -0.1682
  C  C1287  1  0.807000  0.904200  0.384600  1.0  0.7085
  C  C1288  1  0.153640  0.327700  0.190960  1.0  0.0184
  C  C1289  1  0.404200  0.307000  0.904200  1.0  0.711
  C  C1290  1  0.245000  0.109400  0.585200  1.0  -0.0405
  C  C1291  1  0.106020  0.223340  0.358420  1.0  -0.0926
  C  C1292  1  0.941240  0.658600  0.658600  1.0  0.7203
  C  C1293  1  0.715700  0.712680  0.504160  1.0  -0.1706
  C  C1294  1  0.649600  0.149600  0.410860  1.0  -0.168
  C  C1295  1  0.643620  0.821560  0.096340  1.0  -0.1611
  C  C1296  1  0.301270  0.115170  0.163070  1.0  -0.0185
  C  C1297  1  0.403660  0.178440  0.561520  1.0  -0.1585
  C  C1298  1  0.403660  0.561520  0.856380  1.0  -0.1612
  C  C1299  1  0.141210  0.567590  0.186190  1.0  0.6776
  C  C1300  1  0.964580  0.798220  0.336020  1.0  -0.1549
  C  C1301  1  0.301270  0.163070  0.115170  1.0  -0.0189
  C  C1302  1  0.264740  0.170200  0.394860  1.0  0.7077
  C  C1303  1  0.181960  0.221500  0.119060  1.0  -0.1347
  C  C1304  1  0.755000  0.939600  0.890600  1.0  -0.0405
  C  C1305  1  0.228900  0.087700  0.595700  1.0  -0.1798
  C  C1306  1  0.871100  0.468500  0.289300  1.0  0.7117
  C  C1307  1  0.669920  0.940120  0.840480  1.0  0.7011
  C  C1308  1  0.932410  0.813810  0.894990  1.0  0.678
  C  C1309  1  0.063900  0.610700  0.610700  1.0  -0.1435
  C  C1310  1  0.372200  0.448800  0.973000  1.0  0.7244
  C  C1311  1  0.950520  0.059880  0.159520  1.0  0.6999
  C  C1312  1  0.627800  0.794000  0.027000  1.0  0.7226
  C  C1313  1  0.818040  0.880940  0.778500  1.0  -0.1361
  C  C1314  1  0.932410  0.894990  0.358790  1.0  0.6761
  C  C1315  1  0.846360  0.809040  0.672300  1.0  0.0186
  C  C1316  1  0.668880  0.889600  0.551920  1.0  -0.0151
  C  C1317  1  0.756200  0.785600  0.958800  1.0  0.6882
  C  C1318  1  0.894860  0.170200  0.170200  1.0  0.7058
  C  C1319  1  0.871100  0.371100  0.289300  1.0  0.7146
  C  C1320  1  0.155900  0.276500  0.374220  1.0  0.7123
  C  C1321  1  0.127160  0.714840  0.579000  1.0  -0.0579
  C  C1322  1  0.079510  0.198730  0.884830  1.0  -0.0174
  C  C1323  1  0.023800  0.776200  0.291300  1.0  -0.0501
  C  C1324  1  0.727520  0.147080  0.446320  1.0  0.7098
  C  C1325  1  0.023800  0.908700  0.291300  1.0  -0.0451
  C  C1326  1  0.909540  0.661900  0.661900  1.0  -0.0948
  C  C1327  1  0.194130  0.362170  0.798110  1.0  -0.1438
  C  C1328  1  0.723800  0.708700  0.476200  1.0  -0.0468
  C  C1329  1  0.836020  0.901180  0.798220  1.0  -0.1561
  C  C1330  1  0.554800  0.564800  0.102200  1.0  -0.1213
  C  C1331  1  0.762980  0.678620  0.779200  1.0  0.7039
  C  C1332  1  0.733340  0.338100  0.590460  1.0  -0.0951
  C  C1333  1  0.006610  0.658190  0.211010  1.0  -0.0839
  C  C1334  1  0.936100  0.285300  0.389300  1.0  -0.1446
  C  C1335  1  0.948800  0.973000  0.206000  1.0  0.7224
  C  C1336  1  0.178620  0.779200  0.779200  1.0  0.7003
  C  C1337  1  0.384830  0.836930  0.198730  1.0  -0.0153
  C  C1338  1  0.756200  0.499400  0.958800  1.0  0.6918
  C  C1339  1  0.266660  0.661900  0.409540  1.0  -0.0951
  C  C1340  1  0.771100  0.404300  0.912300  1.0  -0.1789
  C  C1341  1  0.723340  0.606020  0.358420  1.0  -0.0905
  C  C1342  1  0.278500  0.880940  0.318040  1.0  -0.1356
  C  C1343  1  0.375810  0.341810  0.493390  1.0  -0.0833
  C  C1344  1  0.820920  0.852920  0.553680  1.0  0.711
  C  C1345  1  0.397800  0.435200  0.945200  1.0  -0.1222
  C  C1346  1  0.649600  0.149600  0.789940  1.0  -0.1676
  C  C1347  1  0.721900  0.269100  0.739900  1.0  -0.016
  C  C1348  1  0.889300  0.389300  0.436100  1.0  -0.1433
  C  C1349  1  0.301270  0.115170  0.420490  1.0  -0.0184
  C  C1350  1  0.663070  0.115170  0.420490  1.0  -0.0171
  C  C1351  1  0.278500  0.522520  0.318040  1.0  -0.1332
  C  C1352  1  0.805870  0.637830  0.201890  1.0  -0.1428
  C  C1353  1  0.181960  0.477480  0.221500  1.0  -0.1336
  C  C1354  1  0.330080  0.059880  0.159520  1.0  0.7018
  C  C1355  1  0.841400  0.558760  0.341400  1.0  0.7211
  C  C1356  1  0.527000  0.794000  0.127800  1.0  0.7259
  C  C1357  1  0.035420  0.098820  0.663980  1.0  -0.1556
  C  C1358  1  0.035420  0.663980  0.201780  1.0  -0.1505
  C  C1359  1  0.669920  0.840480  0.940120  1.0  0.7014
  C  C1360  1  0.439600  0.414800  0.255000  1.0  -0.0395
  C  C1361  1  0.412300  0.271100  0.912300  1.0  -0.1786
  C  C1362  1  0.723340  0.312220  0.358420  1.0  -0.0915
  C  C1363  1  0.289940  0.149600  0.410860  1.0  -0.1706
  C  C1364  1  0.993390  0.788990  0.341810  1.0  -0.0848
  C  C1365  1  0.294900  0.075700  0.553700  1.0  -0.0304
  C  C1366  1  0.821380  0.220800  0.220800  1.0  0.7003
  C  C1367  1  0.976200  0.091300  0.708700  1.0  -0.0473
  C  C1368  1  0.737800  0.284920  0.237800  1.0  -0.176
  C  C1369  1  0.394990  0.432410  0.358790  1.0  0.6785
  C  C1370  1  0.049480  0.169920  0.940120  1.0  0.6995
  C  C1371  1  0.309040  0.672300  0.346360  1.0  0.0203
  C  C1372  1  0.264740  0.394860  0.170200  1.0  0.7051
  C  C1373  1  0.389600  0.168880  0.889600  1.0  -0.0164
  C  C1374  1  0.141580  0.393980  0.776660  1.0  -0.0893
  C  C1375  1  0.964580  0.336020  0.798220  1.0  -0.1505
  C  C1376  1  0.602200  0.778200  0.564800  1.0  -0.1228
  C  C1377  1  0.776500  0.374220  0.193380  1.0  0.7134
  C  C1378  1  0.141210  0.186190  0.105010  1.0  0.678
  C  C1379  1  0.872840  0.421000  0.421000  1.0  -0.0575
  C  C1380  1  0.602200  0.564800  0.054800  1.0  -0.1216
  C  C1381  1  0.473000  0.448800  0.206000  1.0  0.7232
  C  C1382  1  0.067590  0.186190  0.105010  1.0  0.6789
  C  C1383  1  0.609400  0.060400  0.585200  1.0  -0.0426
  C  C1384  1  0.932410  0.358790  0.813810  1.0  0.6784
  C  C1385  1  0.051200  0.027000  0.127800  1.0  0.7212
  C  C1386  1  0.262200  0.715080  0.260520  1.0  -0.1764
  C  C1387  1  0.158600  0.441240  0.741560  1.0  0.7198
  C  C1388  1  0.064800  0.102200  0.778200  1.0  -0.1217
  C  C1389  1  0.022520  0.880940  0.318040  1.0  -0.1335
  C  C1390  1  0.432540  0.495840  0.784300  1.0  -0.168
  C  C1391  1  0.000600  0.743800  0.041200  1.0  0.6888
  C  C1392  1  0.570870  0.205330  0.534070  1.0  -0.0359
  C  C1393  1  0.350400  0.210060  0.589140  1.0  -0.171
  C  C1394  1  0.964580  0.901180  0.336020  1.0  -0.1541
  C  C1395  1  0.723340  0.358420  0.312220  1.0  -0.0893
  C  C1396  1  0.787320  0.932540  0.784300  1.0  -0.1673
  C  C1397  1  0.294000  0.551200  0.127800  1.0  0.7216
  C  C1398  1  0.022520  0.318040  0.880940  1.0  -0.1337
  C  C1399  1  0.946320  0.679080  0.147080  1.0  0.7054
  C  C1400  1  0.223500  0.806620  0.344100  1.0  0.7097
  C  C1401  1  0.352920  0.553680  0.320920  1.0  0.7064
  C  C1402  1  0.276660  0.393980  0.641580  1.0  -0.0889
  C  C1403  1  0.090460  0.233340  0.338100  1.0  -0.0936
  C  C1404  1  0.844100  0.723500  0.625780  1.0  0.7117
  C  C1405  1  0.836020  0.901180  0.464580  1.0  -0.1561
  C  C1406  1  0.301270  0.163070  0.420490  1.0  -0.0193
  C  C1407  1  0.756200  0.499400  0.785600  1.0  0.6911
  C  C1408  1  0.769100  0.739900  0.221900  1.0  -0.0155
  C  C1409  1  0.079510  0.884830  0.198730  1.0  -0.0154
  C  C1410  1  0.141580  0.776660  0.687780  1.0  -0.0897
  C  C1411  1  0.214840  0.579000  0.579000  1.0  -0.0571
  C  C1412  1  0.587700  0.595700  0.087700  1.0  -0.179
  C  C1413  1  0.064800  0.054800  0.778200  1.0  -0.1196
  C  C1414  1  0.701780  0.098820  0.535420  1.0  -0.1554
  C  C1415  1  0.284300  0.287320  0.495840  1.0  -0.172
  C  C1416  1  0.841400  0.258440  0.558760  1.0  0.7217
  C  C1417  1  0.215080  0.260520  0.762200  1.0  -0.1753
  C  C1418  1  0.336930  0.884830  0.579510  1.0  -0.0174
  C  C1419  1  0.397800  0.221800  0.435200  1.0  -0.1208
  C  C1420  1  0.710060  0.850400  0.850400  1.0  -0.1712
  C  C1421  1  0.189730  0.534070  0.205330  1.0  -0.0359
  C  C1422  1  0.061520  0.856380  0.903660  1.0  -0.1576
  C  C1423  1  0.598820  0.201780  0.663980  1.0  -0.1498
  C  C1424  1  0.429130  0.465930  0.310270  1.0  -0.0337
  C  C1425  1  0.787320  0.495840  0.784300  1.0  -0.1685
  C  C1426  1  0.595800  0.095800  0.693000  1.0  0.7119
  C  C1427  1  0.285600  0.256200  0.958800  1.0  0.6911
  C  C1428  1  0.313810  0.358790  0.894990  1.0  0.6818
  C  C1429  1  0.458800  0.256200  0.499400  1.0  0.69
  C  C1430  1  0.187780  0.641580  0.393980  1.0  -0.091
  C  C1431  1  0.223500  0.625780  0.344100  1.0  0.7123
  C  C1432  1  0.854410  0.305870  0.637830  1.0  -0.143
  C  C1433  1  0.288990  0.875810  0.493390  1.0  -0.0816
  C  C1434  1  0.429130  0.465930  0.794670  1.0  -0.0328
  C  C1435  1  0.298110  0.362170  0.694130  1.0  -0.1402
  C  C1436  1  0.948800  0.872200  0.973000  1.0  0.7218
  C  C1437  1  0.350400  0.850400  0.210060  1.0  -0.1681
  C  C1438  1  0.329800  0.829800  0.605140  1.0  0.7003
  C  C1439  1  0.223500  0.625780  0.806620  1.0  0.7125
  C  C1440  1  0.723800  0.091300  0.476200  1.0  -0.0472
  C  C1441  1  0.330080  0.059880  0.450520  1.0  0.7008
  C  C1442  1  0.278500  0.522520  0.880940  1.0  -0.1337
  C  C1443  1  0.145590  0.362170  0.694130  1.0  -0.143
  C  C1444  1  0.105140  0.829800  0.235260  1.0  0.7071
  C  C1445  1  0.812220  0.223340  0.358420  1.0  -0.0914
  C  C1446  1  0.067590  0.641210  0.105010  1.0  0.6779
  C  C1447  1  0.243800  0.041200  0.500600  1.0  0.6904
  C  C1448  1  0.110700  0.563900  0.610700  1.0  -0.1426
  C  C1449  1  0.279200  0.678620  0.779200  1.0  0.6997
  C  C1450  1  0.085200  0.060400  0.109400  1.0  -0.0408
  C  C1451  1  0.178620  0.262980  0.779200  1.0  0.6993
  C  C1452  1  0.153640  0.327700  0.327700  1.0  0.0191
  C  C1453  1  0.894860  0.170200  0.764740  1.0  0.7057
  C  C1454  1  0.596340  0.438480  0.821560  1.0  -0.1607
  C  C1455  1  0.181960  0.221500  0.477480  1.0  -0.135
  C  C1456  1  0.670200  0.394860  0.764740  1.0  0.701
  C  C1457  1  0.820920  0.852920  0.772480  1.0  0.7055
  C  C1458  1  0.172300  0.672300  0.346360  1.0  0.018
  C  C1459  1  0.874220  0.276500  0.655900  1.0  0.7113
  C  C1460  1  0.424300  0.924300  0.446300  1.0  -0.0299
  C  C1461  1  0.893980  0.641580  0.687780  1.0  -0.0899
  C  C1462  1  0.785300  0.436100  0.389300  1.0  -0.1426
  C  C1463  1  0.262200  0.260520  0.715080  1.0  -0.1726
  C  C1464  1  0.760100  0.730900  0.778100  1.0  -0.0159
  C  C1465  1  0.285600  0.256200  0.499400  1.0  0.6911
  C  C1466  1  0.693380  0.655900  0.276500  1.0  0.7131
  C  C1467  1  0.321560  0.143620  0.438480  1.0  -0.1585
  C  C1468  1  0.085200  0.745000  0.060400  1.0  -0.0413
  C  C1469  1  0.560400  0.585200  0.109400  1.0  -0.0396
  C  C1470  1  0.340480  0.940120  0.549480  1.0  0.6998
  C  C1471  1  0.938480  0.143620  0.096340  1.0  -0.1592
  C  C1472  1  0.161900  0.661900  0.766660  1.0  -0.0942
  C  C1473  1  0.605010  0.641210  0.567590  1.0  0.6813
  C  C1474  1  0.624190  0.211010  0.506610  1.0  -0.084
  C  C1475  1  0.948800  0.973000  0.872200  1.0  0.7221
  C  C1476  1  0.854410  0.637830  0.305870  1.0  -0.1407
  C  C1477  1  0.946320  0.147080  0.679080  1.0  0.7036
  C  C1478  1  0.889300  0.285300  0.389300  1.0  -0.1451
  C  C1479  1  0.079510  0.884830  0.836930  1.0  -0.0172
  C  C1480  1  0.350400  0.850400  0.589140  1.0  -0.1675
  C  C1481  1  0.575700  0.075700  0.553700  1.0  -0.0296
  C  C1482  1  0.714400  0.743800  0.500600  1.0  0.6907
  C  C1483  1  0.404200  0.307000  0.384600  1.0  0.7107
  C  C1484  1  0.678440  0.856380  0.903660  1.0  -0.1588
  C  C1485  1  0.755000  0.890600  0.939600  1.0  -0.0389
  C  C1486  1  0.844100  0.806620  0.625780  1.0  0.7111
  C  C1487  1  0.067590  0.186190  0.641210  1.0  0.6788
  C  C1488  1  0.723800  0.476200  0.708700  1.0  -0.0465
  C  C1489  1  0.554800  0.778200  0.564800  1.0  -0.1212
  C  C1490  1  0.158600  0.658600  0.441240  1.0  0.723
  C  C1491  1  0.559880  0.450520  0.159520  1.0  0.6981
  C  C1492  1  0.408700  0.776200  0.523800  1.0  -0.0512
  C  C1493  1  0.208700  0.091300  0.223800  1.0  -0.0524
  C  C1494  1  0.609400  0.745000  0.060400  1.0  -0.0382
  C  C1495  1  0.858790  0.432410  0.813810  1.0  0.6792
  C  C1496  1  0.276200  0.523800  0.908700  1.0  -0.0473
  C  C1497  1  0.884600  0.307000  0.904200  1.0  0.7118
  C  C1498  1  0.610400  0.831120  0.448080  1.0  -0.0179
  C  C1499  1  0.194130  0.798110  0.645590  1.0  -0.1429
  C  C1500  1  0.914800  0.890600  0.255000  1.0  -0.0398
  C  C1501  1  0.827700  0.653640  0.327700  1.0  0.0201
  C  C1502  1  0.089140  0.850400  0.850400  1.0  -0.1677
  C  C1503  1  0.858420  0.606020  0.223340  1.0  -0.088
  C  C1504  1  0.977480  0.681960  0.221500  1.0  -0.1349
  C  C1505  1  0.977480  0.221500  0.119060  1.0  -0.1347
  C  C1506  1  0.758440  0.558760  0.341400  1.0  0.7254
  C  C1507  1  0.678440  0.561520  0.903660  1.0  -0.1619
  C  C1508  1  0.609400  0.060400  0.745000  1.0  -0.0395
  C  C1509  1  0.669920  0.940120  0.549480  1.0  0.7015
  C  C1510  1  0.965930  0.310270  0.929130  1.0  -0.0377
  C  C1511  1  0.194130  0.362170  0.645590  1.0  -0.1439
  C  C1512  1  0.237020  0.220800  0.321380  1.0  0.7055
  C  C1513  1  0.141210  0.105010  0.567590  1.0  0.6808
  C  C1514  1  0.189730  0.205330  0.534070  1.0  -0.0361
  C  C1515  1  0.158190  0.506610  0.211010  1.0  -0.0842
  C  C1516  1  0.053700  0.075700  0.794900  1.0  -0.0284
  C  C1517  1  0.948800  0.206000  0.872200  1.0  0.7203
  C  C1518  1  0.390600  0.255000  0.939600  1.0  -0.0428
  C  C1519  1  0.805870  0.201890  0.637830  1.0  -0.1423
  C  C1520  1  0.408700  0.523800  0.776200  1.0  -0.0482
  C  C1521  1  0.321560  0.143620  0.096340  1.0  -0.1576
  C  C1522  1  0.429130  0.310270  0.794670  1.0  -0.0323
  C  C1523  1  0.698730  0.836930  0.884830  1.0  -0.0163
  C  C1524  1  0.820920  0.553680  0.772480  1.0  0.7057
  C  C1525  1  0.595800  0.693000  0.615400  1.0  0.709
  C  C1526  1  0.049480  0.840480  0.169920  1.0  0.7043
  C  C1527  1  0.964580  0.798220  0.901180  1.0  -0.1579
  C  C1528  1  0.285600  0.499400  0.256200  1.0  0.6925
  C  C1529  1  0.306620  0.344100  0.723500  1.0  0.7114
  C  C1530  1  0.858790  0.432410  0.894990  1.0  0.6784
  C  C1531  1  0.995840  0.784300  0.287320  1.0  -0.1711
  C  C1532  1  0.948080  0.110400  0.110400  1.0  -0.0178
  C  C1533  1  0.321560  0.438480  0.096340  1.0  -0.1615
  C  C1534  1  0.841400  0.341400  0.558760  1.0  0.7223
  C  C1535  1  0.820920  0.772480  0.852920  1.0  0.7021
  C  C1536  1  0.921000  0.421000  0.285160  1.0  -0.0588
  C  C1537  1  0.858420  0.312220  0.606020  1.0  -0.0869
  C  C1538  1  0.874220  0.193380  0.655900  1.0  0.709
  C  C1539  1  0.567460  0.712680  0.504160  1.0  -0.1702
  C  C1540  1  0.440120  0.840480  0.169920  1.0  0.6968
  C  C1541  1  0.067590  0.641210  0.186190  1.0  0.6761
  C  C1542  1  0.872840  0.285160  0.421000  1.0  -0.0578
  C  C1543  1  0.141210  0.186190  0.567590  1.0  0.6782
  C  C1544  1  0.145590  0.694130  0.798110  1.0  -0.1447
  C  C1545  1  0.404200  0.384600  0.307000  1.0  0.7114
  C  C1546  1  0.920490  0.163070  0.115170  1.0  -0.0108
  C  C1547  1  0.686190  0.105010  0.641210  1.0  0.681
  C  C1548  1  0.372200  0.973000  0.448800  1.0  0.7276
  C  C1549  1  0.669920  0.549480  0.840480  1.0  0.7018
  C  C1550  1  0.598820  0.663980  0.201780  1.0  -0.1538
  C  C1551  1  0.243800  0.500600  0.214400  1.0  0.6913
  C  C1552  1  0.791300  0.908700  0.776200  1.0  -0.0507
  C  C1553  1  0.397800  0.945200  0.221800  1.0  -0.1195
  C  C1554  1  0.771100  0.912300  0.912300  1.0  -0.179
  C  C1555  1  0.401180  0.464580  0.336020  1.0  -0.152
  C  C1556  1  0.214840  0.627160  0.579000  1.0  -0.0543
  C  C1557  1  0.965930  0.929130  0.310270  1.0  -0.0362
  C  C1558  1  0.914800  0.939600  0.255000  1.0  -0.0376
  C  C1559  1  0.276660  0.641580  0.687780  1.0  -0.0894
  C  C1560  1  0.158190  0.124190  0.211010  1.0  -0.0826
  C  C1561  1  0.284300  0.495840  0.287320  1.0  -0.1698
  C  C1562  1  0.006610  0.211010  0.124190  1.0  -0.0856
  C  C1563  1  0.321560  0.096340  0.143620  1.0  -0.1568
  C  C1564  1  0.278200  0.102200  0.054800  1.0  -0.1189
  C  C1565  1  0.049480  0.940120  0.840480  1.0  0.7017
  C  C1566  1  0.279200  0.678620  0.262980  1.0  0.7011
  C  C1567  1  0.714400  0.500600  0.041200  1.0  0.6929
  C  C1568  1  0.615170  0.163070  0.420490  1.0  -0.0183
  C  C1569  1  0.554800  0.564800  0.778200  1.0  -0.1213
  C  C1570  1  0.596340  0.438480  0.143620  1.0  -0.1585
  C  C1571  1  0.818040  0.522520  0.778500  1.0  -0.1336
  C  C1572  1  0.727520  0.679080  0.147080  1.0  0.704
  C  C1573  1  0.711010  0.124190  0.506610  1.0  -0.0806
  C  C1574  1  0.356380  0.903660  0.178440  1.0  -0.1577
  C  C1575  1  0.693380  0.276500  0.374220  1.0  0.7107
  C  C1576  1  0.125780  0.344100  0.806620  1.0  0.707
  C  C1577  1  0.424300  0.924300  0.205100  1.0  -0.029
  C  C1578  1  0.791300  0.908700  0.523800  1.0  -0.0521
  C  C1579  1  0.643620  0.096340  0.438480  1.0  -0.1547
  C  C1580  1  0.230900  0.778100  0.260100  1.0  -0.0156
  C  C1581  1  0.429130  0.794670  0.310270  1.0  -0.0347
  C  C1582  1  0.352920  0.772480  0.320920  1.0  0.7004
  C  C1583  1  0.110700  0.610700  0.563900  1.0  -0.144
  C  C1584  1  0.993390  0.875810  0.341810  1.0  -0.0841
  C  C1585  1  0.595800  0.693000  0.095800  1.0  0.7099
  C  C1586  1  0.356380  0.903660  0.561520  1.0  -0.1572
  C  C1587  1  0.567460  0.215700  0.504160  1.0  -0.168
  C  C1588  1  0.721800  0.897800  0.945200  1.0  -0.1193
  C  C1589  1  0.627800  0.027000  0.794000  1.0  0.7198
  C  C1590  1  0.208700  0.476200  0.091300  1.0  -0.051
  C  C1591  1  0.693380  0.374220  0.276500  1.0  0.7122
  C  C1592  1  0.810270  0.929130  0.465930  1.0  -0.0356
  C  C1593  1  0.390600  0.414800  0.939600  1.0  -0.044
  C  C1594  1  0.818040  0.778500  0.522520  1.0  -0.1358
  C  C1595  1  0.294670  0.310270  0.465930  1.0  -0.0363
  C  C1596  1  0.401180  0.336020  0.464580  1.0  -0.1533
  C  C1597  1  0.904300  0.912300  0.271100  1.0  -0.179
  C  C1598  1  0.380940  0.522520  0.778500  1.0  -0.1357
  C  C1599  1  0.440120  0.549480  0.169920  1.0  0.6979
  C  C1600  1  0.838100  0.338100  0.233340  1.0  -0.0914
  C  C1601  1  0.278200  0.054800  0.564800  1.0  -0.12
  C  C1602  1  0.350400  0.589140  0.850400  1.0  -0.1685
  C  C1603  1  0.141580  0.776660  0.393980  1.0  -0.0902
  C  C1604  1  0.755000  0.890600  0.414800  1.0  -0.0342
  C  C1605  1  0.445200  0.897800  0.221800  1.0  -0.1196
  C  C1606  1  0.647080  0.679080  0.227520  1.0  0.7106
  C  C1607  1  0.394990  0.813810  0.358790  1.0  0.6789
  C  C1608  1  0.064800  0.778200  0.054800  1.0  -0.1171
  C  C1609  1  0.663070  0.420490  0.115170  1.0  -0.0159
  C  C1610  1  0.841810  0.788990  0.493390  1.0  -0.0845
  C  C1611  1  0.298220  0.336020  0.464580  1.0  -0.1532
  C  C1612  1  0.336930  0.198730  0.579510  1.0  -0.0121
  C  C1613  1  0.230900  0.260100  0.778100  1.0  -0.0159
  C  C1614  1  0.389600  0.551920  0.889600  1.0  -0.0181
  C  C1615  1  0.602200  0.054800  0.564800  1.0  -0.1221
  C  C1616  1  0.605010  0.567590  0.186190  1.0  0.6774
  C  C1617  1  0.208700  0.476200  0.223800  1.0  -0.0514
  C  C1618  1  0.720800  0.737020  0.321380  1.0  0.6985
  C  C1619  1  0.841810  0.493390  0.788990  1.0  -0.0831
  C  C1620  1  0.230900  0.730900  0.778100  1.0  -0.0171
  C  C1621  1  0.619060  0.477480  0.221500  1.0  -0.1351
  C  C1622  1  0.810270  0.794670  0.929130  1.0  -0.0366
  C  C1623  1  0.375810  0.493390  0.341810  1.0  -0.0853
  C  C1624  1  0.721500  0.119060  0.681960  1.0  -0.133
  C  C1625  1  0.350400  0.210060  0.850400  1.0  -0.1715
  C  C1626  1  0.272480  0.852920  0.553680  1.0  0.7109
  C  C1627  1  0.035420  0.201780  0.663980  1.0  -0.1535
  C  C1628  1  0.727520  0.446320  0.679080  1.0  0.7104
  C  C1629  1  0.643620  0.096340  0.821560  1.0  -0.156
  C  C1630  1  0.659520  0.830080  0.450520  1.0  0.6978
  C  C1631  1  0.670200  0.170200  0.394860  1.0  0.7027
  C  C1632  1  0.624190  0.658190  0.211010  1.0  -0.0838
  C  C1633  1  0.789300  0.371100  0.371100  1.0  0.7145
  C  C1634  1  0.006610  0.211010  0.658190  1.0  -0.0829
  C  C1635  1  0.294670  0.465930  0.929130  1.0  -0.0326
  C  C1636  1  0.714400  0.041200  0.743800  1.0  0.6914
  C  C1637  1  0.278100  0.730900  0.260100  1.0  -0.0152
  C  C1638  1  0.862170  0.798110  0.645590  1.0  -0.1426
  C  C1639  1  0.647080  0.227520  0.679080  1.0  0.7053
  C  C1640  1  0.936100  0.389300  0.285300  1.0  -0.1443
  C  C1641  1  0.145590  0.798110  0.362170  1.0  -0.1437
  C  C1642  1  0.064800  0.102200  0.054800  1.0  -0.1192
  C  C1643  1  0.884600  0.904200  0.904200  1.0  0.7131
  C  C1644  1  0.212680  0.215700  0.504160  1.0  -0.1708
  C  C1645  1  0.527000  0.551200  0.127800  1.0  0.72
  C  C1646  1  0.844100  0.625780  0.806620  1.0  0.7067
  C  C1647  1  0.711010  0.506610  0.124190  1.0  -0.0832
  C  C1648  1  0.827700  0.190960  0.327700  1.0  0.018
  C  C1649  1  0.810270  0.929130  0.794670  1.0  -0.0353
  C  C1650  1  0.390600  0.939600  0.255000  1.0  -0.0444
  C  C1651  1  0.559880  0.830080  0.159520  1.0  0.6959
  C  C1652  1  0.439600  0.255000  0.890600  1.0  -0.0423
  C  C1653  1  0.785160  0.421000  0.421000  1.0  -0.0589
  C  C1654  1  0.610400  0.448080  0.831120  1.0  -0.0189
  C  C1655  1  0.389600  0.168880  0.551920  1.0  -0.0167
  C  C1656  1  0.755000  0.414800  0.939600  1.0  -0.0446
  C  C1657  1  0.776500  0.655900  0.374220  1.0  0.7133
  C  C1658  1  0.914800  0.255000  0.939600  1.0  -0.0405
  C  C1659  1  0.605010  0.641210  0.186190  1.0  0.6809
  C  C1660  1  0.893980  0.641580  0.776660  1.0  -0.0915
  C  C1661  1  0.995840  0.287320  0.784300  1.0  -0.1688
  C  C1662  1  0.567460  0.712680  0.215700  1.0  -0.1701
  C  C1663  1  0.977480  0.119060  0.681960  1.0  -0.1349
  C  C1664  1  0.145590  0.798110  0.694130  1.0  -0.1434
  C  C1665  1  0.910860  0.149600  0.789940  1.0  -0.1677
  C  C1666  1  0.598820  0.663980  0.535420  1.0  -0.1531
  C  C1667  1  0.921000  0.421000  0.372840  1.0  -0.0551
  C  C1668  1  0.276660  0.641580  0.393980  1.0  -0.0893
  C  C1669  1  0.389600  0.889600  0.168880  1.0  -0.0169
  C  C1670  1  0.125780  0.723500  0.806620  1.0  0.7105
  C  C1671  1  0.862170  0.645590  0.798110  1.0  -0.1424
  C  C1672  1  0.432540  0.287320  0.495840  1.0  -0.1686
  C  C1673  1  0.647080  0.446320  0.227520  1.0  0.7017
  C  C1674  1  0.125780  0.723500  0.344100  1.0  0.7104
  C  C1675  1  0.179080  0.147080  0.227520  1.0  0.7109
  C  C1676  1  0.838100  0.590460  0.233340  1.0  -0.092
  C  C1677  1  0.701780  0.535420  0.098820  1.0  -0.1549
  C  C1678  1  0.818040  0.522520  0.880940  1.0  -0.1332
  C  C1679  1  0.063900  0.714700  0.610700  1.0  -0.1443
  C  C1680  1  0.785300  0.389300  0.389300  1.0  -0.1437
  C  C1681  1  0.079000  0.579000  0.627160  1.0  -0.0562
  C  C1682  1  0.289940  0.149600  0.149600  1.0  -0.1708
  C  C1683  1  0.372200  0.206000  0.973000  1.0  0.7202
  C  C1684  1  0.128900  0.710700  0.628900  1.0  0.711
  C  C1685  1  0.769100  0.269100  0.739900  1.0  -0.0172
  C  C1686  1  0.920490  0.115170  0.163070  1.0  -0.0168
  C  C1687  1  0.137830  0.305870  0.201890  1.0  -0.1433
  C  C1688  1  0.733340  0.338100  0.338100  1.0  -0.0956
  C  C1689  1  0.309040  0.672300  0.672300  1.0  0.0202
  C  C1690  1  0.276200  0.291300  0.523800  1.0  -0.0461
  C  C1691  1  0.212680  0.504160  0.215700  1.0  -0.1705
  C  C1692  1  0.659520  0.059880  0.830080  1.0  0.6997
  C  C1693  1  0.836020  0.464580  0.798220  1.0  -0.1516
  C  C1694  1  0.995840  0.287320  0.932540  1.0  -0.1689
  C  C1695  1  0.000600  0.214400  0.041200  1.0  0.6906
  C  C1696  1  0.976200  0.223800  0.708700  1.0  -0.0503
  C  C1697  1  0.769100  0.269100  0.221900  1.0  -0.017
  C  C1698  1  0.193000  0.615400  0.095800  1.0  0.7099
  C  C1699  1  0.215080  0.762200  0.762200  1.0  -0.1751
  C  C1700  1  0.711010  0.506610  0.658190  1.0  -0.0796
  C  C1701  1  0.163980  0.098820  0.535420  1.0  -0.1562
  C  C1702  1  0.999400  0.256200  0.958800  1.0  0.69
  C  C1703  1  0.999400  0.958800  0.785600  1.0  0.6904
  C  C1704  1  0.051200  0.127800  0.794000  1.0  0.7196
  C  C1705  1  0.720800  0.321380  0.737020  1.0  0.6996
  C  C1706  1  0.064800  0.054800  0.102200  1.0  -0.1172
  C  C1707  1  0.106020  0.358420  0.223340  1.0  -0.092
  C  C1708  1  0.701780  0.663980  0.098820  1.0  -0.1563
  C  C1709  1  0.272480  0.852920  0.320920  1.0  0.7063
  C  C1710  1  0.862170  0.645590  0.694130  1.0  -0.1424
  C  C1711  1  0.172300  0.809040  0.346360  1.0  0.0189
  C  C1712  1  0.079000  0.627160  0.579000  1.0  -0.0576
  C  C1713  1  0.784920  0.739480  0.237800  1.0  -0.1743
  C  C1714  1  0.727520  0.446320  0.147080  1.0  0.7112
  C  C1715  1  0.439600  0.890600  0.414800  1.0  -0.037
  C  C1716  1  0.053680  0.852920  0.320920  1.0  0.7087
  C  C1717  1  0.288990  0.341810  0.493390  1.0  -0.0829
  C  C1718  1  0.756200  0.958800  0.499400  1.0  0.6922
  C  C1719  1  0.838100  0.233340  0.590460  1.0  -0.0934
  C  C1720  1  0.693380  0.276500  0.655900  1.0  0.7109
  C  C1721  1  0.439600  0.414800  0.890600  1.0  -0.0425
  C  C1722  1  0.721800  0.435200  0.897800  1.0  -0.1235
  C  C1723  1  0.278100  0.260100  0.730900  1.0  -0.0127
  C  C1724  1  0.049480  0.840480  0.940120  1.0  0.7056
  C  C1725  1  0.948800  0.206000  0.973000  1.0  0.7272
  C  C1726  1  0.715700  0.504160  0.067460  1.0  -0.1677
  C  C1727  1  0.820920  0.553680  0.852920  1.0  0.7068
  C  C1728  1  0.034070  0.205330  0.070870  1.0  -0.0355
  C  C1729  1  0.079000  0.714840  0.579000  1.0  -0.0612
  C  C1730  1  0.723800  0.476200  0.091300  1.0  -0.0465
  C  C1731  1  0.432540  0.784300  0.495840  1.0  -0.1687
  C  C1732  1  0.705330  0.534070  0.070870  1.0  -0.0322
  C  C1733  1  0.424300  0.446300  0.924300  1.0  -0.0287
  C  C1734  1  0.279200  0.779200  0.678620  1.0  0.6981
  C  C1735  1  0.721500  0.681960  0.119060  1.0  -0.1349
  C  C1736  1  0.669920  0.549480  0.940120  1.0  0.7018
  C  C1737  1  0.670200  0.394860  0.170200  1.0  0.7017
  C  C1738  1  0.272480  0.553680  0.852920  1.0  0.7069
  C  C1739  1  0.158190  0.211010  0.506610  1.0  -0.0841
  C  C1740  1  0.818040  0.778500  0.880940  1.0  -0.1356
  C  C1741  1  0.678440  0.856380  0.561520  1.0  -0.1587
  C  C1742  1  0.279200  0.779200  0.262980  1.0  0.6979
  C  C1743  1  0.854410  0.201890  0.305870  1.0  -0.1435
  C  C1744  1  0.389600  0.889600  0.551920  1.0  -0.0158
  C  C1745  1  0.889300  0.285300  0.436100  1.0  -0.145
  C  C1746  1  0.004160  0.712680  0.067460  1.0  -0.1689
  C  C1747  1  0.035420  0.201780  0.098820  1.0  -0.1561
  C  C1748  1  0.051920  0.168880  0.889600  1.0  -0.0167
  C  C1749  1  0.841400  0.558760  0.258440  1.0  0.7219
  C  C1750  1  0.336930  0.884830  0.198730  1.0  -0.0171
  C  C1751  1  0.609400  0.745000  0.585200  1.0  -0.0392
  C  C1752  1  0.440120  0.840480  0.549480  1.0  0.6999
  C  C1753  1  0.686190  0.567590  0.641210  1.0  0.6809
  C  C1754  1  0.941240  0.658600  0.741560  1.0  0.7197
  C  C1755  1  0.836020  0.798220  0.464580  1.0  -0.1541
  C  C1756  1  0.035420  0.663980  0.098820  1.0  -0.1534
  C  C1757  1  0.163980  0.535420  0.098820  1.0  -0.1541
  C  C1758  1  0.230900  0.730900  0.260100  1.0  -0.0167
  C  C1759  1  0.559880  0.830080  0.450520  1.0  0.6954
  C  C1760  1  0.115400  0.095800  0.693000  1.0  0.7124
  C  C1761  1  0.810270  0.465930  0.794670  1.0  -0.0384
  C  C1762  1  0.424300  0.205100  0.446300  1.0  -0.0304
  C  C1763  1  0.938480  0.096340  0.821560  1.0  -0.1562
  C  C1764  1  0.331120  0.448080  0.110400  1.0  -0.0155
  C  C1765  1  0.946300  0.205100  0.924300  1.0  -0.0292
  C  C1766  1  0.643620  0.438480  0.096340  1.0  -0.1598
  C  C1767  1  0.384830  0.579510  0.836930  1.0  -0.0166
  C  C1768  1  0.705330  0.689730  0.070870  1.0  -0.036
  C  C1769  1  0.090460  0.338100  0.338100  1.0  -0.0946
  C  C1770  1  0.473000  0.872200  0.448800  1.0  0.7266
  C  C1771  1  0.239480  0.237800  0.284920  1.0  -0.1758
  C  C1772  1  0.950520  0.159520  0.830080  1.0  0.7037
  C  C1773  1  0.288990  0.341810  0.875810  1.0  -0.0845
  C  C1774  1  0.624190  0.658190  0.506610  1.0  -0.0838
  C  C1775  1  0.721500  0.119060  0.477480  1.0  -0.1338
  C  C1776  1  0.194130  0.798110  0.362170  1.0  -0.1433
  C  C1777  1  0.938480  0.143620  0.821560  1.0  -0.158
  C  C1778  1  0.239900  0.221900  0.269100  1.0  -0.0122
  C  C1779  1  0.141580  0.687780  0.393980  1.0  -0.0876
  C  C1780  1  0.844100  0.625780  0.723500  1.0  0.7074
  C  C1781  1  0.125780  0.806620  0.344100  1.0  0.7102
  C  C1782  1  0.791300  0.523800  0.908700  1.0  -0.0501
  C  C1783  1  0.110700  0.563900  0.714700  1.0  -0.1445
  C  C1784  1  0.737800  0.284920  0.739480  1.0  -0.1751
  C  C1785  1  0.313810  0.894990  0.358790  1.0  0.6809
  C  C1786  1  0.306620  0.625780  0.723500  1.0  0.7108
  C  C1787  1  0.241560  0.658600  0.658600  1.0  0.7237
  C  C1788  1  0.004160  0.712680  0.215700  1.0  -0.1694
  C  C1789  1  0.910860  0.149600  0.149600  1.0  -0.1682
  C  C1790  1  0.554800  0.102200  0.778200  1.0  -0.1218
  C  C1791  1  0.412300  0.912300  0.404300  1.0  -0.1784
  C  C1792  1  0.330080  0.450520  0.059880  1.0  0.6997
  C  C1793  1  0.946300  0.924300  0.924300  1.0  -0.0296
  C  C1794  1  0.061520  0.178440  0.903660  1.0  -0.1608
  C  C1795  1  0.439600  0.890600  0.255000  1.0  -0.0408
  C  C1796  1  0.995840  0.932540  0.287320  1.0  -0.1676
  C  C1797  1  0.187780  0.776660  0.641580  1.0  -0.092
  C  C1798  1  0.058760  0.258440  0.341400  1.0  0.722
  C  C1799  1  0.669920  0.840480  0.549480  1.0  0.702
  C  C1800  1  0.000600  0.041200  0.214400  1.0  0.6891
  C  C1801  1  0.735260  0.605140  0.829800  1.0  0.7037
  C  C1802  1  0.034070  0.689730  0.070870  1.0  -0.0371
  C  C1803  1  0.034070  0.205330  0.689730  1.0  -0.0334
  C  C1804  1  0.380940  0.778500  0.318040  1.0  -0.1348
  C  C1805  1  0.596340  0.143620  0.438480  1.0  -0.158
  C  C1806  1  0.458800  0.785600  0.256200  1.0  0.6885
  C  C1807  1  0.785160  0.372840  0.421000  1.0  -0.0555
  C  C1808  1  0.948800  0.872200  0.206000  1.0  0.723
  C  C1809  1  0.061520  0.903660  0.856380  1.0  -0.1582
  C  C1810  1  0.841400  0.341400  0.258440  1.0  0.7227
  C  C1811  1  0.935200  0.897800  0.221800  1.0  -0.1231
  C  C1812  1  0.570870  0.534070  0.689730  1.0  -0.0323
  C  C1813  1  0.095700  0.728900  0.087700  1.0  -0.175
  C  C1814  1  0.053700  0.075700  0.075700  1.0  -0.0288
  C  C1815  1  0.245000  0.585200  0.109400  1.0  -0.041
  C  C1816  1  0.397800  0.221800  0.945200  1.0  -0.1203
  C  C1817  1  0.968500  0.289300  0.371100  1.0  0.7096
  C  C1818  1  0.034070  0.070870  0.205330  1.0  -0.036
  C  C1819  1  0.004160  0.067460  0.215700  1.0  -0.1683
  C  C1820  1  0.212680  0.067460  0.215700  1.0  -0.17
  C  C1821  1  0.950520  0.830080  0.059880  1.0  0.6985
  C  C1822  1  0.920490  0.801270  0.115170  1.0  -0.0112
  C  C1823  1  0.404200  0.904200  0.384600  1.0  0.7133
  C  C1824  1  0.023800  0.291300  0.908700  1.0  -0.0495
  C  C1825  1  0.858790  0.894990  0.813810  1.0  0.6811
  C  C1826  1  0.841810  0.493390  0.875810  1.0  -0.0849
  C  C1827  1  0.137830  0.354410  0.305870  1.0  -0.1417
  C  C1828  1  0.946320  0.227520  0.147080  1.0  0.7067
  C  C1829  1  0.938480  0.096340  0.143620  1.0  -0.161
  C  C1830  1  0.693380  0.655900  0.374220  1.0  0.7126
  C  C1831  1  0.858790  0.894990  0.432410  1.0  0.6809
  C  C1832  1  0.721800  0.945200  0.897800  1.0  -0.1164
  C  C1833  1  0.602200  0.054800  0.778200  1.0  -0.1218
  C  C1834  1  0.610400  0.831120  0.110400  1.0  -0.0174
  C  C1835  1  0.294670  0.310270  0.929130  1.0  -0.038
  C  C1836  1  0.352920  0.553680  0.772480  1.0  0.7007
  O  O1837  1  0.907080  0.917460  0.822660  1.0  -0.6158
  O  O1838  1  0.879000  0.871000  0.379000  1.0  -1.0068
  O  O1839  1  0.735060  0.702380  0.141860  1.0  -0.6424
  O  O1840  1  0.319300  0.189300  0.441220  1.0  -0.6103
  O  O1841  1  0.632340  0.566200  0.181620  1.0  -0.6149
  O  O1842  1  0.980730  0.291230  0.386030  1.0  -0.6276
  O  O1843  1  0.689300  0.819300  0.050180  1.0  -0.6097
  O  O1844  1  0.092920  0.647200  0.177340  1.0  -0.617
  O  O1845  1  0.656140  0.199580  0.388460  1.0  -0.6191
  O  O1846  1  0.246140  0.207700  0.527220  1.0  -0.6335
  O  O1847  1  0.941220  0.819300  0.050180  1.0  -0.6097
  O  O1848  1  0.417460  0.822660  0.352800  1.0  -0.6201
  O  O1849  1  0.620950  0.678890  0.622890  1.0  -0.6327
  O  O1850  1  0.322660  0.917460  0.352800  1.0  -0.6188
  O  O1851  1  0.941610  0.222770  0.987770  1.0  -0.6044
  O  O1852  1  0.735400  0.779860  0.525760  1.0  -0.6179
  O  O1853  1  0.543040  0.141320  0.468940  1.0  -0.6273
  O  O1854  1  0.346700  0.468940  0.141320  1.0  -0.6254
  O  O1855  1  0.941610  0.987770  0.847850  1.0  -0.6041
  O  O1856  1  0.518940  0.207700  0.527220  1.0  -0.6326
  O  O1857  1  0.255820  0.199580  0.388460  1.0  -0.6191
  O  O1858  1  0.058780  0.810700  0.180700  1.0  -0.6111
  O  O1859  1  0.319300  0.441220  0.189300  1.0  -0.6092
  O  O1860  1  0.358140  0.297620  0.579300  1.0  -0.6453
  O  O1861  1  0.736870  0.192830  0.334230  1.0  -0.614
  O  O1862  1  0.920700  0.141860  0.235060  1.0  -0.6449
  O  O1863  1  0.092920  0.647200  0.082540  1.0  -0.6194
  O  O1864  1  0.652150  0.012230  0.777230  1.0  -0.6035
  O  O1865  1  0.236070  0.334230  0.192830  1.0  -0.6153
  O  O1866  1  0.379050  0.377110  0.922730  1.0  -0.6326
  O  O1867  1  0.422730  0.377110  0.321110  1.0  -0.6322
  O  O1868  1  0.178890  0.120950  0.077270  1.0  -0.6377
  O  O1869  1  0.518940  0.527220  0.746140  1.0  -0.6345
  O  O1870  1  0.689300  0.050180  0.441220  1.0  -0.6086
  O  O1871  1  0.543040  0.846700  0.141320  1.0  -0.6268
  O  O1872  1  0.242890  0.359510  0.604390  1.0  -0.6336
  O  O1873  1  0.157690  0.172310  0.447970  1.0  -0.5912
  O  O1874  1  0.277230  0.558390  0.152150  1.0  -0.6018
  O  O1875  1  0.820530  0.268910  0.364350  1.0  -0.6343
  O  O1876  1  0.621340  0.021520  0.533400  1.0  -0.6389
  O  O1877  1  0.867140  0.684780  0.176640  1.0  -0.6176
  O  O1878  1  0.323360  0.315220  0.632860  1.0  -0.6211
  O  O1879  1  0.641320  0.846700  0.043040  1.0  -0.6265
  O  O1880  1  0.797620  0.579300  0.858140  1.0  -0.6411
  O  O1881  1  0.941220  0.050180  0.819300  1.0  -0.6094
  O  O1882  1  0.292300  0.981060  0.253860  1.0  -0.6342
  O  O1883  1  0.705740  0.205740  0.696960  1.0  -1.0058
  O  O1884  1  0.500000  0.187000  0.500000  1.0  -0.9958
  O  O1885  1  0.135650  0.453790  0.679470  1.0  -0.6349
  O  O1886  1  0.821110  0.879050  0.377110  1.0  -0.6368
  O  O1887  1  0.877110  0.321110  0.922730  1.0  -0.6322
  O  O1888  1  0.046210  0.320530  0.364350  1.0  -0.6356
  O  O1889  1  0.632340  0.619840  0.181620  1.0  -0.6146
  O  O1890  1  0.310700  0.180700  0.949820  1.0  -0.6097
  O  O1891  1  0.140490  0.395610  0.206790  1.0  -0.6343
  O  O1892  1  0.947970  0.172310  0.657690  1.0  -0.592
  O  O1893  1  0.058390  0.012230  0.152150  1.0  -0.6038
  O  O1894  1  0.974240  0.764600  0.041020  1.0  -0.6172
  O  O1895  1  0.880160  0.867660  0.433800  1.0  -0.6165
  O  O1896  1  0.058780  0.180700  0.810700  1.0  -0.6078
  O  O1897  1  0.920700  0.702380  0.141860  1.0  -0.6436
  O  O1898  1  0.705740  0.205740  0.391560  1.0  -1.0062
  O  O1899  1  0.000000  0.000000  0.813000  1.0  -0.9952
  O  O1900  1  0.842310  0.777970  0.552030  1.0  -0.5897
  O  O1901  1  0.652150  0.012230  0.558390  1.0  -0.6027
  O  O1902  1  0.652150  0.777230  0.012230  1.0  -0.6048
  O  O1903  1  0.046210  0.364350  0.268910  1.0  -0.6332
  O  O1904  1  0.019270  0.708770  0.613970  1.0  -0.6287
  O  O1905  1  0.092920  0.177340  0.082540  1.0  -0.619
  O  O1906  1  0.481060  0.472780  0.253860  1.0  -0.6335
  O  O1907  1  0.422730  0.879050  0.321110  1.0  -0.6308
  O  O1908  1  0.025760  0.779860  0.235400  1.0  -0.6181
  O  O1909  1  0.113970  0.657990  0.708770  1.0  -0.6297
  O  O1910  1  0.481060  0.792300  0.253860  1.0  -0.632
  O  O1911  1  0.358140  0.297620  0.764940  1.0  -0.6442
  O  O1912  1  0.687000  0.500000  0.000000  1.0  -0.9951
  O  O1913  1  0.641320  0.468940  0.846700  1.0  -0.6278
  O  O1914  1  0.481060  0.792300  0.472780  1.0  -0.6332
  O  O1915  1  0.113970  0.708770  0.519270  1.0  -0.6276
  O  O1916  1  0.722770  0.987770  0.441610  1.0  -0.6026
  O  O1917  1  0.171210  0.671210  0.486370  1.0  -0.9858
  O  O1918  1  0.140490  0.257110  0.206790  1.0  -0.6324
  O  O1919  1  0.834230  0.236870  0.192830  1.0  -0.6185
  O  O1920  1  0.652150  0.777230  0.558390  1.0  -0.6044
  O  O1921  1  0.264940  0.858140  0.579300  1.0  -0.6424
  O  O1922  1  0.119840  0.181620  0.132340  1.0  -0.6145
  O  O1923  1  0.157690  0.447970  0.222030  1.0  -0.5896
  O  O1924  1  0.744180  0.611540  0.843860  1.0  -0.617
  O  O1925  1  0.327690  0.342310  0.552030  1.0  -0.5892
  O  O1926  1  0.378660  0.176260  0.466600  1.0  -0.6423
  O  O1927  1  0.157690  0.222030  0.447970  1.0  -0.5893
  O  O1928  1  0.681620  0.132340  0.619840  1.0  -0.6169
  O  O1929  1  0.692830  0.334230  0.236870  1.0  -0.6152
  O  O1930  1  0.834230  0.236870  0.736070  1.0  -0.6167
  O  O1931  1  0.632340  0.181620  0.566200  1.0  -0.6163
  O  O1932  1  0.652150  0.558390  0.012230  1.0  -0.6024
  O  O1933  1  0.119840  0.566200  0.132340  1.0  -0.6172
  O  O1934  1  0.707700  0.527220  0.018940  1.0  -0.6348
  O  O1935  1  0.842310  0.827690  0.552030  1.0  -0.591
  O  O1936  1  0.820530  0.364350  0.546210  1.0  -0.633
  O  O1937  1  0.367660  0.433800  0.818380  1.0  -0.6167
  O  O1938  1  0.119840  0.132340  0.181620  1.0  -0.6149
  O  O1939  1  0.294260  0.794260  0.303040  1.0  -1.0062
  O  O1940  1  0.228560  0.315220  0.632860  1.0  -0.6223
  O  O1941  1  0.202380  0.235060  0.141860  1.0  -0.6442
  O  O1942  1  0.456960  0.531060  0.153300  1.0  -0.6337
  O  O1943  1  0.880160  0.818380  0.867660  1.0  -0.6152
  O  O1944  1  0.157990  0.708770  0.519270  1.0  -0.627
  O  O1945  1  0.735400  0.958980  0.779860  1.0  -0.6186
  O  O1946  1  0.736870  0.192830  0.736070  1.0  -0.6146
  O  O1947  1  0.358680  0.153300  0.531060  1.0  -0.627
  O  O1948  1  0.980730  0.342010  0.386030  1.0  -0.6265
  O  O1949  1  0.422730  0.879050  0.377110  1.0  -0.6301
  O  O1950  1  0.653300  0.531060  0.956960  1.0  -0.6272
  O  O1951  1  0.318380  0.433800  0.867660  1.0  -0.6155
  O  O1952  1  0.968940  0.846700  0.043040  1.0  -0.6246
  O  O1953  1  0.184780  0.367140  0.271440  1.0  -0.617
  O  O1954  1  0.179470  0.453790  0.731090  1.0  -0.6346
  O  O1955  1  0.735400  0.525760  0.958980  1.0  -0.6207
  O  O1956  1  0.677340  0.592920  0.647200  1.0  -0.6176
  O  O1957  1  0.867140  0.176640  0.684780  1.0  -0.6201
  O  O1958  1  0.347850  0.222770  0.987770  1.0  -0.6039
  O  O1959  1  0.264600  0.474240  0.041020  1.0  -0.6185
  O  O1960  1  0.880160  0.433800  0.867660  1.0  -0.6162
  O  O1961  1  0.178890  0.077270  0.622890  1.0  -0.6289
  O  O1962  1  0.079300  0.764940  0.858140  1.0  -0.6424
  O  O1963  1  0.722030  0.447970  0.657690  1.0  -0.5914
  O  O1964  1  0.699580  0.156140  0.755820  1.0  -0.6172
  O  O1965  1  0.864350  0.546210  0.268910  1.0  -0.6352
  O  O1966  1  0.676260  0.978480  0.878660  1.0  -0.6415
  O  O1967  1  0.966600  0.978480  0.176260  1.0  -0.6465
  O  O1968  1  0.518940  0.527220  0.207700  1.0  -0.6335
  O  O1969  1  0.676260  0.978480  0.466600  1.0  -0.6427
  O  O1970  1  0.736870  0.736070  0.192830  1.0  -0.6182
  O  O1971  1  0.079300  0.858140  0.297620  1.0  -0.6439
  O  O1972  1  0.487770  0.441610  0.847850  1.0  -0.6023
  O  O1973  1  0.791230  0.342010  0.386030  1.0  -0.6287
  O  O1974  1  0.656140  0.755820  0.388460  1.0  -0.6188
  O  O1975  1  0.933800  0.380160  0.867660  1.0  -0.6173
  O  O1976  1  0.672310  0.447970  0.657690  1.0  -0.5923
  O  O1977  1  0.947970  0.657690  0.222030  1.0  -0.5889
  O  O1978  1  0.632340  0.181620  0.619840  1.0  -0.6167
  O  O1979  1  0.797620  0.579300  0.764940  1.0  -0.6427
  O  O1980  1  0.052030  0.777970  0.827690  1.0  -0.59
  O  O1981  1  0.147200  0.177340  0.592920  1.0  -0.6176
  O  O1982  1  0.550180  0.189300  0.441220  1.0  -0.6093
  O  O1983  1  0.031060  0.956960  0.153300  1.0  -0.6329
  O  O1984  1  0.263130  0.665770  0.807170  1.0  -0.6146
  O  O1985  1  0.033400  0.823740  0.021520  1.0  -0.6419
  O  O1986  1  0.621340  0.533400  0.021520  1.0  -0.6422
  O  O1987  1  0.888460  0.199580  0.156140  1.0  -0.6198
  O  O1988  1  0.744180  0.800420  0.843860  1.0  -0.618
  O  O1989  1  0.279860  0.958980  0.525760  1.0  -0.6175
  O  O1990  1  0.966600  0.176260  0.978480  1.0  -0.6426
  O  O1991  1  0.744180  0.843860  0.611540  1.0  -0.6174
  O  O1992  1  0.122890  0.077270  0.678890  1.0  -0.629
  O  O1993  1  0.319300  0.441220  0.050180  1.0  -0.6082
  O  O1994  1  0.481060  0.253860  0.472780  1.0  -0.6348
  O  O1995  1  0.864350  0.320530  0.546210  1.0  -0.6346
  O  O1996  1  0.358680  0.153300  0.956960  1.0  -0.6266
  O  O1997  1  0.456960  0.531060  0.858680  1.0  -0.6315
  O  O1998  1  0.720140  0.041020  0.764600  1.0  -0.6182
  O  O1999  1  0.512230  0.152150  0.777230  1.0  -0.6037
  O  O2000  1  0.722030  0.657690  0.172310  1.0  -0.5897
  O  O2001  1  0.577270  0.622890  0.120950  1.0  -0.6328
  O  O2002  1  0.422730  0.321110  0.879050  1.0  -0.6292
  O  O2003  1  0.179470  0.731090  0.635650  1.0  -0.6375
  O  O2004  1  0.722030  0.447970  0.172310  1.0  -0.5911
  O  O2005  1  0.968940  0.043040  0.141320  1.0  -0.6329
  O  O2006  1  0.677340  0.647200  0.592920  1.0  -0.6181
  O  O2007  1  0.246140  0.018940  0.527220  1.0  -0.6349
  O  O2008  1  0.294260  0.303040  0.794260  1.0  -1.0065
  O  O2009  1  0.031060  0.153300  0.956960  1.0  -0.6249
  O  O2010  1  0.757110  0.206790  0.640490  1.0  -0.6341
  O  O2011  1  0.692830  0.334230  0.736070  1.0  -0.6148
  O  O2012  1  0.864350  0.268910  0.546210  1.0  -0.6357
  O  O2013  1  0.771440  0.176640  0.367140  1.0  -0.6196
  O  O2014  1  0.933800  0.867660  0.380160  1.0  -0.6153
  O  O2015  1  0.891560  0.205740  0.205740  1.0  -1.0065
  O  O2016  1  0.417460  0.822660  0.407080  1.0  -0.619
  O  O2017  1  0.512230  0.558390  0.777230  1.0  -0.6023
  O  O2018  1  0.422730  0.321110  0.377110  1.0  -0.6297
  O  O2019  1  0.879000  0.871000  0.871000  1.0  -1.0061
  O  O2020  1  0.066200  0.619840  0.132340  1.0  -0.6173
  O  O2021  1  0.323360  0.728560  0.632860  1.0  -0.6206
  O  O2022  1  0.058780  0.949820  0.180700  1.0  -0.6063
  O  O2023  1  0.880160  0.867660  0.818380  1.0  -0.618
  O  O2024  1  0.877110  0.879050  0.922730  1.0  -0.6345
  O  O2025  1  0.689300  0.819300  0.441220  1.0  -0.6098
  O  O2026  1  0.768910  0.364350  0.320530  1.0  -0.6342
  O  O2027  1  0.079300  0.297620  0.764940  1.0  -0.6439
  O  O2028  1  0.543040  0.846700  0.468940  1.0  -0.6258
  O  O2029  1  0.641320  0.846700  0.468940  1.0  -0.6262
  O  O2030  1  0.104390  0.742890  0.793210  1.0  -0.6336
  O  O2031  1  0.323740  0.533400  0.021520  1.0  -0.638
  O  O2032  1  0.246140  0.207700  0.018940  1.0  -0.6347
  O  O2033  1  0.458980  0.525760  0.235400  1.0  -0.6186
  O  O2034  1  0.582540  0.647200  0.592920  1.0  -0.6161
  O  O2035  1  0.500000  0.500000  0.187000  1.0  -0.9955
  O  O2036  1  0.263130  0.665770  0.263930  1.0  -0.6158
  O  O2037  1  0.864350  0.268910  0.320530  1.0  -0.6353
  O  O2038  1  0.834230  0.192830  0.236870  1.0  -0.6177
  O  O2039  1  0.791230  0.386030  0.480730  1.0  -0.6283
  O  O2040  1  0.972780  0.253860  0.981060  1.0  -0.6338
  O  O2041  1  0.119840  0.132340  0.566200  1.0  -0.6171
  O  O2042  1  0.677340  0.082540  0.592920  1.0  -0.6177
  O  O2043  1  0.378660  0.466600  0.176260  1.0  -0.6422
  O  O2044  1  0.052030  0.342310  0.777970  1.0  -0.5878
  O  O2045  1  0.953790  0.635650  0.731090  1.0  -0.6329
  O  O2046  1  0.293210  0.604390  0.742890  1.0  -0.6354
  O  O2047  1  0.487770  0.847850  0.222770  1.0  -0.6037
  O  O2048  1  0.456960  0.153300  0.858680  1.0  -0.6285
  O  O2049  1  0.111540  0.244180  0.843860  1.0  -0.6159
  O  O2050  1  0.972780  0.792300  0.981060  1.0  -0.6342
  O  O2051  1  0.656140  0.388460  0.199580  1.0  -0.6146
  O  O2052  1  0.322660  0.352800  0.917460  1.0  -0.618
  O  O2053  1  0.815220  0.823360  0.728560  1.0  -0.6174
  O  O2054  1  0.025760  0.779860  0.958980  1.0  -0.6189
  O  O2055  1  0.157990  0.613970  0.708770  1.0  -0.6251
  O  O2056  1  0.722770  0.847850  0.987770  1.0  -0.6039
  O  O2057  1  0.058780  0.810700  0.949820  1.0  -0.611
  O  O2058  1  0.346700  0.141320  0.043040  1.0  -0.6269
  O  O2059  1  0.791230  0.480730  0.342010  1.0  -0.6296
  O  O2060  1  0.706790  0.395610  0.640490  1.0  -0.6363
  O  O2061  1  0.313000  0.000000  0.500000  1.0  -0.9946
  O  O2062  1  0.986370  0.671210  0.671210  1.0  -0.9862
  O  O2063  1  0.478480  0.878660  0.466600  1.0  -0.6415
  O  O2064  1  0.132860  0.823360  0.728560  1.0  -0.6202
  O  O2065  1  0.347850  0.222770  0.441610  1.0  -0.6046
  O  O2066  1  0.867140  0.271440  0.684780  1.0  -0.6187
  O  O2067  1  0.108440  0.794260  0.303040  1.0  -1.0066
  O  O2068  1  0.255820  0.388460  0.199580  1.0  -0.6169
  O  O2069  1  0.231090  0.679470  0.635650  1.0  -0.6357
  O  O2070  1  0.027220  0.018940  0.207700  1.0  -0.6333
  O  O2071  1  0.720140  0.764600  0.474240  1.0  -0.62
  O  O2072  1  0.264600  0.474240  0.220140  1.0  -0.6188
  O  O2073  1  0.797620  0.858140  0.764940  1.0  -0.6423
  O  O2074  1  0.264940  0.297620  0.858140  1.0  -0.6419
  O  O2075  1  0.122890  0.120950  0.077270  1.0  -0.635
  O  O2076  1  0.255820  0.199580  0.156140  1.0  -0.6185
  O  O2077  1  0.079300  0.297620  0.858140  1.0  -0.6424
  O  O2078  1  0.879000  0.379000  0.871000  1.0  -1.0072
  O  O2079  1  0.543040  0.141320  0.846700  1.0  -0.6277
  O  O2080  1  0.692830  0.736070  0.236870  1.0  -0.6146
  O  O2081  1  0.246140  0.018940  0.207700  1.0  -0.6356
  O  O2082  1  0.111540  0.843860  0.800420  1.0  -0.6175
  O  O2083  1  0.677340  0.647200  0.082540  1.0  -0.6186
  O  O2084  1  0.953790  0.731090  0.679470  1.0  -0.6343
  O  O2085  1  0.888460  0.755820  0.199580  1.0  -0.6178
  O  O2086  1  0.907080  0.917460  0.352800  1.0  -0.6164
  O  O2087  1  0.000000  0.187000  0.813000  1.0  -0.9957
  O  O2088  1  0.058390  0.012230  0.777230  1.0  -0.6037
  O  O2089  1  0.378660  0.176260  0.978480  1.0  -0.6418
  O  O2090  1  0.231090  0.453790  0.635650  1.0  -0.6339
  O  O2091  1  0.292300  0.472780  0.253860  1.0  -0.6339
  O  O2092  1  0.179470  0.731090  0.453790  1.0  -0.6355
  O  O2093  1  0.541020  0.474240  0.220140  1.0  -0.6181
  O  O2094  1  0.521520  0.121340  0.823740  1.0  -0.6446
  O  O2095  1  0.672310  0.657690  0.447970  1.0  -0.5899
  O  O2096  1  0.307170  0.665770  0.763130  1.0  -0.6151
  O  O2097  1  0.966600  0.878660  0.978480  1.0  -0.6418
  O  O2098  1  0.941610  0.847850  0.987770  1.0  -0.6038
  O  O2099  1  0.941610  0.847850  0.222770  1.0  -0.6035
  O  O2100  1  0.763930  0.807170  0.665770  1.0  -0.6177
  O  O2101  1  0.953790  0.731090  0.635650  1.0  -0.636
  O  O2102  1  0.577270  0.678890  0.622890  1.0  -0.632
  O  O2103  1  0.620950  0.678890  0.077270  1.0  -0.6357
  O  O2104  1  0.815220  0.632860  0.823360  1.0  -0.6171
  O  O2105  1  0.641320  0.043040  0.846700  1.0  -0.6272
  O  O2106  1  0.852800  0.407080  0.917460  1.0  -0.6172
  O  O2107  1  0.877110  0.321110  0.879050  1.0  -0.6337
  O  O2108  1  0.052030  0.827690  0.777970  1.0  -0.5925
  O  O2109  1  0.676640  0.367140  0.684780  1.0  -0.621
  O  O2110  1  0.371000  0.871000  0.379000  1.0  -1.0072
  O  O2111  1  0.886030  0.291230  0.342010  1.0  -0.6275
  O  O2112  1  0.000000  0.000000  0.187000  1.0  -0.9955
  O  O2113  1  0.753860  0.981060  0.472780  1.0  -0.6348
  O  O2114  1  0.859510  0.793210  0.604390  1.0  -0.6307
  O  O2115  1  0.744180  0.800420  0.611540  1.0  -0.6181
  O  O2116  1  0.842010  0.480730  0.291230  1.0  -0.6285
  O  O2117  1  0.293210  0.742890  0.604390  1.0  -0.6353
  O  O2118  1  0.680700  0.810700  0.558780  1.0  -0.6114
  O  O2119  1  0.358140  0.579300  0.764940  1.0  -0.6427
  O  O2120  1  0.121000  0.129000  0.621000  1.0  -1.0059
  O  O2121  1  0.346700  0.043040  0.141320  1.0  -0.6256
  O  O2122  1  0.208770  0.613970  0.657990  1.0  -0.6273
  O  O2123  1  0.165770  0.263930  0.807170  1.0  -0.6165
  O  O2124  1  0.313000  0.000000  0.187000  1.0  -0.9947
  O  O2125  1  0.300420  0.244180  0.611540  1.0  -0.6148
  O  O2126  1  0.689300  0.050180  0.819300  1.0  -0.609
  O  O2127  1  0.033400  0.021520  0.121340  1.0  -0.6441
  O  O2128  1  0.236070  0.236870  0.192830  1.0  -0.6148
  O  O2129  1  0.132860  0.315220  0.823360  1.0  -0.6166
  O  O2130  1  0.157990  0.708770  0.613970  1.0  -0.627
  O  O2131  1  0.255820  0.388460  0.156140  1.0  -0.6178
  O  O2132  1  0.699580  0.388460  0.156140  1.0  -0.6187
  O  O2133  1  0.322660  0.407080  0.917460  1.0  -0.6171
  O  O2134  1  0.699580  0.388460  0.755820  1.0  -0.6172
  O  O2135  1  0.358140  0.764940  0.297620  1.0  -0.6428
  O  O2136  1  0.736870  0.736070  0.334230  1.0  -0.6177
  O  O2137  1  0.294260  0.608440  0.303040  1.0  -1.0062
  O  O2138  1  0.933800  0.818380  0.380160  1.0  -0.6148
  O  O2139  1  0.310700  0.949820  0.558780  1.0  -0.6095
  O  O2140  1  0.456960  0.153300  0.531060  1.0  -0.628
  O  O2141  1  0.228560  0.632860  0.315220  1.0  -0.622
  O  O2142  1  0.052030  0.777970  0.342310  1.0  -0.5897
  O  O2143  1  0.263130  0.807170  0.665770  1.0  -0.6138
  O  O2144  1  0.842010  0.386030  0.480730  1.0  -0.6254
  O  O2145  1  0.689300  0.441220  0.050180  1.0  -0.6088
  O  O2146  1  0.019270  0.657990  0.708770  1.0  -0.6264
  O  O2147  1  0.113970  0.519270  0.708770  1.0  -0.6271
  O  O2148  1  0.629000  0.621000  0.621000  1.0  -1.0061
  O  O2149  1  0.815220  0.728560  0.632860  1.0  -0.6186
  O  O2150  1  0.706790  0.395610  0.257110  1.0  -0.6329
  O  O2151  1  0.895610  0.257110  0.640490  1.0  -0.6328
  O  O2152  1  0.672310  0.222030  0.657690  1.0  -0.5921
  O  O2153  1  0.178890  0.120950  0.622890  1.0  -0.6336
  O  O2154  1  0.108440  0.303040  0.794260  1.0  -1.0072
  O  O2155  1  0.641860  0.420700  0.702380  1.0  -0.6421
  O  O2156  1  0.157990  0.519270  0.613970  1.0  -0.6298
  O  O2157  1  0.676640  0.271440  0.367140  1.0  -0.6207
  O  O2158  1  0.346700  0.141320  0.468940  1.0  -0.6268
  O  O2159  1  0.478480  0.176260  0.466600  1.0  -0.6403
  O  O2160  1  0.157690  0.447970  0.172310  1.0  -0.5899
  O  O2161  1  0.621340  0.021520  0.823740  1.0  -0.6377
  O  O2162  1  0.121000  0.621000  0.129000  1.0  -1.0072
  O  O2163  1  0.500000  0.187000  0.813000  1.0  -0.9957
  O  O2164  1  0.417460  0.407080  0.352800  1.0  -0.6157
  O  O2165  1  0.119840  0.181620  0.566200  1.0  -0.6153
  O  O2166  1  0.681620  0.566200  0.132340  1.0  -0.6157
  O  O2167  1  0.208770  0.519270  0.657990  1.0  -0.6279
  O  O2168  1  0.346700  0.043040  0.468940  1.0  -0.6245
  O  O2169  1  0.046210  0.320530  0.268910  1.0  -0.6347
  O  O2170  1  0.641860  0.420700  0.235060  1.0  -0.6424
  O  O2171  1  0.744180  0.611540  0.800420  1.0  -0.6184
  O  O2172  1  0.974240  0.220140  0.764600  1.0  -0.6182
  O  O2173  1  0.842010  0.480730  0.386030  1.0  -0.6257
  O  O2174  1  0.791230  0.342010  0.480730  1.0  -0.6295
  O  O2175  1  0.577270  0.120950  0.678890  1.0  -0.6324
  O  O2176  1  0.629000  0.129000  0.621000  1.0  -1.0072
  O  O2177  1  0.184780  0.367140  0.176640  1.0  -0.619
  O  O2178  1  0.165770  0.763130  0.263930  1.0  -0.6172
  O  O2179  1  0.771440  0.367140  0.176640  1.0  -0.622
  O  O2180  1  0.834230  0.192830  0.736070  1.0  -0.6173
  O  O2181  1  0.735400  0.779860  0.958980  1.0  -0.618
  O  O2182  1  0.753860  0.472780  0.792300  1.0  -0.6334
  O  O2183  1  0.941610  0.987770  0.222770  1.0  -0.6043
  O  O2184  1  0.066200  0.132340  0.619840  1.0  -0.6177
  O  O2185  1  0.417460  0.352800  0.407080  1.0  -0.6156
  O  O2186  1  0.500000  0.813000  0.187000  1.0  -0.9956
  O  O2187  1  0.864350  0.320530  0.268910  1.0  -0.6356
  O  O2188  1  0.294260  0.794260  0.608440  1.0  -1.0059
  O  O2189  1  0.202380  0.420700  0.235060  1.0  -0.6424
  O  O2190  1  0.768910  0.320530  0.364350  1.0  -0.6361
  O  O2191  1  0.178890  0.077270  0.120950  1.0  -0.6295
  O  O2192  1  0.000000  0.813000  0.187000  1.0  -0.9956
  O  O2193  1  0.877110  0.879050  0.321110  1.0  -0.6352
  O  O2194  1  0.852800  0.917460  0.407080  1.0  -0.6173
  O  O2195  1  0.263130  0.263930  0.665770  1.0  -0.6157
  O  O2196  1  0.966600  0.978480  0.878660  1.0  -0.644
  O  O2197  1  0.202380  0.141860  0.235060  1.0  -0.6436
  O  O2198  1  0.968940  0.846700  0.141320  1.0  -0.6244
  O  O2199  1  0.046210  0.364350  0.320530  1.0  -0.6333
  O  O2200  1  0.834230  0.736070  0.236870  1.0  -0.6152
  O  O2201  1  0.791230  0.386030  0.342010  1.0  -0.6283
  O  O2202  1  0.323740  0.021520  0.533400  1.0  -0.6402
  O  O2203  1  0.699580  0.156140  0.388460  1.0  -0.6186
  O  O2204  1  0.763930  0.665770  0.763130  1.0  -0.6166
  O  O2205  1  0.632340  0.619840  0.566200  1.0  -0.6167
  O  O2206  1  0.277230  0.012230  0.152150  1.0  -0.6027
  O  O2207  1  0.720140  0.474240  0.041020  1.0  -0.6198
  O  O2208  1  0.895610  0.640490  0.206790  1.0  -0.6326
  O  O2209  1  0.543040  0.468940  0.846700  1.0  -0.6315
  O  O2210  1  0.620950  0.622890  0.678890  1.0  -0.632
  O  O2211  1  0.620950  0.077270  0.678890  1.0  -0.6296
  O  O2212  1  0.132860  0.315220  0.728560  1.0  -0.6172
  O  O2213  1  0.852800  0.822660  0.917460  1.0  -0.6205
  O  O2214  1  0.111540  0.244180  0.800420  1.0  -0.6172
  O  O2215  1  0.968940  0.141320  0.043040  1.0  -0.6308
  O  O2216  1  0.582540  0.592920  0.177340  1.0  -0.6152
  O  O2217  1  0.171210  0.486370  0.671210  1.0  -0.986
  O  O2218  1  0.771440  0.367140  0.684780  1.0  -0.6199
  O  O2219  1  0.066200  0.181620  0.619840  1.0  -0.616
  O  O2220  1  0.641320  0.468940  0.043040  1.0  -0.6284
  O  O2221  1  0.318380  0.380160  0.867660  1.0  -0.6176
  O  O2222  1  0.864350  0.546210  0.320530  1.0  -0.6346
  O  O2223  1  0.512230  0.558390  0.152150  1.0  -0.6024
  O  O2224  1  0.343860  0.611540  0.244180  1.0  -0.6172
  O  O2225  1  0.147200  0.082540  0.592920  1.0  -0.6183
  O  O2226  1  0.449820  0.558780  0.810700  1.0  -0.6087
  O  O2227  1  0.886030  0.480730  0.291230  1.0  -0.6286
  O  O2228  1  0.757110  0.206790  0.395610  1.0  -0.6327
  O  O2229  1  0.179470  0.635650  0.453790  1.0  -0.6343
  O  O2230  1  0.322660  0.352800  0.407080  1.0  -0.619
  O  O2231  1  0.550180  0.441220  0.189300  1.0  -0.6103
  O  O2232  1  0.343860  0.611540  0.800420  1.0  -0.6165
  O  O2233  1  0.753860  0.981060  0.792300  1.0  -0.6345
  O  O2234  1  0.680700  0.558780  0.810700  1.0  -0.6083
  O  O2235  1  0.449820  0.180700  0.558780  1.0  -0.6126
  O  O2236  1  0.676260  0.466600  0.978480  1.0  -0.6391
  O  O2237  1  0.122890  0.678890  0.077270  1.0  -0.632
  O  O2238  1  0.019270  0.708770  0.657990  1.0  -0.6264
  O  O2239  1  0.379050  0.922730  0.321110  1.0  -0.6306
  O  O2240  1  0.104390  0.742890  0.359510  1.0  -0.6323
  O  O2241  1  0.132860  0.728560  0.315220  1.0  -0.6214
  O  O2242  1  0.132860  0.823360  0.315220  1.0  -0.6191
  O  O2243  1  0.621340  0.823740  0.533400  1.0  -0.643
  O  O2244  1  0.577270  0.678890  0.120950  1.0  -0.6323
  O  O2245  1  0.886030  0.342010  0.480730  1.0  -0.6279
  O  O2246  1  0.859510  0.742890  0.604390  1.0  -0.6324
  O  O2247  1  0.550180  0.441220  0.819300  1.0  -0.6096
  O  O2248  1  0.521520  0.121340  0.533400  1.0  -0.6443
  O  O2249  1  0.941220  0.050180  0.189300  1.0  -0.609
  O  O2250  1  0.025760  0.958980  0.779860  1.0  -0.618
  O  O2251  1  0.111540  0.800420  0.244180  1.0  -0.6191
  O  O2252  1  0.300420  0.611540  0.244180  1.0  -0.6183
  O  O2253  1  0.277970  0.827690  0.342310  1.0  -0.5917
  O  O2254  1  0.165770  0.807170  0.263930  1.0  -0.6169
  O  O2255  1  0.264940  0.297620  0.579300  1.0  -0.6421
  O  O2256  1  0.307170  0.763130  0.263930  1.0  -0.6162
  O  O2257  1  0.933800  0.867660  0.818380  1.0  -0.6177
  O  O2258  1  0.699580  0.755820  0.388460  1.0  -0.6177
  O  O2259  1  0.512230  0.777230  0.558390  1.0  -0.6026
  O  O2260  1  0.877110  0.922730  0.879050  1.0  -0.63
  O  O2261  1  0.202380  0.235060  0.420700  1.0  -0.6441
  O  O2262  1  0.722030  0.172310  0.447970  1.0  -0.591
  O  O2263  1  0.620950  0.622890  0.077270  1.0  -0.6333
  O  O2264  1  0.033400  0.121340  0.823740  1.0  -0.6437
  O  O2265  1  0.027220  0.018940  0.746140  1.0  -0.6347
  O  O2266  1  0.135650  0.679470  0.453790  1.0  -0.6361
  O  O2267  1  0.768910  0.320530  0.546210  1.0  -0.6366
  O  O2268  1  0.803040  0.794260  0.608440  1.0  -1.0061
  O  O2269  1  0.246140  0.527220  0.207700  1.0  -0.6343
  O  O2270  1  0.722030  0.657690  0.447970  1.0  -0.5889
  O  O2271  1  0.972780  0.981060  0.253860  1.0  -0.6334
  O  O2272  1  0.046210  0.268910  0.364350  1.0  -0.6342
  O  O2273  1  0.358140  0.764940  0.579300  1.0  -0.644
  O  O2274  1  0.478480  0.466600  0.878660  1.0  -0.6415
  O  O2275  1  0.941220  0.819300  0.189300  1.0  -0.61
  O  O2276  1  0.550180  0.819300  0.441220  1.0  -0.6118
  O  O2277  1  0.066200  0.181620  0.132340  1.0  -0.6144
  O  O2278  1  0.343860  0.800420  0.611540  1.0  -0.617
  O  O2279  1  0.735060  0.420700  0.702380  1.0  -0.644
  O  O2280  1  0.687000  0.813000  0.000000  1.0  -0.9963
  O  O2281  1  0.481060  0.253860  0.792300  1.0  -0.6337
  O  O2282  1  0.707700  0.746140  0.018940  1.0  -0.6348
  O  O2283  1  0.313000  0.187000  0.500000  1.0  -0.9969
  O  O2284  1  0.974240  0.041020  0.220140  1.0  -0.6168
  O  O2285  1  0.147200  0.082540  0.177340  1.0  -0.6178
  O  O2286  1  0.058780  0.180700  0.949820  1.0  -0.6076
  O  O2287  1  0.828790  0.328790  0.328790  1.0  -0.986
  O  O2288  1  0.478480  0.878660  0.176260  1.0  -0.643
  O  O2289  1  0.346700  0.468940  0.043040  1.0  -0.6256
  O  O2290  1  0.907080  0.352800  0.822660  1.0  -0.6188
  O  O2291  1  0.202380  0.141860  0.420700  1.0  -0.6418
  O  O2292  1  0.763930  0.763130  0.665770  1.0  -0.616
  O  O2293  1  0.279860  0.525760  0.235400  1.0  -0.6201
  O  O2294  1  0.941610  0.222770  0.847850  1.0  -0.6044
  O  O2295  1  0.842310  0.777970  0.827690  1.0  -0.5891
  O  O2296  1  0.907080  0.352800  0.917460  1.0  -0.617
  O  O2297  1  0.058390  0.777230  0.012230  1.0  -0.6031
  O  O2298  1  0.066200  0.619840  0.181620  1.0  -0.6166
  O  O2299  1  0.907080  0.822660  0.352800  1.0  -0.6178
  O  O2300  1  0.966600  0.176260  0.878660  1.0  -0.6427
  O  O2301  1  0.277970  0.342310  0.827690  1.0  -0.5883
  O  O2302  1  0.629000  0.621000  0.129000  1.0  -1.0068
  O  O2303  1  0.672310  0.222030  0.447970  1.0  -0.5906
  O  O2304  1  0.277230  0.152150  0.558390  1.0  -0.6037
  O  O2305  1  0.313000  0.500000  0.000000  1.0  -0.9946
  O  O2306  1  0.347850  0.987770  0.222770  1.0  -0.6025
  O  O2307  1  0.676640  0.684780  0.271440  1.0  -0.6215
  O  O2308  1  0.487770  0.441610  0.222770  1.0  -0.6026
  O  O2309  1  0.327690  0.552030  0.342310  1.0  -0.5919
  O  O2310  1  0.079300  0.858140  0.764940  1.0  -0.6439
  O  O2311  1  0.676640  0.684780  0.367140  1.0  -0.6213
  O  O2312  1  0.242890  0.793210  0.359510  1.0  -0.6356
  O  O2313  1  0.722770  0.441610  0.847850  1.0  -0.6021
  O  O2314  1  0.763930  0.665770  0.807170  1.0  -0.6157
  O  O2315  1  0.323740  0.533400  0.121340  1.0  -0.6381
  O  O2316  1  0.653300  0.858680  0.531060  1.0  -0.6274
  O  O2317  1  0.653300  0.858680  0.956960  1.0  -0.6269
  O  O2318  1  0.641860  0.235060  0.420700  1.0  -0.6438
  O  O2319  1  0.720140  0.041020  0.474240  1.0  -0.618
  O  O2320  1  0.518940  0.207700  0.746140  1.0  -0.6334
  O  O2321  1  0.815220  0.728560  0.823360  1.0  -0.6178
  O  O2322  1  0.422730  0.377110  0.879050  1.0  -0.6309
  O  O2323  1  0.676260  0.878660  0.466600  1.0  -0.641
  O  O2324  1  0.677340  0.082540  0.647200  1.0  -0.6171
  O  O2325  1  0.196960  0.205740  0.205740  1.0  -1.0062
  O  O2326  1  0.292300  0.253860  0.981060  1.0  -0.6337
  O  O2327  1  0.577270  0.120950  0.622890  1.0  -0.6325
  O  O2328  1  0.518940  0.746140  0.207700  1.0  -0.6352
  O  O2329  1  0.582540  0.177340  0.647200  1.0  -0.6183
  O  O2330  1  0.184780  0.176640  0.367140  1.0  -0.6177
  O  O2331  1  0.672310  0.447970  0.222030  1.0  -0.5918
  O  O2332  1  0.735060  0.141860  0.420700  1.0  -0.6435
  O  O2333  1  0.621340  0.533400  0.823740  1.0  -0.6405
  O  O2334  1  0.852800  0.407080  0.822660  1.0  -0.6187
  O  O2335  1  0.135650  0.679470  0.731090  1.0  -0.6356
  O  O2336  1  0.521520  0.823740  0.121340  1.0  -0.6411
  O  O2337  1  0.140490  0.206790  0.257110  1.0  -0.6334
  O  O2338  1  0.886030  0.291230  0.480730  1.0  -0.6284
  O  O2339  1  0.300420  0.843860  0.244180  1.0  -0.6179
  O  O2340  1  0.323360  0.632860  0.728560  1.0  -0.6188
  O  O2341  1  0.379050  0.377110  0.321110  1.0  -0.6321
  O  O2342  1  0.705740  0.696960  0.391560  1.0  -1.0068
  O  O2343  1  0.307170  0.263930  0.763130  1.0  -0.6151
  O  O2344  1  0.347850  0.987770  0.441610  1.0  -0.6035
  O  O2345  1  0.255820  0.156140  0.199580  1.0  -0.6167
  O  O2346  1  0.319300  0.050180  0.441220  1.0  -0.611
  O  O2347  1  0.135650  0.453790  0.731090  1.0  -0.6347
  O  O2348  1  0.307170  0.665770  0.263930  1.0  -0.6153
  O  O2349  1  0.541020  0.764600  0.474240  1.0  -0.6175
  O  O2350  1  0.972780  0.253860  0.792300  1.0  -0.635
  O  O2351  1  0.842310  0.827690  0.777970  1.0  -0.5912
  O  O2352  1  0.722770  0.847850  0.441610  1.0  -0.6047
  O  O2353  1  0.722770  0.987770  0.847850  1.0  -0.6028
  O  O2354  1  0.953790  0.679470  0.635650  1.0  -0.637
  O  O2355  1  0.735060  0.702380  0.420700  1.0  -0.642
  O  O2356  1  0.828790  0.328790  0.513630  1.0  -0.9851
  O  O2357  1  0.111540  0.843860  0.244180  1.0  -0.6184
  O  O2358  1  0.293210  0.359510  0.742890  1.0  -0.6341
  O  O2359  1  0.541020  0.764600  0.220140  1.0  -0.6172
  O  O2360  1  0.736870  0.334230  0.192830  1.0  -0.6162
  O  O2361  1  0.620950  0.077270  0.622890  1.0  -0.6301
  O  O2362  1  0.933800  0.818380  0.867660  1.0  -0.6148
  O  O2363  1  0.681620  0.619840  0.566200  1.0  -0.6173
  O  O2364  1  0.735400  0.958980  0.525760  1.0  -0.618
  O  O2365  1  0.157990  0.613970  0.519270  1.0  -0.6256
  O  O2366  1  0.656140  0.755820  0.199580  1.0  -0.6168
  O  O2367  1  0.582540  0.592920  0.647200  1.0  -0.6145
  O  O2368  1  0.323360  0.315220  0.728560  1.0  -0.6212
  O  O2369  1  0.310700  0.180700  0.558780  1.0  -0.6096
  O  O2370  1  0.641860  0.235060  0.702380  1.0  -0.6433
  O  O2371  1  0.104390  0.359510  0.742890  1.0  -0.633
  O  O2372  1  0.279860  0.958980  0.235400  1.0  -0.6179
  O  O2373  1  0.797620  0.764940  0.579300  1.0  -0.6453
  O  O2374  1  0.920700  0.235060  0.702380  1.0  -0.6425
  O  O2375  1  0.019270  0.613970  0.708770  1.0  -0.6251
  O  O2376  1  0.706790  0.640490  0.257110  1.0  -0.6347
  O  O2377  1  0.031060  0.956960  0.858680  1.0  -0.6309
  O  O2378  1  0.821110  0.377110  0.879050  1.0  -0.6345
  O  O2379  1  0.768910  0.546210  0.364350  1.0  -0.6352
  O  O2380  1  0.293210  0.359510  0.604390  1.0  -0.6343
  O  O2381  1  0.941220  0.189300  0.050180  1.0  -0.6108
  O  O2382  1  0.449820  0.810700  0.558780  1.0  -0.6115
  O  O2383  1  0.458980  0.525760  0.779860  1.0  -0.6186
  O  O2384  1  0.681620  0.566200  0.619840  1.0  -0.6164
  O  O2385  1  0.771440  0.176640  0.684780  1.0  -0.6209
  O  O2386  1  0.371000  0.379000  0.871000  1.0  -1.0059
  O  O2387  1  0.707700  0.018940  0.746140  1.0  -0.6346
  O  O2388  1  0.208770  0.613970  0.519270  1.0  -0.6265
  O  O2389  1  0.310700  0.949820  0.180700  1.0  -0.6083
  O  O2390  1  0.202380  0.420700  0.141860  1.0  -0.6436
  O  O2391  1  0.980730  0.386030  0.342010  1.0  -0.6266
  O  O2392  1  0.135650  0.731090  0.453790  1.0  -0.6348
  O  O2393  1  0.735060  0.141860  0.702380  1.0  -0.6449
  O  O2394  1  0.371000  0.379000  0.379000  1.0  -1.0066
  O  O2395  1  0.880160  0.433800  0.818380  1.0  -0.6169
  O  O2396  1  0.653300  0.531060  0.858680  1.0  -0.6278
  O  O2397  1  0.500000  0.500000  0.813000  1.0  -0.9952
  O  O2398  1  0.025760  0.235400  0.779860  1.0  -0.6179
  O  O2399  1  0.859510  0.604390  0.793210  1.0  -0.6334
  O  O2400  1  0.343860  0.244180  0.611540  1.0  -0.6159
  O  O2401  1  0.842010  0.291230  0.386030  1.0  -0.6255
  O  O2402  1  0.027220  0.207700  0.746140  1.0  -0.6342
  O  O2403  1  0.025760  0.958980  0.235400  1.0  -0.618
  O  O2404  1  0.121000  0.129000  0.129000  1.0  -1.0066
  O  O2405  1  0.680700  0.558780  0.949820  1.0  -0.6071
  O  O2406  1  0.066200  0.132340  0.181620  1.0  -0.6161
  O  O2407  1  0.184780  0.271440  0.367140  1.0  -0.6188
  O  O2408  1  0.753860  0.792300  0.472780  1.0  -0.6325
  O  O2409  1  0.019270  0.657990  0.613970  1.0  -0.6302
  O  O2410  1  0.236070  0.334230  0.236870  1.0  -0.6152
  O  O2411  1  0.687000  0.000000  0.813000  1.0  -0.995
  O  O2412  1  0.236070  0.192830  0.334230  1.0  -0.6183
  O  O2413  1  0.449820  0.558780  0.180700  1.0  -0.6071
  O  O2414  1  0.744180  0.843860  0.800420  1.0  -0.6186
  O  O2415  1  0.147200  0.592920  0.177340  1.0  -0.6171
  O  O2416  1  0.179470  0.635650  0.731090  1.0  -0.6341
  O  O2417  1  0.771440  0.684780  0.367140  1.0  -0.6208
  O  O2418  1  0.705740  0.391560  0.696960  1.0  -1.006
  O  O2419  1  0.820530  0.546210  0.268910  1.0  -0.6337
  O  O2420  1  0.797620  0.858140  0.579300  1.0  -0.6426
  O  O2421  1  0.753860  0.472780  0.981060  1.0  -0.633
  O  O2422  1  0.277970  0.342310  0.552030  1.0  -0.5883
  O  O2423  1  0.676260  0.466600  0.878660  1.0  -0.6383
  O  O2424  1  0.577270  0.622890  0.678890  1.0  -0.6315
  O  O2425  1  0.920700  0.141860  0.702380  1.0  -0.6447
  O  O2426  1  0.111540  0.800420  0.843860  1.0  -0.6174
  O  O2427  1  0.379050  0.321110  0.377110  1.0  -0.6355
  O  O2428  1  0.228560  0.823360  0.632860  1.0  -0.6199
  O  O2429  1  0.677340  0.592920  0.082540  1.0  -0.6181
  O  O2430  1  0.236070  0.192830  0.236870  1.0  -0.6188
  O  O2431  1  0.157990  0.519270  0.708770  1.0  -0.6268
  O  O2432  1  0.907080  0.822660  0.917460  1.0  -0.6177
  O  O2433  1  0.327690  0.552030  0.777970  1.0  -0.5915
  O  O2434  1  0.323740  0.021520  0.121340  1.0  -0.6426
  O  O2435  1  0.834230  0.736070  0.192830  1.0  -0.6176
  O  O2436  1  0.417460  0.352800  0.822660  1.0  -0.6163
  O  O2437  1  0.621340  0.823740  0.021520  1.0  -0.6435
  O  O2438  1  0.852800  0.822660  0.407080  1.0  -0.6198
  O  O2439  1  0.264600  0.041020  0.474240  1.0  -0.618
  O  O2440  1  0.031060  0.153300  0.858680  1.0  -0.6257
  O  O2441  1  0.027220  0.746140  0.207700  1.0  -0.6335
  O  O2442  1  0.294260  0.303040  0.608440  1.0  -1.0058
  O  O2443  1  0.689300  0.441220  0.819300  1.0  -0.6089
  O  O2444  1  0.079300  0.764940  0.297620  1.0  -0.6417
  O  O2445  1  0.968940  0.043040  0.846700  1.0  -0.6333
  O  O2446  1  0.347850  0.441610  0.987770  1.0  -0.6022
  O  O2447  1  0.735060  0.420700  0.141860  1.0  -0.6443
  O  O2448  1  0.791230  0.480730  0.386030  1.0  -0.6288
  O  O2449  1  0.456960  0.858680  0.531060  1.0  -0.6262
  O  O2450  1  0.820530  0.546210  0.364350  1.0  -0.634
  O  O2451  1  0.264940  0.579300  0.297620  1.0  -0.6424
  O  O2452  1  0.322660  0.917460  0.407080  1.0  -0.6187
  O  O2453  1  0.264940  0.858140  0.297620  1.0  -0.6434
  O  O2454  1  0.277230  0.558390  0.012230  1.0  -0.6015
  O  O2455  1  0.947970  0.172310  0.222030  1.0  -0.592
  O  O2456  1  0.319300  0.189300  0.050180  1.0  -0.6102
  O  O2457  1  0.895610  0.257110  0.206790  1.0  -0.6321
  O  O2458  1  0.481060  0.472780  0.792300  1.0  -0.6342
  O  O2459  1  0.705740  0.696960  0.205740  1.0  -1.0062
  O  O2460  1  0.033400  0.823740  0.121340  1.0  -0.6418
  O  O2461  1  0.292300  0.472780  0.981060  1.0  -0.6337
  O  O2462  1  0.092920  0.177340  0.647200  1.0  -0.6163
  O  O2463  1  0.092920  0.082540  0.647200  1.0  -0.6156
  O  O2464  1  0.681620  0.132340  0.566200  1.0  -0.6169
  O  O2465  1  0.692830  0.236870  0.736070  1.0  -0.6153
  O  O2466  1  0.687000  0.813000  0.500000  1.0  -0.9963
  O  O2467  1  0.582540  0.647200  0.177340  1.0  -0.616
  O  O2468  1  0.033400  0.021520  0.823740  1.0  -0.6433
  O  O2469  1  0.500000  0.813000  0.500000  1.0  -0.9955
  O  O2470  1  0.867140  0.271440  0.176640  1.0  -0.6223
  O  O2471  1  0.828790  0.513630  0.328790  1.0  -0.986
  O  O2472  1  0.058780  0.949820  0.810700  1.0  -0.6073
  O  O2473  1  0.104390  0.359510  0.793210  1.0  -0.6345
  O  O2474  1  0.877110  0.922730  0.321110  1.0  -0.6311
  O  O2475  1  0.058390  0.152150  0.012230  1.0  -0.6021
  O  O2476  1  0.953790  0.679470  0.731090  1.0  -0.6353
  O  O2477  1  0.641320  0.043040  0.468940  1.0  -0.6275
  O  O2478  1  0.653300  0.956960  0.858680  1.0  -0.6251
  O  O2479  1  0.242890  0.359510  0.793210  1.0  -0.6327
  O  O2480  1  0.707700  0.018940  0.527220  1.0  -0.6334
  O  O2481  1  0.264600  0.041020  0.220140  1.0  -0.6186
  O  O2482  1  0.379050  0.321110  0.922730  1.0  -0.633
  O  O2483  1  0.104390  0.793210  0.742890  1.0  -0.6339
  O  O2484  1  0.687000  0.000000  0.500000  1.0  -0.9951
  O  O2485  1  0.706790  0.640490  0.395610  1.0  -0.6352
  O  O2486  1  0.768910  0.364350  0.546210  1.0  -0.6344
  O  O2487  1  0.184780  0.176640  0.271440  1.0  -0.6184
  O  O2488  1  0.676640  0.271440  0.684780  1.0  -0.6205
  O  O2489  1  0.358680  0.956960  0.531060  1.0  -0.6271
  O  O2490  1  0.242890  0.604390  0.359510  1.0  -0.6356
  O  O2491  1  0.972780  0.792300  0.253860  1.0  -0.634
  O  O2492  1  0.323740  0.121340  0.021520  1.0  -0.6414
  O  O2493  1  0.058390  0.777230  0.152150  1.0  -0.6035
  O  O2494  1  0.367660  0.818380  0.433800  1.0  -0.6163
  O  O2495  1  0.319300  0.050180  0.189300  1.0  -0.6095
  O  O2496  1  0.140490  0.257110  0.395610  1.0  -0.6326
  O  O2497  1  0.966600  0.878660  0.176260  1.0  -0.6445
  O  O2498  1  0.974240  0.041020  0.764600  1.0  -0.6169
  O  O2499  1  0.165770  0.763130  0.807170  1.0  -0.6174
  O  O2500  1  0.279860  0.525760  0.958980  1.0  -0.6208
  O  O2501  1  0.264600  0.220140  0.041020  1.0  -0.6185
  O  O2502  1  0.859510  0.604390  0.742890  1.0  -0.6336
  O  O2503  1  0.980730  0.342010  0.291230  1.0  -0.6291
  O  O2504  1  0.888460  0.755820  0.156140  1.0  -0.6192
  O  O2505  1  0.378660  0.978480  0.176260  1.0  -0.6394
  O  O2506  1  0.895610  0.206790  0.257110  1.0  -0.6301
  O  O2507  1  0.541020  0.220140  0.474240  1.0  -0.618
  O  O2508  1  0.307170  0.263930  0.665770  1.0  -0.6154
  O  O2509  1  0.178890  0.622890  0.120950  1.0  -0.6341
  O  O2510  1  0.046210  0.268910  0.320530  1.0  -0.6333
  O  O2511  1  0.891560  0.205740  0.696960  1.0  -1.0061
  O  O2512  1  0.803040  0.608440  0.794260  1.0  -1.007
  O  O2513  1  0.165770  0.263930  0.763130  1.0  -0.6153
  O  O2514  1  0.000000  0.813000  0.000000  1.0  -0.9955
  O  O2515  1  0.417460  0.407080  0.822660  1.0  -0.6151
  O  O2516  1  0.031060  0.858680  0.153300  1.0  -0.6308
  O  O2517  1  0.518940  0.746140  0.527220  1.0  -0.635
  O  O2518  1  0.122890  0.120950  0.678890  1.0  -0.6342
  O  O2519  1  0.968940  0.141320  0.846700  1.0  -0.6302
  O  O2520  1  0.692830  0.236870  0.334230  1.0  -0.6152
  O  O2521  1  0.367660  0.818380  0.380160  1.0  -0.6161
  O  O2522  1  0.458980  0.235400  0.525760  1.0  -0.6181
  O  O2523  1  0.707700  0.527220  0.746140  1.0  -0.635
  O  O2524  1  0.264940  0.579300  0.858140  1.0  -0.6423
  O  O2525  1  0.246140  0.527220  0.018940  1.0  -0.635
  O  O2526  1  0.699580  0.755820  0.156140  1.0  -0.6175
  O  O2527  1  0.104390  0.793210  0.359510  1.0  -0.6326
  O  O2528  1  0.027220  0.207700  0.018940  1.0  -0.6342
  O  O2529  1  0.980730  0.386030  0.291230  1.0  -0.6276
  O  O2530  1  0.933800  0.380160  0.818380  1.0  -0.6182
  O  O2531  1  0.720140  0.764600  0.041020  1.0  -0.6198
  O  O2532  1  0.358140  0.579300  0.297620  1.0  -0.6421
  O  O2533  1  0.279860  0.235400  0.958980  1.0  -0.6195
  O  O2534  1  0.632340  0.566200  0.619840  1.0  -0.6174
  O  O2535  1  0.852800  0.917460  0.822660  1.0  -0.6179
  O  O2536  1  0.753860  0.792300  0.981060  1.0  -0.6312
  O  O2537  1  0.920700  0.702380  0.235060  1.0  -0.6419
  O  O2538  1  0.231090  0.635650  0.453790  1.0  -0.634
  O  O2539  1  0.656140  0.388460  0.755820  1.0  -0.6146
  O  O2540  1  0.521520  0.533400  0.823740  1.0  -0.641
  O  O2541  1  0.706790  0.257110  0.395610  1.0  -0.6344
  O  O2542  1  0.757110  0.395610  0.206790  1.0  -0.6345
  O  O2543  1  0.277970  0.827690  0.552030  1.0  -0.5926
  O  O2544  1  0.019270  0.613970  0.657990  1.0  -0.6265
  O  O2545  1  0.867140  0.684780  0.271440  1.0  -0.6156
  O  O2546  1  0.676260  0.878660  0.978480  1.0  -0.6404
  O  O2547  1  0.277230  0.152150  0.012230  1.0  -0.6037
  O  O2548  1  0.478480  0.176260  0.878660  1.0  -0.6413
  O  O2549  1  0.140490  0.206790  0.395610  1.0  -0.6332
  O  O2550  1  0.358680  0.531060  0.153300  1.0  -0.6292
  O  O2551  1  0.307170  0.763130  0.665770  1.0  -0.616
  O  O2552  1  0.458980  0.779860  0.525760  1.0  -0.6177
  O  O2553  1  0.310700  0.558780  0.949820  1.0  -0.608
  O  O2554  1  0.322660  0.407080  0.352800  1.0  -0.6188
  O  O2555  1  0.000000  0.187000  0.000000  1.0  -0.9958
  O  O2556  1  0.487770  0.222770  0.441610  1.0  -0.6039
  O  O2557  1  0.842010  0.386030  0.291230  1.0  -0.626
  O  O2558  1  0.277230  0.012230  0.558390  1.0  -0.6016
  O  O2559  1  0.147200  0.592920  0.082540  1.0  -0.6201
  O  O2560  1  0.058390  0.152150  0.777230  1.0  -0.6019
  O  O2561  1  0.292300  0.253860  0.472780  1.0  -0.6356
  O  O2562  1  0.652150  0.558390  0.777230  1.0  -0.6026
  O  O2563  1  0.947970  0.222030  0.172310  1.0  -0.59
  O  O2564  1  0.231090  0.453790  0.679470  1.0  -0.6347
  O  O2565  1  0.736870  0.334230  0.736070  1.0  -0.6149
  O  O2566  1  0.277970  0.552030  0.342310  1.0  -0.5887
  O  O2567  1  0.705740  0.391560  0.205740  1.0  -1.0064
  O  O2568  1  0.920700  0.235060  0.141860  1.0  -0.6431
  O  O2569  1  0.228560  0.823360  0.315220  1.0  -0.62
  O  O2570  1  0.720140  0.474240  0.764600  1.0  -0.6211
  O  O2571  1  0.820530  0.268910  0.546210  1.0  -0.6341
  O  O2572  1  0.449820  0.180700  0.810700  1.0  -0.6126
  O  O2573  1  0.953790  0.635650  0.679470  1.0  -0.6333
  O  O2574  1  0.653300  0.956960  0.531060  1.0  -0.6255
  O  O2575  1  0.458980  0.779860  0.235400  1.0  -0.6177
  O  O2576  1  0.279860  0.235400  0.525760  1.0  -0.6192
  O  O2577  1  0.196960  0.391560  0.205740  1.0  -1.0072
  O  O2578  1  0.132860  0.728560  0.823360  1.0  -0.6203
  O  O2579  1  0.277970  0.552030  0.827690  1.0  -0.5896
  O  O2580  1  0.052030  0.342310  0.827690  1.0  -0.5878
  O  O2581  1  0.449820  0.810700  0.180700  1.0  -0.6103
  O  O2582  1  0.867140  0.176640  0.271440  1.0  -0.6193
  O  O2583  1  0.343860  0.244180  0.800420  1.0  -0.6171
  O  O2584  1  0.263130  0.807170  0.263930  1.0  -0.614
  O  O2585  1  0.888460  0.156140  0.755820  1.0  -0.615
  O  O2586  1  0.208770  0.519270  0.613970  1.0  -0.6287
  O  O2587  1  0.821110  0.879050  0.922730  1.0  -0.6354
  O  O2588  1  0.815220  0.632860  0.728560  1.0  -0.6181
  O  O2589  1  0.300420  0.611540  0.843860  1.0  -0.6164
  O  O2590  1  0.859510  0.793210  0.742890  1.0  -0.6313
  O  O2591  1  0.550180  0.819300  0.189300  1.0  -0.6103
  O  O2592  1  0.543040  0.468940  0.141320  1.0  -0.6322
  O  O2593  1  0.157690  0.222030  0.172310  1.0  -0.5895
  O  O2594  1  0.178890  0.622890  0.077270  1.0  -0.6349
  O  O2595  1  0.300420  0.244180  0.843860  1.0  -0.6148
  O  O2596  1  0.456960  0.858680  0.153300  1.0  -0.6273
  O  O2597  1  0.676640  0.367140  0.271440  1.0  -0.6209
  O  O2598  1  0.512230  0.777230  0.152150  1.0  -0.6037
  O  O2599  1  0.379050  0.922730  0.377110  1.0  -0.6303
  O  O2600  1  0.541020  0.220140  0.764600  1.0  -0.6172
  O  O2601  1  0.692830  0.736070  0.334230  1.0  -0.6141
  O  O2602  1  0.184780  0.271440  0.176640  1.0  -0.6193
  O  O2603  1  0.947970  0.222030  0.657690  1.0  -0.5905
  O  O2604  1  0.367660  0.433800  0.380160  1.0  -0.614
  O  O2605  1  0.722030  0.172310  0.657690  1.0  -0.5927
  O  O2606  1  0.680700  0.810700  0.949820  1.0  -0.6118
  O  O2607  1  0.757110  0.395610  0.640490  1.0  -0.6347
  O  O2608  1  0.327690  0.777970  0.342310  1.0  -0.5899
  O  O2609  1  0.821110  0.922730  0.879050  1.0  -0.6289
  O  O2610  1  0.842310  0.552030  0.777970  1.0  -0.591
  O  O2611  1  0.680700  0.949820  0.810700  1.0  -0.6116
  O  O2612  1  0.859510  0.742890  0.793210  1.0  -0.6316
  O  O2613  1  0.763930  0.763130  0.807170  1.0  -0.6152
  O  O2614  1  0.735400  0.525760  0.779860  1.0  -0.6207
  O  O2615  1  0.706790  0.257110  0.640490  1.0  -0.6354
  O  O2616  1  0.122890  0.678890  0.120950  1.0  -0.6316
  O  O2617  1  0.358680  0.531060  0.956960  1.0  -0.6294
  O  O2618  1  0.196960  0.205740  0.391560  1.0  -1.0068
  O  O2619  1  0.722770  0.441610  0.987770  1.0  -0.6021
  O  O2620  1  0.092920  0.082540  0.177340  1.0  -0.6158
  O  O2621  1  0.656140  0.199580  0.755820  1.0  -0.6172
  O  O2622  1  0.947970  0.657690  0.172310  1.0  -0.5894
  O  O2623  1  0.318380  0.867660  0.380160  1.0  -0.618
  O  O2624  1  0.236070  0.236870  0.334230  1.0  -0.6149
  O  O2625  1  0.367660  0.380160  0.818380  1.0  -0.6156
  O  O2626  1  0.140490  0.395610  0.257110  1.0  -0.6356
  O  O2627  1  0.171210  0.671210  0.671210  1.0  -0.985
  O  O2628  1  0.763930  0.807170  0.763130  1.0  -0.6172
  O  O2629  1  0.293210  0.742890  0.359510  1.0  -0.6343
  O  O2630  1  0.797620  0.764940  0.858140  1.0  -0.6453
  O  O2631  1  0.487770  0.847850  0.441610  1.0  -0.6046
  O  O2632  1  0.681620  0.619840  0.132340  1.0  -0.6162
  O  O2633  1  0.842010  0.291230  0.480730  1.0  -0.6263
  O  O2634  1  0.521520  0.823740  0.533400  1.0  -0.6381
  O  O2635  1  0.521520  0.533400  0.121340  1.0  -0.6429
  O  O2636  1  0.880160  0.818380  0.433800  1.0  -0.6136
  O  O2637  1  0.803040  0.794260  0.794260  1.0  -1.0069
  O  O2638  1  0.165770  0.807170  0.763130  1.0  -0.617
  O  O2639  1  0.318380  0.433800  0.380160  1.0  -0.6148
  O  O2640  1  0.821110  0.922730  0.377110  1.0  -0.6292
  O  O2641  1  0.888460  0.199580  0.755820  1.0  -0.6175
  O  O2642  1  0.707700  0.746140  0.527220  1.0  -0.6332
  O  O2643  1  0.031060  0.858680  0.956960  1.0  -0.6309
  O  O2644  1  0.242890  0.604390  0.793210  1.0  -0.6361
  O  O2645  1  0.458980  0.235400  0.779860  1.0  -0.6184
  O  O2646  1  0.378660  0.466600  0.978480  1.0  -0.6416
  O  O2647  1  0.886030  0.342010  0.291230  1.0  -0.6279
  O  O2648  1  0.641860  0.702380  0.420700  1.0  -0.6427
  O  O2649  1  0.300420  0.843860  0.611540  1.0  -0.6162
  O  O2650  1  0.842310  0.552030  0.827690  1.0  -0.59
  O  O2651  1  0.888460  0.156140  0.199580  1.0  -0.6149
  O  O2652  1  0.512230  0.152150  0.558390  1.0  -0.6029
  O  O2653  1  0.323360  0.632860  0.315220  1.0  -0.6182
  O  O2654  1  0.135650  0.731090  0.679470  1.0  -0.6351
  O  O2655  1  0.113970  0.657990  0.519270  1.0  -0.63
  O  O2656  1  0.980730  0.291230  0.342010  1.0  -0.6279
  O  O2657  1  0.895610  0.206790  0.640490  1.0  -0.6331
  O  O2658  1  0.672310  0.657690  0.222030  1.0  -0.5896
  O  O2659  1  0.972780  0.981060  0.792300  1.0  -0.634
  O  O2660  1  0.294260  0.608440  0.794260  1.0  -1.0058
  O  O2661  1  0.157690  0.172310  0.222030  1.0  -0.5913
  O  O2662  1  0.821110  0.377110  0.922730  1.0  -0.6323
  O  O2663  1  0.347850  0.441610  0.222770  1.0  -0.6024
  O  O2664  1  0.318380  0.380160  0.433800  1.0  -0.6171
  O  O2665  1  0.358680  0.956960  0.153300  1.0  -0.6272
  O  O2666  1  0.687000  0.500000  0.813000  1.0  -0.995
  O  O2667  1  0.895610  0.640490  0.257110  1.0  -0.6327
  O  O2668  1  0.343860  0.800420  0.244180  1.0  -0.6185
  O  O2669  1  0.313000  0.500000  0.187000  1.0  -0.9947
  O  O2670  1  0.179470  0.453790  0.635650  1.0  -0.6359
  O  O2671  1  0.582540  0.177340  0.592920  1.0  -0.6187
  O  O2672  1  0.768910  0.546210  0.320530  1.0  -0.635
  O  O2673  1  0.757110  0.640490  0.206790  1.0  -0.6324
  O  O2674  1  0.367660  0.380160  0.433800  1.0  -0.6132
  O  O2675  1  0.327690  0.777970  0.552030  1.0  -0.59
  O  O2676  1  0.033400  0.121340  0.021520  1.0  -0.6429
  O  O2677  1  0.541020  0.474240  0.764600  1.0  -0.6186
  O  O2678  1  0.327690  0.342310  0.777970  1.0  -0.5895
  O  O2679  1  0.641860  0.702380  0.235060  1.0  -0.6435
  O  O2680  1  0.680700  0.949820  0.558780  1.0  -0.6119
  O  O2681  1  0.974240  0.220140  0.041020  1.0  -0.6176
  O  O2682  1  0.013630  0.328790  0.328790  1.0  -0.9861
  O  O2683  1  0.974240  0.764600  0.220140  1.0  -0.617
  O  O2684  1  0.122890  0.077270  0.120950  1.0  -0.6306
  O  O2685  1  0.119840  0.566200  0.181620  1.0  -0.6165
  O  O2686  1  0.313000  0.187000  0.000000  1.0  -0.9969
  O  O2687  1  0.310700  0.558780  0.180700  1.0  -0.6077
  O  O2688  1  0.113970  0.708770  0.657990  1.0  -0.6276
  O  O2689  1  0.886030  0.480730  0.342010  1.0  -0.6266
  O  O2690  1  0.941220  0.189300  0.819300  1.0  -0.611
  O  O2691  1  0.113970  0.519270  0.657990  1.0  -0.6282
  O  O2692  1  0.208770  0.657990  0.613970  1.0  -0.6294
  O  O2693  1  0.771440  0.684780  0.176640  1.0  -0.6207
  O  O2694  1  0.815220  0.823360  0.632860  1.0  -0.6175
  O  O2695  1  0.323740  0.121340  0.533400  1.0  -0.6409
  O  O2696  1  0.318380  0.867660  0.433800  1.0  -0.6185
  O  O2697  1  0.891560  0.696960  0.205740  1.0  -1.0069
  O  O2698  1  0.242890  0.793210  0.604390  1.0  -0.635
  O  O2699  1  0.757110  0.640490  0.395610  1.0  -0.632
  O  O2700  1  0.487770  0.222770  0.847850  1.0  -0.6039
  O  O2701  1  0.264600  0.220140  0.474240  1.0  -0.619
  O  O2702  1  0.208770  0.657990  0.519270  1.0  -0.63
  O  O2703  1  0.378660  0.978480  0.466600  1.0  -0.6386
  O  O2704  1  0.263130  0.263930  0.807170  1.0  -0.6164
  O  O2705  1  0.027220  0.746140  0.018940  1.0  -0.6348
  O  O2706  1  0.478480  0.466600  0.176260  1.0  -0.6433
  O  O2707  1  0.228560  0.315220  0.823360  1.0  -0.6216
  O  O2708  1  0.231090  0.635650  0.679470  1.0  -0.6346
  O  O2709  1  0.108440  0.794260  0.794260  1.0  -1.0061
  O  O2710  1  0.025760  0.235400  0.958980  1.0  -0.6188
  O  O2711  1  0.255820  0.156140  0.388460  1.0  -0.6176
  O  O2712  1  0.147200  0.177340  0.082540  1.0  -0.6203
  O  O2713  1  0.052030  0.827690  0.342310  1.0  -0.5921
  O  O2714  1  0.550180  0.189300  0.819300  1.0  -0.6084
  O  O2715  1  0.231090  0.679470  0.453790  1.0  -0.6362
  O  O2716  1  0.293210  0.604390  0.359510  1.0  -0.6339
  O  O2717  1  0.292300  0.981060  0.472780  1.0  -0.6345
  O  O2718  1  0.820530  0.364350  0.268910  1.0  -0.6332
  O  O2719  1  0.228560  0.632860  0.823360  1.0  -0.6203
  O  O2720  1  0.323360  0.728560  0.315220  1.0  -0.6205
