# generated using pymatgen
data_Mn2SiH16(C7N4)4
_symmetry_space_group_name_H-M   'P 1'
_cell_length_a   36.70510000
_cell_length_b   36.70510000
_cell_length_c   36.70510000
_cell_angle_alpha   90.00000000
_cell_angle_beta   90.00000000
_cell_angle_gamma   90.00000000
_symmetry_Int_Tables_number   1
_chemical_formula_structural   Mn2SiH16(C7N4)4
_chemical_formula_sum   'Mn48 Si24 H384 C672 N384'
_cell_volume   49451.47328083
_cell_formula_units_Z   24
loop_
 _symmetry_equiv_pos_site_id
 _symmetry_equiv_pos_as_xyz
  1  'x, y, z'
loop_
 _atom_site_type_symbol
 _atom_site_label
 _atom_site_symmetry_multiplicity
 _atom_site_fract_x
 _atom_site_fract_y
 _atom_site_fract_z
 _atom_site_occupancy
 _atom_site_charge
  Mn  Mn1  1  0.500000  0.500000  0.500000  1.0  0.9645
  Mn  Mn2  1  0.000000  0.000000  0.000000  1.0  0.9645
  Mn  Mn3  1  0.000000  0.500000  0.000000  1.0  0.9645
  Mn  Mn4  1  0.500000  0.000000  0.500000  1.0  0.9645
  Mn  Mn5  1  0.500000  0.000000  0.000000  1.0  0.9645
  Mn  Mn6  1  0.000000  0.500000  0.500000  1.0  0.9645
  Mn  Mn7  1  0.000000  0.000000  0.500000  1.0  0.9645
  Mn  Mn8  1  0.500000  0.500000  0.000000  1.0  0.9645
  Mn  Mn9  1  0.250000  0.750000  0.750000  1.0  0.9645
  Mn  Mn10  1  0.250000  0.250000  0.250000  1.0  0.9645
  Mn  Mn11  1  0.750000  0.750000  0.750000  1.0  0.9645
  Mn  Mn12  1  0.750000  0.750000  0.250000  1.0  0.9645
  Mn  Mn13  1  0.750000  0.250000  0.750000  1.0  0.9645
  Mn  Mn14  1  0.750000  0.250000  0.250000  1.0  0.9645
  Mn  Mn15  1  0.250000  0.250000  0.750000  1.0  0.9645
  Mn  Mn16  1  0.250000  0.750000  0.250000  1.0  0.9645
  Mn  Mn17  1  0.563780  0.563780  0.563780  1.0  0.9854
  Mn  Mn18  1  0.063780  0.063780  0.063780  1.0  0.9854
  Mn  Mn19  1  0.936220  0.436220  0.063780  1.0  0.9805
  Mn  Mn20  1  0.436220  0.936220  0.563780  1.0  0.9805
  Mn  Mn21  1  0.436220  0.063780  0.936220  1.0  0.982
  Mn  Mn22  1  0.936220  0.563780  0.436220  1.0  0.982
  Mn  Mn23  1  0.063780  0.936220  0.436220  1.0  0.9824
  Mn  Mn24  1  0.563780  0.436220  0.936220  1.0  0.9824
  Mn  Mn25  1  0.313780  0.813780  0.686220  1.0  0.9836
  Mn  Mn26  1  0.813780  0.313780  0.186220  1.0  0.9836
  Mn  Mn27  1  0.186220  0.186220  0.186220  1.0  0.9815
  Mn  Mn28  1  0.686220  0.686220  0.686220  1.0  0.9815
  Mn  Mn29  1  0.813780  0.686220  0.313780  1.0  0.9814
  Mn  Mn30  1  0.313780  0.186220  0.813780  1.0  0.9814
  Mn  Mn31  1  0.686220  0.313780  0.813780  1.0  0.9835
  Mn  Mn32  1  0.186220  0.813780  0.313780  1.0  0.9835
  Mn  Mn33  1  0.436220  0.436220  0.436220  1.0  0.9815
  Mn  Mn34  1  0.936220  0.936220  0.936220  1.0  0.9815
  Mn  Mn35  1  0.063780  0.563780  0.936220  1.0  0.9836
  Mn  Mn36  1  0.563780  0.063780  0.436220  1.0  0.9836
  Mn  Mn37  1  0.563780  0.936220  0.063780  1.0  0.9814
  Mn  Mn38  1  0.063780  0.436220  0.563780  1.0  0.9814
  Mn  Mn39  1  0.936220  0.063780  0.563780  1.0  0.9835
  Mn  Mn40  1  0.436220  0.563780  0.063780  1.0  0.9835
  Mn  Mn41  1  0.686220  0.186220  0.313780  1.0  0.9805
  Mn  Mn42  1  0.186220  0.686220  0.813780  1.0  0.9805
  Mn  Mn43  1  0.813780  0.813780  0.813780  1.0  0.9854
  Mn  Mn44  1  0.313780  0.313780  0.313780  1.0  0.9854
  Mn  Mn45  1  0.186220  0.313780  0.686220  1.0  0.982
  Mn  Mn46  1  0.686220  0.813780  0.186220  1.0  0.982
  Mn  Mn47  1  0.313780  0.686220  0.186220  1.0  0.9824
  Mn  Mn48  1  0.813780  0.186220  0.686220  1.0  0.9824
  Si  Si49  1  0.750000  0.375000  0.500000  1.0  1.2254
  Si  Si50  1  0.750000  0.625000  0.000000  1.0  1.2254
  Si  Si51  1  0.250000  0.875000  0.000000  1.0  1.2254
  Si  Si52  1  0.250000  0.125000  0.500000  1.0  1.2254
  Si  Si53  1  0.500000  0.750000  0.375000  1.0  1.2254
  Si  Si54  1  0.000000  0.750000  0.625000  1.0  1.2254
  Si  Si55  1  0.000000  0.250000  0.875000  1.0  1.2254
  Si  Si56  1  0.500000  0.250000  0.125000  1.0  1.2254
  Si  Si57  1  0.375000  0.500000  0.750000  1.0  1.2254
  Si  Si58  1  0.625000  0.000000  0.750000  1.0  1.2254
  Si  Si59  1  0.875000  0.000000  0.250000  1.0  1.2254
  Si  Si60  1  0.125000  0.500000  0.250000  1.0  1.2254
  Si  Si61  1  0.125000  0.000000  0.750000  1.0  1.2254
  Si  Si62  1  0.375000  0.000000  0.250000  1.0  1.2254
  Si  Si63  1  0.625000  0.500000  0.250000  1.0  1.2254
  Si  Si64  1  0.875000  0.500000  0.750000  1.0  1.2254
  Si  Si65  1  0.500000  0.750000  0.875000  1.0  1.2254
  Si  Si66  1  0.500000  0.250000  0.625000  1.0  1.2254
  Si  Si67  1  0.000000  0.250000  0.375000  1.0  1.2254
  Si  Si68  1  0.000000  0.750000  0.125000  1.0  1.2254
  Si  Si69  1  0.250000  0.625000  0.500000  1.0  1.2254
  Si  Si70  1  0.750000  0.875000  0.500000  1.0  1.2254
  Si  Si71  1  0.750000  0.125000  0.000000  1.0  1.2254
  Si  Si72  1  0.250000  0.375000  0.000000  1.0  1.2254
  H  H73  1  0.679900  0.471300  0.551900  1.0  0.131
  H  H74  1  0.628300  0.420800  0.466600  1.0  0.1226
  H  H75  1  0.728400  0.431300  0.543100  1.0  0.0976
  H  H76  1  0.676100  0.384800  0.460300  1.0  0.0865
  H  H77  1  0.179900  0.971300  0.051900  1.0  0.1297
  H  H78  1  0.128300  0.920800  0.966600  1.0  0.1226
  H  H79  1  0.228400  0.931300  0.043100  1.0  0.0976
  H  H80  1  0.176100  0.884800  0.960300  1.0  0.0865
  H  H81  1  0.820100  0.528700  0.051900  1.0  0.1308
  H  H82  1  0.871700  0.579200  0.966600  1.0  0.1228
  H  H83  1  0.771600  0.568700  0.043100  1.0  0.0983
  H  H84  1  0.823900  0.615200  0.960300  1.0  0.0868
  H  H85  1  0.320100  0.028700  0.551900  1.0  0.1308
  H  H86  1  0.371700  0.079200  0.466600  1.0  0.1228
  H  H87  1  0.271600  0.068700  0.543100  1.0  0.0983
  H  H88  1  0.323900  0.115200  0.460300  1.0  0.0868
  H  H89  1  0.320100  0.971300  0.948100  1.0  0.1297
  H  H90  1  0.371700  0.920800  0.033400  1.0  0.1231
  H  H91  1  0.271600  0.931300  0.956900  1.0  0.098
  H  H92  1  0.323900  0.884800  0.039700  1.0  0.0868
  H  H93  1  0.820100  0.471300  0.448100  1.0  0.1306
  H  H94  1  0.871700  0.420800  0.533400  1.0  0.1231
  H  H95  1  0.771600  0.431300  0.456900  1.0  0.098
  H  H96  1  0.823900  0.384800  0.539700  1.0  0.0868
  H  H97  1  0.179900  0.028700  0.448100  1.0  0.1293
  H  H98  1  0.128300  0.079200  0.533400  1.0  0.1228
  H  H99  1  0.228400  0.068700  0.456900  1.0  0.0982
  H  H100  1  0.176100  0.115200  0.539700  1.0  0.0867
  H  H101  1  0.679900  0.528700  0.948100  1.0  0.1293
  H  H102  1  0.628300  0.579200  0.033400  1.0  0.1228
  H  H103  1  0.728400  0.568700  0.956900  1.0  0.0982
  H  H104  1  0.676100  0.615200  0.039700  1.0  0.0867
  H  H105  1  0.551900  0.679900  0.471300  1.0  0.1311
  H  H106  1  0.466600  0.628300  0.420800  1.0  0.1225
  H  H107  1  0.543100  0.728400  0.431300  1.0  0.0972
  H  H108  1  0.460300  0.676100  0.384800  1.0  0.0865
  H  H109  1  0.051900  0.179900  0.971300  1.0  0.1295
  H  H110  1  0.966600  0.128300  0.920800  1.0  0.1225
  H  H111  1  0.043100  0.228400  0.931300  1.0  0.0972
  H  H112  1  0.960300  0.176100  0.884800  1.0  0.0865
  H  H113  1  0.051900  0.820100  0.528700  1.0  0.1304
  H  H114  1  0.966600  0.871700  0.579200  1.0  0.1228
  H  H115  1  0.043100  0.771600  0.568700  1.0  0.0974
  H  H116  1  0.960300  0.823900  0.615200  1.0  0.0868
  H  H117  1  0.551900  0.320100  0.028700  1.0  0.1302
  H  H118  1  0.466600  0.371700  0.079200  1.0  0.1228
  H  H119  1  0.543100  0.271600  0.068700  1.0  0.0974
  H  H120  1  0.460300  0.323900  0.115200  1.0  0.0868
  H  H121  1  0.948100  0.320100  0.971300  1.0  0.1296
  H  H122  1  0.033400  0.371700  0.920800  1.0  0.1232
  H  H123  1  0.956900  0.271600  0.931300  1.0  0.0978
  H  H124  1  0.039700  0.323900  0.884800  1.0  0.0871
  H  H125  1  0.448100  0.820100  0.471300  1.0  0.1309
  H  H126  1  0.533400  0.871700  0.420800  1.0  0.1232
  H  H127  1  0.456900  0.771600  0.431300  1.0  0.0978
  H  H128  1  0.539700  0.823900  0.384800  1.0  0.0871
  H  H129  1  0.448100  0.179900  0.028700  1.0  0.1298
  H  H130  1  0.533400  0.128300  0.079200  1.0  0.1227
  H  H131  1  0.456900  0.228400  0.068700  1.0  0.0978
  H  H132  1  0.539700  0.176100  0.115200  1.0  0.0863
  H  H133  1  0.948100  0.679900  0.528700  1.0  0.13
  H  H134  1  0.033400  0.628300  0.579200  1.0  0.1227
  H  H135  1  0.956900  0.728400  0.568700  1.0  0.0978
  H  H136  1  0.039700  0.676100  0.615200  1.0  0.0863
  H  H137  1  0.471300  0.551900  0.679900  1.0  0.1322
  H  H138  1  0.420800  0.466600  0.628300  1.0  0.1224
  H  H139  1  0.431300  0.543100  0.728400  1.0  0.0969
  H  H140  1  0.384800  0.460300  0.676100  1.0  0.0888
  H  H141  1  0.971300  0.051900  0.179900  1.0  0.1311
  H  H142  1  0.920800  0.966600  0.128300  1.0  0.1224
  H  H143  1  0.931300  0.043100  0.228400  1.0  0.0969
  H  H144  1  0.884800  0.960300  0.176100  1.0  0.0888
  H  H145  1  0.528700  0.051900  0.820100  1.0  0.132
  H  H146  1  0.579200  0.966600  0.871700  1.0  0.123
  H  H147  1  0.568700  0.043100  0.771600  1.0  0.0974
  H  H148  1  0.615200  0.960300  0.823900  1.0  0.0884
  H  H149  1  0.028700  0.551900  0.320100  1.0  0.1319
  H  H150  1  0.079200  0.466600  0.371700  1.0  0.123
  H  H151  1  0.068700  0.543100  0.271600  1.0  0.0974
  H  H152  1  0.115200  0.460300  0.323900  1.0  0.0884
  H  H153  1  0.971300  0.948100  0.320100  1.0  0.13
  H  H154  1  0.920800  0.033400  0.371700  1.0  0.1236
  H  H155  1  0.931300  0.956900  0.271600  1.0  0.0974
  H  H156  1  0.884800  0.039700  0.323900  1.0  0.0889
  H  H157  1  0.471300  0.448100  0.820100  1.0  0.1316
  H  H158  1  0.420800  0.533400  0.871700  1.0  0.1236
  H  H159  1  0.431300  0.456900  0.771600  1.0  0.0974
  H  H160  1  0.384800  0.539700  0.823900  1.0  0.0889
  H  H161  1  0.028700  0.448100  0.179900  1.0  0.1308
  H  H162  1  0.079200  0.533400  0.128300  1.0  0.1231
  H  H163  1  0.068700  0.456900  0.228400  1.0  0.0975
  H  H164  1  0.115200  0.539700  0.176100  1.0  0.0885
  H  H165  1  0.528700  0.948100  0.679900  1.0  0.1309
  H  H166  1  0.579200  0.033400  0.628300  1.0  0.1231
  H  H167  1  0.568700  0.956900  0.728400  1.0  0.0975
  H  H168  1  0.615200  0.039700  0.676100  1.0  0.0885
  H  H169  1  0.221300  0.929900  0.698100  1.0  0.1308
  H  H170  1  0.170800  0.878300  0.783400  1.0  0.1227
  H  H171  1  0.181300  0.978400  0.706900  1.0  0.0977
  H  H172  1  0.134800  0.926100  0.789700  1.0  0.0879
  H  H173  1  0.721300  0.429900  0.198100  1.0  0.1308
  H  H174  1  0.670800  0.378300  0.283400  1.0  0.1227
  H  H175  1  0.681300  0.478400  0.206900  1.0  0.0977
  H  H176  1  0.634800  0.426100  0.289700  1.0  0.0879
  H  H177  1  0.278700  0.070100  0.198100  1.0  0.1299
  H  H178  1  0.329200  0.121700  0.283400  1.0  0.1225
  H  H179  1  0.318700  0.021600  0.206900  1.0  0.0966
  H  H180  1  0.365200  0.073900  0.289700  1.0  0.0886
  H  H181  1  0.778700  0.570100  0.698100  1.0  0.1299
  H  H182  1  0.829200  0.621700  0.783400  1.0  0.1225
  H  H183  1  0.818700  0.521600  0.706900  1.0  0.0966
  H  H184  1  0.865200  0.573900  0.789700  1.0  0.0886
  H  H185  1  0.721300  0.570100  0.301900  1.0  0.131
  H  H186  1  0.670800  0.621700  0.216600  1.0  0.1222
  H  H187  1  0.681300  0.521600  0.293100  1.0  0.0964
  H  H188  1  0.634800  0.573900  0.210300  1.0  0.0884
  H  H189  1  0.221300  0.070100  0.801900  1.0  0.131
  H  H190  1  0.170800  0.121700  0.716600  1.0  0.1222
  H  H191  1  0.181300  0.021600  0.793100  1.0  0.0964
  H  H192  1  0.134800  0.073900  0.710300  1.0  0.0884
  H  H193  1  0.778700  0.429900  0.801900  1.0  0.1309
  H  H194  1  0.829200  0.378300  0.716600  1.0  0.1216
  H  H195  1  0.818700  0.478400  0.793100  1.0  0.0974
  H  H196  1  0.865200  0.426100  0.710300  1.0  0.0877
  H  H197  1  0.278700  0.929900  0.301900  1.0  0.1309
  H  H198  1  0.329200  0.878300  0.216600  1.0  0.1216
  H  H199  1  0.318700  0.978400  0.293100  1.0  0.0974
  H  H200  1  0.365200  0.926100  0.210300  1.0  0.0877
  H  H201  1  0.429900  0.801900  0.778700  1.0  0.1303
  H  H202  1  0.378300  0.716600  0.829200  1.0  0.1226
  H  H203  1  0.478400  0.793100  0.818700  1.0  0.0979
  H  H204  1  0.426100  0.710300  0.865200  1.0  0.0857
  H  H205  1  0.929900  0.301900  0.278700  1.0  0.1303
  H  H206  1  0.878300  0.216600  0.329200  1.0  0.1226
  H  H207  1  0.978400  0.293100  0.318700  1.0  0.0979
  H  H208  1  0.926100  0.210300  0.365200  1.0  0.0857
  H  H209  1  0.570100  0.301900  0.721300  1.0  0.1316
  H  H210  1  0.621700  0.216600  0.670800  1.0  0.1228
  H  H211  1  0.521600  0.293100  0.681300  1.0  0.0986
  H  H212  1  0.573900  0.210300  0.634800  1.0  0.0863
  H  H213  1  0.070100  0.801900  0.221300  1.0  0.1316
  H  H214  1  0.121700  0.716600  0.170800  1.0  0.1228
  H  H215  1  0.021600  0.793100  0.181300  1.0  0.0986
  H  H216  1  0.073900  0.710300  0.134800  1.0  0.0863
  H  H217  1  0.070100  0.198100  0.278700  1.0  0.1296
  H  H218  1  0.121700  0.283400  0.329200  1.0  0.1233
  H  H219  1  0.021600  0.206900  0.318700  1.0  0.0981
  H  H220  1  0.073900  0.289700  0.365200  1.0  0.0858
  H  H221  1  0.570100  0.698100  0.778700  1.0  0.1296
  H  H222  1  0.621700  0.783400  0.829200  1.0  0.1233
  H  H223  1  0.521600  0.706900  0.818700  1.0  0.0981
  H  H224  1  0.573900  0.789700  0.865200  1.0  0.0858
  H  H225  1  0.929900  0.698100  0.221300  1.0  0.1305
  H  H226  1  0.878300  0.783400  0.170800  1.0  0.1233
  H  H227  1  0.978400  0.706900  0.181300  1.0  0.0983
  H  H228  1  0.926100  0.789700  0.134800  1.0  0.086
  H  H229  1  0.429900  0.198100  0.721300  1.0  0.1305
  H  H230  1  0.378300  0.283400  0.670800  1.0  0.1233
  H  H231  1  0.478400  0.206900  0.681300  1.0  0.0983
  H  H232  1  0.426100  0.289700  0.634800  1.0  0.086
  H  H233  1  0.301900  0.721300  0.570100  1.0  0.1323
  H  H234  1  0.216600  0.670800  0.621700  1.0  0.1238
  H  H235  1  0.293100  0.681300  0.521600  1.0  0.0975
  H  H236  1  0.210300  0.634800  0.573900  1.0  0.0879
  H  H237  1  0.801900  0.221300  0.070100  1.0  0.1323
  H  H238  1  0.716600  0.170800  0.121700  1.0  0.1238
  H  H239  1  0.793100  0.181300  0.021600  1.0  0.0975
  H  H240  1  0.710300  0.134800  0.073900  1.0  0.0879
  H  H241  1  0.801900  0.778700  0.429900  1.0  0.1316
  H  H242  1  0.716600  0.829200  0.378300  1.0  0.1229
  H  H243  1  0.793100  0.818700  0.478400  1.0  0.0976
  H  H244  1  0.710300  0.865200  0.426100  1.0  0.0877
  H  H245  1  0.301900  0.278700  0.929900  1.0  0.1316
  H  H246  1  0.216600  0.329200  0.878300  1.0  0.1229
  H  H247  1  0.293100  0.318700  0.978400  1.0  0.0976
  H  H248  1  0.210300  0.365200  0.926100  1.0  0.0877
  H  H249  1  0.698100  0.221300  0.929900  1.0  0.1318
  H  H250  1  0.783400  0.170800  0.878300  1.0  0.1232
  H  H251  1  0.706900  0.181300  0.978400  1.0  0.0971
  H  H252  1  0.789700  0.134800  0.926100  1.0  0.0879
  H  H253  1  0.198100  0.721300  0.429900  1.0  0.1318
  H  H254  1  0.283400  0.670800  0.378300  1.0  0.1232
  H  H255  1  0.206900  0.681300  0.478400  1.0  0.0971
  H  H256  1  0.289700  0.634800  0.426100  1.0  0.0879
  H  H257  1  0.198100  0.278700  0.070100  1.0  0.131
  H  H258  1  0.283400  0.329200  0.121700  1.0  0.1235
  H  H259  1  0.206900  0.318700  0.021600  1.0  0.0975
  H  H260  1  0.289700  0.365200  0.073900  1.0  0.0872
  H  H261  1  0.698100  0.778700  0.570100  1.0  0.131
  H  H262  1  0.783400  0.829200  0.621700  1.0  0.1235
  H  H263  1  0.706900  0.818700  0.521600  1.0  0.0975
  H  H264  1  0.789700  0.865200  0.573900  1.0  0.0872
  H  H265  1  0.320100  0.528700  0.448100  1.0  0.1296
  H  H266  1  0.371700  0.579200  0.533400  1.0  0.1229
  H  H267  1  0.271600  0.568700  0.456900  1.0  0.0984
  H  H268  1  0.323900  0.615200  0.539700  1.0  0.0864
  H  H269  1  0.820100  0.028700  0.948100  1.0  0.1285
  H  H270  1  0.871700  0.079200  0.033400  1.0  0.1229
  H  H271  1  0.771600  0.068700  0.956900  1.0  0.0984
  H  H272  1  0.823900  0.115200  0.039700  1.0  0.0864
  H  H273  1  0.179900  0.471300  0.948100  1.0  0.1304
  H  H274  1  0.128300  0.420800  0.033400  1.0  0.1231
  H  H275  1  0.228400  0.431300  0.956900  1.0  0.0976
  H  H276  1  0.176100  0.384800  0.039700  1.0  0.0869
  H  H277  1  0.679900  0.971300  0.448100  1.0  0.1305
  H  H278  1  0.628300  0.920800  0.533400  1.0  0.1231
  H  H279  1  0.728400  0.931300  0.456900  1.0  0.0976
  H  H280  1  0.676100  0.884800  0.539700  1.0  0.0869
  H  H281  1  0.679900  0.028700  0.051900  1.0  0.1291
  H  H282  1  0.628300  0.079200  0.966600  1.0  0.1225
  H  H283  1  0.728400  0.068700  0.043100  1.0  0.0983
  H  H284  1  0.676100  0.115200  0.960300  1.0  0.0862
  H  H285  1  0.179900  0.528700  0.551900  1.0  0.1304
  H  H286  1  0.128300  0.579200  0.466600  1.0  0.1225
  H  H287  1  0.228400  0.568700  0.543100  1.0  0.0983
  H  H288  1  0.176100  0.615200  0.460300  1.0  0.0862
  H  H289  1  0.820100  0.971300  0.551900  1.0  0.131
  H  H290  1  0.871700  0.920800  0.466600  1.0  0.1228
  H  H291  1  0.771600  0.931300  0.543100  1.0  0.0979
  H  H292  1  0.823900  0.884800  0.460300  1.0  0.0871
  H  H293  1  0.320100  0.471300  0.051900  1.0  0.1312
  H  H294  1  0.371700  0.420800  0.966600  1.0  0.1228
  H  H295  1  0.271600  0.431300  0.043100  1.0  0.0979
  H  H296  1  0.323900  0.384800  0.960300  1.0  0.0871
  H  H297  1  0.448100  0.320100  0.528700  1.0  0.1299
  H  H298  1  0.533400  0.371700  0.579200  1.0  0.1228
  H  H299  1  0.456900  0.271600  0.568700  1.0  0.0968
  H  H300  1  0.539700  0.323900  0.615200  1.0  0.0867
  H  H301  1  0.948100  0.820100  0.028700  1.0  0.1287
  H  H302  1  0.033400  0.871700  0.079200  1.0  0.1228
  H  H303  1  0.956900  0.771600  0.068700  1.0  0.0968
  H  H304  1  0.039700  0.823900  0.115200  1.0  0.0867
  H  H305  1  0.948100  0.179900  0.471300  1.0  0.131
  H  H306  1  0.033400  0.128300  0.420800  1.0  0.1226
  H  H307  1  0.956900  0.228400  0.431300  1.0  0.0982
  H  H308  1  0.039700  0.176100  0.384800  1.0  0.0866
  H  H309  1  0.448100  0.679900  0.971300  1.0  0.1305
  H  H310  1  0.533400  0.628300  0.920800  1.0  0.1226
  H  H311  1  0.456900  0.728400  0.931300  1.0  0.0982
  H  H312  1  0.539700  0.676100  0.884800  1.0  0.0866
  H  H313  1  0.051900  0.679900  0.028700  1.0  0.1294
  H  H314  1  0.966600  0.628300  0.079200  1.0  0.1229
  H  H315  1  0.043100  0.728400  0.068700  1.0  0.0979
  H  H316  1  0.960300  0.676100  0.115200  1.0  0.0863
  H  H317  1  0.551900  0.179900  0.528700  1.0  0.1307
  H  H318  1  0.466600  0.128300  0.579200  1.0  0.1229
  H  H319  1  0.543100  0.228400  0.568700  1.0  0.0979
  H  H320  1  0.460300  0.176100  0.615200  1.0  0.0863
  H  H321  1  0.551900  0.820100  0.971300  1.0  0.1304
  H  H322  1  0.466600  0.871700  0.920800  1.0  0.1229
  H  H323  1  0.543100  0.771600  0.931300  1.0  0.0973
  H  H324  1  0.460300  0.823900  0.884800  1.0  0.087
  H  H325  1  0.051900  0.320100  0.471300  1.0  0.131
  H  H326  1  0.966600  0.371700  0.420800  1.0  0.1229
  H  H327  1  0.043100  0.271600  0.431300  1.0  0.0973
  H  H328  1  0.960300  0.323900  0.384800  1.0  0.087
  H  H329  1  0.528700  0.448100  0.320100  1.0  0.131
  H  H330  1  0.579200  0.533400  0.371700  1.0  0.1236
  H  H331  1  0.568700  0.456900  0.271600  1.0  0.0974
  H  H332  1  0.615200  0.539700  0.323900  1.0  0.0885
  H  H333  1  0.028700  0.948100  0.820100  1.0  0.1295
  H  H334  1  0.079200  0.033400  0.871700  1.0  0.1236
  H  H335  1  0.068700  0.956900  0.771600  1.0  0.0974
  H  H336  1  0.115200  0.039700  0.823900  1.0  0.0885
  H  H337  1  0.471300  0.948100  0.179900  1.0  0.1315
  H  H338  1  0.420800  0.033400  0.128300  1.0  0.123
  H  H339  1  0.431300  0.956900  0.228400  1.0  0.0968
  H  H340  1  0.384800  0.039700  0.176100  1.0  0.089
  H  H341  1  0.971300  0.448100  0.679900  1.0  0.1313
  H  H342  1  0.920800  0.533400  0.628300  1.0  0.123
  H  H343  1  0.931300  0.456900  0.728400  1.0  0.0968
  H  H344  1  0.884800  0.539700  0.676100  1.0  0.089
  H  H345  1  0.028700  0.051900  0.679900  1.0  0.131
  H  H346  1  0.079200  0.966600  0.628300  1.0  0.1223
  H  H347  1  0.068700  0.043100  0.728400  1.0  0.0973
  H  H348  1  0.115200  0.960300  0.676100  1.0  0.0888
  H  H349  1  0.528700  0.551900  0.179900  1.0  0.1318
  H  H350  1  0.579200  0.466600  0.128300  1.0  0.1223
  H  H351  1  0.568700  0.543100  0.228400  1.0  0.0973
  H  H352  1  0.615200  0.460300  0.176100  1.0  0.0888
  H  H353  1  0.971300  0.551900  0.820100  1.0  0.1323
  H  H354  1  0.920800  0.466600  0.871700  1.0  0.1232
  H  H355  1  0.931300  0.543100  0.771600  1.0  0.0973
  H  H356  1  0.884800  0.460300  0.823900  1.0  0.0884
  H  H357  1  0.471300  0.051900  0.320100  1.0  0.1324
  H  H358  1  0.420800  0.966600  0.371700  1.0  0.1232
  H  H359  1  0.431300  0.043100  0.271600  1.0  0.0973
  H  H360  1  0.384800  0.960300  0.323900  1.0  0.0884
  H  H361  1  0.778700  0.070100  0.301900  1.0  0.1308
  H  H362  1  0.829200  0.121700  0.216600  1.0  0.1224
  H  H363  1  0.818700  0.021600  0.293100  1.0  0.0974
  H  H364  1  0.865200  0.073900  0.210300  1.0  0.0881
  H  H365  1  0.278700  0.570100  0.801900  1.0  0.1308
  H  H366  1  0.329200  0.621700  0.716600  1.0  0.1224
  H  H367  1  0.318700  0.521600  0.793100  1.0  0.0974
  H  H368  1  0.365200  0.573900  0.710300  1.0  0.0881
  H  H369  1  0.721300  0.929900  0.801900  1.0  0.1312
  H  H370  1  0.670800  0.878300  0.716600  1.0  0.1218
  H  H371  1  0.681300  0.978400  0.793100  1.0  0.0964
  H  H372  1  0.634800  0.926100  0.710300  1.0  0.0877
  H  H373  1  0.221300  0.429900  0.301900  1.0  0.1312
  H  H374  1  0.170800  0.378300  0.216600  1.0  0.1218
  H  H375  1  0.181300  0.478400  0.293100  1.0  0.0964
  H  H376  1  0.134800  0.426100  0.210300  1.0  0.0877
  H  H377  1  0.278700  0.429900  0.698100  1.0  0.1301
  H  H378  1  0.329200  0.378300  0.783400  1.0  0.1225
  H  H379  1  0.318700  0.478400  0.706900  1.0  0.0976
  H  H380  1  0.365200  0.426100  0.789700  1.0  0.0879
  H  H381  1  0.778700  0.929900  0.198100  1.0  0.1301
  H  H382  1  0.829200  0.878300  0.283400  1.0  0.1225
  H  H383  1  0.818700  0.978400  0.206900  1.0  0.0976
  H  H384  1  0.865200  0.926100  0.289700  1.0  0.0879
  H  H385  1  0.221300  0.570100  0.198100  1.0  0.1306
  H  H386  1  0.170800  0.621700  0.283400  1.0  0.1224
  H  H387  1  0.181300  0.521600  0.206900  1.0  0.0972
  H  H388  1  0.134800  0.573900  0.289700  1.0  0.0888
  H  H389  1  0.721300  0.070100  0.698100  1.0  0.1306
  H  H390  1  0.670800  0.121700  0.783400  1.0  0.1224
  H  H391  1  0.681300  0.021600  0.706900  1.0  0.0972
  H  H392  1  0.634800  0.073900  0.789700  1.0  0.0888
  H  H393  1  0.570100  0.198100  0.221300  1.0  0.1308
  H  H394  1  0.621700  0.283400  0.170800  1.0  0.1234
  H  H395  1  0.521600  0.206900  0.181300  1.0  0.0985
  H  H396  1  0.573900  0.289700  0.134800  1.0  0.0864
  H  H397  1  0.070100  0.698100  0.721300  1.0  0.1308
  H  H398  1  0.121700  0.783400  0.670800  1.0  0.1234
  H  H399  1  0.021600  0.706900  0.681300  1.0  0.0985
  H  H400  1  0.073900  0.789700  0.634800  1.0  0.0864
  H  H401  1  0.429900  0.698100  0.278700  1.0  0.1293
  H  H402  1  0.378300  0.783400  0.329200  1.0  0.1233
  H  H403  1  0.478400  0.706900  0.318700  1.0  0.098
  H  H404  1  0.426100  0.789700  0.365200  1.0  0.0858
  H  H405  1  0.929900  0.198100  0.778700  1.0  0.1293
  H  H406  1  0.878300  0.283400  0.829200  1.0  0.1233
  H  H407  1  0.978400  0.206900  0.818700  1.0  0.098
  H  H408  1  0.926100  0.289700  0.865200  1.0  0.0858
  H  H409  1  0.929900  0.801900  0.721300  1.0  0.1313
  H  H410  1  0.878300  0.716600  0.670800  1.0  0.1225
  H  H411  1  0.978400  0.793100  0.681300  1.0  0.0982
  H  H412  1  0.926100  0.710300  0.634800  1.0  0.0854
  H  H413  1  0.429900  0.301900  0.221300  1.0  0.1313
  H  H414  1  0.378300  0.216600  0.170800  1.0  0.1225
  H  H415  1  0.478400  0.293100  0.181300  1.0  0.0982
  H  H416  1  0.426100  0.210300  0.134800  1.0  0.0854
  H  H417  1  0.070100  0.301900  0.778700  1.0  0.1306
  H  H418  1  0.121700  0.216600  0.829200  1.0  0.1227
  H  H419  1  0.021600  0.293100  0.818700  1.0  0.0981
  H  H420  1  0.073900  0.210300  0.865200  1.0  0.0859
  H  H421  1  0.570100  0.801900  0.278700  1.0  0.1306
  H  H422  1  0.621700  0.716600  0.329200  1.0  0.1227
  H  H423  1  0.521600  0.793100  0.318700  1.0  0.0981
  H  H424  1  0.573900  0.710300  0.365200  1.0  0.0859
  H  H425  1  0.698100  0.278700  0.429900  1.0  0.131
  H  H426  1  0.783400  0.329200  0.378300  1.0  0.1234
  H  H427  1  0.706900  0.318700  0.478400  1.0  0.0976
  H  H428  1  0.789700  0.365200  0.426100  1.0  0.0877
  H  H429  1  0.198100  0.778700  0.929900  1.0  0.131
  H  H430  1  0.283400  0.829200  0.878300  1.0  0.1234
  H  H431  1  0.206900  0.818700  0.978400  1.0  0.0976
  H  H432  1  0.289700  0.865200  0.926100  1.0  0.0877
  H  H433  1  0.198100  0.221300  0.570100  1.0  0.1319
  H  H434  1  0.283400  0.170800  0.621700  1.0  0.1236
  H  H435  1  0.206900  0.181300  0.521600  1.0  0.0971
  H  H436  1  0.289700  0.134800  0.573900  1.0  0.0871
  H  H437  1  0.698100  0.721300  0.070100  1.0  0.1319
  H  H438  1  0.783400  0.670800  0.121700  1.0  0.1236
  H  H439  1  0.706900  0.681300  0.021600  1.0  0.0971
  H  H440  1  0.789700  0.634800  0.073900  1.0  0.0871
  H  H441  1  0.301900  0.778700  0.070100  1.0  0.1316
  H  H442  1  0.216600  0.829200  0.121700  1.0  0.1235
  H  H443  1  0.293100  0.818700  0.021600  1.0  0.098
  H  H444  1  0.210300  0.865200  0.073900  1.0  0.0881
  H  H445  1  0.801900  0.278700  0.570100  1.0  0.1316
  H  H446  1  0.716600  0.329200  0.621700  1.0  0.1235
  H  H447  1  0.793100  0.318700  0.521600  1.0  0.098
  H  H448  1  0.710300  0.365200  0.573900  1.0  0.0881
  H  H449  1  0.801900  0.721300  0.929900  1.0  0.1322
  H  H450  1  0.716600  0.670800  0.878300  1.0  0.123
  H  H451  1  0.793100  0.681300  0.978400  1.0  0.0971
  H  H452  1  0.710300  0.634800  0.926100  1.0  0.088
  H  H453  1  0.301900  0.221300  0.429900  1.0  0.1322
  H  H454  1  0.216600  0.170800  0.378300  1.0  0.123
  H  H455  1  0.293100  0.181300  0.478400  1.0  0.0971
  H  H456  1  0.210300  0.134800  0.426100  1.0  0.088
  C  C457  1  0.611500  0.469800  0.515200  1.0  0.2949
  C  C458  1  0.646100  0.446200  0.510500  1.0  -0.1054
  C  C459  1  0.679000  0.452500  0.534200  1.0  -0.0934
  C  C460  1  0.647800  0.422600  0.483400  1.0  -0.1062
  C  C461  1  0.707400  0.429100  0.528300  1.0  -0.0327
  C  C462  1  0.676300  0.401800  0.479800  1.0  -0.0403
  C  C463  1  0.706900  0.402200  0.501800  1.0  -0.1685
  C  C464  1  0.111500  0.969800  0.015200  1.0  0.2949
  C  C465  1  0.146100  0.946200  0.010500  1.0  -0.1054
  C  C466  1  0.179000  0.952500  0.034200  1.0  -0.0934
  C  C467  1  0.147800  0.922600  0.983400  1.0  -0.1062
  C  C468  1  0.207400  0.929100  0.028300  1.0  -0.0327
  C  C469  1  0.176300  0.901800  0.979800  1.0  -0.0403
  C  C470  1  0.206900  0.902200  0.001800  1.0  -0.1685
  C  C471  1  0.888500  0.530200  0.015200  1.0  0.2949
  C  C472  1  0.853900  0.553800  0.010500  1.0  -0.1053
  C  C473  1  0.821000  0.547500  0.034200  1.0  -0.094
  C  C474  1  0.852200  0.577400  0.983400  1.0  -0.1076
  C  C475  1  0.792600  0.570900  0.028300  1.0  -0.0314
  C  C476  1  0.823700  0.598200  0.979800  1.0  -0.0401
  C  C477  1  0.793100  0.597800  0.001800  1.0  -0.1695
  C  C478  1  0.388500  0.030200  0.515200  1.0  0.2949
  C  C479  1  0.353900  0.053800  0.510500  1.0  -0.1053
  C  C480  1  0.321000  0.047500  0.534200  1.0  -0.094
  C  C481  1  0.352200  0.077400  0.483400  1.0  -0.1076
  C  C482  1  0.292600  0.070900  0.528300  1.0  -0.0314
  C  C483  1  0.323700  0.098200  0.479800  1.0  -0.0401
  C  C484  1  0.293100  0.097800  0.501800  1.0  -0.1695
  C  C485  1  0.388500  0.969800  0.984800  1.0  0.2944
  C  C486  1  0.353900  0.946200  0.989500  1.0  -0.1052
  C  C487  1  0.321000  0.952500  0.965800  1.0  -0.0932
  C  C488  1  0.352200  0.922600  0.016600  1.0  -0.1082
  C  C489  1  0.292600  0.929100  0.971700  1.0  -0.0333
  C  C490  1  0.323700  0.901800  0.020200  1.0  -0.0403
  C  C491  1  0.293100  0.902200  0.998200  1.0  -0.1694
  C  C492  1  0.888500  0.469800  0.484800  1.0  0.2944
  C  C493  1  0.853900  0.446200  0.489500  1.0  -0.1052
  C  C494  1  0.821000  0.452500  0.465800  1.0  -0.0932
  C  C495  1  0.852200  0.422600  0.516600  1.0  -0.1082
  C  C496  1  0.792600  0.429100  0.471700  1.0  -0.0333
  C  C497  1  0.823700  0.401800  0.520200  1.0  -0.0403
  C  C498  1  0.793100  0.402200  0.498200  1.0  -0.1694
  C  C499  1  0.111500  0.030200  0.484800  1.0  0.2963
  C  C500  1  0.146100  0.053800  0.489500  1.0  -0.1059
  C  C501  1  0.179000  0.047500  0.465800  1.0  -0.093
  C  C502  1  0.147800  0.077400  0.516600  1.0  -0.1073
  C  C503  1  0.207400  0.070900  0.471700  1.0  -0.0329
  C  C504  1  0.176300  0.098200  0.520200  1.0  -0.0407
  C  C505  1  0.206900  0.097800  0.498200  1.0  -0.1683
  C  C506  1  0.611500  0.530200  0.984800  1.0  0.2963
  C  C507  1  0.646100  0.553800  0.989500  1.0  -0.1059
  C  C508  1  0.679000  0.547500  0.965800  1.0  -0.093
  C  C509  1  0.647800  0.577400  0.016600  1.0  -0.1073
  C  C510  1  0.707400  0.570900  0.971700  1.0  -0.0329
  C  C511  1  0.676300  0.598200  0.020200  1.0  -0.0407
  C  C512  1  0.706900  0.597800  0.998200  1.0  -0.1683
  C  C513  1  0.515200  0.611500  0.469800  1.0  0.2948
  C  C514  1  0.510500  0.646100  0.446200  1.0  -0.1041
  C  C515  1  0.534200  0.679000  0.452500  1.0  -0.0925
  C  C516  1  0.483400  0.647800  0.422600  1.0  -0.1055
  C  C517  1  0.528300  0.707400  0.429100  1.0  -0.0334
  C  C518  1  0.479800  0.676300  0.401800  1.0  -0.0376
  C  C519  1  0.501800  0.706900  0.402200  1.0  -0.1709
  C  C520  1  0.015200  0.111500  0.969800  1.0  0.2948
  C  C521  1  0.010500  0.146100  0.946200  1.0  -0.1041
  C  C522  1  0.034200  0.179000  0.952500  1.0  -0.0925
  C  C523  1  0.983400  0.147800  0.922600  1.0  -0.1055
  C  C524  1  0.028300  0.207400  0.929100  1.0  -0.0334
  C  C525  1  0.979800  0.176300  0.901800  1.0  -0.0376
  C  C526  1  0.001800  0.206900  0.902200  1.0  -0.1709
  C  C527  1  0.015200  0.888500  0.530200  1.0  0.2934
  C  C528  1  0.010500  0.853900  0.553800  1.0  -0.1053
  C  C529  1  0.034200  0.821000  0.547500  1.0  -0.0913
  C  C530  1  0.983400  0.852200  0.577400  1.0  -0.1059
  C  C531  1  0.028300  0.792600  0.570900  1.0  -0.0323
  C  C532  1  0.979800  0.823700  0.598200  1.0  -0.0373
  C  C533  1  0.001800  0.793100  0.597800  1.0  -0.1715
  C  C534  1  0.515200  0.388500  0.030200  1.0  0.2934
  C  C535  1  0.510500  0.353900  0.053800  1.0  -0.1053
  C  C536  1  0.534200  0.321000  0.047500  1.0  -0.0913
  C  C537  1  0.483400  0.352200  0.077400  1.0  -0.1059
  C  C538  1  0.528300  0.292600  0.070900  1.0  -0.0323
  C  C539  1  0.479800  0.323700  0.098200  1.0  -0.0373
  C  C540  1  0.501800  0.293100  0.097800  1.0  -0.1715
  C  C541  1  0.984800  0.388500  0.969800  1.0  0.2946
  C  C542  1  0.989500  0.353900  0.946200  1.0  -0.1088
  C  C543  1  0.965800  0.321000  0.952500  1.0  -0.0933
  C  C544  1  0.016600  0.352200  0.922600  1.0  -0.1062
  C  C545  1  0.971700  0.292600  0.929100  1.0  -0.0319
  C  C546  1  0.020200  0.323700  0.901800  1.0  -0.038
  C  C547  1  0.998200  0.293100  0.902200  1.0  -0.1713
  C  C548  1  0.484800  0.888500  0.469800  1.0  0.2946
  C  C549  1  0.489500  0.853900  0.446200  1.0  -0.1088
  C  C550  1  0.465800  0.821000  0.452500  1.0  -0.0933
  C  C551  1  0.516600  0.852200  0.422600  1.0  -0.1062
  C  C552  1  0.471700  0.792600  0.429100  1.0  -0.0319
  C  C553  1  0.520200  0.823700  0.401800  1.0  -0.038
  C  C554  1  0.498200  0.793100  0.402200  1.0  -0.1713
  C  C555  1  0.484800  0.111500  0.030200  1.0  0.2944
  C  C556  1  0.489500  0.146100  0.053800  1.0  -0.1108
  C  C557  1  0.465800  0.179000  0.047500  1.0  -0.0916
  C  C558  1  0.516600  0.147800  0.077400  1.0  -0.1066
  C  C559  1  0.471700  0.207400  0.070900  1.0  -0.0318
  C  C560  1  0.520200  0.176300  0.098200  1.0  -0.0364
  C  C561  1  0.498200  0.206900  0.097800  1.0  -0.1713
  C  C562  1  0.984800  0.611500  0.530200  1.0  0.2944
  C  C563  1  0.989500  0.646100  0.553800  1.0  -0.1108
  C  C564  1  0.965800  0.679000  0.547500  1.0  -0.0916
  C  C565  1  0.016600  0.647800  0.577400  1.0  -0.1066
  C  C566  1  0.971700  0.707400  0.570900  1.0  -0.0318
  C  C567  1  0.020200  0.676300  0.598200  1.0  -0.0364
  C  C568  1  0.998200  0.706900  0.597800  1.0  -0.1713
  C  C569  1  0.469800  0.515200  0.611500  1.0  0.2952
  C  C570  1  0.446200  0.510500  0.646100  1.0  -0.1049
  C  C571  1  0.452500  0.534200  0.679000  1.0  -0.0902
  C  C572  1  0.422600  0.483400  0.647800  1.0  -0.1043
  C  C573  1  0.429100  0.528300  0.707400  1.0  -0.0308
  C  C574  1  0.401800  0.479800  0.676300  1.0  -0.041
  C  C575  1  0.402200  0.501800  0.706900  1.0  -0.1726
  C  C576  1  0.969800  0.015200  0.111500  1.0  0.2952
  C  C577  1  0.946200  0.010500  0.146100  1.0  -0.1049
  C  C578  1  0.952500  0.034200  0.179000  1.0  -0.0902
  C  C579  1  0.922600  0.983400  0.147800  1.0  -0.1043
  C  C580  1  0.929100  0.028300  0.207400  1.0  -0.0308
  C  C581  1  0.901800  0.979800  0.176300  1.0  -0.041
  C  C582  1  0.902200  0.001800  0.206900  1.0  -0.1726
  C  C583  1  0.530200  0.015200  0.888500  1.0  0.2955
  C  C584  1  0.553800  0.010500  0.853900  1.0  -0.1067
  C  C585  1  0.547500  0.034200  0.821000  1.0  -0.0926
  C  C586  1  0.577400  0.983400  0.852200  1.0  -0.1052
  C  C587  1  0.570900  0.028300  0.792600  1.0  -0.0306
  C  C588  1  0.598200  0.979800  0.823700  1.0  -0.0424
  C  C589  1  0.597800  0.001800  0.793100  1.0  -0.1708
  C  C590  1  0.030200  0.515200  0.388500  1.0  0.2955
  C  C591  1  0.053800  0.510500  0.353900  1.0  -0.1067
  C  C592  1  0.047500  0.534200  0.321000  1.0  -0.0926
  C  C593  1  0.077400  0.483400  0.352200  1.0  -0.1052
  C  C594  1  0.070900  0.528300  0.292600  1.0  -0.0306
  C  C595  1  0.098200  0.479800  0.323700  1.0  -0.0424
  C  C596  1  0.097800  0.501800  0.293100  1.0  -0.1708
  C  C597  1  0.969800  0.984800  0.388500  1.0  0.2954
  C  C598  1  0.946200  0.989500  0.353900  1.0  -0.105
  C  C599  1  0.952500  0.965800  0.321000  1.0  -0.0912
  C  C600  1  0.922600  0.016600  0.352200  1.0  -0.1059
  C  C601  1  0.929100  0.971700  0.292600  1.0  -0.0302
  C  C602  1  0.901800  0.020200  0.323700  1.0  -0.0438
  C  C603  1  0.902200  0.998200  0.293100  1.0  -0.1725
  C  C604  1  0.469800  0.484800  0.888500  1.0  0.2954
  C  C605  1  0.446200  0.489500  0.853900  1.0  -0.105
  C  C606  1  0.452500  0.465800  0.821000  1.0  -0.0912
  C  C607  1  0.422600  0.516600  0.852200  1.0  -0.1059
  C  C608  1  0.429100  0.471700  0.792600  1.0  -0.0302
  C  C609  1  0.401800  0.520200  0.823700  1.0  -0.0438
  C  C610  1  0.402200  0.498200  0.793100  1.0  -0.1725
  C  C611  1  0.030200  0.484800  0.111500  1.0  0.2959
  C  C612  1  0.053800  0.489500  0.146100  1.0  -0.1073
  C  C613  1  0.047500  0.465800  0.179000  1.0  -0.0927
  C  C614  1  0.077400  0.516600  0.147800  1.0  -0.1054
  C  C615  1  0.070900  0.471700  0.207400  1.0  -0.031
  C  C616  1  0.098200  0.520200  0.176300  1.0  -0.0437
  C  C617  1  0.097800  0.498200  0.206900  1.0  -0.1699
  C  C618  1  0.530200  0.984800  0.611500  1.0  0.2959
  C  C619  1  0.553800  0.989500  0.646100  1.0  -0.1073
  C  C620  1  0.547500  0.965800  0.679000  1.0  -0.0927
  C  C621  1  0.577400  0.016600  0.647800  1.0  -0.1054
  C  C622  1  0.570900  0.971700  0.707400  1.0  -0.031
  C  C623  1  0.598200  0.020200  0.676300  1.0  -0.0437
  C  C624  1  0.597800  0.998200  0.706900  1.0  -0.1699
  C  C625  1  0.219800  0.861500  0.734800  1.0  0.2949
  C  C626  1  0.196200  0.896100  0.739500  1.0  -0.1046
  C  C627  1  0.202500  0.929000  0.715800  1.0  -0.0921
  C  C628  1  0.172600  0.897800  0.766600  1.0  -0.1078
  C  C629  1  0.179100  0.957400  0.721700  1.0  -0.0302
  C  C630  1  0.151800  0.926300  0.770200  1.0  -0.042
  C  C631  1  0.152200  0.956900  0.748200  1.0  -0.17
  C  C632  1  0.719800  0.361500  0.234800  1.0  0.2949
  C  C633  1  0.696200  0.396100  0.239500  1.0  -0.1046
  C  C634  1  0.702500  0.429000  0.215800  1.0  -0.0921
  C  C635  1  0.672600  0.397800  0.266600  1.0  -0.1078
  C  C636  1  0.679100  0.457400  0.221700  1.0  -0.0302
  C  C637  1  0.651800  0.426300  0.270200  1.0  -0.042
  C  C638  1  0.652200  0.456900  0.248200  1.0  -0.17
  C  C639  1  0.280200  0.138500  0.234800  1.0  0.295
  C  C640  1  0.303800  0.103900  0.239500  1.0  -0.1063
  C  C641  1  0.297500  0.071000  0.215800  1.0  -0.0922
  C  C642  1  0.327400  0.102200  0.266600  1.0  -0.1069
  C  C643  1  0.320900  0.042600  0.221700  1.0  -0.03
  C  C644  1  0.348200  0.073700  0.270200  1.0  -0.0417
  C  C645  1  0.347800  0.043100  0.248200  1.0  -0.1681
  C  C646  1  0.780200  0.638500  0.734800  1.0  0.295
  C  C647  1  0.803800  0.603900  0.739500  1.0  -0.1063
  C  C648  1  0.797500  0.571000  0.715800  1.0  -0.0922
  C  C649  1  0.827400  0.602200  0.766600  1.0  -0.1069
  C  C650  1  0.820900  0.542600  0.721700  1.0  -0.03
  C  C651  1  0.848200  0.573700  0.770200  1.0  -0.0417
  C  C652  1  0.847800  0.543100  0.748200  1.0  -0.1681
  C  C653  1  0.719800  0.638500  0.265200  1.0  0.294
  C  C654  1  0.696200  0.603900  0.260500  1.0  -0.1046
  C  C655  1  0.702500  0.571000  0.284200  1.0  -0.0915
  C  C656  1  0.672600  0.602200  0.233400  1.0  -0.1069
  C  C657  1  0.679100  0.542600  0.278300  1.0  -0.0294
  C  C658  1  0.651800  0.573700  0.229800  1.0  -0.042
  C  C659  1  0.652200  0.543100  0.251800  1.0  -0.1701
  C  C660  1  0.219800  0.138500  0.765200  1.0  0.294
  C  C661  1  0.196200  0.103900  0.760500  1.0  -0.1046
  C  C662  1  0.202500  0.071000  0.784200  1.0  -0.0915
  C  C663  1  0.172600  0.102200  0.733400  1.0  -0.1069
  C  C664  1  0.179100  0.042600  0.778300  1.0  -0.0294
  C  C665  1  0.151800  0.073700  0.729800  1.0  -0.042
  C  C666  1  0.152200  0.043100  0.751800  1.0  -0.1701
  C  C667  1  0.780200  0.361500  0.765200  1.0  0.2951
  C  C668  1  0.803800  0.396100  0.760500  1.0  -0.106
  C  C669  1  0.797500  0.429000  0.784200  1.0  -0.0931
  C  C670  1  0.827400  0.397800  0.733400  1.0  -0.1072
  C  C671  1  0.820900  0.457400  0.778300  1.0  -0.0302
  C  C672  1  0.848200  0.426300  0.729800  1.0  -0.0425
  C  C673  1  0.847800  0.456900  0.751800  1.0  -0.1675
  C  C674  1  0.280200  0.861500  0.265200  1.0  0.2951
  C  C675  1  0.303800  0.896100  0.260500  1.0  -0.106
  C  C676  1  0.297500  0.929000  0.284200  1.0  -0.0931
  C  C677  1  0.327400  0.897800  0.233400  1.0  -0.1072
  C  C678  1  0.320900  0.957400  0.278300  1.0  -0.0302
  C  C679  1  0.348200  0.926300  0.229800  1.0  -0.0425
  C  C680  1  0.347800  0.956900  0.251800  1.0  -0.1675
  C  C681  1  0.361500  0.765200  0.780200  1.0  0.2945
  C  C682  1  0.396100  0.760500  0.803800  1.0  -0.1064
  C  C683  1  0.429000  0.784200  0.797500  1.0  -0.0928
  C  C684  1  0.397800  0.733400  0.827400  1.0  -0.1052
  C  C685  1  0.457400  0.778300  0.820900  1.0  -0.0337
  C  C686  1  0.426300  0.729800  0.848200  1.0  -0.0375
  C  C687  1  0.456900  0.751800  0.847800  1.0  -0.171
  C  C688  1  0.861500  0.265200  0.280200  1.0  0.2945
  C  C689  1  0.896100  0.260500  0.303800  1.0  -0.1064
  C  C690  1  0.929000  0.284200  0.297500  1.0  -0.0928
  C  C691  1  0.897800  0.233400  0.327400  1.0  -0.1052
  C  C692  1  0.957400  0.278300  0.320900  1.0  -0.0337
  C  C693  1  0.926300  0.229800  0.348200  1.0  -0.0375
  C  C694  1  0.956900  0.251800  0.347800  1.0  -0.171
  C  C695  1  0.638500  0.265200  0.719800  1.0  0.2944
  C  C696  1  0.603900  0.260500  0.696200  1.0  -0.1049
  C  C697  1  0.571000  0.284200  0.702500  1.0  -0.0937
  C  C698  1  0.602200  0.233400  0.672600  1.0  -0.1059
  C  C699  1  0.542600  0.278300  0.679100  1.0  -0.0339
  C  C700  1  0.573700  0.229800  0.651800  1.0  -0.0385
  C  C701  1  0.543100  0.251800  0.652200  1.0  -0.1717
  C  C702  1  0.138500  0.765200  0.219800  1.0  0.2944
  C  C703  1  0.103900  0.760500  0.196200  1.0  -0.1049
  C  C704  1  0.071000  0.784200  0.202500  1.0  -0.0937
  C  C705  1  0.102200  0.733400  0.172600  1.0  -0.1059
  C  C706  1  0.042600  0.778300  0.179100  1.0  -0.0339
  C  C707  1  0.073700  0.729800  0.151800  1.0  -0.0385
  C  C708  1  0.043100  0.751800  0.152200  1.0  -0.1717
  C  C709  1  0.138500  0.234800  0.280200  1.0  0.2942
  C  C710  1  0.103900  0.239500  0.303800  1.0  -0.1064
  C  C711  1  0.071000  0.215800  0.297500  1.0  -0.0932
  C  C712  1  0.102200  0.266600  0.327400  1.0  -0.1065
  C  C713  1  0.042600  0.221700  0.320900  1.0  -0.0332
  C  C714  1  0.073700  0.270200  0.348200  1.0  -0.0395
  C  C715  1  0.043100  0.248200  0.347800  1.0  -0.172
  C  C716  1  0.638500  0.734800  0.780200  1.0  0.2942
  C  C717  1  0.603900  0.739500  0.803800  1.0  -0.1064
  C  C718  1  0.571000  0.715800  0.797500  1.0  -0.0932
  C  C719  1  0.602200  0.766600  0.827400  1.0  -0.1065
  C  C720  1  0.542600  0.721700  0.820900  1.0  -0.0332
  C  C721  1  0.573700  0.770200  0.848200  1.0  -0.0395
  C  C722  1  0.543100  0.748200  0.847800  1.0  -0.172
  C  C723  1  0.861500  0.734800  0.219800  1.0  0.2956
  C  C724  1  0.896100  0.739500  0.196200  1.0  -0.1053
  C  C725  1  0.929000  0.715800  0.202500  1.0  -0.0943
  C  C726  1  0.897800  0.766600  0.172600  1.0  -0.1052
  C  C727  1  0.957400  0.721700  0.179100  1.0  -0.0337
  C  C728  1  0.926300  0.770200  0.151800  1.0  -0.0398
  C  C729  1  0.956900  0.748200  0.152200  1.0  -0.1702
  C  C730  1  0.361500  0.234800  0.719800  1.0  0.2956
  C  C731  1  0.396100  0.239500  0.696200  1.0  -0.1053
  C  C732  1  0.429000  0.215800  0.702500  1.0  -0.0943
  C  C733  1  0.397800  0.266600  0.672600  1.0  -0.1052
  C  C734  1  0.457400  0.221700  0.679100  1.0  -0.0337
  C  C735  1  0.426300  0.270200  0.651800  1.0  -0.0398
  C  C736  1  0.456900  0.248200  0.652200  1.0  -0.1702
  C  C737  1  0.265200  0.719800  0.638500  1.0  0.2948
  C  C738  1  0.260500  0.696200  0.603900  1.0  -0.1052
  C  C739  1  0.284200  0.702500  0.571000  1.0  -0.0924
  C  C740  1  0.233400  0.672600  0.602200  1.0  -0.106
  C  C741  1  0.278300  0.679100  0.542600  1.0  -0.0324
  C  C742  1  0.229800  0.651800  0.573700  1.0  -0.0407
  C  C743  1  0.251800  0.652200  0.543100  1.0  -0.1724
  C  C744  1  0.765200  0.219800  0.138500  1.0  0.2948
  C  C745  1  0.760500  0.196200  0.103900  1.0  -0.1052
  C  C746  1  0.784200  0.202500  0.071000  1.0  -0.0924
  C  C747  1  0.733400  0.172600  0.102200  1.0  -0.106
  C  C748  1  0.778300  0.179100  0.042600  1.0  -0.0324
  C  C749  1  0.729800  0.151800  0.073700  1.0  -0.0407
  C  C750  1  0.751800  0.152200  0.043100  1.0  -0.1724
  C  C751  1  0.765200  0.780200  0.361500  1.0  0.2957
  C  C752  1  0.760500  0.803800  0.396100  1.0  -0.1052
  C  C753  1  0.784200  0.797500  0.429000  1.0  -0.0914
  C  C754  1  0.733400  0.827400  0.397800  1.0  -0.1052
  C  C755  1  0.778300  0.820900  0.457400  1.0  -0.0319
  C  C756  1  0.729800  0.848200  0.426300  1.0  -0.0385
  C  C757  1  0.751800  0.847800  0.456900  1.0  -0.1716
  C  C758  1  0.265200  0.280200  0.861500  1.0  0.2957
  C  C759  1  0.260500  0.303800  0.896100  1.0  -0.1052
  C  C760  1  0.284200  0.297500  0.929000  1.0  -0.0914
  C  C761  1  0.233400  0.327400  0.897800  1.0  -0.1052
  C  C762  1  0.278300  0.320900  0.957400  1.0  -0.0319
  C  C763  1  0.229800  0.348200  0.926300  1.0  -0.0385
  C  C764  1  0.251800  0.347800  0.956900  1.0  -0.1716
  C  C765  1  0.734800  0.219800  0.861500  1.0  0.2952
  C  C766  1  0.739500  0.196200  0.896100  1.0  -0.1092
  C  C767  1  0.715800  0.202500  0.929000  1.0  -0.0928
  C  C768  1  0.766600  0.172600  0.897800  1.0  -0.1066
  C  C769  1  0.721700  0.179100  0.957400  1.0  -0.0318
  C  C770  1  0.770200  0.151800  0.926300  1.0  -0.0386
  C  C771  1  0.748200  0.152200  0.956900  1.0  -0.1715
  C  C772  1  0.234800  0.719800  0.361500  1.0  0.2952
  C  C773  1  0.239500  0.696200  0.396100  1.0  -0.1092
  C  C774  1  0.215800  0.702500  0.429000  1.0  -0.0928
  C  C775  1  0.266600  0.672600  0.397800  1.0  -0.1066
  C  C776  1  0.221700  0.679100  0.457400  1.0  -0.0318
  C  C777  1  0.270200  0.651800  0.426300  1.0  -0.0386
  C  C778  1  0.248200  0.652200  0.456900  1.0  -0.1715
  C  C779  1  0.234800  0.280200  0.138500  1.0  0.2961
  C  C780  1  0.239500  0.303800  0.103900  1.0  -0.1094
  C  C781  1  0.215800  0.297500  0.071000  1.0  -0.0918
  C  C782  1  0.266600  0.327400  0.102200  1.0  -0.1063
  C  C783  1  0.221700  0.320900  0.042600  1.0  -0.0309
  C  C784  1  0.270200  0.348200  0.073700  1.0  -0.039
  C  C785  1  0.248200  0.347800  0.043100  1.0  -0.1718
  C  C786  1  0.734800  0.780200  0.638500  1.0  0.2961
  C  C787  1  0.739500  0.803800  0.603900  1.0  -0.1094
  C  C788  1  0.715800  0.797500  0.571000  1.0  -0.0918
  C  C789  1  0.766600  0.827400  0.602200  1.0  -0.1063
  C  C790  1  0.721700  0.820900  0.542600  1.0  -0.0309
  C  C791  1  0.770200  0.848200  0.573700  1.0  -0.039
  C  C792  1  0.748200  0.847800  0.543100  1.0  -0.1718
  C  C793  1  0.388500  0.530200  0.484800  1.0  0.2953
  C  C794  1  0.353900  0.553800  0.489500  1.0  -0.1051
  C  C795  1  0.321000  0.547500  0.465800  1.0  -0.0931
  C  C796  1  0.352200  0.577400  0.516600  1.0  -0.1079
  C  C797  1  0.292600  0.570900  0.471700  1.0  -0.0328
  C  C798  1  0.323700  0.598200  0.520200  1.0  -0.0396
  C  C799  1  0.293100  0.597800  0.498200  1.0  -0.1696
  C  C800  1  0.888500  0.030200  0.984800  1.0  0.2953
  C  C801  1  0.853900  0.053800  0.989500  1.0  -0.1051
  C  C802  1  0.821000  0.047500  0.965800  1.0  -0.0931
  C  C803  1  0.852200  0.077400  0.016600  1.0  -0.1079
  C  C804  1  0.792600  0.070900  0.971700  1.0  -0.0328
  C  C805  1  0.823700  0.098200  0.020200  1.0  -0.0396
  C  C806  1  0.793100  0.097800  0.998200  1.0  -0.1696
  C  C807  1  0.111500  0.469800  0.984800  1.0  0.2954
  C  C808  1  0.146100  0.446200  0.989500  1.0  -0.1055
  C  C809  1  0.179000  0.452500  0.965800  1.0  -0.0935
  C  C810  1  0.147800  0.422600  0.016600  1.0  -0.1078
  C  C811  1  0.207400  0.429100  0.971700  1.0  -0.0333
  C  C812  1  0.176300  0.401800  0.020200  1.0  -0.0413
  C  C813  1  0.206900  0.402200  0.998200  1.0  -0.1687
  C  C814  1  0.611500  0.969800  0.484800  1.0  0.2954
  C  C815  1  0.646100  0.946200  0.489500  1.0  -0.1055
  C  C816  1  0.679000  0.952500  0.465800  1.0  -0.0935
  C  C817  1  0.647800  0.922600  0.516600  1.0  -0.1078
  C  C818  1  0.707400  0.929100  0.471700  1.0  -0.0333
  C  C819  1  0.676300  0.901800  0.520200  1.0  -0.0413
  C  C820  1  0.706900  0.902200  0.498200  1.0  -0.1687
  C  C821  1  0.611500  0.030200  0.015200  1.0  0.2959
  C  C822  1  0.646100  0.053800  0.010500  1.0  -0.1058
  C  C823  1  0.679000  0.047500  0.034200  1.0  -0.0935
  C  C824  1  0.647800  0.077400  0.983400  1.0  -0.1056
  C  C825  1  0.707400  0.070900  0.028300  1.0  -0.0315
  C  C826  1  0.676300  0.098200  0.979800  1.0  -0.04
  C  C827  1  0.706900  0.097800  0.001800  1.0  -0.1683
  C  C828  1  0.111500  0.530200  0.515200  1.0  0.2959
  C  C829  1  0.146100  0.553800  0.510500  1.0  -0.1058
  C  C830  1  0.179000  0.547500  0.534200  1.0  -0.0935
  C  C831  1  0.147800  0.577400  0.483400  1.0  -0.1056
  C  C832  1  0.207400  0.570900  0.528300  1.0  -0.0315
  C  C833  1  0.176300  0.598200  0.479800  1.0  -0.04
  C  C834  1  0.206900  0.597800  0.501800  1.0  -0.1683
  C  C835  1  0.888500  0.969800  0.515200  1.0  0.294
  C  C836  1  0.853900  0.946200  0.510500  1.0  -0.1051
  C  C837  1  0.821000  0.952500  0.534200  1.0  -0.0935
  C  C838  1  0.852200  0.922600  0.483400  1.0  -0.1079
  C  C839  1  0.792600  0.929100  0.528300  1.0  -0.0328
  C  C840  1  0.823700  0.901800  0.479800  1.0  -0.0405
  C  C841  1  0.793100  0.902200  0.501800  1.0  -0.1693
  C  C842  1  0.388500  0.469800  0.015200  1.0  0.294
  C  C843  1  0.353900  0.446200  0.010500  1.0  -0.1051
  C  C844  1  0.321000  0.452500  0.034200  1.0  -0.0935
  C  C845  1  0.352200  0.422600  0.983400  1.0  -0.1079
  C  C846  1  0.292600  0.429100  0.028300  1.0  -0.0328
  C  C847  1  0.323700  0.401800  0.979800  1.0  -0.0405
  C  C848  1  0.293100  0.402200  0.001800  1.0  -0.1693
  C  C849  1  0.484800  0.388500  0.530200  1.0  0.2937
  C  C850  1  0.489500  0.353900  0.553800  1.0  -0.1101
  C  C851  1  0.465800  0.321000  0.547500  1.0  -0.0913
  C  C852  1  0.516600  0.352200  0.577400  1.0  -0.1066
  C  C853  1  0.471700  0.292600  0.570900  1.0  -0.0315
  C  C854  1  0.520200  0.323700  0.598200  1.0  -0.0372
  C  C855  1  0.498200  0.293100  0.597800  1.0  -0.1715
  C  C856  1  0.984800  0.888500  0.030200  1.0  0.2937
  C  C857  1  0.989500  0.853900  0.053800  1.0  -0.1101
  C  C858  1  0.965800  0.821000  0.047500  1.0  -0.0913
  C  C859  1  0.016600  0.852200  0.077400  1.0  -0.1066
  C  C860  1  0.971700  0.792600  0.070900  1.0  -0.0315
  C  C861  1  0.020200  0.823700  0.098200  1.0  -0.0372
  C  C862  1  0.998200  0.793100  0.097800  1.0  -0.1715
  C  C863  1  0.984800  0.111500  0.469800  1.0  0.2952
  C  C864  1  0.989500  0.146100  0.446200  1.0  -0.1089
  C  C865  1  0.965800  0.179000  0.452500  1.0  -0.093
  C  C866  1  0.016600  0.147800  0.422600  1.0  -0.1063
  C  C867  1  0.971700  0.207400  0.429100  1.0  -0.0326
  C  C868  1  0.020200  0.176300  0.401800  1.0  -0.0375
  C  C869  1  0.998200  0.206900  0.402200  1.0  -0.1705
  C  C870  1  0.484800  0.611500  0.969800  1.0  0.2952
  C  C871  1  0.489500  0.646100  0.946200  1.0  -0.1089
  C  C872  1  0.465800  0.679000  0.952500  1.0  -0.093
  C  C873  1  0.516600  0.647800  0.922600  1.0  -0.1063
  C  C874  1  0.471700  0.707400  0.929100  1.0  -0.0326
  C  C875  1  0.520200  0.676300  0.901800  1.0  -0.0375
  C  C876  1  0.498200  0.706900  0.902200  1.0  -0.1705
  C  C877  1  0.015200  0.611500  0.030200  1.0  0.2939
  C  C878  1  0.010500  0.646100  0.053800  1.0  -0.1056
  C  C879  1  0.034200  0.679000  0.047500  1.0  -0.0919
  C  C880  1  0.983400  0.647800  0.077400  1.0  -0.1059
  C  C881  1  0.028300  0.707400  0.070900  1.0  -0.033
  C  C882  1  0.979800  0.676300  0.098200  1.0  -0.0369
  C  C883  1  0.001800  0.706900  0.097800  1.0  -0.1714
  C  C884  1  0.515200  0.111500  0.530200  1.0  0.2939
  C  C885  1  0.510500  0.146100  0.553800  1.0  -0.1056
  C  C886  1  0.534200  0.179000  0.547500  1.0  -0.0919
  C  C887  1  0.483400  0.147800  0.577400  1.0  -0.1059
  C  C888  1  0.528300  0.207400  0.570900  1.0  -0.033
  C  C889  1  0.479800  0.176300  0.598200  1.0  -0.0369
  C  C890  1  0.501800  0.206900  0.597800  1.0  -0.1714
  C  C891  1  0.515200  0.888500  0.969800  1.0  0.2944
  C  C892  1  0.510500  0.853900  0.946200  1.0  -0.1042
  C  C893  1  0.534200  0.821000  0.952500  1.0  -0.0924
  C  C894  1  0.483400  0.852200  0.922600  1.0  -0.1055
  C  C895  1  0.528300  0.792600  0.929100  1.0  -0.0326
  C  C896  1  0.479800  0.823700  0.901800  1.0  -0.0378
  C  C897  1  0.501800  0.793100  0.902200  1.0  -0.1715
  C  C898  1  0.015200  0.388500  0.469800  1.0  0.2944
  C  C899  1  0.010500  0.353900  0.446200  1.0  -0.1042
  C  C900  1  0.034200  0.321000  0.452500  1.0  -0.0924
  C  C901  1  0.983400  0.352200  0.422600  1.0  -0.1055
  C  C902  1  0.028300  0.292600  0.429100  1.0  -0.0326
  C  C903  1  0.979800  0.323700  0.401800  1.0  -0.0378
  C  C904  1  0.001800  0.293100  0.402200  1.0  -0.1715
  C  C905  1  0.530200  0.484800  0.388500  1.0  0.2959
  C  C906  1  0.553800  0.489500  0.353900  1.0  -0.1067
  C  C907  1  0.547500  0.465800  0.321000  1.0  -0.0924
  C  C908  1  0.577400  0.516600  0.352200  1.0  -0.1054
  C  C909  1  0.570900  0.471700  0.292600  1.0  -0.0312
  C  C910  1  0.598200  0.520200  0.323700  1.0  -0.0441
  C  C911  1  0.597800  0.498200  0.293100  1.0  -0.1704
  C  C912  1  0.030200  0.984800  0.888500  1.0  0.2959
  C  C913  1  0.053800  0.989500  0.853900  1.0  -0.1067
  C  C914  1  0.047500  0.965800  0.821000  1.0  -0.0924
  C  C915  1  0.077400  0.016600  0.852200  1.0  -0.1054
  C  C916  1  0.070900  0.971700  0.792600  1.0  -0.0312
  C  C917  1  0.098200  0.020200  0.823700  1.0  -0.0441
  C  C918  1  0.097800  0.998200  0.793100  1.0  -0.1704
  C  C919  1  0.469800  0.984800  0.111500  1.0  0.2956
  C  C920  1  0.446200  0.989500  0.146100  1.0  -0.1055
  C  C921  1  0.452500  0.965800  0.179000  1.0  -0.0909
  C  C922  1  0.422600  0.016600  0.147800  1.0  -0.1056
  C  C923  1  0.429100  0.971700  0.207400  1.0  -0.0298
  C  C924  1  0.401800  0.020200  0.176300  1.0  -0.0426
  C  C925  1  0.402200  0.998200  0.206900  1.0  -0.1722
  C  C926  1  0.969800  0.484800  0.611500  1.0  0.2956
  C  C927  1  0.946200  0.489500  0.646100  1.0  -0.1055
  C  C928  1  0.952500  0.465800  0.679000  1.0  -0.0909
  C  C929  1  0.922600  0.516600  0.647800  1.0  -0.1056
  C  C930  1  0.929100  0.471700  0.707400  1.0  -0.0298
  C  C931  1  0.901800  0.520200  0.676300  1.0  -0.0426
  C  C932  1  0.902200  0.498200  0.706900  1.0  -0.1722
  C  C933  1  0.030200  0.015200  0.611500  1.0  0.2956
  C  C934  1  0.053800  0.010500  0.646100  1.0  -0.1064
  C  C935  1  0.047500  0.034200  0.679000  1.0  -0.0928
  C  C936  1  0.077400  0.983400  0.647800  1.0  -0.1046
  C  C937  1  0.070900  0.028300  0.707400  1.0  -0.0311
  C  C938  1  0.098200  0.979800  0.676300  1.0  -0.0419
  C  C939  1  0.097800  0.001800  0.706900  1.0  -0.1702
  C  C940  1  0.530200  0.515200  0.111500  1.0  0.2956
  C  C941  1  0.553800  0.510500  0.146100  1.0  -0.1064
  C  C942  1  0.547500  0.534200  0.179000  1.0  -0.0928
  C  C943  1  0.577400  0.483400  0.147800  1.0  -0.1046
  C  C944  1  0.570900  0.528300  0.207400  1.0  -0.0311
  C  C945  1  0.598200  0.479800  0.176300  1.0  -0.0419
  C  C946  1  0.597800  0.501800  0.206900  1.0  -0.1702
  C  C947  1  0.969800  0.515200  0.888500  1.0  0.2949
  C  C948  1  0.946200  0.510500  0.853900  1.0  -0.1055
  C  C949  1  0.952500  0.534200  0.821000  1.0  -0.0905
  C  C950  1  0.922600  0.483400  0.852200  1.0  -0.1053
  C  C951  1  0.929100  0.528300  0.792600  1.0  -0.0303
  C  C952  1  0.901800  0.479800  0.823700  1.0  -0.0423
  C  C953  1  0.902200  0.501800  0.793100  1.0  -0.1728
  C  C954  1  0.469800  0.015200  0.388500  1.0  0.2949
  C  C955  1  0.446200  0.010500  0.353900  1.0  -0.1055
  C  C956  1  0.452500  0.034200  0.321000  1.0  -0.0905
  C  C957  1  0.422600  0.983400  0.352200  1.0  -0.1053
  C  C958  1  0.429100  0.028300  0.292600  1.0  -0.0303
  C  C959  1  0.401800  0.979800  0.323700  1.0  -0.0423
  C  C960  1  0.402200  0.001800  0.293100  1.0  -0.1728
  C  C961  1  0.780200  0.138500  0.265200  1.0  0.2945
  C  C962  1  0.803800  0.103900  0.260500  1.0  -0.1058
  C  C963  1  0.797500  0.071000  0.284200  1.0  -0.0932
  C  C964  1  0.827400  0.102200  0.233400  1.0  -0.1068
  C  C965  1  0.820900  0.042600  0.278300  1.0  -0.0295
  C  C966  1  0.848200  0.073700  0.229800  1.0  -0.0434
  C  C967  1  0.847800  0.043100  0.251800  1.0  -0.1678
  C  C968  1  0.280200  0.638500  0.765200  1.0  0.2945
  C  C969  1  0.303800  0.603900  0.760500  1.0  -0.1058
  C  C970  1  0.297500  0.571000  0.784200  1.0  -0.0932
  C  C971  1  0.327400  0.602200  0.733400  1.0  -0.1068
  C  C972  1  0.320900  0.542600  0.778300  1.0  -0.0295
  C  C973  1  0.348200  0.573700  0.729800  1.0  -0.0434
  C  C974  1  0.347800  0.543100  0.751800  1.0  -0.1678
  C  C975  1  0.719800  0.861500  0.765200  1.0  0.2945
  C  C976  1  0.696200  0.896100  0.760500  1.0  -0.1045
  C  C977  1  0.702500  0.929000  0.784200  1.0  -0.0916
  C  C978  1  0.672600  0.897800  0.733400  1.0  -0.1068
  C  C979  1  0.679100  0.957400  0.778300  1.0  -0.0299
  C  C980  1  0.651800  0.926300  0.729800  1.0  -0.0414
  C  C981  1  0.652200  0.956900  0.751800  1.0  -0.17
  C  C982  1  0.219800  0.361500  0.265200  1.0  0.2945
  C  C983  1  0.196200  0.396100  0.260500  1.0  -0.1045
  C  C984  1  0.202500  0.429000  0.284200  1.0  -0.0916
  C  C985  1  0.172600  0.397800  0.233400  1.0  -0.1068
  C  C986  1  0.179100  0.457400  0.278300  1.0  -0.0299
  C  C987  1  0.151800  0.426300  0.229800  1.0  -0.0414
  C  C988  1  0.152200  0.456900  0.251800  1.0  -0.17
  C  C989  1  0.280200  0.361500  0.734800  1.0  0.2955
  C  C990  1  0.303800  0.396100  0.739500  1.0  -0.1067
  C  C991  1  0.297500  0.429000  0.715800  1.0  -0.0926
  C  C992  1  0.327400  0.397800  0.766600  1.0  -0.1079
  C  C993  1  0.320900  0.457400  0.721700  1.0  -0.031
  C  C994  1  0.348200  0.426300  0.770200  1.0  -0.0417
  C  C995  1  0.347800  0.456900  0.748200  1.0  -0.1677
  C  C996  1  0.780200  0.861500  0.234800  1.0  0.2955
  C  C997  1  0.803800  0.896100  0.239500  1.0  -0.1067
  C  C998  1  0.797500  0.929000  0.215800  1.0  -0.0926
  C  C999  1  0.827400  0.897800  0.266600  1.0  -0.1079
  C  C1000  1  0.820900  0.957400  0.221700  1.0  -0.031
  C  C1001  1  0.848200  0.926300  0.270200  1.0  -0.0417
  C  C1002  1  0.847800  0.956900  0.248200  1.0  -0.1677
  C  C1003  1  0.219800  0.638500  0.234800  1.0  0.2943
  C  C1004  1  0.196200  0.603900  0.239500  1.0  -0.1047
  C  C1005  1  0.202500  0.571000  0.215800  1.0  -0.0916
  C  C1006  1  0.172600  0.602200  0.266600  1.0  -0.1072
  C  C1007  1  0.179100  0.542600  0.221700  1.0  -0.0294
  C  C1008  1  0.151800  0.573700  0.270200  1.0  -0.042
  C  C1009  1  0.152200  0.543100  0.248200  1.0  -0.1702
  C  C1010  1  0.719800  0.138500  0.734800  1.0  0.2943
  C  C1011  1  0.696200  0.103900  0.739500  1.0  -0.1047
  C  C1012  1  0.702500  0.071000  0.715800  1.0  -0.0916
  C  C1013  1  0.672600  0.102200  0.766600  1.0  -0.1072
  C  C1014  1  0.679100  0.042600  0.721700  1.0  -0.0294
  C  C1015  1  0.651800  0.073700  0.770200  1.0  -0.042
  C  C1016  1  0.652200  0.043100  0.748200  1.0  -0.1702
  C  C1017  1  0.638500  0.234800  0.219800  1.0  0.2948
  C  C1018  1  0.603900  0.239500  0.196200  1.0  -0.1046
  C  C1019  1  0.571000  0.215800  0.202500  1.0  -0.0946
  C  C1020  1  0.602200  0.266600  0.172600  1.0  -0.1062
  C  C1021  1  0.542600  0.221700  0.179100  1.0  -0.0331
  C  C1022  1  0.573700  0.270200  0.151800  1.0  -0.0395
  C  C1023  1  0.543100  0.248200  0.152200  1.0  -0.1713
  C  C1024  1  0.138500  0.734800  0.719800  1.0  0.2948
  C  C1025  1  0.103900  0.739500  0.696200  1.0  -0.1046
  C  C1026  1  0.071000  0.715800  0.702500  1.0  -0.0946
  C  C1027  1  0.102200  0.766600  0.672600  1.0  -0.1062
  C  C1028  1  0.042600  0.721700  0.679100  1.0  -0.0331
  C  C1029  1  0.073700  0.770200  0.651800  1.0  -0.0395
  C  C1030  1  0.043100  0.748200  0.652200  1.0  -0.1713
  C  C1031  1  0.361500  0.734800  0.280200  1.0  0.2949
  C  C1032  1  0.396100  0.739500  0.303800  1.0  -0.1073
  C  C1033  1  0.429000  0.715800  0.297500  1.0  -0.0938
  C  C1034  1  0.397800  0.766600  0.327400  1.0  -0.1057
  C  C1035  1  0.457400  0.721700  0.320900  1.0  -0.0338
  C  C1036  1  0.426300  0.770200  0.348200  1.0  -0.0401
  C  C1037  1  0.456900  0.748200  0.347800  1.0  -0.1707
  C  C1038  1  0.861500  0.234800  0.780200  1.0  0.2949
  C  C1039  1  0.896100  0.239500  0.803800  1.0  -0.1073
  C  C1040  1  0.929000  0.215800  0.797500  1.0  -0.0938
  C  C1041  1  0.897800  0.266600  0.827400  1.0  -0.1057
  C  C1042  1  0.957400  0.221700  0.820900  1.0  -0.0338
  C  C1043  1  0.926300  0.270200  0.848200  1.0  -0.0401
  C  C1044  1  0.956900  0.248200  0.847800  1.0  -0.1707
  C  C1045  1  0.861500  0.765200  0.719800  1.0  0.2953
  C  C1046  1  0.896100  0.760500  0.696200  1.0  -0.1055
  C  C1047  1  0.929000  0.784200  0.702500  1.0  -0.0936
  C  C1048  1  0.897800  0.733400  0.672600  1.0  -0.1046
  C  C1049  1  0.957400  0.778300  0.679100  1.0  -0.0343
  C  C1050  1  0.926300  0.729800  0.651800  1.0  -0.0385
  C  C1051  1  0.956900  0.751800  0.652200  1.0  -0.1706
  C  C1052  1  0.361500  0.265200  0.219800  1.0  0.2953
  C  C1053  1  0.396100  0.260500  0.196200  1.0  -0.1055
  C  C1054  1  0.429000  0.284200  0.202500  1.0  -0.0936
  C  C1055  1  0.397800  0.233400  0.172600  1.0  -0.1046
  C  C1056  1  0.457400  0.278300  0.179100  1.0  -0.0343
  C  C1057  1  0.426300  0.229800  0.151800  1.0  -0.0385
  C  C1058  1  0.456900  0.251800  0.152200  1.0  -0.1706
  C  C1059  1  0.138500  0.265200  0.780200  1.0  0.2937
  C  C1060  1  0.103900  0.260500  0.803800  1.0  -0.1058
  C  C1061  1  0.071000  0.284200  0.797500  1.0  -0.0923
  C  C1062  1  0.102200  0.233400  0.827400  1.0  -0.1062
  C  C1063  1  0.042600  0.278300  0.820900  1.0  -0.0331
  C  C1064  1  0.073700  0.229800  0.848200  1.0  -0.0371
  C  C1065  1  0.043100  0.251800  0.847800  1.0  -0.1723
  C  C1066  1  0.638500  0.765200  0.280200  1.0  0.2937
  C  C1067  1  0.603900  0.760500  0.303800  1.0  -0.1058
  C  C1068  1  0.571000  0.784200  0.297500  1.0  -0.0923
  C  C1069  1  0.602200  0.733400  0.327400  1.0  -0.1062
  C  C1070  1  0.542600  0.778300  0.320900  1.0  -0.0331
  C  C1071  1  0.573700  0.729800  0.348200  1.0  -0.0371
  C  C1072  1  0.543100  0.751800  0.347800  1.0  -0.1723
  C  C1073  1  0.734800  0.280200  0.361500  1.0  0.2961
  C  C1074  1  0.739500  0.303800  0.396100  1.0  -0.11
  C  C1075  1  0.715800  0.297500  0.429000  1.0  -0.0919
  C  C1076  1  0.766600  0.327400  0.397800  1.0  -0.1064
  C  C1077  1  0.721700  0.320900  0.457400  1.0  -0.0309
  C  C1078  1  0.770200  0.348200  0.426300  1.0  -0.0385
  C  C1079  1  0.748200  0.347800  0.456900  1.0  -0.1716
  C  C1080  1  0.234800  0.780200  0.861500  1.0  0.2961
  C  C1081  1  0.239500  0.803800  0.896100  1.0  -0.11
  C  C1082  1  0.215800  0.797500  0.929000  1.0  -0.0919
  C  C1083  1  0.266600  0.827400  0.897800  1.0  -0.1064
  C  C1084  1  0.221700  0.820900  0.957400  1.0  -0.0309
  C  C1085  1  0.270200  0.848200  0.926300  1.0  -0.0385
  C  C1086  1  0.248200  0.847800  0.956900  1.0  -0.1716
  C  C1087  1  0.234800  0.219800  0.638500  1.0  0.2951
  C  C1088  1  0.239500  0.196200  0.603900  1.0  -0.1099
  C  C1089  1  0.215800  0.202500  0.571000  1.0  -0.0924
  C  C1090  1  0.266600  0.172600  0.602200  1.0  -0.1067
  C  C1091  1  0.221700  0.179100  0.542600  1.0  -0.0313
  C  C1092  1  0.270200  0.151800  0.573700  1.0  -0.0395
  C  C1093  1  0.248200  0.152200  0.543100  1.0  -0.1722
  C  C1094  1  0.734800  0.719800  0.138500  1.0  0.2951
  C  C1095  1  0.739500  0.696200  0.103900  1.0  -0.1099
  C  C1096  1  0.715800  0.702500  0.071000  1.0  -0.0924
  C  C1097  1  0.766600  0.672600  0.102200  1.0  -0.1067
  C  C1098  1  0.721700  0.679100  0.042600  1.0  -0.0313
  C  C1099  1  0.770200  0.651800  0.073700  1.0  -0.0395
  C  C1100  1  0.748200  0.652200  0.043100  1.0  -0.1722
  C  C1101  1  0.265200  0.780200  0.138500  1.0  0.2958
  C  C1102  1  0.260500  0.803800  0.103900  1.0  -0.1048
  C  C1103  1  0.284200  0.797500  0.071000  1.0  -0.0916
  C  C1104  1  0.233400  0.827400  0.102200  1.0  -0.1057
  C  C1105  1  0.278300  0.820900  0.042600  1.0  -0.032
  C  C1106  1  0.229800  0.848200  0.073700  1.0  -0.04
  C  C1107  1  0.251800  0.847800  0.043100  1.0  -0.1721
  C  C1108  1  0.765200  0.280200  0.638500  1.0  0.2958
  C  C1109  1  0.760500  0.303800  0.603900  1.0  -0.1048
  C  C1110  1  0.784200  0.297500  0.571000  1.0  -0.0916
  C  C1111  1  0.733400  0.327400  0.602200  1.0  -0.1057
  C  C1112  1  0.778300  0.320900  0.542600  1.0  -0.032
  C  C1113  1  0.729800  0.348200  0.573700  1.0  -0.04
  C  C1114  1  0.751800  0.347800  0.543100  1.0  -0.1721
  C  C1115  1  0.765200  0.719800  0.861500  1.0  0.2948
  C  C1116  1  0.760500  0.696200  0.896100  1.0  -0.1046
  C  C1117  1  0.784200  0.702500  0.929000  1.0  -0.0925
  C  C1118  1  0.733400  0.672600  0.897800  1.0  -0.1055
  C  C1119  1  0.778300  0.679100  0.957400  1.0  -0.033
  C  C1120  1  0.729800  0.651800  0.926300  1.0  -0.039
  C  C1121  1  0.751800  0.652200  0.956900  1.0  -0.1714
  C  C1122  1  0.265200  0.219800  0.361500  1.0  0.2948
  C  C1123  1  0.260500  0.196200  0.396100  1.0  -0.1046
  C  C1124  1  0.284200  0.202500  0.429000  1.0  -0.0925
  C  C1125  1  0.233400  0.172600  0.397800  1.0  -0.1055
  C  C1126  1  0.278300  0.179100  0.457400  1.0  -0.033
  C  C1127  1  0.229800  0.151800  0.426300  1.0  -0.039
  C  C1128  1  0.251800  0.152200  0.456900  1.0  -0.1714
  N  N1129  1  0.557800  0.490700  0.511700  1.0  -0.1308
  N  N1130  1  0.579400  0.512500  0.533500  1.0  -0.188
  N  N1131  1  0.578200  0.463600  0.499700  1.0  -0.3041
  N  N1132  1  0.613800  0.500000  0.536300  1.0  -0.3536
  N  N1133  1  0.057800  0.990700  0.011700  1.0  -0.1308
  N  N1134  1  0.079400  0.012500  0.033500  1.0  -0.188
  N  N1135  1  0.078200  0.963600  0.999700  1.0  -0.3041
  N  N1136  1  0.113800  0.000000  0.036300  1.0  -0.3536
  N  N1137  1  0.942200  0.509300  0.011700  1.0  -0.1305
  N  N1138  1  0.920600  0.487500  0.033500  1.0  -0.1889
  N  N1139  1  0.921800  0.536400  0.999700  1.0  -0.3047
  N  N1140  1  0.886200  0.500000  0.036300  1.0  -0.3527
  N  N1141  1  0.442200  0.009300  0.511700  1.0  -0.1305
  N  N1142  1  0.420600  0.987500  0.533500  1.0  -0.1889
  N  N1143  1  0.421800  0.036400  0.499700  1.0  -0.3047
  N  N1144  1  0.386200  0.000000  0.536300  1.0  -0.3557
  N  N1145  1  0.442200  0.990700  0.988300  1.0  -0.131
  N  N1146  1  0.420600  0.012500  0.966500  1.0  -0.1892
  N  N1147  1  0.421800  0.963600  0.000300  1.0  -0.3039
  N  N1148  1  0.386200  0.000000  0.963700  1.0  -0.3558
  N  N1149  1  0.942200  0.490700  0.488300  1.0  -0.131
  N  N1150  1  0.920600  0.512500  0.466500  1.0  -0.1892
  N  N1151  1  0.921800  0.463600  0.500300  1.0  -0.3039
  N  N1152  1  0.886200  0.500000  0.463700  1.0  -0.3558
  N  N1153  1  0.057800  0.009300  0.488300  1.0  -0.1307
  N  N1154  1  0.079400  0.987500  0.466500  1.0  -0.1888
  N  N1155  1  0.078200  0.036400  0.500300  1.0  -0.3039
  N  N1156  1  0.113800  0.000000  0.463700  1.0  -0.3565
  N  N1157  1  0.557800  0.509300  0.988300  1.0  -0.1307
  N  N1158  1  0.579400  0.487500  0.966500  1.0  -0.1888
  N  N1159  1  0.578200  0.536400  0.000300  1.0  -0.3039
  N  N1160  1  0.613800  0.500000  0.963700  1.0  -0.3542
  N  N1161  1  0.511700  0.557800  0.490700  1.0  -0.134
  N  N1162  1  0.533500  0.579400  0.512500  1.0  -0.1884
  N  N1163  1  0.499700  0.578200  0.463600  1.0  -0.3047
  N  N1164  1  0.536300  0.613800  0.500000  1.0  -0.3542
  N  N1165  1  0.011700  0.057800  0.990700  1.0  -0.134
  N  N1166  1  0.033500  0.079400  0.012500  1.0  -0.1884
  N  N1167  1  0.999700  0.078200  0.963600  1.0  -0.3047
  N  N1168  1  0.036300  0.113800  0.000000  1.0  -0.3542
  N  N1169  1  0.011700  0.942200  0.509300  1.0  -0.1339
  N  N1170  1  0.033500  0.920600  0.487500  1.0  -0.1912
  N  N1171  1  0.999700  0.921800  0.536400  1.0  -0.3033
  N  N1172  1  0.036300  0.886200  0.500000  1.0  -0.3535
  N  N1173  1  0.511700  0.442200  0.009300  1.0  -0.1339
  N  N1174  1  0.533500  0.420600  0.987500  1.0  -0.1912
  N  N1175  1  0.499700  0.421800  0.036400  1.0  -0.3033
  N  N1176  1  0.536300  0.386200  0.000000  1.0  -0.3558
  N  N1177  1  0.988300  0.442200  0.990700  1.0  -0.1336
  N  N1178  1  0.966500  0.420600  0.012500  1.0  -0.1893
  N  N1179  1  0.000300  0.421800  0.963600  1.0  -0.3045
  N  N1180  1  0.963700  0.386200  0.000000  1.0  -0.3525
  N  N1181  1  0.488300  0.942200  0.490700  1.0  -0.1336
  N  N1182  1  0.466500  0.920600  0.512500  1.0  -0.1893
  N  N1183  1  0.500300  0.921800  0.463600  1.0  -0.3045
  N  N1184  1  0.463700  0.886200  0.500000  1.0  -0.3525
  N  N1185  1  0.488300  0.057800  0.009300  1.0  -0.133
  N  N1186  1  0.466500  0.079400  0.987500  1.0  -0.1914
  N  N1187  1  0.500300  0.078200  0.036400  1.0  -0.3036
  N  N1188  1  0.463700  0.113800  0.000000  1.0  -0.3561
  N  N1189  1  0.988300  0.557800  0.509300  1.0  -0.133
  N  N1190  1  0.966500  0.579400  0.487500  1.0  -0.1914
  N  N1191  1  0.000300  0.578200  0.536400  1.0  -0.3036
  N  N1192  1  0.963700  0.613800  0.500000  1.0  -0.3541
  N  N1193  1  0.490700  0.511700  0.557800  1.0  -0.1349
  N  N1194  1  0.512500  0.533500  0.579400  1.0  -0.188
  N  N1195  1  0.463600  0.499700  0.578200  1.0  -0.3048
  N  N1196  1  0.500000  0.536300  0.613800  1.0  -0.3555
  N  N1197  1  0.990700  0.011700  0.057800  1.0  -0.1349
  N  N1198  1  0.012500  0.033500  0.079400  1.0  -0.188
  N  N1199  1  0.963600  0.999700  0.078200  1.0  -0.3048
  N  N1200  1  0.000000  0.036300  0.113800  1.0  -0.3555
  N  N1201  1  0.509300  0.011700  0.942200  1.0  -0.1342
  N  N1202  1  0.487500  0.033500  0.920600  1.0  -0.1872
  N  N1203  1  0.536400  0.999700  0.921800  1.0  -0.3029
  N  N1204  1  0.500000  0.036300  0.886200  1.0  -0.3572
  N  N1205  1  0.009300  0.511700  0.442200  1.0  -0.1342
  N  N1206  1  0.987500  0.533500  0.420600  1.0  -0.1872
  N  N1207  1  0.036400  0.499700  0.421800  1.0  -0.3029
  N  N1208  1  0.000000  0.536300  0.386200  1.0  -0.359
  N  N1209  1  0.990700  0.988300  0.442200  1.0  -0.134
  N  N1210  1  0.012500  0.966500  0.420600  1.0  -0.1885
  N  N1211  1  0.963600  0.000300  0.421800  1.0  -0.3041
  N  N1212  1  0.000000  0.963700  0.386200  1.0  -0.3568
  N  N1213  1  0.490700  0.488300  0.942200  1.0  -0.134
  N  N1214  1  0.512500  0.466500  0.920600  1.0  -0.1885
  N  N1215  1  0.463600  0.500300  0.921800  1.0  -0.3041
  N  N1216  1  0.500000  0.463700  0.886200  1.0  -0.3568
  N  N1217  1  0.009300  0.488300  0.057800  1.0  -0.1348
  N  N1218  1  0.987500  0.466500  0.079400  1.0  -0.1869
  N  N1219  1  0.036400  0.500300  0.078200  1.0  -0.305
  N  N1220  1  0.000000  0.463700  0.113800  1.0  -0.3561
  N  N1221  1  0.509300  0.988300  0.557800  1.0  -0.1348
  N  N1222  1  0.487500  0.966500  0.579400  1.0  -0.1869
  N  N1223  1  0.536400  0.000300  0.578200  1.0  -0.305
  N  N1224  1  0.500000  0.963700  0.613800  1.0  -0.3535
  N  N1225  1  0.240700  0.807800  0.738300  1.0  -0.133
  N  N1226  1  0.262500  0.829400  0.716500  1.0  -0.1893
  N  N1227  1  0.213600  0.828200  0.750300  1.0  -0.3048
  N  N1228  1  0.250000  0.863800  0.713700  1.0  -0.356
  N  N1229  1  0.740700  0.307800  0.238300  1.0  -0.133
  N  N1230  1  0.762500  0.329400  0.216500  1.0  -0.1893
  N  N1231  1  0.713600  0.328200  0.250300  1.0  -0.3048
  N  N1232  1  0.750000  0.363800  0.213700  1.0  -0.356
  N  N1233  1  0.259300  0.192200  0.238300  1.0  -0.1332
  N  N1234  1  0.237500  0.170600  0.216500  1.0  -0.1871
  N  N1235  1  0.286400  0.171800  0.250300  1.0  -0.3041
  N  N1236  1  0.250000  0.136200  0.213700  1.0  -0.3542
  N  N1237  1  0.759300  0.692200  0.738300  1.0  -0.1332
  N  N1238  1  0.737500  0.670600  0.716500  1.0  -0.1871
  N  N1239  1  0.786400  0.671800  0.750300  1.0  -0.3041
  N  N1240  1  0.750000  0.636200  0.713700  1.0  -0.3542
  N  N1241  1  0.740700  0.692200  0.261700  1.0  -0.133
  N  N1242  1  0.762500  0.670600  0.283500  1.0  -0.1888
  N  N1243  1  0.713600  0.671800  0.249700  1.0  -0.3047
  N  N1244  1  0.750000  0.636200  0.286300  1.0  -0.3534
  N  N1245  1  0.240700  0.192200  0.761700  1.0  -0.133
  N  N1246  1  0.262500  0.170600  0.783500  1.0  -0.1888
  N  N1247  1  0.213600  0.171800  0.749700  1.0  -0.3047
  N  N1248  1  0.250000  0.136200  0.786300  1.0  -0.3534
  N  N1249  1  0.759300  0.307800  0.761700  1.0  -0.1331
  N  N1250  1  0.737500  0.329400  0.783500  1.0  -0.1876
  N  N1251  1  0.786400  0.328200  0.749700  1.0  -0.3048
  N  N1252  1  0.750000  0.363800  0.786300  1.0  -0.3543
  N  N1253  1  0.259300  0.807800  0.261700  1.0  -0.1331
  N  N1254  1  0.237500  0.829400  0.283500  1.0  -0.1876
  N  N1255  1  0.286400  0.828200  0.249700  1.0  -0.3048
  N  N1256  1  0.250000  0.863800  0.286300  1.0  -0.3543
  N  N1257  1  0.307800  0.761700  0.759300  1.0  -0.131
  N  N1258  1  0.329400  0.783500  0.737500  1.0  -0.1921
  N  N1259  1  0.328200  0.749700  0.786400  1.0  -0.3024
  N  N1260  1  0.363800  0.786300  0.750000  1.0  -0.3547
  N  N1261  1  0.807800  0.261700  0.259300  1.0  -0.131
  N  N1262  1  0.829400  0.283500  0.237500  1.0  -0.1921
  N  N1263  1  0.828200  0.249700  0.286400  1.0  -0.3024
  N  N1264  1  0.863800  0.286300  0.250000  1.0  -0.3547
  N  N1265  1  0.692200  0.261700  0.740700  1.0  -0.1314
  N  N1266  1  0.670600  0.283500  0.762500  1.0  -0.1909
  N  N1267  1  0.671800  0.249700  0.713600  1.0  -0.3037
  N  N1268  1  0.636200  0.286300  0.750000  1.0  -0.3544
  N  N1269  1  0.192200  0.761700  0.240700  1.0  -0.1314
  N  N1270  1  0.170600  0.783500  0.262500  1.0  -0.1909
  N  N1271  1  0.171800  0.749700  0.213600  1.0  -0.3037
  N  N1272  1  0.136200  0.786300  0.250000  1.0  -0.3544
  N  N1273  1  0.192200  0.238300  0.259300  1.0  -0.1308
  N  N1274  1  0.170600  0.216500  0.237500  1.0  -0.1924
  N  N1275  1  0.171800  0.250300  0.286400  1.0  -0.3037
  N  N1276  1  0.136200  0.213700  0.250000  1.0  -0.3533
  N  N1277  1  0.692200  0.738300  0.759300  1.0  -0.1308
  N  N1278  1  0.670600  0.716500  0.737500  1.0  -0.1924
  N  N1279  1  0.671800  0.750300  0.786400  1.0  -0.3037
  N  N1280  1  0.636200  0.713700  0.750000  1.0  -0.3533
  N  N1281  1  0.807800  0.738300  0.240700  1.0  -0.1313
  N  N1282  1  0.829400  0.716500  0.262500  1.0  -0.19
  N  N1283  1  0.828200  0.750300  0.213600  1.0  -0.3042
  N  N1284  1  0.863800  0.713700  0.250000  1.0  -0.352
  N  N1285  1  0.307800  0.238300  0.740700  1.0  -0.1313
  N  N1286  1  0.329400  0.216500  0.762500  1.0  -0.19
  N  N1287  1  0.328200  0.250300  0.713600  1.0  -0.3042
  N  N1288  1  0.363800  0.213700  0.750000  1.0  -0.352
  N  N1289  1  0.261700  0.740700  0.692200  1.0  -0.1346
  N  N1290  1  0.283500  0.762500  0.670600  1.0  -0.1874
  N  N1291  1  0.249700  0.713600  0.671800  1.0  -0.3038
  N  N1292  1  0.286300  0.750000  0.636200  1.0  -0.3578
  N  N1293  1  0.761700  0.240700  0.192200  1.0  -0.1346
  N  N1294  1  0.783500  0.262500  0.170600  1.0  -0.1874
  N  N1295  1  0.749700  0.213600  0.171800  1.0  -0.3038
  N  N1296  1  0.786300  0.250000  0.136200  1.0  -0.3578
  N  N1297  1  0.761700  0.759300  0.307800  1.0  -0.1349
  N  N1298  1  0.783500  0.737500  0.329400  1.0  -0.1862
  N  N1299  1  0.749700  0.786400  0.328200  1.0  -0.3047
  N  N1300  1  0.786300  0.750000  0.363800  1.0  -0.3542
  N  N1301  1  0.261700  0.259300  0.807800  1.0  -0.1349
  N  N1302  1  0.283500  0.237500  0.829400  1.0  -0.1862
  N  N1303  1  0.249700  0.286400  0.828200  1.0  -0.3047
  N  N1304  1  0.286300  0.250000  0.863800  1.0  -0.3542
  N  N1305  1  0.738300  0.240700  0.807800  1.0  -0.1347
  N  N1306  1  0.716500  0.262500  0.829400  1.0  -0.1864
  N  N1307  1  0.750300  0.213600  0.828200  1.0  -0.3043
  N  N1308  1  0.713700  0.250000  0.863800  1.0  -0.3545
  N  N1309  1  0.238300  0.740700  0.307800  1.0  -0.1347
  N  N1310  1  0.216500  0.762500  0.329400  1.0  -0.1864
  N  N1311  1  0.250300  0.713600  0.328200  1.0  -0.3043
  N  N1312  1  0.213700  0.750000  0.363800  1.0  -0.3545
  N  N1313  1  0.238300  0.259300  0.192200  1.0  -0.1336
  N  N1314  1  0.216500  0.237500  0.170600  1.0  -0.1879
  N  N1315  1  0.250300  0.286400  0.171800  1.0  -0.3033
  N  N1316  1  0.213700  0.250000  0.136200  1.0  -0.3557
  N  N1317  1  0.738300  0.759300  0.692200  1.0  -0.1336
  N  N1318  1  0.716500  0.737500  0.670600  1.0  -0.1879
  N  N1319  1  0.750300  0.786400  0.671800  1.0  -0.3033
  N  N1320  1  0.713700  0.750000  0.636200  1.0  -0.3557
  N  N1321  1  0.442200  0.509300  0.488300  1.0  -0.1307
  N  N1322  1  0.420600  0.487500  0.466500  1.0  -0.188
  N  N1323  1  0.421800  0.536400  0.500300  1.0  -0.3045
  N  N1324  1  0.386200  0.500000  0.463700  1.0  -0.3543
  N  N1325  1  0.942200  0.009300  0.988300  1.0  -0.1307
  N  N1326  1  0.920600  0.987500  0.966500  1.0  -0.188
  N  N1327  1  0.921800  0.036400  0.000300  1.0  -0.3045
  N  N1328  1  0.886200  0.000000  0.963700  1.0  -0.356
  N  N1329  1  0.057800  0.490700  0.988300  1.0  -0.131
  N  N1330  1  0.079400  0.512500  0.966500  1.0  -0.1889
  N  N1331  1  0.078200  0.463600  0.000300  1.0  -0.3036
  N  N1332  1  0.113800  0.500000  0.963700  1.0  -0.3563
  N  N1333  1  0.557800  0.990700  0.488300  1.0  -0.131
  N  N1334  1  0.579400  0.012500  0.466500  1.0  -0.1889
  N  N1335  1  0.578200  0.963600  0.500300  1.0  -0.3036
  N  N1336  1  0.613800  0.000000  0.463700  1.0  -0.3563
  N  N1337  1  0.557800  0.009300  0.011700  1.0  -0.1304
  N  N1338  1  0.579400  0.987500  0.033500  1.0  -0.1887
  N  N1339  1  0.578200  0.036400  0.999700  1.0  -0.304
  N  N1340  1  0.613800  0.000000  0.036300  1.0  -0.3555
  N  N1341  1  0.057800  0.509300  0.511700  1.0  -0.1304
  N  N1342  1  0.079400  0.487500  0.533500  1.0  -0.1887
  N  N1343  1  0.078200  0.536400  0.499700  1.0  -0.304
  N  N1344  1  0.113800  0.500000  0.536300  1.0  -0.3521
  N  N1345  1  0.942200  0.990700  0.511700  1.0  -0.1308
  N  N1346  1  0.920600  0.012500  0.533500  1.0  -0.1893
  N  N1347  1  0.921800  0.963600  0.499700  1.0  -0.3041
  N  N1348  1  0.886200  0.000000  0.536300  1.0  -0.3537
  N  N1349  1  0.442200  0.490700  0.011700  1.0  -0.1308
  N  N1350  1  0.420600  0.512500  0.033500  1.0  -0.1893
  N  N1351  1  0.421800  0.463600  0.999700  1.0  -0.3041
  N  N1352  1  0.386200  0.500000  0.036300  1.0  -0.3537
  N  N1353  1  0.488300  0.442200  0.509300  1.0  -0.1332
  N  N1354  1  0.466500  0.420600  0.487500  1.0  -0.1903
  N  N1355  1  0.500300  0.421800  0.536400  1.0  -0.3032
  N  N1356  1  0.463700  0.386200  0.500000  1.0  -0.353
  N  N1357  1  0.988300  0.942200  0.009300  1.0  -0.1332
  N  N1358  1  0.966500  0.920600  0.987500  1.0  -0.1903
  N  N1359  1  0.000300  0.921800  0.036400  1.0  -0.3032
  N  N1360  1  0.963700  0.886200  0.000000  1.0  -0.3544
  N  N1361  1  0.988300  0.057800  0.490700  1.0  -0.1333
  N  N1362  1  0.966500  0.079400  0.512500  1.0  -0.1891
  N  N1363  1  0.000300  0.078200  0.463600  1.0  -0.3047
  N  N1364  1  0.963700  0.113800  0.500000  1.0  -0.3541
  N  N1365  1  0.488300  0.557800  0.990700  1.0  -0.1333
  N  N1366  1  0.466500  0.579400  0.012500  1.0  -0.1891
  N  N1367  1  0.500300  0.578200  0.963600  1.0  -0.3047
  N  N1368  1  0.463700  0.613800  0.000000  1.0  -0.3541
  N  N1369  1  0.011700  0.557800  0.009300  1.0  -0.1337
  N  N1370  1  0.033500  0.579400  0.987500  1.0  -0.192
  N  N1371  1  0.999700  0.578200  0.036400  1.0  -0.3035
  N  N1372  1  0.036300  0.613800  0.000000  1.0  -0.3578
  N  N1373  1  0.511700  0.057800  0.509300  1.0  -0.1337
  N  N1374  1  0.533500  0.079400  0.487500  1.0  -0.192
  N  N1375  1  0.499700  0.078200  0.536400  1.0  -0.3035
  N  N1376  1  0.536300  0.113800  0.500000  1.0  -0.3551
  N  N1377  1  0.511700  0.942200  0.990700  1.0  -0.1343
  N  N1378  1  0.533500  0.920600  0.012500  1.0  -0.1892
  N  N1379  1  0.499700  0.921800  0.963600  1.0  -0.3048
  N  N1380  1  0.536300  0.886200  0.000000  1.0  -0.3531
  N  N1381  1  0.011700  0.442200  0.490700  1.0  -0.1343
  N  N1382  1  0.033500  0.420600  0.512500  1.0  -0.1892
  N  N1383  1  0.999700  0.421800  0.463600  1.0  -0.3048
  N  N1384  1  0.036300  0.386200  0.500000  1.0  -0.3531
  N  N1385  1  0.509300  0.488300  0.442200  1.0  -0.1341
  N  N1386  1  0.487500  0.466500  0.420600  1.0  -0.1879
  N  N1387  1  0.536400  0.500300  0.421800  1.0  -0.3039
  N  N1388  1  0.500000  0.463700  0.386200  1.0  -0.3563
  N  N1389  1  0.009300  0.988300  0.942200  1.0  -0.1341
  N  N1390  1  0.987500  0.966500  0.920600  1.0  -0.1879
  N  N1391  1  0.036400  0.000300  0.921800  1.0  -0.3039
  N  N1392  1  0.000000  0.963700  0.886200  1.0  -0.3581
  N  N1393  1  0.490700  0.988300  0.057800  1.0  -0.1349
  N  N1394  1  0.512500  0.966500  0.079400  1.0  -0.1882
  N  N1395  1  0.463600  0.000300  0.078200  1.0  -0.3051
  N  N1396  1  0.500000  0.963700  0.113800  1.0  -0.3544
  N  N1397  1  0.990700  0.488300  0.557800  1.0  -0.1349
  N  N1398  1  0.012500  0.466500  0.579400  1.0  -0.1882
  N  N1399  1  0.963600  0.500300  0.578200  1.0  -0.3051
  N  N1400  1  0.000000  0.463700  0.613800  1.0  -0.3544
  N  N1401  1  0.009300  0.011700  0.557800  1.0  -0.1348
  N  N1402  1  0.987500  0.033500  0.579400  1.0  -0.1862
  N  N1403  1  0.036400  0.999700  0.578200  1.0  -0.304
  N  N1404  1  0.000000  0.036300  0.613800  1.0  -0.3573
  N  N1405  1  0.509300  0.511700  0.057800  1.0  -0.1348
  N  N1406  1  0.487500  0.533500  0.079400  1.0  -0.1862
  N  N1407  1  0.536400  0.499700  0.078200  1.0  -0.304
  N  N1408  1  0.500000  0.536300  0.113800  1.0  -0.3547
  N  N1409  1  0.990700  0.511700  0.942200  1.0  -0.1342
  N  N1410  1  0.012500  0.533500  0.920600  1.0  -0.1887
  N  N1411  1  0.963600  0.499700  0.921800  1.0  -0.3038
  N  N1412  1  0.000000  0.536300  0.886200  1.0  -0.3572
  N  N1413  1  0.490700  0.011700  0.442200  1.0  -0.1342
  N  N1414  1  0.512500  0.033500  0.420600  1.0  -0.1887
  N  N1415  1  0.463600  0.999700  0.421800  1.0  -0.3038
  N  N1416  1  0.500000  0.036300  0.386200  1.0  -0.3572
  N  N1417  1  0.759300  0.192200  0.261700  1.0  -0.1332
  N  N1418  1  0.737500  0.170600  0.283500  1.0  -0.1875
  N  N1419  1  0.786400  0.171800  0.249700  1.0  -0.3045
  N  N1420  1  0.750000  0.136200  0.286300  1.0  -0.3525
  N  N1421  1  0.259300  0.692200  0.761700  1.0  -0.1332
  N  N1422  1  0.237500  0.670600  0.783500  1.0  -0.1875
  N  N1423  1  0.286400  0.671800  0.749700  1.0  -0.3045
  N  N1424  1  0.250000  0.636200  0.786300  1.0  -0.3525
  N  N1425  1  0.740700  0.807800  0.761700  1.0  -0.1332
  N  N1426  1  0.762500  0.829400  0.783500  1.0  -0.1883
  N  N1427  1  0.713600  0.828200  0.749700  1.0  -0.3048
  N  N1428  1  0.750000  0.863800  0.786300  1.0  -0.3542
  N  N1429  1  0.240700  0.307800  0.261700  1.0  -0.1332
  N  N1430  1  0.262500  0.329400  0.283500  1.0  -0.1883
  N  N1431  1  0.213600  0.328200  0.249700  1.0  -0.3048
  N  N1432  1  0.250000  0.363800  0.286300  1.0  -0.3542
  N  N1433  1  0.259300  0.307800  0.738300  1.0  -0.1329
  N  N1434  1  0.237500  0.329400  0.716500  1.0  -0.1877
  N  N1435  1  0.286400  0.328200  0.750300  1.0  -0.3042
  N  N1436  1  0.250000  0.363800  0.713700  1.0  -0.3561
  N  N1437  1  0.759300  0.807800  0.238300  1.0  -0.1329
  N  N1438  1  0.737500  0.829400  0.216500  1.0  -0.1877
  N  N1439  1  0.786400  0.828200  0.250300  1.0  -0.3042
  N  N1440  1  0.750000  0.863800  0.213700  1.0  -0.3561
  N  N1441  1  0.240700  0.692200  0.238300  1.0  -0.133
  N  N1442  1  0.262500  0.670600  0.216500  1.0  -0.1893
  N  N1443  1  0.213600  0.671800  0.250300  1.0  -0.3048
  N  N1444  1  0.250000  0.636200  0.213700  1.0  -0.355
  N  N1445  1  0.740700  0.192200  0.738300  1.0  -0.133
  N  N1446  1  0.762500  0.170600  0.716500  1.0  -0.1893
  N  N1447  1  0.713600  0.171800  0.750300  1.0  -0.3048
  N  N1448  1  0.750000  0.136200  0.713700  1.0  -0.355
  N  N1449  1  0.692200  0.238300  0.240700  1.0  -0.1314
  N  N1450  1  0.670600  0.216500  0.262500  1.0  -0.1907
  N  N1451  1  0.671800  0.250300  0.213600  1.0  -0.3049
  N  N1452  1  0.636200  0.213700  0.250000  1.0  -0.3533
  N  N1453  1  0.192200  0.738300  0.740700  1.0  -0.1314
  N  N1454  1  0.170600  0.716500  0.762500  1.0  -0.1907
  N  N1455  1  0.171800  0.750300  0.713600  1.0  -0.3049
  N  N1456  1  0.136200  0.713700  0.750000  1.0  -0.3533
  N  N1457  1  0.307800  0.738300  0.259300  1.0  -0.1308
  N  N1458  1  0.329400  0.716500  0.237500  1.0  -0.1929
  N  N1459  1  0.328200  0.750300  0.286400  1.0  -0.3031
  N  N1460  1  0.363800  0.713700  0.250000  1.0  -0.3528
  N  N1461  1  0.807800  0.238300  0.759300  1.0  -0.1308
  N  N1462  1  0.829400  0.216500  0.737500  1.0  -0.1929
  N  N1463  1  0.828200  0.250300  0.786400  1.0  -0.3031
  N  N1464  1  0.863800  0.213700  0.750000  1.0  -0.3528
  N  N1465  1  0.807800  0.761700  0.740700  1.0  -0.1313
  N  N1466  1  0.829400  0.783500  0.762500  1.0  -0.1902
  N  N1467  1  0.828200  0.749700  0.713600  1.0  -0.3034
  N  N1468  1  0.863800  0.786300  0.750000  1.0  -0.3536
  N  N1469  1  0.307800  0.261700  0.240700  1.0  -0.1313
  N  N1470  1  0.329400  0.283500  0.262500  1.0  -0.1902
  N  N1471  1  0.328200  0.249700  0.213600  1.0  -0.3034
  N  N1472  1  0.363800  0.286300  0.250000  1.0  -0.3536
  N  N1473  1  0.192200  0.261700  0.759300  1.0  -0.1309
  N  N1474  1  0.170600  0.283500  0.737500  1.0  -0.1919
  N  N1475  1  0.171800  0.249700  0.786400  1.0  -0.3025
  N  N1476  1  0.136200  0.286300  0.750000  1.0  -0.3541
  N  N1477  1  0.692200  0.761700  0.259300  1.0  -0.1309
  N  N1478  1  0.670600  0.783500  0.237500  1.0  -0.1919
  N  N1479  1  0.671800  0.749700  0.286400  1.0  -0.3025
  N  N1480  1  0.636200  0.786300  0.250000  1.0  -0.3541
  N  N1481  1  0.738300  0.259300  0.307800  1.0  -0.1342
  N  N1482  1  0.716500  0.237500  0.329400  1.0  -0.187
  N  N1483  1  0.750300  0.286400  0.328200  1.0  -0.3042
  N  N1484  1  0.713700  0.250000  0.363800  1.0  -0.3533
  N  N1485  1  0.238300  0.759300  0.807800  1.0  -0.1342
  N  N1486  1  0.216500  0.737500  0.829400  1.0  -0.187
  N  N1487  1  0.250300  0.786400  0.828200  1.0  -0.3042
  N  N1488  1  0.213700  0.750000  0.863800  1.0  -0.3533
  N  N1489  1  0.238300  0.240700  0.692200  1.0  -0.1339
  N  N1490  1  0.216500  0.262500  0.670600  1.0  -0.1879
  N  N1491  1  0.250300  0.213600  0.671800  1.0  -0.3035
  N  N1492  1  0.213700  0.250000  0.636200  1.0  -0.3569
  N  N1493  1  0.738300  0.740700  0.192200  1.0  -0.1339
  N  N1494  1  0.716500  0.762500  0.170600  1.0  -0.1879
  N  N1495  1  0.750300  0.713600  0.171800  1.0  -0.3035
  N  N1496  1  0.713700  0.750000  0.136200  1.0  -0.3569
  N  N1497  1  0.261700  0.759300  0.192200  1.0  -0.1341
  N  N1498  1  0.283500  0.737500  0.170600  1.0  -0.1866
  N  N1499  1  0.249700  0.786400  0.171800  1.0  -0.3039
  N  N1500  1  0.286300  0.750000  0.136200  1.0  -0.3566
  N  N1501  1  0.761700  0.259300  0.692200  1.0  -0.1341
  N  N1502  1  0.783500  0.237500  0.670600  1.0  -0.1866
  N  N1503  1  0.749700  0.286400  0.671800  1.0  -0.3039
  N  N1504  1  0.786300  0.250000  0.636200  1.0  -0.3566
  N  N1505  1  0.761700  0.740700  0.807800  1.0  -0.1355
  N  N1506  1  0.783500  0.762500  0.829400  1.0  -0.1861
  N  N1507  1  0.749700  0.713600  0.828200  1.0  -0.3046
  N  N1508  1  0.786300  0.750000  0.863800  1.0  -0.3555
  N  N1509  1  0.261700  0.240700  0.307800  1.0  -0.1355
  N  N1510  1  0.283500  0.262500  0.329400  1.0  -0.1861
  N  N1511  1  0.249700  0.213600  0.328200  1.0  -0.3046
  N  N1512  1  0.286300  0.250000  0.363800  1.0  -0.3555
