# generated using pymatgen
data_Cd2SiH16(C7N4)4
_symmetry_space_group_name_H-M   'P 1'
_cell_length_a   32.02080000
_cell_length_b   32.02080000
_cell_length_c   32.02080000
_cell_angle_alpha   109.47100000
_cell_angle_beta   109.47100000
_cell_angle_gamma   109.47100000
_symmetry_Int_Tables_number   1
_chemical_formula_structural   Cd2SiH16(C7N4)4
_chemical_formula_sum   'Cd24 Si12 H192 C336 N192'
_cell_volume   25274.24499174
_cell_formula_units_Z   12
loop_
 _symmetry_equiv_pos_site_id
 _symmetry_equiv_pos_as_xyz
  1  'x, y, z'
loop_
 _atom_site_type_symbol
 _atom_site_label
 _atom_site_symmetry_multiplicity
 _atom_site_fract_x
 _atom_site_fract_y
 _atom_site_fract_z
 _atom_site_occupancy
 _atom_site_charge
  Cd  Cd1  1  0.000000  0.500000  0.371660  1.0  0.7775
  Cd  Cd2  1  0.000000  0.500000  0.871660  1.0  0.7774
  Cd  Cd3  1  0.500000  0.871660  0.500000  1.0  0.7815
  Cd  Cd4  1  0.500000  0.000000  0.000000  1.0  0.6022
  Cd  Cd5  1  0.371660  0.371660  0.871660  1.0  0.7824
  Cd  Cd6  1  0.500000  0.128340  0.500000  1.0  0.7829
  Cd  Cd7  1  0.000000  0.000000  0.500000  1.0  0.6022
  Cd  Cd8  1  0.000000  0.500000  0.628340  1.0  0.7798
  Cd  Cd9  1  0.500000  0.500000  0.500000  1.0  0.6022
  Cd  Cd10  1  0.628340  0.628340  0.128340  1.0  0.7826
  Cd  Cd11  1  0.871660  0.871660  0.371660  1.0  0.7824
  Cd  Cd12  1  0.371660  0.000000  0.000000  1.0  0.7763
  Cd  Cd13  1  0.128340  0.128340  0.628340  1.0  0.7826
  Cd  Cd14  1  0.500000  0.500000  0.000000  1.0  0.6022
  Cd  Cd15  1  0.128340  0.000000  0.000000  1.0  0.7769
  Cd  Cd16  1  0.500000  0.000000  0.500000  1.0  0.6022
  Cd  Cd17  1  0.628340  0.000000  0.000000  1.0  0.7769
  Cd  Cd18  1  0.000000  0.500000  0.000000  1.0  0.6022
  Cd  Cd19  1  0.000000  0.500000  0.500000  1.0  0.6022
  Cd  Cd20  1  0.871660  0.000000  0.000000  1.0  0.7763
  Cd  Cd21  1  0.500000  0.371660  0.500000  1.0  0.7815
  Cd  Cd22  1  0.000000  0.500000  0.128340  1.0  0.7798
  Cd  Cd23  1  0.000000  0.000000  0.000000  1.0  0.6022
  Cd  Cd24  1  0.500000  0.628340  0.500000  1.0  0.7829
  Si  Si25  1  0.250000  0.375000  0.125000  1.0  0.8806
  Si  Si26  1  0.625000  0.375000  0.250000  1.0  0.8801
  Si  Si27  1  0.875000  0.125000  0.750000  1.0  0.8801
  Si  Si28  1  0.125000  0.875000  0.250000  1.0  0.8806
  Si  Si29  1  0.375000  0.625000  0.750000  1.0  0.8802
  Si  Si30  1  0.625000  0.250000  0.875000  1.0  0.8802
  Si  Si31  1  0.750000  0.625000  0.875000  1.0  0.8801
  Si  Si32  1  0.750000  0.125000  0.375000  1.0  0.8802
  Si  Si33  1  0.875000  0.750000  0.625000  1.0  0.8802
  Si  Si34  1  0.375000  0.750000  0.125000  1.0  0.8805
  Si  Si35  1  0.125000  0.250000  0.375000  1.0  0.8801
  Si  Si36  1  0.250000  0.875000  0.625000  1.0  0.8805
  H  H37  1  0.956300  0.665100  0.553200  1.0  0.1164
  H  H38  1  0.403100  0.446800  0.111900  1.0  0.1174
  H  H39  1  0.208700  0.616000  0.978100  1.0  0.1166
  H  H40  1  0.521900  0.730600  0.137900  1.0  0.1182
  H  H41  1  0.791200  0.456300  0.403100  1.0  0.1161
  H  H42  1  0.641200  0.569200  0.846000  1.0  0.0958
  H  H43  1  0.888100  0.834900  0.791200  1.0  0.1176
  H  H44  1  0.120500  0.794800  0.273900  1.0  0.0988
  H  H45  1  0.334900  0.946800  0.543700  1.0  0.1171
  H  H46  1  0.137900  0.907300  0.116000  1.0  0.1182
  H  H47  1  0.846600  0.726100  0.520900  1.0  0.1011
  H  H48  1  0.154000  0.223200  0.295200  1.0  0.0955
  H  H49  1  0.208700  0.592700  0.730600  1.0  0.1167
  H  H50  1  0.096900  0.888100  0.553200  1.0  0.1176
  H  H51  1  0.388100  0.791200  0.834900  1.0  0.117
  H  H52  1  0.930800  0.858800  0.654000  1.0  0.0968
  H  H53  1  0.021900  0.137900  0.730600  1.0  0.1165
  H  H54  1  0.346600  0.825700  0.120500  1.0  0.0971
  H  H55  1  0.665100  0.611900  0.708800  1.0  0.1175
  H  H56  1  0.769400  0.791300  0.907300  1.0  0.1176
  H  H57  1  0.226100  0.346600  0.020900  1.0  0.0992
  H  H58  1  0.154000  0.930800  0.358800  1.0  0.096
  H  H59  1  0.569200  0.346000  0.141200  1.0  0.095
  H  H60  1  0.153400  0.879500  0.174300  1.0  0.0985
  H  H61  1  0.384000  0.862100  0.592700  1.0  0.1162
  H  H62  1  0.204800  0.358800  0.428000  1.0  0.0976
  H  H63  1  0.223200  0.795200  0.654000  1.0  0.0951
  H  H64  1  0.928000  0.723200  0.569200  1.0  0.0951
  H  H65  1  0.446800  0.611900  0.903100  1.0  0.1176
  H  H66  1  0.520900  0.226100  0.846600  1.0  0.0992
  H  H67  1  0.708800  0.596900  0.543700  1.0  0.117
  H  H68  1  0.294800  0.620500  0.773900  1.0  0.0985
  H  H69  1  0.569200  0.223200  0.928000  1.0  0.0956
  H  H70  1  0.141200  0.295200  0.072000  1.0  0.0956
  H  H71  1  0.174300  0.794800  0.520900  1.0  0.0992
  H  H72  1  0.276800  0.930800  0.572000  1.0  0.096
  H  H73  1  0.708700  0.730600  0.592700  1.0  0.1175
  H  H74  1  0.428000  0.858800  0.204800  1.0  0.0978
  H  H75  1  0.930800  0.072000  0.776800  1.0  0.0964
  H  H76  1  0.269400  0.907300  0.791300  1.0  0.1174
  H  H77  1  0.907300  0.291300  0.769400  1.0  0.1176
  H  H78  1  0.205200  0.226100  0.379500  1.0  0.0991
  H  H79  1  0.205200  0.979100  0.325700  1.0  0.0989
  H  H80  1  0.111900  0.946800  0.403100  1.0  0.1171
  H  H81  1  0.043700  0.708800  0.096900  1.0  0.1163
  H  H82  1  0.358800  0.430800  0.154000  1.0  0.0954
  H  H83  1  0.072000  0.276800  0.430800  1.0  0.0939
  H  H84  1  0.637900  0.521900  0.230600  1.0  0.1164
  H  H85  1  0.846000  0.069200  0.641200  1.0  0.0959
  H  H86  1  0.478100  0.269400  0.862100  1.0  0.1173
  H  H87  1  0.773900  0.120500  0.294800  1.0  0.0987
  H  H88  1  0.230600  0.208700  0.092700  1.0  0.1176
  H  H89  1  0.553200  0.165100  0.956300  1.0  0.1177
  H  H90  1  0.572000  0.430800  0.276800  1.0  0.096
  H  H91  1  0.174300  0.379500  0.153400  1.0  0.0986
  H  H92  1  0.362100  0.478100  0.769400  1.0  0.1164
  H  H93  1  0.403100  0.956300  0.791200  1.0  0.1176
  H  H94  1  0.092700  0.384000  0.362100  1.0  0.1173
  H  H95  1  0.616000  0.137900  0.407300  1.0  0.1163
  H  H96  1  0.137900  0.230600  0.521900  1.0  0.1172
  H  H97  1  0.705200  0.325700  0.979100  1.0  0.0987
  H  H98  1  0.120500  0.325700  0.346600  1.0  0.0984
  H  H99  1  0.665100  0.053200  0.456300  1.0  0.1169
  H  H100  1  0.611900  0.403100  0.946800  1.0  0.1168
  H  H101  1  0.620500  0.273900  0.794800  1.0  0.1011
  H  H102  1  0.043700  0.334900  0.446800  1.0  0.1161
  H  H103  1  0.708700  0.978100  0.616000  1.0  0.1169
  H  H104  1  0.362100  0.884000  0.092700  1.0  0.1165
  H  H105  1  0.020900  0.846600  0.226100  1.0  0.0976
  H  H106  1  0.446800  0.834900  0.043700  1.0  0.1176
  H  H107  1  0.291200  0.403100  0.456300  1.0  0.1169
  H  H108  1  0.325700  0.846600  0.620500  1.0  0.097
  H  H109  1  0.021900  0.884000  0.791300  1.0  0.1172
  H  H110  1  0.846600  0.120500  0.825700  1.0  0.0979
  H  H111  1  0.165100  0.708800  0.611900  1.0  0.1161
  H  H112  1  0.521900  0.791300  0.884000  1.0  0.1176
  H  H113  1  0.358800  0.928000  0.704800  1.0  0.0965
  H  H114  1  0.230600  0.021900  0.637900  1.0  0.1173
  H  H115  1  0.654000  0.295200  0.223200  1.0  0.0962
  H  H116  1  0.879500  0.205200  0.726100  1.0  0.0989
  H  H117  1  0.346000  0.704800  0.776800  1.0  0.0958
  H  H118  1  0.858800  0.704800  0.928000  1.0  0.0961
  H  H119  1  0.407300  0.769400  0.291300  1.0  0.1168
  H  H120  1  0.888100  0.053200  0.596900  1.0  0.117
  H  H121  1  0.858800  0.154000  0.430800  1.0  0.0962
  H  H122  1  0.273900  0.979100  0.653400  1.0  0.0983
  H  H123  1  0.291300  0.021900  0.384000  1.0  0.1169
  H  H124  1  0.294800  0.674300  0.020900  1.0  0.0986
  H  H125  1  0.654000  0.358800  0.930800  1.0  0.0966
  H  H126  1  0.956300  0.291200  0.903100  1.0  0.116
  H  H127  1  0.596900  0.043700  0.208800  1.0  0.118
  H  H128  1  0.346000  0.641200  0.069200  1.0  0.0976
  H  H129  1  0.907300  0.616000  0.637900  1.0  0.1173
  H  H130  1  0.553200  0.388100  0.096900  1.0  0.1175
  H  H131  1  0.616000  0.478100  0.708700  1.0  0.1161
  H  H132  1  0.478100  0.208700  0.116000  1.0  0.1177
  H  H133  1  0.430800  0.776800  0.072000  1.0  0.0953
  H  H134  1  0.674300  0.520900  0.794800  1.0  0.0988
  H  H135  1  0.825700  0.620500  0.846600  1.0  0.0995
  H  H136  1  0.291200  0.888100  0.334900  1.0  0.1173
  H  H137  1  0.520900  0.294800  0.174300  1.0  0.0982
  H  H138  1  0.276800  0.346000  0.204800  1.0  0.0952
  H  H139  1  0.072000  0.795200  0.141200  1.0  0.0956
  H  H140  1  0.572000  0.141200  0.795200  1.0  0.097
  H  H141  1  0.456300  0.553200  0.665100  1.0  0.1172
  H  H142  1  0.708800  0.111900  0.665100  1.0  0.1176
  H  H143  1  0.096900  0.208800  0.043700  1.0  0.1176
  H  H144  1  0.053200  0.956300  0.165100  1.0  0.1173
  H  H145  1  0.543700  0.446800  0.334900  1.0  0.1175
  H  H146  1  0.794800  0.020900  0.674300  1.0  0.0983
  H  H147  1  0.653400  0.174300  0.879500  1.0  0.0967
  H  H148  1  0.884000  0.592700  0.862100  1.0  0.1179
  H  H149  1  0.069200  0.928000  0.223200  1.0  0.0951
  H  H150  1  0.379500  0.726100  0.205200  1.0  0.0995
  H  H151  1  0.153400  0.273900  0.479100  1.0  0.0997
  H  H152  1  0.092700  0.708700  0.230600  1.0  0.1174
  H  H153  1  0.641200  0.072000  0.295200  1.0  0.0953
  H  H154  1  0.879500  0.674300  0.653400  1.0  0.0989
  H  H155  1  0.791200  0.334900  0.888100  1.0  0.1163
  H  H156  1  0.592700  0.362100  0.384000  1.0  0.1168
  H  H157  1  0.776800  0.204800  0.346000  1.0  0.096
  H  H158  1  0.773900  0.653400  0.979100  1.0  0.0984
  H  H159  1  0.834900  0.291200  0.388100  1.0  0.1162
  H  H160  1  0.846000  0.776800  0.704800  1.0  0.0956
  H  H161  1  0.273900  0.294800  0.120500  1.0  0.0973
  H  H162  1  0.726100  0.020900  0.346600  1.0  0.0984
  H  H163  1  0.456300  0.903100  0.291200  1.0  0.1171
  H  H164  1  0.388100  0.596900  0.053200  1.0  0.1176
  H  H165  1  0.726100  0.705200  0.879500  1.0  0.098
  H  H166  1  0.479100  0.773900  0.153400  1.0  0.0985
  H  H167  1  0.730600  0.637900  0.021900  1.0  0.1168
  H  H168  1  0.295200  0.723200  0.154000  1.0  0.094
  H  H169  1  0.791300  0.407300  0.269400  1.0  0.1179
  H  H170  1  0.723200  0.654000  0.795200  1.0  0.0952
  H  H171  1  0.208800  0.665100  0.111900  1.0  0.1163
  H  H172  1  0.791300  0.384000  0.021900  1.0  0.1167
  H  H173  1  0.543700  0.096900  0.708800  1.0  0.1176
  H  H174  1  0.776800  0.572000  0.930800  1.0  0.0944
  H  H175  1  0.479100  0.705200  0.825700  1.0  0.097
  H  H176  1  0.384000  0.521900  0.291300  1.0  0.1168
  H  H177  1  0.794800  0.773900  0.620500  1.0  0.0994
  H  H178  1  0.611900  0.208800  0.165100  1.0  0.1175
  H  H179  1  0.291300  0.269400  0.407300  1.0  0.1176
  H  H180  1  0.834900  0.543700  0.946800  1.0  0.1164
  H  H181  1  0.903100  0.791200  0.956300  1.0  0.1173
  H  H182  1  0.165100  0.456300  0.053200  1.0  0.1162
  H  H183  1  0.620500  0.346600  0.325700  1.0  0.098
  H  H184  1  0.825700  0.205200  0.479100  1.0  0.0984
  H  H185  1  0.862100  0.769400  0.478100  1.0  0.117
  H  H186  1  0.141200  0.846000  0.569200  1.0  0.095
  H  H187  1  0.978100  0.116000  0.208700  1.0  0.1164
  H  H188  1  0.407300  0.637900  0.616000  1.0  0.1171
  H  H189  1  0.430800  0.654000  0.858800  1.0  0.0951
  H  H190  1  0.223200  0.428000  0.069200  1.0  0.0957
  H  H191  1  0.903100  0.111900  0.446800  1.0  0.1173
  H  H192  1  0.704800  0.276800  0.846000  1.0  0.0952
  H  H193  1  0.428000  0.569200  0.723200  1.0  0.0954
  H  H194  1  0.325700  0.479100  0.205200  1.0  0.0994
  H  H195  1  0.653400  0.479100  0.273900  1.0  0.0986
  H  H196  1  0.795200  0.641200  0.572000  1.0  0.0967
  H  H197  1  0.208800  0.543700  0.596900  1.0  0.1163
  H  H198  1  0.705200  0.379500  0.226100  1.0  0.0994
  H  H199  1  0.795200  0.154000  0.723200  1.0  0.095
  H  H200  1  0.295200  0.572000  0.641200  1.0  0.0959
  H  H201  1  0.111900  0.165100  0.208800  1.0  0.1178
  H  H202  1  0.204800  0.846000  0.276800  1.0  0.0961
  H  H203  1  0.069200  0.141200  0.346000  1.0  0.0978
  H  H204  1  0.596900  0.553200  0.888100  1.0  0.1169
  H  H205  1  0.946800  0.903100  0.611900  1.0  0.1171
  H  H206  1  0.116000  0.407300  0.137900  1.0  0.1167
  H  H207  1  0.269400  0.362100  0.978100  1.0  0.117
  H  H208  1  0.723200  0.069200  0.428000  1.0  0.0956
  H  H209  1  0.979100  0.825700  0.705200  1.0  0.0966
  H  H210  1  0.116000  0.708700  0.478100  1.0  0.1171
  H  H211  1  0.346600  0.520900  0.726100  1.0  0.0982
  H  H212  1  0.862100  0.092700  0.884000  1.0  0.1173
  H  H213  1  0.379500  0.653400  0.674300  1.0  0.0998
  H  H214  1  0.979100  0.153400  0.773900  1.0  0.0974
  H  H215  1  0.978100  0.862100  0.269400  1.0  0.1167
  H  H216  1  0.674300  0.153400  0.379500  1.0  0.0983
  H  H217  1  0.884000  0.291300  0.521900  1.0  0.1171
  H  H218  1  0.769400  0.978100  0.362100  1.0  0.1171
  H  H219  1  0.592700  0.230600  0.708700  1.0  0.1174
  H  H220  1  0.053200  0.096900  0.388100  1.0  0.1175
  H  H221  1  0.730600  0.092700  0.208700  1.0  0.1184
  H  H222  1  0.226100  0.879500  0.705200  1.0  0.098
  H  H223  1  0.704800  0.428000  0.358800  1.0  0.0947
  H  H224  1  0.020900  0.174300  0.294800  1.0  0.097
  H  H225  1  0.334900  0.388100  0.291200  1.0  0.1175
  H  H226  1  0.928000  0.204800  0.858800  1.0  0.095
  H  H227  1  0.637900  0.116000  0.907300  1.0  0.1168
  H  H228  1  0.946800  0.043700  0.834900  1.0  0.1171
  C  C229  1  0.092980  0.926050  0.366910  1.0  -0.0741
  C  C230  1  0.039740  0.867160  0.262340  1.0  -0.052
  C  C231  1  0.777660  0.659610  0.576270  1.0  -0.0536
  C  C232  1  0.672580  0.132840  0.395180  1.0  -0.053
  C  C233  1  0.633090  0.059140  0.226070  1.0  -0.0711
  C  C234  1  0.564330  0.405590  0.364700  1.0  -0.0607
  C  C235  1  0.672580  0.539740  0.777400  1.0  -0.0559
  C  C236  1  0.083340  0.923730  0.201390  1.0  -0.0475
  C  C237  1  0.135300  0.699630  0.540890  1.0  -0.06
  C  C238  1  0.400380  0.612930  0.705010  1.0  -0.3175
  C  C239  1  0.598620  0.085190  0.453710  1.0  0.3658
  C  C240  1  0.485850  0.773820  0.861930  1.0  -0.0865
  C  C241  1  0.459110  0.658740  0.094410  1.0  -0.0616
  C  C242  1  0.013430  0.098620  0.144910  1.0  0.3658
  C  C243  1  0.387070  0.592080  0.787450  1.0  -0.3192
  C  C244  1  0.300370  0.341260  0.435670  1.0  -0.0613
  C  C245  1  0.277660  0.701390  0.118050  1.0  -0.0552
  C  C246  1  0.333070  0.926050  0.559140  1.0  -0.0733
  C  C247  1  0.635300  0.094410  0.435670  1.0  -0.0621
  C  C248  1  0.985850  0.123920  0.712030  1.0  -0.0858
  C  C249  1  0.923730  0.701390  0.583340  1.0  -0.0558
  C  C250  1  0.226180  0.588110  0.712030  1.0  -0.0863
  C  C251  1  0.887070  0.787450  0.592080  1.0  -0.3196
  C  C252  1  0.423730  0.840390  0.222340  1.0  -0.0537
  C  C253  1  0.864700  0.564330  0.905590  1.0  -0.0618
  C  C254  1  0.395180  0.762340  0.222600  1.0  -0.0561
  C  C255  1  0.273820  0.287970  0.411890  1.0  -0.0847
  C  C256  1  0.907920  0.794990  0.695370  1.0  -0.3206
  C  C257  1  0.073950  0.133090  0.407020  1.0  -0.0707
  C  C258  1  0.166930  0.726070  0.592980  1.0  -0.0745
  C  C259  1  0.900380  0.705010  0.612930  1.0  -0.3167
  C  C260  1  0.914810  0.868520  0.513430  1.0  0.3664
  C  C261  1  0.355090  0.986570  0.401380  1.0  0.3656
  C  C262  1  0.123920  0.911890  0.138070  1.0  -0.0851
  C  C263  1  0.277400  0.672580  0.039740  1.0  -0.0573
  C  C264  1  0.088110  0.361930  0.376080  1.0  -0.0851
  C  C265  1  0.514150  0.226180  0.138070  1.0  -0.0858
  C  C266  1  0.895180  0.672580  0.632840  1.0  -0.0596
  C  C267  1  0.773930  0.440860  0.366910  1.0  -0.0748
  C  C268  1  0.131480  0.986570  0.585190  1.0  0.3657
  C  C269  1  0.059140  0.333070  0.426050  1.0  -0.0748
  C  C270  1  0.046290  0.401380  0.414810  1.0  0.3651
  C  C271  1  0.166930  0.440860  0.073950  1.0  -0.0743
  C  C272  1  0.376080  0.861930  0.088110  1.0  -0.0856
  C  C273  1  0.407020  0.633090  0.073950  1.0  -0.0712
  C  C274  1  0.612930  0.205010  0.900380  1.0  -0.316
  C  C275  1  0.085190  0.131480  0.486570  1.0  0.3661
  C  C276  1  0.401380  0.914810  0.546290  1.0  0.3658
  C  C277  1  0.040890  0.905590  0.341260  1.0  -0.0621
  C  C278  1  0.631480  0.046290  0.144910  1.0  0.3666
  C  C279  1  0.327420  0.460260  0.222600  1.0  -0.0592
  C  C280  1  0.159610  0.277660  0.076270  1.0  -0.0535
  C  C281  1  0.866910  0.092980  0.426050  1.0  -0.07
  C  C282  1  0.726180  0.014150  0.638070  1.0  -0.0861
  C  C283  1  0.623920  0.485850  0.212030  1.0  -0.0841
  C  C284  1  0.158740  0.959110  0.594410  1.0  -0.0611
  C  C285  1  0.367160  0.827420  0.104820  1.0  -0.0566
  C  C286  1  0.800370  0.435670  0.341260  1.0  -0.0613
  C  C287  1  0.907020  0.833070  0.773930  1.0  -0.0745
  C  C288  1  0.226070  0.666930  0.092980  1.0  -0.0764
  C  C289  1  0.400380  0.787450  0.195370  1.0  -0.3178
  C  C290  1  0.273930  0.907020  0.333070  1.0  -0.0702
  C  C291  1  0.644910  0.013430  0.598620  1.0  0.3657
  C  C292  1  0.144910  0.546290  0.631480  1.0  0.3655
  C  C293  1  0.701390  0.083340  0.423730  1.0  -0.0537
  C  C294  1  0.135300  0.435670  0.094410  1.0  -0.0604
  C  C295  1  0.294990  0.887070  0.599620  1.0  -0.3192
  C  C296  1  0.592080  0.287450  0.887070  1.0  -0.3206
  C  C297  1  0.726070  0.633090  0.559140  1.0  -0.0734
  C  C298  1  0.355090  0.368520  0.453710  1.0  0.365
  C  C299  1  0.440860  0.573950  0.666930  1.0  -0.0707
  C  C300  1  0.133090  0.226070  0.059140  1.0  -0.0717
  C  C301  1  0.841260  0.040890  0.405590  1.0  -0.0619
  C  C302  1  0.013430  0.914810  0.368520  1.0  0.366
  C  C303  1  0.085190  0.953710  0.098620  1.0  0.3667
  C  C304  1  0.722340  0.423730  0.340390  1.0  -0.0556
  C  C305  1  0.658740  0.064330  0.199630  1.0  -0.0608
  C  C306  1  0.592080  0.304630  0.205010  1.0  -0.3166
  C  C307  1  0.911890  0.638070  0.623920  1.0  -0.0867
  C  C308  1  0.205010  0.804630  0.592080  1.0  -0.3164
  C  C309  1  0.695370  0.294990  0.907920  1.0  -0.3202
  C  C310  1  0.594410  0.459110  0.158740  1.0  -0.0626
  C  C311  1  0.277400  0.604820  0.737660  1.0  -0.0556
  C  C312  1  0.098620  0.644910  0.513430  1.0  0.3651
  C  C313  1  0.666930  0.592980  0.726070  1.0  -0.0744
  C  C314  1  0.112930  0.900380  0.205010  1.0  -0.3155
  C  C315  1  0.712550  0.612930  0.907920  1.0  -0.3211
  C  C316  1  0.583340  0.201390  0.923730  1.0  -0.0559
  C  C317  1  0.088110  0.726180  0.212030  1.0  -0.0868
  C  C318  1  0.726070  0.092980  0.666930  1.0  -0.0715
  C  C319  1  0.585190  0.486570  0.131480  1.0  0.366
  C  C320  1  0.133090  0.907020  0.573950  1.0  -0.0709
  C  C321  1  0.705010  0.112930  0.400380  1.0  -0.3162
  C  C322  1  0.262340  0.367160  0.039740  1.0  -0.0574
  C  C323  1  0.599620  0.387070  0.294990  1.0  -0.3181
  C  C324  1  0.513430  0.368520  0.914810  1.0  0.3655
  C  C325  1  0.094410  0.935670  0.135300  1.0  -0.0599
  C  C326  1  0.635300  0.540890  0.699630  1.0  -0.0633
  C  C327  1  0.273930  0.366910  0.440860  1.0  -0.0712
  C  C328  1  0.737660  0.104820  0.277400  1.0  -0.0553
  C  C329  1  0.513430  0.144910  0.098620  1.0  0.3648
  C  C330  1  0.131480  0.144910  0.046290  1.0  0.3653
  C  C331  1  0.118050  0.916660  0.340390  1.0  -0.055
  C  C332  1  0.262340  0.895180  0.722600  1.0  -0.056
  C  C333  1  0.867160  0.104820  0.827420  1.0  -0.0572
  C  C334  1  0.092980  0.166930  0.226070  1.0  -0.0749
  C  C335  1  0.416660  0.798610  0.076270  1.0  -0.0555
  C  C336  1  0.172580  0.777400  0.539740  1.0  -0.058
  C  C337  1  0.416660  0.618050  0.840390  1.0  -0.0577
  C  C338  1  0.876080  0.787970  0.514150  1.0  -0.0847
  C  C339  1  0.138070  0.726180  0.514150  1.0  -0.0868
  C  C340  1  0.411890  0.623920  0.638070  1.0  -0.0838
  C  C341  1  0.159610  0.881950  0.583340  1.0  -0.0501
  C  C342  1  0.277660  0.576270  0.659610  1.0  -0.0565
  C  C343  1  0.327420  0.867160  0.604820  1.0  -0.052
  C  C344  1  0.460260  0.722600  0.827420  1.0  -0.0533
  C  C345  1  0.158740  0.199630  0.064330  1.0  -0.0604
  C  C346  1  0.222600  0.960260  0.327420  1.0  -0.0594
  C  C347  1  0.573950  0.407020  0.133090  1.0  -0.0734
  C  C348  1  0.298610  0.916660  0.576270  1.0  -0.0552
  C  C349  1  0.014150  0.876080  0.287970  1.0  -0.0839
  C  C350  1  0.546290  0.414810  0.401380  1.0  0.3662
  C  C351  1  0.633090  0.573950  0.907020  1.0  -0.0719
  C  C352  1  0.407920  0.712550  0.112930  1.0  -0.3201
  C  C353  1  0.773820  0.411890  0.287970  1.0  -0.0855
  C  C354  1  0.426050  0.592980  0.866910  1.0  -0.0757
  C  C355  1  0.798610  0.576270  0.916660  1.0  -0.0547
  C  C356  1  0.341260  0.405590  0.040890  1.0  -0.0601
  C  C357  1  0.435670  0.594410  0.635300  1.0  -0.0603
  C  C358  1  0.773930  0.333070  0.907020  1.0  -0.0754
  C  C359  1  0.588110  0.212030  0.726180  1.0  -0.0847
  C  C360  1  0.631480  0.585190  0.986570  1.0  0.366
  C  C361  1  0.222340  0.340390  0.423730  1.0  -0.0567
  C  C362  1  0.076270  0.777660  0.159610  1.0  -0.0571
  C  C363  1  0.985850  0.861930  0.773820  1.0  -0.0861
  C  C364  1  0.638070  0.514150  0.726180  1.0  -0.0856
  C  C365  1  0.118050  0.201390  0.277660  1.0  -0.0559
  C  C366  1  0.287450  0.387070  0.092080  1.0  -0.3209
  C  C367  1  0.959110  0.094410  0.658740  1.0  -0.0625
  C  C368  1  0.762340  0.722600  0.895180  1.0  -0.0549
  C  C369  1  0.583340  0.381950  0.159610  1.0  -0.0577
  C  C370  1  0.573950  0.166930  0.940860  1.0  -0.0744
  C  C371  1  0.222340  0.881950  0.298610  1.0  -0.0506
  C  C372  1  0.592980  0.226070  0.166930  1.0  -0.0712
  C  C373  1  0.827420  0.604820  0.867160  1.0  -0.0556
  C  C374  1  0.855090  0.401380  0.986570  1.0  0.365
  C  C375  1  0.940860  0.273930  0.866910  1.0  -0.074
  C  C376  1  0.881950  0.798610  0.722340  1.0  -0.0556
  C  C377  1  0.787970  0.014150  0.376080  1.0  -0.0866
  C  C378  1  0.435670  0.841260  0.300370  1.0  -0.0604
  C  C379  1  0.014150  0.138070  0.226180  1.0  -0.0863
  C  C380  1  0.632840  0.460260  0.237660  1.0  -0.0586
  C  C381  1  0.381950  0.659610  0.083340  1.0  -0.0536
  C  C382  1  0.659610  0.076270  0.277660  1.0  -0.0477
  C  C383  1  0.935670  0.300370  0.841260  1.0  -0.0598
  C  C384  1  0.172580  0.395180  0.132840  1.0  -0.0561
  C  C385  1  0.132840  0.895180  0.172580  1.0  -0.0558
  C  C386  1  0.453710  0.868520  0.355090  1.0  0.3662
  C  C387  1  0.273820  0.985850  0.361930  1.0  -0.0851
  C  C388  1  0.798610  0.222340  0.381950  1.0  -0.0581
  C  C389  1  0.407020  0.773930  0.833070  1.0  -0.0718
  C  C390  1  0.876080  0.088110  0.861930  1.0  -0.085
  C  C391  1  0.901380  0.546290  0.914810  1.0  0.365
  C  C392  1  0.712030  0.088110  0.226180  1.0  -0.0849
  C  C393  1  0.300370  0.959110  0.364700  1.0  -0.0614
  C  C394  1  0.585190  0.098620  0.953710  1.0  0.3659
  C  C395  1  0.777400  0.039740  0.672580  1.0  -0.0553
  C  C396  1  0.199630  0.635300  0.040890  1.0  -0.0618
  C  C397  1  0.287970  0.911890  0.773820  1.0  -0.0848
  C  C398  1  0.514150  0.287970  0.876080  1.0  -0.0839
  C  C399  1  0.414810  0.513430  0.868520  1.0  0.366
  C  C400  1  0.659610  0.583340  0.881950  1.0  -0.0487
  C  C401  1  0.953710  0.598620  0.585190  1.0  0.365
  C  C402  1  0.800370  0.364700  0.959110  1.0  -0.0611
  C  C403  1  0.039740  0.172580  0.277400  1.0  -0.0558
  C  C404  1  0.940860  0.666930  0.573950  1.0  -0.0773
  C  C405  1  0.083340  0.159610  0.381950  1.0  -0.052
  C  C406  1  0.132840  0.237660  0.460260  1.0  -0.0569
  C  C407  1  0.195370  0.907920  0.294990  1.0  -0.3204
  C  C408  1  0.840390  0.722340  0.923730  1.0  -0.0523
  C  C409  1  0.916660  0.840390  0.618050  1.0  -0.0543
  C  C410  1  0.539740  0.262340  0.867160  1.0  -0.0502
  C  C411  1  0.212030  0.985850  0.623920  1.0  -0.0848
  C  C412  1  0.201390  0.777660  0.618050  1.0  -0.0569
  C  C413  1  0.722600  0.327420  0.960260  1.0  -0.0593
  C  C414  1  0.787450  0.092080  0.387070  1.0  -0.32
  C  C415  1  0.405590  0.540890  0.841260  1.0  -0.0625
  C  C416  1  0.099620  0.294990  0.387070  1.0  -0.3144
  C  C417  1  0.604820  0.367160  0.327420  1.0  -0.0569
  C  C418  1  0.364700  0.905590  0.564330  1.0  -0.0623
  C  C419  1  0.381950  0.722340  0.798610  1.0  -0.054
  C  C420  1  0.905590  0.064330  0.864700  1.0  -0.061
  C  C421  1  0.212030  0.226180  0.088110  1.0  -0.0856
  C  C422  1  0.777400  0.737660  0.604820  1.0  -0.0505
  C  C423  1  0.623920  0.138070  0.911890  1.0  -0.0868
  C  C424  1  0.486570  0.631480  0.085190  1.0  0.3649
  C  C425  1  0.576270  0.159610  0.777660  1.0  -0.0506
  C  C426  1  0.341260  0.935670  0.800370  1.0  -0.0603
  C  C427  1  0.411890  0.787970  0.273820  1.0  -0.0856
  C  C428  1  0.618050  0.277660  0.201390  1.0  -0.0524
  C  C429  1  0.460260  0.737660  0.132840  1.0  -0.0519
  C  C430  1  0.367160  0.539740  0.762340  1.0  -0.0564
  C  C431  1  0.564330  0.158740  0.699630  1.0  -0.0616
  C  C432  1  0.855090  0.453710  0.368520  1.0  0.3651
  C  C433  1  0.064330  0.364700  0.405590  1.0  -0.0611
  C  C434  1  0.914810  0.046290  0.901380  1.0  0.3659
  C  C435  1  0.123920  0.212030  0.485850  1.0  -0.0866
  C  C436  1  0.777660  0.118050  0.701390  1.0  -0.0518
  C  C437  1  0.773820  0.361930  0.985850  1.0  -0.086
  C  C438  1  0.926050  0.866910  0.592980  1.0  -0.071
  C  C439  1  0.986570  0.901380  0.855090  1.0  0.3658
  C  C440  1  0.762340  0.039740  0.367160  1.0  -0.055
  C  C441  1  0.405590  0.864700  0.064330  1.0  -0.0627
  C  C442  1  0.094410  0.158740  0.459110  1.0  -0.061
  C  C443  1  0.073950  0.940860  0.166930  1.0  -0.0728
  C  C444  1  0.368520  0.414810  0.013430  1.0  0.367
  C  C445  1  0.298610  0.381950  0.222340  1.0  -0.0555
  C  C446  1  0.364700  0.459110  0.300370  1.0  -0.0619
  C  C447  1  0.726180  0.712030  0.588110  1.0  -0.0845
  C  C448  1  0.287970  0.376080  0.014150  1.0  -0.0842
  C  C449  1  0.804630  0.092080  0.705010  1.0  -0.3212
  C  C450  1  0.841260  0.800370  0.935670  1.0  -0.0599
  C  C451  1  0.953710  0.355090  0.868520  1.0  0.364
  C  C452  1  0.226070  0.559140  0.633090  1.0  -0.0738
  C  C453  1  0.712030  0.623920  0.985850  1.0  -0.086
  C  C454  1  0.387070  0.794990  0.099620  1.0  -0.3161
  C  C455  1  0.827420  0.222600  0.460260  1.0  -0.0578
  C  C456  1  0.199630  0.564330  0.658740  1.0  -0.0616
  C  C457  1  0.794990  0.599620  0.887070  1.0  -0.3148
  C  C458  1  0.935670  0.635300  0.594410  1.0  -0.0614
  C  C459  1  0.366910  0.426050  0.092980  1.0  -0.0697
  C  C460  1  0.638070  0.123920  0.411890  1.0  -0.0856
  C  C461  1  0.916660  0.076270  0.798610  1.0  -0.0483
  C  C462  1  0.092080  0.205010  0.304630  1.0  -0.3191
  C  C463  1  0.559140  0.426050  0.333070  1.0  -0.0722
  C  C464  1  0.485850  0.712030  0.123920  1.0  -0.0856
  C  C465  1  0.559140  0.133090  0.726070  1.0  -0.0708
  C  C466  1  0.576270  0.416660  0.298610  1.0  -0.0483
  C  C467  1  0.546290  0.131480  0.644910  1.0  0.3664
  C  C468  1  0.804630  0.712550  0.599620  1.0  -0.3168
  C  C469  1  0.104820  0.777400  0.237660  1.0  -0.0582
  C  C470  1  0.592980  0.366910  0.926050  1.0  -0.0713
  C  C471  1  0.294990  0.407920  0.195370  1.0  -0.3201
  C  C472  1  0.911890  0.273820  0.787970  1.0  -0.0856
  C  C473  1  0.868520  0.855090  0.953710  1.0  0.3639
  C  C474  1  0.340390  0.923730  0.722340  1.0  -0.0474
  C  C475  1  0.861930  0.588110  0.876080  1.0  -0.0857
  C  C476  1  0.923730  0.222340  0.840390  1.0  -0.0571
  C  C477  1  0.864700  0.300370  0.459110  1.0  -0.0598
  C  C478  1  0.833070  0.559140  0.926050  1.0  -0.0743
  C  C479  1  0.695370  0.400380  0.287450  1.0  -0.3144
  C  C480  1  0.867160  0.762340  0.539740  1.0  -0.0567
  C  C481  1  0.632840  0.172580  0.895180  1.0  -0.0555
  C  C482  1  0.423730  0.583340  0.701390  1.0  -0.0481
  C  C483  1  0.699630  0.040890  0.635300  1.0  -0.0616
  C  C484  1  0.594410  0.135300  0.935670  1.0  -0.0622
  C  C485  1  0.304630  0.705010  0.092080  1.0  -0.3176
  C  C486  1  0.368520  0.953710  0.855090  1.0  0.366
  C  C487  1  0.064330  0.699630  0.158740  1.0  -0.06
  C  C488  1  0.861930  0.273820  0.485850  1.0  -0.0877
  C  C489  1  0.881950  0.083340  0.659610  1.0  -0.0546
  C  C490  1  0.099620  0.804630  0.212550  1.0  -0.3135
  C  C491  1  0.666930  0.073950  0.440860  1.0  -0.0743
  C  C492  1  0.887070  0.099620  0.794990  1.0  -0.317
  C  C493  1  0.361930  0.876080  0.588110  1.0  -0.0853
  C  C494  1  0.588110  0.376080  0.361930  1.0  -0.0849
  C  C495  1  0.407920  0.695370  0.794990  1.0  -0.3171
  C  C496  1  0.226180  0.638070  0.014150  1.0  -0.0858
  C  C497  1  0.604820  0.237660  0.777400  1.0  -0.0561
  C  C498  1  0.787450  0.695370  0.900380  1.0  -0.314
  C  C499  1  0.960260  0.132840  0.737660  1.0  -0.0535
  C  C500  1  0.059140  0.726070  0.133090  1.0  -0.0738
  C  C501  1  0.868520  0.013430  0.414810  1.0  0.3657
  C  C502  1  0.237660  0.277400  0.104820  1.0  -0.0531
  C  C503  1  0.076270  0.298610  0.416660  1.0  -0.055
  C  C504  1  0.212550  0.304630  0.099620  1.0  -0.3124
  C  C505  1  0.205010  0.400380  0.112930  1.0  -0.314
  C  C506  1  0.599620  0.212550  0.804630  1.0  -0.3154
  C  C507  1  0.866910  0.773930  0.940860  1.0  -0.0704
  C  C508  1  0.453710  0.585190  0.598620  1.0  0.3667
  C  C509  1  0.304630  0.599620  0.712550  1.0  -0.3139
  C  C510  1  0.907020  0.073950  0.633090  1.0  -0.0734
  C  C511  1  0.907920  0.112930  0.712550  1.0  -0.3228
  C  C512  1  0.414810  0.901380  0.046290  1.0  0.3657
  C  C513  1  0.986570  0.085190  0.631480  1.0  0.3656
  C  C514  1  0.840390  0.118050  0.416660  1.0  -0.052
  C  C515  1  0.098620  0.453710  0.085190  1.0  0.3655
  C  C516  1  0.959110  0.864700  0.800370  1.0  -0.0618
  C  C517  1  0.598620  0.513430  0.644910  1.0  0.3662
  C  C518  1  0.794990  0.195370  0.407920  1.0  -0.3176
  C  C519  1  0.705010  0.592080  0.804630  1.0  -0.3177
  C  C520  1  0.376080  0.514150  0.787970  1.0  -0.0854
  C  C521  1  0.138070  0.411890  0.123920  1.0  -0.086
  C  C522  1  0.287450  0.900380  0.695370  1.0  -0.3171
  C  C523  1  0.701390  0.618050  0.777660  1.0  -0.0591
  C  C524  1  0.440860  0.866910  0.273930  1.0  -0.0718
  C  C525  1  0.895180  0.222600  0.762340  1.0  -0.057
  C  C526  1  0.540890  0.199630  0.135300  1.0  -0.0601
  C  C527  1  0.960260  0.827420  0.722600  1.0  -0.0549
  C  C528  1  0.222600  0.262340  0.395180  1.0  -0.0511
  C  C529  1  0.644910  0.631480  0.546290  1.0  0.3654
  C  C530  1  0.737660  0.632840  0.960260  1.0  -0.058
  C  C531  1  0.395180  0.632840  0.672580  1.0  -0.0581
  C  C532  1  0.104820  0.327420  0.367160  1.0  -0.0576
  C  C533  1  0.046290  0.644910  0.131480  1.0  0.3649
  C  C534  1  0.722340  0.298610  0.881950  1.0  -0.0561
  C  C535  1  0.333070  0.407020  0.273930  1.0  -0.0741
  C  C536  1  0.237660  0.960260  0.632840  1.0  -0.0575
  C  C537  1  0.833070  0.273930  0.407020  1.0  -0.0748
  C  C538  1  0.459110  0.800370  0.864700  1.0  -0.0598
  C  C539  1  0.901380  0.355090  0.486570  1.0  0.364
  C  C540  1  0.900380  0.195370  0.787450  1.0  -0.3143
  C  C541  1  0.658740  0.594410  0.959110  1.0  -0.0607
  C  C542  1  0.040890  0.135300  0.199630  1.0  -0.0633
  C  C543  1  0.699630  0.658740  0.564330  1.0  -0.0623
  C  C544  1  0.712550  0.099620  0.304630  1.0  -0.315
  C  C545  1  0.340390  0.416660  0.118050  1.0  -0.0482
  C  C546  1  0.540890  0.341260  0.905590  1.0  -0.0612
  C  C547  1  0.212550  0.907920  0.612930  1.0  -0.3216
  C  C548  1  0.426050  0.833070  0.059140  1.0  -0.0738
  C  C549  1  0.401380  0.486570  0.355090  1.0  0.3658
  C  C550  1  0.486570  0.855090  0.901380  1.0  0.3646
  C  C551  1  0.618050  0.340390  0.916660  1.0  -0.0538
  C  C552  1  0.612930  0.407920  0.212550  1.0  -0.3187
  C  C553  1  0.361930  0.485850  0.273820  1.0  -0.0844
  C  C554  1  0.195370  0.287450  0.400380  1.0  -0.3165
  C  C555  1  0.539740  0.277400  0.172580  1.0  -0.0554
  C  C556  1  0.112930  0.212550  0.407920  1.0  -0.3203
  C  C557  1  0.787970  0.773820  0.911890  1.0  -0.0862
  C  C558  1  0.366910  0.940860  0.773930  1.0  -0.0696
  C  C559  1  0.201390  0.423730  0.083340  1.0  -0.0572
  C  C560  1  0.722600  0.395180  0.262340  1.0  -0.0544
  C  C561  1  0.926050  0.059140  0.833070  1.0  -0.0694
  C  C562  1  0.144910  0.598620  0.013430  1.0  0.3653
  C  C563  1  0.905590  0.841260  0.540890  1.0  -0.0605
  C  C564  1  0.092080  0.887070  0.287450  1.0  -0.3201
  N  N565  1  0.035230  0.082450  0.118400  1.0  -0.3023
  N  N566  1  0.074630  0.003860  0.553910  1.0  0.0198
  N  N567  1  0.077620  0.615550  0.463030  1.0  -0.3486
  N  N568  1  0.521760  0.406030  0.452730  1.0  -0.0935
  N  N569  1  0.479280  0.925370  0.429230  1.0  0.0199
  N  N570  1  0.881600  0.417550  0.964770  1.0  -0.3022
  N  N571  1  0.569030  0.953300  0.547270  1.0  -0.0874
  N  N572  1  0.583170  0.035950  0.118400  1.0  -0.3032
  N  N573  1  0.422380  0.885410  0.537930  1.0  -0.3527
  N  N574  1  0.615730  0.021760  0.069030  1.0  -0.1056
  N  N575  1  0.547220  0.082450  0.964050  1.0  -0.3039
  N  N576  1  0.115550  0.577620  0.963030  1.0  -0.3493
  N  N577  1  0.446090  0.949950  0.020720  1.0  0.0198
  N  N578  1  0.416830  0.452780  0.035230  1.0  -0.3022
  N  N579  1  0.537930  0.385410  0.422380  1.0  -0.3491
  N  N580  1  0.118400  0.582450  0.035230  1.0  -0.3023
  N  N581  1  0.930970  0.478240  0.384270  1.0  -0.0994
  N  N582  1  0.952780  0.916830  0.535230  1.0  -0.3025
  N  N583  1  0.047220  0.083170  0.464770  1.0  -0.3039
  N  N584  1  0.884270  0.953300  0.406030  1.0  -0.0998
  N  N585  1  0.496140  0.070770  0.050050  1.0  0.0179
  N  N586  1  0.152520  0.115550  0.037930  1.0  -0.3463
  N  N587  1  0.115550  0.537930  0.652520  1.0  -0.3498
  N  N588  1  0.449950  0.946090  0.520720  1.0  0.0194
  N  N589  1  0.906030  0.021760  0.952730  1.0  -0.092
  N  N590  1  0.093970  0.115730  0.546700  1.0  -0.1027
  N  N591  1  0.884450  0.422380  0.036970  1.0  -0.3492
  N  N592  1  0.614590  0.077620  0.962070  1.0  -0.3479
  N  N593  1  0.037930  0.422380  0.385410  1.0  -0.3498
  N  N594  1  0.083170  0.964770  0.547220  1.0  -0.3039
  N  N595  1  0.077620  0.462070  0.114590  1.0  -0.3499
  N  N596  1  0.550050  0.053910  0.479280  1.0  0.0178
  N  N597  1  0.449950  0.503860  0.429230  1.0  0.0177
  N  N598  1  0.553910  0.503860  0.074630  1.0  0.0198
  N  N599  1  0.884270  0.930970  0.978240  1.0  -0.1016
  N  N600  1  0.537930  0.152520  0.615550  1.0  -0.3518
  N  N601  1  0.535950  0.452780  0.417550  1.0  -0.3029
  N  N602  1  0.520720  0.446090  0.449950  1.0  0.0202
  N  N603  1  0.021760  0.569030  0.115730  1.0  -0.0971
  N  N604  1  0.083170  0.118400  0.035950  1.0  -0.3041
  N  N605  1  0.385410  0.463030  0.847480  1.0  -0.351
  N  N606  1  0.978240  0.430970  0.884270  1.0  -0.0994
  N  N607  1  0.964050  0.582450  0.547220  1.0  -0.3021
  N  N608  1  0.582450  0.535230  0.618400  1.0  -0.3022
  N  N609  1  0.520720  0.074630  0.570770  1.0  0.0214
  N  N610  1  0.535230  0.118400  0.082450  1.0  -0.3039
  N  N611  1  0.885410  0.037930  0.922380  1.0  -0.3463
  N  N612  1  0.925370  0.996140  0.446090  1.0  0.0205
  N  N613  1  0.446090  0.496140  0.925370  1.0  0.0203
  N  N614  1  0.021760  0.452730  0.406030  1.0  -0.0859
  N  N615  1  0.881600  0.464050  0.416830  1.0  -0.3022
  N  N616  1  0.452780  0.535230  0.916830  1.0  -0.302
  N  N617  1  0.535950  0.083170  0.618400  1.0  -0.3027
  N  N618  1  0.952780  0.035950  0.917550  1.0  -0.303
  N  N619  1  0.847480  0.884450  0.962070  1.0  -0.3463
  N  N620  1  0.963030  0.077620  0.115550  1.0  -0.3491
  N  N621  1  0.503860  0.574630  0.053910  1.0  0.0211
  N  N622  1  0.953300  0.047270  0.069030  1.0  -0.0868
  N  N623  1  0.929230  0.479280  0.425370  1.0  0.0234
  N  N624  1  0.593970  0.047270  0.978240  1.0  -0.0909
  N  N625  1  0.082450  0.618400  0.535230  1.0  -0.3019
  N  N626  1  0.536970  0.884450  0.922380  1.0  -0.3467
  N  N627  1  0.953300  0.906030  0.384270  1.0  -0.1014
  N  N628  1  0.046700  0.093970  0.615730  1.0  -0.1003
  N  N629  1  0.429230  0.425370  0.479280  1.0  0.0219
  N  N630  1  0.384270  0.406030  0.953300  1.0  -0.104
  N  N631  1  0.115730  0.046700  0.593970  1.0  -0.098
  N  N632  1  0.452730  0.546700  0.430970  1.0  -0.0884
  N  N633  1  0.952730  0.430970  0.546700  1.0  -0.083
  N  N634  1  0.053910  0.074630  0.503860  1.0  0.0191
  N  N635  1  0.003860  0.053910  0.574630  1.0  0.0192
  N  N636  1  0.381600  0.964770  0.417550  1.0  -0.3018
  N  N637  1  0.615730  0.593970  0.046700  1.0  -0.1032
  N  N638  1  0.036970  0.922380  0.884450  1.0  -0.3474
  N  N639  1  0.115730  0.069030  0.021760  1.0  -0.1028
  N  N640  1  0.925370  0.929230  0.979280  1.0  0.0217
  N  N641  1  0.570770  0.574630  0.520720  1.0  0.0219
  N  N642  1  0.916830  0.035230  0.452780  1.0  -0.3026
  N  N643  1  0.569030  0.615730  0.521760  1.0  -0.1013
  N  N644  1  0.152520  0.036970  0.614590  1.0  -0.3487
  N  N645  1  0.546700  0.930970  0.952730  1.0  -0.0884
  N  N646  1  0.652520  0.037930  0.115550  1.0  -0.3462
  N  N647  1  0.930970  0.452730  0.046700  1.0  -0.0829
  N  N648  1  0.917550  0.381600  0.464770  1.0  -0.3017
  N  N649  1  0.917550  0.535950  0.952780  1.0  -0.3015
  N  N650  1  0.979280  0.429230  0.925370  1.0  0.0207
  N  N651  1  0.453300  0.069030  0.047270  1.0  -0.0865
  N  N652  1  0.464770  0.881600  0.917550  1.0  -0.3043
  N  N653  1  0.922380  0.537930  0.885410  1.0  -0.3486
  N  N654  1  0.536970  0.652520  0.114590  1.0  -0.3511
  N  N655  1  0.996140  0.050050  0.070770  1.0  0.0171
  N  N656  1  0.422380  0.536970  0.384450  1.0  -0.3522
  N  N657  1  0.406030  0.952730  0.021760  1.0  -0.0878
  N  N658  1  0.053910  0.979280  0.050050  1.0  0.0222
  N  N659  1  0.996140  0.946090  0.425370  1.0  0.0182
  N  N660  1  0.462070  0.614590  0.577620  1.0  -0.3522
  N  N661  1  0.047270  0.569030  0.453300  1.0  -0.0854
  N  N662  1  0.429230  0.003860  0.449950  1.0  0.017
  N  N663  1  0.047270  0.478240  0.093970  1.0  -0.0838
  N  N664  1  0.535230  0.416830  0.952780  1.0  -0.304
  N  N665  1  0.577620  0.463030  0.615550  1.0  -0.3522
  N  N666  1  0.906030  0.884270  0.453300  1.0  -0.1028
  N  N667  1  0.922380  0.384450  0.536970  1.0  -0.3497
  N  N668  1  0.521760  0.115730  0.569030  1.0  -0.1035
  N  N669  1  0.546700  0.615730  0.093970  1.0  -0.1005
  N  N670  1  0.050050  0.479280  0.053910  1.0  0.0207
  N  N671  1  0.037930  0.615550  0.152520  1.0  -0.3497
  N  N672  1  0.615550  0.652520  0.537930  1.0  -0.3517
  N  N673  1  0.978240  0.547270  0.593970  1.0  -0.0845
  N  N674  1  0.082450  0.464050  0.047220  1.0  -0.3025
  N  N675  1  0.496140  0.425370  0.946090  1.0  0.0196
  N  N676  1  0.430970  0.384270  0.478240  1.0  -0.1034
  N  N677  1  0.118400  0.535950  0.583170  1.0  -0.3018
  N  N678  1  0.574630  0.553910  0.003860  1.0  0.0194
  N  N679  1  0.963030  0.885410  0.347480  1.0  -0.3511
  N  N680  1  0.884450  0.462070  0.347480  1.0  -0.3491
  N  N681  1  0.952730  0.521760  0.906030  1.0  -0.0879
  N  N682  1  0.962070  0.384450  0.847480  1.0  -0.35
  N  N683  1  0.964050  0.381600  0.916830  1.0  -0.3013
  N  N684  1  0.003860  0.949950  0.929230  1.0  0.0155
  N  N685  1  0.347480  0.962070  0.884450  1.0  -0.3486
  N  N686  1  0.547220  0.464770  0.083170  1.0  -0.304
  N  N687  1  0.478240  0.884270  0.430970  1.0  -0.1055
  N  N688  1  0.847480  0.963030  0.385410  1.0  -0.3532
  N  N689  1  0.381600  0.416830  0.464050  1.0  -0.3049
  N  N690  1  0.114590  0.152520  0.536970  1.0  -0.3506
  N  N691  1  0.479280  0.553910  0.550050  1.0  0.0202
  N  N692  1  0.962070  0.577620  0.614590  1.0  -0.3495
  N  N693  1  0.946090  0.925370  0.496140  1.0  0.0185
  N  N694  1  0.035950  0.417550  0.452780  1.0  -0.3019
  N  N695  1  0.618400  0.035230  0.582450  1.0  -0.3027
  N  N696  1  0.885410  0.847480  0.463030  1.0  -0.3502
  N  N697  1  0.929230  0.449950  0.003860  1.0  0.0172
  N  N698  1  0.916830  0.881600  0.964050  1.0  -0.304
  N  N699  1  0.582450  0.047220  0.464050  1.0  -0.3028
  N  N700  1  0.946090  0.020720  0.949950  1.0  0.0211
  N  N701  1  0.964770  0.047220  0.583170  1.0  -0.305
  N  N702  1  0.035950  0.618400  0.083170  1.0  -0.3017
  N  N703  1  0.464770  0.583170  0.047220  1.0  -0.3052
  N  N704  1  0.074630  0.070770  0.020720  1.0  0.0218
  N  N705  1  0.453300  0.384270  0.906030  1.0  -0.1001
  N  N706  1  0.347480  0.385410  0.963030  1.0  -0.3501
  N  N707  1  0.114590  0.962070  0.077620  1.0  -0.3462
  N  N708  1  0.417550  0.464770  0.381600  1.0  -0.3036
  N  N709  1  0.574630  0.020720  0.070770  1.0  0.0237
  N  N710  1  0.979280  0.550050  0.553910  1.0  0.0194
  N  N711  1  0.462070  0.847480  0.384450  1.0  -0.3513
  N  N712  1  0.547270  0.453300  0.569030  1.0  -0.088
  N  N713  1  0.430970  0.046700  0.452730  1.0  -0.0875
  N  N714  1  0.384450  0.347480  0.462070  1.0  -0.3519
  N  N715  1  0.464050  0.916830  0.381600  1.0  -0.3051
  N  N716  1  0.047220  0.964050  0.082450  1.0  -0.3031
  N  N717  1  0.069030  0.547270  0.953300  1.0  -0.0851
  N  N718  1  0.583170  0.547220  0.964770  1.0  -0.3026
  N  N719  1  0.615550  0.963030  0.577620  1.0  -0.3496
  N  N720  1  0.036970  0.114590  0.652520  1.0  -0.3542
  N  N721  1  0.503860  0.929230  0.949950  1.0  0.0175
  N  N722  1  0.384270  0.978240  0.930970  1.0  -0.1049
  N  N723  1  0.577620  0.114590  0.462070  1.0  -0.3526
  N  N724  1  0.050050  0.570770  0.496140  1.0  0.0161
  N  N725  1  0.425370  0.446090  0.996140  1.0  0.0206
  N  N726  1  0.417550  0.952780  0.535950  1.0  -0.3041
  N  N727  1  0.046700  0.952730  0.930970  1.0  -0.0886
  N  N728  1  0.618400  0.583170  0.535950  1.0  -0.3037
  N  N729  1  0.949950  0.520720  0.946090  1.0  0.0209
  N  N730  1  0.553910  0.050050  0.979280  1.0  0.0175
  N  N731  1  0.593970  0.546700  0.115730  1.0  -0.0989
  N  N732  1  0.547270  0.093970  0.478240  1.0  -0.0899
  N  N733  1  0.452730  0.906030  0.521760  1.0  -0.0904
  N  N734  1  0.463030  0.115550  0.077620  1.0  -0.3478
  N  N735  1  0.463030  0.347480  0.885410  1.0  -0.3507
  N  N736  1  0.570770  0.996140  0.550050  1.0  0.0177
  N  N737  1  0.069030  0.521760  0.615730  1.0  -0.0964
  N  N738  1  0.070770  0.550050  0.996140  1.0  0.0161
  N  N739  1  0.478240  0.593970  0.547270  1.0  -0.0921
  N  N740  1  0.464050  0.547220  0.582450  1.0  -0.3025
  N  N741  1  0.452780  0.917550  0.035950  1.0  -0.3034
  N  N742  1  0.020720  0.570770  0.074630  1.0  0.0205
  N  N743  1  0.070770  0.520720  0.574630  1.0  0.0224
  N  N744  1  0.385410  0.922380  0.037930  1.0  -0.3475
  N  N745  1  0.406030  0.453300  0.884270  1.0  -0.1006
  N  N746  1  0.020720  0.449950  0.446090  1.0  0.0199
  N  N747  1  0.652520  0.614590  0.036970  1.0  -0.3496
  N  N748  1  0.384450  0.036970  0.422380  1.0  -0.3511
  N  N749  1  0.949950  0.429230  0.503860  1.0  0.0162
  N  N750  1  0.964770  0.917550  0.881600  1.0  -0.3044
  N  N751  1  0.614590  0.536970  0.152520  1.0  -0.3508
  N  N752  1  0.035230  0.952780  0.416830  1.0  -0.3034
  N  N753  1  0.425370  0.979280  0.929230  1.0  0.0235
  N  N754  1  0.416830  0.964050  0.881600  1.0  -0.3031
  N  N755  1  0.093970  0.978240  0.047270  1.0  -0.0916
  N  N756  1  0.550050  0.496140  0.570770  1.0  0.0177
