# generated using pymatgen
data_Cu2SiH16(C7N4)4
_symmetry_space_group_name_H-M   'P 1'
_cell_length_a   36.19060000
_cell_length_b   36.19060000
_cell_length_c   36.19060000
_cell_angle_alpha   90.00000000
_cell_angle_beta   90.00000000
_cell_angle_gamma   90.00000000
_symmetry_Int_Tables_number   1
_chemical_formula_structural   Cu2SiH16(C7N4)4
_chemical_formula_sum   'Cu48 Si24 H384 C672 N384'
_cell_volume   47400.98318707
_cell_formula_units_Z   24
loop_
 _symmetry_equiv_pos_site_id
 _symmetry_equiv_pos_as_xyz
  1  'x, y, z'
loop_
 _atom_site_type_symbol
 _atom_site_label
 _atom_site_symmetry_multiplicity
 _atom_site_fract_x
 _atom_site_fract_y
 _atom_site_fract_z
 _atom_site_occupancy
 _atom_site_charge
  Cu  Cu1  1  0.940430  0.440430  0.059570  1.0  0.4527
  Cu  Cu2  1  0.440430  0.940430  0.559570  1.0  0.4527
  Cu  Cu3  1  0.559570  0.559570  0.559570  1.0  0.4587
  Cu  Cu4  1  0.059570  0.059570  0.059570  1.0  0.4587
  Cu  Cu5  1  0.059570  0.940430  0.440430  1.0  0.4536
  Cu  Cu6  1  0.559570  0.440430  0.940430  1.0  0.4536
  Cu  Cu7  1  0.440430  0.059570  0.940430  1.0  0.4537
  Cu  Cu8  1  0.940430  0.559570  0.440430  1.0  0.4537
  Cu  Cu9  1  0.190430  0.190430  0.190430  1.0  0.4537
  Cu  Cu10  1  0.690430  0.690430  0.690430  1.0  0.4537
  Cu  Cu11  1  0.309570  0.809570  0.690430  1.0  0.4549
  Cu  Cu12  1  0.809570  0.309570  0.190430  1.0  0.4549
  Cu  Cu13  1  0.690430  0.309570  0.809570  1.0  0.4554
  Cu  Cu14  1  0.190430  0.809570  0.309570  1.0  0.4554
  Cu  Cu15  1  0.809570  0.690430  0.309570  1.0  0.4545
  Cu  Cu16  1  0.309570  0.190430  0.809570  1.0  0.4545
  Cu  Cu17  1  0.059570  0.559570  0.940430  1.0  0.4549
  Cu  Cu18  1  0.559570  0.059570  0.440430  1.0  0.4549
  Cu  Cu19  1  0.440430  0.440430  0.440430  1.0  0.4537
  Cu  Cu20  1  0.940430  0.940430  0.940430  1.0  0.4537
  Cu  Cu21  1  0.940430  0.059570  0.559570  1.0  0.4554
  Cu  Cu22  1  0.440430  0.559570  0.059570  1.0  0.4554
  Cu  Cu23  1  0.559570  0.940430  0.059570  1.0  0.4545
  Cu  Cu24  1  0.059570  0.440430  0.559570  1.0  0.4545
  Cu  Cu25  1  0.809570  0.809570  0.809570  1.0  0.4587
  Cu  Cu26  1  0.309570  0.309570  0.309570  1.0  0.4587
  Cu  Cu27  1  0.690430  0.190430  0.309570  1.0  0.4527
  Cu  Cu28  1  0.190430  0.690430  0.809570  1.0  0.4527
  Cu  Cu29  1  0.309570  0.690430  0.190430  1.0  0.4536
  Cu  Cu30  1  0.809570  0.190430  0.690430  1.0  0.4536
  Cu  Cu31  1  0.190430  0.309570  0.690430  1.0  0.4537
  Cu  Cu32  1  0.690430  0.809570  0.190430  1.0  0.4537
  Cu  Cu33  1  0.000000  0.500000  0.000000  1.0  0.2696
  Cu  Cu34  1  0.500000  0.000000  0.500000  1.0  0.2696
  Cu  Cu35  1  0.500000  0.500000  0.500000  1.0  0.2696
  Cu  Cu36  1  0.000000  0.000000  0.000000  1.0  0.2696
  Cu  Cu37  1  0.000000  0.000000  0.500000  1.0  0.2696
  Cu  Cu38  1  0.500000  0.500000  0.000000  1.0  0.2696
  Cu  Cu39  1  0.500000  0.000000  0.000000  1.0  0.2696
  Cu  Cu40  1  0.000000  0.500000  0.500000  1.0  0.2696
  Cu  Cu41  1  0.250000  0.250000  0.250000  1.0  0.2696
  Cu  Cu42  1  0.250000  0.750000  0.750000  1.0  0.2696
  Cu  Cu43  1  0.750000  0.250000  0.750000  1.0  0.2696
  Cu  Cu44  1  0.750000  0.750000  0.250000  1.0  0.2696
  Cu  Cu45  1  0.750000  0.750000  0.750000  1.0  0.2696
  Cu  Cu46  1  0.750000  0.250000  0.250000  1.0  0.2696
  Cu  Cu47  1  0.250000  0.750000  0.250000  1.0  0.2696
  Cu  Cu48  1  0.250000  0.250000  0.750000  1.0  0.2696
  Si  Si49  1  0.125000  0.500000  0.250000  1.0  1.0376
  Si  Si50  1  0.375000  0.500000  0.750000  1.0  1.0376
  Si  Si51  1  0.875000  0.000000  0.250000  1.0  1.0376
  Si  Si52  1  0.625000  0.000000  0.750000  1.0  1.0376
  Si  Si53  1  0.250000  0.125000  0.500000  1.0  1.0376
  Si  Si54  1  0.750000  0.375000  0.500000  1.0  1.0376
  Si  Si55  1  0.250000  0.875000  0.000000  1.0  1.0376
  Si  Si56  1  0.750000  0.625000  0.000000  1.0  1.0376
  Si  Si57  1  0.500000  0.250000  0.125000  1.0  1.0376
  Si  Si58  1  0.500000  0.750000  0.375000  1.0  1.0376
  Si  Si59  1  0.000000  0.250000  0.875000  1.0  1.0376
  Si  Si60  1  0.000000  0.750000  0.625000  1.0  1.0376
  Si  Si61  1  0.250000  0.375000  0.000000  1.0  1.0376
  Si  Si62  1  0.250000  0.625000  0.500000  1.0  1.0376
  Si  Si63  1  0.750000  0.125000  0.000000  1.0  1.0376
  Si  Si64  1  0.750000  0.875000  0.500000  1.0  1.0376
  Si  Si65  1  0.875000  0.500000  0.750000  1.0  1.0376
  Si  Si66  1  0.125000  0.000000  0.750000  1.0  1.0376
  Si  Si67  1  0.625000  0.500000  0.250000  1.0  1.0376
  Si  Si68  1  0.375000  0.000000  0.250000  1.0  1.0376
  Si  Si69  1  0.000000  0.750000  0.125000  1.0  1.0376
  Si  Si70  1  0.500000  0.750000  0.875000  1.0  1.0376
  Si  Si71  1  0.000000  0.250000  0.375000  1.0  1.0376
  Si  Si72  1  0.500000  0.250000  0.625000  1.0  1.0376
  H  H73  1  0.023700  0.453000  0.177000  1.0  0.1183
  H  H74  1  0.060100  0.459200  0.230000  1.0  0.1195
  H  H75  1  0.124000  0.534500  0.177300  1.0  0.1087
  H  H76  1  0.087600  0.528300  0.124200  1.0  0.1212
  H  H77  1  0.523700  0.953000  0.677000  1.0  0.1181
  H  H78  1  0.560100  0.959200  0.730000  1.0  0.1195
  H  H79  1  0.624000  0.034500  0.677300  1.0  0.1087
  H  H80  1  0.587600  0.028300  0.624200  1.0  0.1212
  H  H81  1  0.476300  0.547000  0.677000  1.0  0.1183
  H  H82  1  0.439900  0.540800  0.730000  1.0  0.119
  H  H83  1  0.376000  0.465500  0.677300  1.0  0.1089
  H  H84  1  0.412400  0.471700  0.624200  1.0  0.1208
  H  H85  1  0.976300  0.047000  0.177000  1.0  0.1185
  H  H86  1  0.939900  0.040800  0.230000  1.0  0.119
  H  H87  1  0.876000  0.965500  0.177300  1.0  0.1089
  H  H88  1  0.912400  0.971700  0.124200  1.0  0.1208
  H  H89  1  0.976300  0.953000  0.323000  1.0  0.1185
  H  H90  1  0.939900  0.959200  0.270000  1.0  0.1191
  H  H91  1  0.876000  0.034500  0.322700  1.0  0.1088
  H  H92  1  0.912400  0.028300  0.375800  1.0  0.1209
  H  H93  1  0.476300  0.453000  0.823000  1.0  0.1184
  H  H94  1  0.439900  0.459200  0.770000  1.0  0.1191
  H  H95  1  0.376000  0.534500  0.822700  1.0  0.1088
  H  H96  1  0.412400  0.528300  0.875800  1.0  0.1209
  H  H97  1  0.523700  0.047000  0.823000  1.0  0.1188
  H  H98  1  0.560100  0.040800  0.770000  1.0  0.1195
  H  H99  1  0.624000  0.965500  0.822700  1.0  0.1083
  H  H100  1  0.587600  0.971700  0.875800  1.0  0.1208
  H  H101  1  0.023700  0.547000  0.323000  1.0  0.119
  H  H102  1  0.060100  0.540800  0.270000  1.0  0.1195
  H  H103  1  0.124000  0.465500  0.322700  1.0  0.1083
  H  H104  1  0.087600  0.471700  0.375800  1.0  0.1208
  H  H105  1  0.177000  0.023700  0.453000  1.0  0.1178
  H  H106  1  0.230000  0.060100  0.459200  1.0  0.1187
  H  H107  1  0.177300  0.124000  0.534500  1.0  0.1062
  H  H108  1  0.124200  0.087600  0.528300  1.0  0.1203
  H  H109  1  0.677000  0.523700  0.953000  1.0  0.1173
  H  H110  1  0.730000  0.560100  0.959200  1.0  0.1187
  H  H111  1  0.677300  0.624000  0.034500  1.0  0.1062
  H  H112  1  0.624200  0.587600  0.028300  1.0  0.1203
  H  H113  1  0.677000  0.476300  0.547000  1.0  0.1177
  H  H114  1  0.730000  0.439900  0.540800  1.0  0.1188
  H  H115  1  0.677300  0.376000  0.465500  1.0  0.105
  H  H116  1  0.624200  0.412400  0.471700  1.0  0.1202
  H  H117  1  0.177000  0.976300  0.047000  1.0  0.118
  H  H118  1  0.230000  0.939900  0.040800  1.0  0.1188
  H  H119  1  0.177300  0.876000  0.965500  1.0  0.105
  H  H120  1  0.124200  0.912400  0.971700  1.0  0.1202
  H  H121  1  0.323000  0.976300  0.953000  1.0  0.118
  H  H122  1  0.270000  0.939900  0.959200  1.0  0.1188
  H  H123  1  0.322700  0.876000  0.034500  1.0  0.1056
  H  H124  1  0.375800  0.912400  0.028300  1.0  0.1202
  H  H125  1  0.823000  0.476300  0.453000  1.0  0.1179
  H  H126  1  0.770000  0.439900  0.459200  1.0  0.1188
  H  H127  1  0.822700  0.376000  0.534500  1.0  0.1056
  H  H128  1  0.875800  0.412400  0.528300  1.0  0.1202
  H  H129  1  0.823000  0.523700  0.047000  1.0  0.1175
  H  H130  1  0.770000  0.560100  0.040800  1.0  0.119
  H  H131  1  0.822700  0.624000  0.965500  1.0  0.1073
  H  H132  1  0.875800  0.587600  0.971700  1.0  0.1202
  H  H133  1  0.323000  0.023700  0.547000  1.0  0.1177
  H  H134  1  0.270000  0.060100  0.540800  1.0  0.119
  H  H135  1  0.322700  0.124000  0.465500  1.0  0.1073
  H  H136  1  0.375800  0.087600  0.471700  1.0  0.1202
  H  H137  1  0.453000  0.177000  0.023700  1.0  0.1181
  H  H138  1  0.459200  0.230000  0.060100  1.0  0.1185
  H  H139  1  0.534500  0.177300  0.124000  1.0  0.1081
  H  H140  1  0.528300  0.124200  0.087600  1.0  0.1205
  H  H141  1  0.953000  0.677000  0.523700  1.0  0.1176
  H  H142  1  0.959200  0.730000  0.560100  1.0  0.1185
  H  H143  1  0.034500  0.677300  0.624000  1.0  0.1081
  H  H144  1  0.028300  0.624200  0.587600  1.0  0.1205
  H  H145  1  0.547000  0.677000  0.476300  1.0  0.1177
  H  H146  1  0.540800  0.730000  0.439900  1.0  0.118
  H  H147  1  0.465500  0.677300  0.376000  1.0  0.1072
  H  H148  1  0.471700  0.624200  0.412400  1.0  0.1204
  H  H149  1  0.047000  0.177000  0.976300  1.0  0.1182
  H  H150  1  0.040800  0.230000  0.939900  1.0  0.118
  H  H151  1  0.965500  0.177300  0.876000  1.0  0.1072
  H  H152  1  0.971700  0.124200  0.912400  1.0  0.1204
  H  H153  1  0.953000  0.323000  0.976300  1.0  0.1186
  H  H154  1  0.959200  0.270000  0.939900  1.0  0.1188
  H  H155  1  0.034500  0.322700  0.876000  1.0  0.108
  H  H156  1  0.028300  0.375800  0.912400  1.0  0.1208
  H  H157  1  0.453000  0.823000  0.476300  1.0  0.1183
  H  H158  1  0.459200  0.770000  0.439900  1.0  0.1188
  H  H159  1  0.534500  0.822700  0.376000  1.0  0.108
  H  H160  1  0.528300  0.875800  0.412400  1.0  0.1208
  H  H161  1  0.047000  0.823000  0.523700  1.0  0.1182
  H  H162  1  0.040800  0.770000  0.560100  1.0  0.1184
  H  H163  1  0.965500  0.822700  0.624000  1.0  0.1083
  H  H164  1  0.971700  0.875800  0.587600  1.0  0.121
  H  H165  1  0.547000  0.323000  0.023700  1.0  0.1189
  H  H166  1  0.540800  0.270000  0.060100  1.0  0.1184
  H  H167  1  0.465500  0.322700  0.124000  1.0  0.1083
  H  H168  1  0.471700  0.375800  0.087600  1.0  0.121
  H  H169  1  0.203000  0.273700  0.073000  1.0  0.1179
  H  H170  1  0.209200  0.310100  0.020000  1.0  0.1193
  H  H171  1  0.284500  0.374000  0.072700  1.0  0.1073
  H  H172  1  0.278300  0.337600  0.125800  1.0  0.1204
  H  H173  1  0.703000  0.773700  0.573000  1.0  0.1179
  H  H174  1  0.709200  0.810100  0.520000  1.0  0.1193
  H  H175  1  0.784500  0.874000  0.572700  1.0  0.1073
  H  H176  1  0.778300  0.837600  0.625800  1.0  0.1204
  H  H177  1  0.297000  0.726300  0.573000  1.0  0.1188
  H  H178  1  0.290800  0.689900  0.520000  1.0  0.1193
  H  H179  1  0.215500  0.626000  0.572700  1.0  0.1071
  H  H180  1  0.221700  0.662400  0.625800  1.0  0.1208
  H  H181  1  0.797000  0.226300  0.073000  1.0  0.1188
  H  H182  1  0.790800  0.189900  0.020000  1.0  0.1193
  H  H183  1  0.715500  0.126000  0.072700  1.0  0.1071
  H  H184  1  0.721700  0.162400  0.125800  1.0  0.1208
  H  H185  1  0.703000  0.226300  0.927000  1.0  0.1186
  H  H186  1  0.709200  0.189900  0.980000  1.0  0.1192
  H  H187  1  0.784500  0.126000  0.927300  1.0  0.1086
  H  H188  1  0.778300  0.162400  0.874200  1.0  0.121
  H  H189  1  0.203000  0.726300  0.427000  1.0  0.1186
  H  H190  1  0.209200  0.689900  0.480000  1.0  0.1192
  H  H191  1  0.284500  0.626000  0.427300  1.0  0.1086
  H  H192  1  0.278300  0.662400  0.374200  1.0  0.121
  H  H193  1  0.797000  0.773700  0.427000  1.0  0.1181
  H  H194  1  0.790800  0.810100  0.480000  1.0  0.1194
  H  H195  1  0.715500  0.874000  0.427300  1.0  0.1076
  H  H196  1  0.721700  0.837600  0.374200  1.0  0.1207
  H  H197  1  0.297000  0.273700  0.927000  1.0  0.1181
  H  H198  1  0.290800  0.310100  0.980000  1.0  0.1194
  H  H199  1  0.215500  0.374000  0.927300  1.0  0.1076
  H  H200  1  0.221700  0.337600  0.874200  1.0  0.1207
  H  H201  1  0.773700  0.427000  0.797000  1.0  0.1175
  H  H202  1  0.810100  0.480000  0.790800  1.0  0.118
  H  H203  1  0.874000  0.427300  0.715500  1.0  0.108
  H  H204  1  0.837600  0.374200  0.721700  1.0  0.1202
  H  H205  1  0.273700  0.927000  0.297000  1.0  0.1175
  H  H206  1  0.310100  0.980000  0.290800  1.0  0.118
  H  H207  1  0.374000  0.927300  0.215500  1.0  0.108
  H  H208  1  0.337600  0.874200  0.221700  1.0  0.1202
  H  H209  1  0.226300  0.927000  0.703000  1.0  0.1179
  H  H210  1  0.189900  0.980000  0.709200  1.0  0.1179
  H  H211  1  0.126000  0.927300  0.784500  1.0  0.1082
  H  H212  1  0.162400  0.874200  0.778300  1.0  0.1204
  H  H213  1  0.726300  0.427000  0.203000  1.0  0.1179
  H  H214  1  0.689900  0.480000  0.209200  1.0  0.1179
  H  H215  1  0.626000  0.427300  0.284500  1.0  0.1082
  H  H216  1  0.662400  0.374200  0.278300  1.0  0.1204
  H  H217  1  0.726300  0.573000  0.297000  1.0  0.1177
  H  H218  1  0.689900  0.520000  0.290800  1.0  0.1175
  H  H219  1  0.626000  0.572700  0.215500  1.0  0.1082
  H  H220  1  0.662400  0.625800  0.221700  1.0  0.1202
  H  H221  1  0.226300  0.073000  0.797000  1.0  0.1177
  H  H222  1  0.189900  0.020000  0.790800  1.0  0.1175
  H  H223  1  0.126000  0.072700  0.715500  1.0  0.1082
  H  H224  1  0.162400  0.125800  0.721700  1.0  0.1202
  H  H225  1  0.273700  0.073000  0.203000  1.0  0.1177
  H  H226  1  0.310100  0.020000  0.209200  1.0  0.1179
  H  H227  1  0.374000  0.072700  0.284500  1.0  0.1076
  H  H228  1  0.337600  0.125800  0.278300  1.0  0.1203
  H  H229  1  0.773700  0.573000  0.703000  1.0  0.1177
  H  H230  1  0.810100  0.520000  0.709200  1.0  0.1179
  H  H231  1  0.874000  0.572700  0.784500  1.0  0.1076
  H  H232  1  0.837600  0.625800  0.778300  1.0  0.1203
  H  H233  1  0.927000  0.703000  0.226300  1.0  0.1183
  H  H234  1  0.980000  0.709200  0.189900  1.0  0.1195
  H  H235  1  0.927300  0.784500  0.126000  1.0  0.1065
  H  H236  1  0.874200  0.778300  0.162400  1.0  0.1211
  H  H237  1  0.427000  0.203000  0.726300  1.0  0.1183
  H  H238  1  0.480000  0.209200  0.689900  1.0  0.1195
  H  H239  1  0.427300  0.284500  0.626000  1.0  0.1065
  H  H240  1  0.374200  0.278300  0.662400  1.0  0.1211
  H  H241  1  0.427000  0.797000  0.773700  1.0  0.1181
  H  H242  1  0.480000  0.790800  0.810100  1.0  0.119
  H  H243  1  0.427300  0.715500  0.874000  1.0  0.1071
  H  H244  1  0.374200  0.721700  0.837600  1.0  0.1209
  H  H245  1  0.927000  0.297000  0.273700  1.0  0.1181
  H  H246  1  0.980000  0.290800  0.310100  1.0  0.119
  H  H247  1  0.927300  0.215500  0.374000  1.0  0.1071
  H  H248  1  0.874200  0.221700  0.337600  1.0  0.1209
  H  H249  1  0.073000  0.203000  0.273700  1.0  0.1177
  H  H250  1  0.020000  0.209200  0.310100  1.0  0.119
  H  H251  1  0.072700  0.284500  0.374000  1.0  0.1075
  H  H252  1  0.125800  0.278300  0.337600  1.0  0.1209
  H  H253  1  0.573000  0.703000  0.773700  1.0  0.1177
  H  H254  1  0.520000  0.709200  0.810100  1.0  0.119
  H  H255  1  0.572700  0.784500  0.874000  1.0  0.1075
  H  H256  1  0.625800  0.778300  0.837600  1.0  0.1209
  H  H257  1  0.573000  0.297000  0.726300  1.0  0.1181
  H  H258  1  0.520000  0.290800  0.689900  1.0  0.1196
  H  H259  1  0.572700  0.215500  0.626000  1.0  0.1071
  H  H260  1  0.625800  0.221700  0.662400  1.0  0.1208
  H  H261  1  0.073000  0.797000  0.226300  1.0  0.1181
  H  H262  1  0.020000  0.790800  0.189900  1.0  0.1196
  H  H263  1  0.072700  0.715500  0.126000  1.0  0.1071
  H  H264  1  0.125800  0.721700  0.162400  1.0  0.1208
  H  H265  1  0.976300  0.547000  0.823000  1.0  0.1195
  H  H266  1  0.939900  0.540800  0.770000  1.0  0.1193
  H  H267  1  0.876000  0.465500  0.822700  1.0  0.108
  H  H268  1  0.912400  0.471700  0.875800  1.0  0.1209
  H  H269  1  0.476300  0.047000  0.323000  1.0  0.1189
  H  H270  1  0.439900  0.040800  0.270000  1.0  0.1193
  H  H271  1  0.376000  0.965500  0.322700  1.0  0.108
  H  H272  1  0.412400  0.971700  0.375800  1.0  0.1209
  H  H273  1  0.523700  0.453000  0.323000  1.0  0.1181
  H  H274  1  0.560100  0.459200  0.270000  1.0  0.1192
  H  H275  1  0.624000  0.534500  0.322700  1.0  0.1083
  H  H276  1  0.587600  0.528300  0.375800  1.0  0.1209
  H  H277  1  0.023700  0.953000  0.823000  1.0  0.1183
  H  H278  1  0.060100  0.959200  0.770000  1.0  0.1192
  H  H279  1  0.124000  0.034500  0.822700  1.0  0.1083
  H  H280  1  0.087600  0.028300  0.875800  1.0  0.1209
  H  H281  1  0.023700  0.047000  0.677000  1.0  0.1186
  H  H282  1  0.060100  0.040800  0.730000  1.0  0.1194
  H  H283  1  0.124000  0.965500  0.677300  1.0  0.109
  H  H284  1  0.087600  0.971700  0.624200  1.0  0.1209
  H  H285  1  0.523700  0.547000  0.177000  1.0  0.1184
  H  H286  1  0.560100  0.540800  0.230000  1.0  0.1194
  H  H287  1  0.624000  0.465500  0.177300  1.0  0.109
  H  H288  1  0.587600  0.471700  0.124200  1.0  0.1209
  H  H289  1  0.476300  0.953000  0.177000  1.0  0.1183
  H  H290  1  0.439900  0.959200  0.230000  1.0  0.1191
  H  H291  1  0.376000  0.034500  0.177300  1.0  0.1093
  H  H292  1  0.412400  0.028300  0.124200  1.0  0.1208
  H  H293  1  0.976300  0.453000  0.677000  1.0  0.1187
  H  H294  1  0.939900  0.459200  0.730000  1.0  0.1191
  H  H295  1  0.876000  0.534500  0.677300  1.0  0.1093
  H  H296  1  0.912400  0.528300  0.624200  1.0  0.1208
  H  H297  1  0.823000  0.976300  0.547000  1.0  0.1177
  H  H298  1  0.770000  0.939900  0.540800  1.0  0.1188
  H  H299  1  0.822700  0.876000  0.465500  1.0  0.1063
  H  H300  1  0.875800  0.912400  0.471700  1.0  0.1202
  H  H301  1  0.323000  0.476300  0.047000  1.0  0.1175
  H  H302  1  0.270000  0.439900  0.040800  1.0  0.1188
  H  H303  1  0.322700  0.376000  0.965500  1.0  0.1063
  H  H304  1  0.375800  0.412400  0.971700  1.0  0.1202
  H  H305  1  0.323000  0.523700  0.453000  1.0  0.1173
  H  H306  1  0.270000  0.560100  0.459200  1.0  0.1188
  H  H307  1  0.322700  0.624000  0.534500  1.0  0.1062
  H  H308  1  0.375800  0.587600  0.528300  1.0  0.1201
  H  H309  1  0.823000  0.023700  0.953000  1.0  0.1175
  H  H310  1  0.770000  0.060100  0.959200  1.0  0.1188
  H  H311  1  0.822700  0.124000  0.034500  1.0  0.1062
  H  H312  1  0.875800  0.087600  0.028300  1.0  0.1201
  H  H313  1  0.677000  0.023700  0.047000  1.0  0.1179
  H  H314  1  0.730000  0.060100  0.040800  1.0  0.1192
  H  H315  1  0.677300  0.124000  0.965500  1.0  0.106
  H  H316  1  0.624200  0.087600  0.971700  1.0  0.1202
  H  H317  1  0.177000  0.523700  0.547000  1.0  0.1175
  H  H318  1  0.230000  0.560100  0.540800  1.0  0.1192
  H  H319  1  0.177300  0.624000  0.465500  1.0  0.106
  H  H320  1  0.124200  0.587600  0.471700  1.0  0.1202
  H  H321  1  0.177000  0.476300  0.953000  1.0  0.1179
  H  H322  1  0.230000  0.439900  0.959200  1.0  0.1184
  H  H323  1  0.177300  0.376000  0.034500  1.0  0.1062
  H  H324  1  0.124200  0.412400  0.028300  1.0  0.1204
  H  H325  1  0.677000  0.976300  0.453000  1.0  0.1184
  H  H326  1  0.730000  0.939900  0.459200  1.0  0.1184
  H  H327  1  0.677300  0.876000  0.534500  1.0  0.1062
  H  H328  1  0.624200  0.912400  0.528300  1.0  0.1204
  H  H329  1  0.547000  0.823000  0.976300  1.0  0.1187
  H  H330  1  0.540800  0.770000  0.939900  1.0  0.1183
  H  H331  1  0.465500  0.822700  0.876000  1.0  0.1073
  H  H332  1  0.471700  0.875800  0.912400  1.0  0.121
  H  H333  1  0.047000  0.323000  0.476300  1.0  0.118
  H  H334  1  0.040800  0.270000  0.439900  1.0  0.1183
  H  H335  1  0.965500  0.322700  0.376000  1.0  0.1073
  H  H336  1  0.971700  0.375800  0.412400  1.0  0.121
  H  H337  1  0.453000  0.323000  0.523700  1.0  0.1178
  H  H338  1  0.459200  0.270000  0.560100  1.0  0.1182
  H  H339  1  0.534500  0.322700  0.624000  1.0  0.1087
  H  H340  1  0.528300  0.375800  0.587600  1.0  0.1206
  H  H341  1  0.953000  0.823000  0.023700  1.0  0.1182
  H  H342  1  0.959200  0.770000  0.060100  1.0  0.1182
  H  H343  1  0.034500  0.822700  0.124000  1.0  0.1087
  H  H344  1  0.028300  0.875800  0.087600  1.0  0.1206
  H  H345  1  0.047000  0.677000  0.023700  1.0  0.1186
  H  H346  1  0.040800  0.730000  0.060100  1.0  0.1184
  H  H347  1  0.965500  0.677300  0.124000  1.0  0.1078
  H  H348  1  0.971700  0.624200  0.087600  1.0  0.1205
  H  H349  1  0.547000  0.177000  0.523700  1.0  0.1182
  H  H350  1  0.540800  0.230000  0.560100  1.0  0.1184
  H  H351  1  0.465500  0.177300  0.624000  1.0  0.1078
  H  H352  1  0.471700  0.124200  0.587600  1.0  0.1205
  H  H353  1  0.953000  0.177000  0.476300  1.0  0.1181
  H  H354  1  0.959200  0.230000  0.439900  1.0  0.1188
  H  H355  1  0.034500  0.177300  0.376000  1.0  0.1079
  H  H356  1  0.028300  0.124200  0.412400  1.0  0.1207
  H  H357  1  0.453000  0.677000  0.976300  1.0  0.1184
  H  H358  1  0.459200  0.730000  0.939900  1.0  0.1188
  H  H359  1  0.534500  0.677300  0.876000  1.0  0.1079
  H  H360  1  0.528300  0.624200  0.912400  1.0  0.1207
  H  H361  1  0.797000  0.726300  0.927000  1.0  0.1182
  H  H362  1  0.790800  0.689900  0.980000  1.0  0.1189
  H  H363  1  0.715500  0.626000  0.927300  1.0  0.1075
  H  H364  1  0.721700  0.662400  0.874200  1.0  0.1208
  H  H365  1  0.297000  0.226300  0.427000  1.0  0.1182
  H  H366  1  0.290800  0.189900  0.480000  1.0  0.1189
  H  H367  1  0.215500  0.126000  0.427300  1.0  0.1075
  H  H368  1  0.221700  0.162400  0.374200  1.0  0.1208
  H  H369  1  0.703000  0.273700  0.427000  1.0  0.1179
  H  H370  1  0.709200  0.310100  0.480000  1.0  0.1194
  H  H371  1  0.784500  0.374000  0.427300  1.0  0.1082
  H  H372  1  0.778300  0.337600  0.374200  1.0  0.1209
  H  H373  1  0.203000  0.773700  0.927000  1.0  0.1179
  H  H374  1  0.209200  0.810100  0.980000  1.0  0.1194
  H  H375  1  0.284500  0.874000  0.927300  1.0  0.1082
  H  H376  1  0.278300  0.837600  0.874200  1.0  0.1209
  H  H377  1  0.297000  0.773700  0.073000  1.0  0.1182
  H  H378  1  0.290800  0.810100  0.020000  1.0  0.1194
  H  H379  1  0.215500  0.874000  0.072700  1.0  0.1073
  H  H380  1  0.221700  0.837600  0.125800  1.0  0.1206
  H  H381  1  0.797000  0.273700  0.573000  1.0  0.1182
  H  H382  1  0.790800  0.310100  0.520000  1.0  0.1194
  H  H383  1  0.715500  0.374000  0.572700  1.0  0.1073
  H  H384  1  0.721700  0.337600  0.625800  1.0  0.1206
  H  H385  1  0.203000  0.226300  0.573000  1.0  0.119
  H  H386  1  0.209200  0.189900  0.520000  1.0  0.1194
  H  H387  1  0.284500  0.126000  0.572700  1.0  0.1078
  H  H388  1  0.278300  0.162400  0.625800  1.0  0.1205
  H  H389  1  0.703000  0.726300  0.073000  1.0  0.119
  H  H390  1  0.709200  0.689900  0.020000  1.0  0.1194
  H  H391  1  0.784500  0.626000  0.072700  1.0  0.1078
  H  H392  1  0.778300  0.662400  0.125800  1.0  0.1205
  H  H393  1  0.226300  0.573000  0.203000  1.0  0.118
  H  H394  1  0.189900  0.520000  0.209200  1.0  0.1179
  H  H395  1  0.126000  0.572700  0.284500  1.0  0.1084
  H  H396  1  0.162400  0.625800  0.278300  1.0  0.1202
  H  H397  1  0.726300  0.073000  0.703000  1.0  0.118
  H  H398  1  0.689900  0.020000  0.709200  1.0  0.1179
  H  H399  1  0.626000  0.072700  0.784500  1.0  0.1084
  H  H400  1  0.662400  0.125800  0.778300  1.0  0.1202
  H  H401  1  0.773700  0.073000  0.297000  1.0  0.1177
  H  H402  1  0.810100  0.020000  0.290800  1.0  0.1183
  H  H403  1  0.874000  0.072700  0.215500  1.0  0.1074
  H  H404  1  0.837600  0.125800  0.221700  1.0  0.1204
  H  H405  1  0.273700  0.573000  0.797000  1.0  0.1177
  H  H406  1  0.310100  0.520000  0.790800  1.0  0.1183
  H  H407  1  0.374000  0.572700  0.715500  1.0  0.1074
  H  H408  1  0.337600  0.625800  0.721700  1.0  0.1204
  H  H409  1  0.273700  0.427000  0.703000  1.0  0.1176
  H  H410  1  0.310100  0.480000  0.709200  1.0  0.118
  H  H411  1  0.374000  0.427300  0.784500  1.0  0.1079
  H  H412  1  0.337600  0.374200  0.778300  1.0  0.1204
  H  H413  1  0.773700  0.927000  0.203000  1.0  0.1176
  H  H414  1  0.810100  0.980000  0.209200  1.0  0.118
  H  H415  1  0.874000  0.927300  0.284500  1.0  0.1079
  H  H416  1  0.837600  0.874200  0.278300  1.0  0.1204
  H  H417  1  0.726300  0.927000  0.797000  1.0  0.1175
  H  H418  1  0.689900  0.980000  0.790800  1.0  0.1171
  H  H419  1  0.626000  0.927300  0.715500  1.0  0.1083
  H  H420  1  0.662400  0.874200  0.721700  1.0  0.1199
  H  H421  1  0.226300  0.427000  0.297000  1.0  0.1175
  H  H422  1  0.189900  0.480000  0.290800  1.0  0.1171
  H  H423  1  0.126000  0.427300  0.215500  1.0  0.1083
  H  H424  1  0.162400  0.374200  0.221700  1.0  0.1199
  H  H425  1  0.073000  0.297000  0.773700  1.0  0.118
  H  H426  1  0.020000  0.290800  0.810100  1.0  0.1194
  H  H427  1  0.072700  0.215500  0.874000  1.0  0.1079
  H  H428  1  0.125800  0.221700  0.837600  1.0  0.1208
  H  H429  1  0.573000  0.797000  0.273700  1.0  0.118
  H  H430  1  0.520000  0.790800  0.310100  1.0  0.1194
  H  H431  1  0.572700  0.715500  0.374000  1.0  0.1079
  H  H432  1  0.625800  0.721700  0.337600  1.0  0.1208
  H  H433  1  0.573000  0.203000  0.226300  1.0  0.1181
  H  H434  1  0.520000  0.209200  0.189900  1.0  0.1193
  H  H435  1  0.572700  0.284500  0.126000  1.0  0.1075
  H  H436  1  0.625800  0.278300  0.162400  1.0  0.121
  H  H437  1  0.073000  0.703000  0.726300  1.0  0.1181
  H  H438  1  0.020000  0.709200  0.689900  1.0  0.1193
  H  H439  1  0.072700  0.784500  0.626000  1.0  0.1075
  H  H440  1  0.125800  0.778300  0.662400  1.0  0.121
  H  H441  1  0.927000  0.797000  0.726300  1.0  0.1185
  H  H442  1  0.980000  0.790800  0.689900  1.0  0.1195
  H  H443  1  0.927300  0.715500  0.626000  1.0  0.106
  H  H444  1  0.874200  0.721700  0.662400  1.0  0.1208
  H  H445  1  0.427000  0.297000  0.226300  1.0  0.1185
  H  H446  1  0.480000  0.290800  0.189900  1.0  0.1195
  H  H447  1  0.427300  0.215500  0.126000  1.0  0.106
  H  H448  1  0.374200  0.221700  0.162400  1.0  0.1208
  H  H449  1  0.427000  0.703000  0.273700  1.0  0.1178
  H  H450  1  0.480000  0.709200  0.310100  1.0  0.1188
  H  H451  1  0.427300  0.784500  0.374000  1.0  0.1071
  H  H452  1  0.374200  0.778300  0.337600  1.0  0.1212
  H  H453  1  0.927000  0.203000  0.773700  1.0  0.1178
  H  H454  1  0.980000  0.209200  0.810100  1.0  0.1188
  H  H455  1  0.927300  0.284500  0.874000  1.0  0.1071
  H  H456  1  0.874200  0.278300  0.837600  1.0  0.1212
  C  C457  1  0.029600  0.486000  0.113200  1.0  0.3383
  C  C458  1  0.052180  0.490050  0.145640  1.0  -0.0615
  C  C459  1  0.044040  0.469520  0.177100  1.0  -0.0256
  C  C460  1  0.065700  0.473210  0.208560  1.0  -0.0417
  C  C461  1  0.095530  0.497420  0.208630  1.0  -0.3414
  C  C462  1  0.103670  0.517950  0.177200  1.0  -0.016
  C  C463  1  0.082000  0.514260  0.145710  1.0  -0.0682
  C  C464  1  0.529600  0.986000  0.613200  1.0  0.3383
  C  C465  1  0.552180  0.990050  0.645640  1.0  -0.0615
  C  C466  1  0.544040  0.969520  0.677100  1.0  -0.0256
  C  C467  1  0.565700  0.973210  0.708560  1.0  -0.0417
  C  C468  1  0.595530  0.997420  0.708630  1.0  -0.3414
  C  C469  1  0.603670  0.017950  0.677200  1.0  -0.016
  C  C470  1  0.582000  0.014260  0.645710  1.0  -0.0682
  C  C471  1  0.470400  0.514000  0.613200  1.0  0.3372
  C  C472  1  0.447820  0.509950  0.645640  1.0  -0.0607
  C  C473  1  0.455960  0.530480  0.677100  1.0  -0.0248
  C  C474  1  0.434300  0.526790  0.708560  1.0  -0.0428
  C  C475  1  0.404470  0.502580  0.708630  1.0  -0.343
  C  C476  1  0.396330  0.482050  0.677200  1.0  -0.0131
  C  C477  1  0.418000  0.485740  0.645710  1.0  -0.0656
  C  C478  1  0.970400  0.014000  0.113200  1.0  0.3372
  C  C479  1  0.947820  0.009950  0.145640  1.0  -0.0607
  C  C480  1  0.955960  0.030480  0.177100  1.0  -0.0248
  C  C481  1  0.934300  0.026790  0.208560  1.0  -0.0428
  C  C482  1  0.904470  0.002580  0.208630  1.0  -0.343
  C  C483  1  0.896330  0.982050  0.177200  1.0  -0.0131
  C  C484  1  0.918000  0.985740  0.145710  1.0  -0.0656
  C  C485  1  0.970400  0.986000  0.386800  1.0  0.3365
  C  C486  1  0.947820  0.990050  0.354360  1.0  -0.0604
  C  C487  1  0.955960  0.969520  0.322900  1.0  -0.0251
  C  C488  1  0.934300  0.973210  0.291440  1.0  -0.0433
  C  C489  1  0.904470  0.997420  0.291370  1.0  -0.3441
  C  C490  1  0.896330  0.017950  0.322800  1.0  -0.0156
  C  C491  1  0.918000  0.014260  0.354290  1.0  -0.0669
  C  C492  1  0.470400  0.486000  0.886800  1.0  0.3365
  C  C493  1  0.447820  0.490050  0.854360  1.0  -0.0604
  C  C494  1  0.455960  0.469520  0.822900  1.0  -0.0251
  C  C495  1  0.434300  0.473210  0.791440  1.0  -0.0433
  C  C496  1  0.404470  0.497420  0.791370  1.0  -0.3441
  C  C497  1  0.396330  0.517950  0.822800  1.0  -0.0156
  C  C498  1  0.418000  0.514260  0.854290  1.0  -0.0669
  C  C499  1  0.529600  0.014000  0.886800  1.0  0.3373
  C  C500  1  0.552180  0.009950  0.854360  1.0  -0.0597
  C  C501  1  0.544040  0.030480  0.822900  1.0  -0.0274
  C  C502  1  0.565700  0.026790  0.791440  1.0  -0.0433
  C  C503  1  0.595530  0.002580  0.791370  1.0  -0.3431
  C  C504  1  0.603670  0.982050  0.822800  1.0  -0.0136
  C  C505  1  0.582000  0.985740  0.854290  1.0  -0.0649
  C  C506  1  0.029600  0.514000  0.386800  1.0  0.3373
  C  C507  1  0.052180  0.509950  0.354360  1.0  -0.0603
  C  C508  1  0.044040  0.530480  0.322900  1.0  -0.0274
  C  C509  1  0.065700  0.526790  0.291440  1.0  -0.0433
  C  C510  1  0.095530  0.502580  0.291370  1.0  -0.3431
  C  C511  1  0.103670  0.482050  0.322800  1.0  -0.0142
  C  C512  1  0.082000  0.485740  0.354290  1.0  -0.0649
  C  C513  1  0.113200  0.029600  0.486000  1.0  0.3388
  C  C514  1  0.145640  0.052180  0.490050  1.0  -0.0594
  C  C515  1  0.177100  0.044040  0.469520  1.0  -0.0286
  C  C516  1  0.208560  0.065700  0.473210  1.0  -0.0467
  C  C517  1  0.208630  0.095530  0.497420  1.0  -0.3414
  C  C518  1  0.177200  0.103670  0.517950  1.0  -0.0117
  C  C519  1  0.145710  0.082000  0.514260  1.0  -0.0666
  C  C520  1  0.613200  0.529600  0.986000  1.0  0.3388
  C  C521  1  0.645640  0.552180  0.990050  1.0  -0.0594
  C  C522  1  0.677100  0.544040  0.969520  1.0  -0.0286
  C  C523  1  0.708560  0.565700  0.973210  1.0  -0.0467
  C  C524  1  0.708630  0.595530  0.997420  1.0  -0.3414
  C  C525  1  0.677200  0.603670  0.017950  1.0  -0.0117
  C  C526  1  0.645710  0.582000  0.014260  1.0  -0.0666
  C  C527  1  0.613200  0.470400  0.514000  1.0  0.3388
  C  C528  1  0.645640  0.447820  0.509950  1.0  -0.0584
  C  C529  1  0.677100  0.455960  0.530480  1.0  -0.0279
  C  C530  1  0.708560  0.434300  0.526790  1.0  -0.0462
  C  C531  1  0.708630  0.404470  0.502580  1.0  -0.3418
  C  C532  1  0.677200  0.396330  0.482050  1.0  -0.0096
  C  C533  1  0.645710  0.418000  0.485740  1.0  -0.0666
  C  C534  1  0.113200  0.970400  0.014000  1.0  0.3388
  C  C535  1  0.145640  0.947820  0.009950  1.0  -0.0584
  C  C536  1  0.177100  0.955960  0.030480  1.0  -0.0279
  C  C537  1  0.208560  0.934300  0.026790  1.0  -0.0462
  C  C538  1  0.208630  0.904470  0.002580  1.0  -0.3418
  C  C539  1  0.177200  0.896330  0.982050  1.0  -0.0095
  C  C540  1  0.145710  0.918000  0.985740  1.0  -0.0666
  C  C541  1  0.386800  0.970400  0.986000  1.0  0.3379
  C  C542  1  0.354360  0.947820  0.990050  1.0  -0.0587
  C  C543  1  0.322900  0.955960  0.969520  1.0  -0.0276
  C  C544  1  0.291440  0.934300  0.973210  1.0  -0.0455
  C  C545  1  0.291370  0.904470  0.997420  1.0  -0.3429
  C  C546  1  0.322800  0.896330  0.017950  1.0  -0.0089
  C  C547  1  0.354290  0.918000  0.014260  1.0  -0.0636
  C  C548  1  0.886800  0.470400  0.486000  1.0  0.3379
  C  C549  1  0.854360  0.447820  0.490050  1.0  -0.0587
  C  C550  1  0.822900  0.455960  0.469520  1.0  -0.0276
  C  C551  1  0.791440  0.434300  0.473210  1.0  -0.0455
  C  C552  1  0.791370  0.404470  0.497420  1.0  -0.3429
  C  C553  1  0.822800  0.396330  0.517950  1.0  -0.0089
  C  C554  1  0.854290  0.418000  0.514260  1.0  -0.0636
  C  C555  1  0.886800  0.529600  0.014000  1.0  0.3381
  C  C556  1  0.854360  0.552180  0.009950  1.0  -0.0589
  C  C557  1  0.822900  0.544040  0.030480  1.0  -0.0286
  C  C558  1  0.791440  0.565700  0.026790  1.0  -0.0435
  C  C559  1  0.791370  0.595530  0.002580  1.0  -0.3431
  C  C560  1  0.822800  0.603670  0.982050  1.0  -0.0114
  C  C561  1  0.854290  0.582000  0.985740  1.0  -0.0654
  C  C562  1  0.386800  0.029600  0.514000  1.0  0.3381
  C  C563  1  0.354360  0.052180  0.509950  1.0  -0.0595
  C  C564  1  0.322900  0.044040  0.530480  1.0  -0.0286
  C  C565  1  0.291440  0.065700  0.526790  1.0  -0.0435
  C  C566  1  0.291370  0.095530  0.502580  1.0  -0.3431
  C  C567  1  0.322800  0.103670  0.482050  1.0  -0.0117
  C  C568  1  0.354290  0.082000  0.485740  1.0  -0.0654
  C  C569  1  0.486000  0.113200  0.029600  1.0  0.3386
  C  C570  1  0.490050  0.145640  0.052180  1.0  -0.0587
  C  C571  1  0.469520  0.177100  0.044040  1.0  -0.0264
  C  C572  1  0.473210  0.208560  0.065700  1.0  -0.0463
  C  C573  1  0.497420  0.208630  0.095530  1.0  -0.3404
  C  C574  1  0.517950  0.177200  0.103670  1.0  -0.0152
  C  C575  1  0.514260  0.145710  0.082000  1.0  -0.0661
  C  C576  1  0.986000  0.613200  0.529600  1.0  0.3386
  C  C577  1  0.990050  0.645640  0.552180  1.0  -0.0587
  C  C578  1  0.969520  0.677100  0.544040  1.0  -0.0264
  C  C579  1  0.973210  0.708560  0.565700  1.0  -0.0463
  C  C580  1  0.997420  0.708630  0.595530  1.0  -0.3404
  C  C581  1  0.017950  0.677200  0.603670  1.0  -0.0152
  C  C582  1  0.014260  0.645710  0.582000  1.0  -0.0661
  C  C583  1  0.514000  0.613200  0.470400  1.0  0.3373
  C  C584  1  0.509950  0.645640  0.447820  1.0  -0.0578
  C  C585  1  0.530480  0.677100  0.455960  1.0  -0.0273
  C  C586  1  0.526790  0.708560  0.434300  1.0  -0.0431
  C  C587  1  0.502580  0.708630  0.404470  1.0  -0.3413
  C  C588  1  0.482050  0.677200  0.396330  1.0  -0.0135
  C  C589  1  0.485740  0.645710  0.418000  1.0  -0.0648
  C  C590  1  0.014000  0.113200  0.970400  1.0  0.3373
  C  C591  1  0.009950  0.145640  0.947820  1.0  -0.0578
  C  C592  1  0.030480  0.177100  0.955960  1.0  -0.0273
  C  C593  1  0.026790  0.208560  0.934300  1.0  -0.0431
  C  C594  1  0.002580  0.208630  0.904470  1.0  -0.3413
  C  C595  1  0.982050  0.177200  0.896330  1.0  -0.0135
  C  C596  1  0.985740  0.145710  0.918000  1.0  -0.0648
  C  C597  1  0.986000  0.386800  0.970400  1.0  0.338
  C  C598  1  0.990050  0.354360  0.947820  1.0  -0.0588
  C  C599  1  0.969520  0.322900  0.955960  1.0  -0.0267
  C  C600  1  0.973210  0.291440  0.934300  1.0  -0.0445
  C  C601  1  0.997420  0.291370  0.904470  1.0  -0.3415
  C  C602  1  0.017950  0.322800  0.896330  1.0  -0.0129
  C  C603  1  0.014260  0.354290  0.918000  1.0  -0.0646
  C  C604  1  0.486000  0.886800  0.470400  1.0  0.338
  C  C605  1  0.490050  0.854360  0.447820  1.0  -0.0588
  C  C606  1  0.469520  0.822900  0.455960  1.0  -0.0267
  C  C607  1  0.473210  0.791440  0.434300  1.0  -0.0445
  C  C608  1  0.497420  0.791370  0.404470  1.0  -0.3415
  C  C609  1  0.517950  0.822800  0.396330  1.0  -0.0129
  C  C610  1  0.514260  0.854290  0.418000  1.0  -0.0646
  C  C611  1  0.014000  0.886800  0.529600  1.0  0.3373
  C  C612  1  0.009950  0.854360  0.552180  1.0  -0.0573
  C  C613  1  0.030480  0.822900  0.544040  1.0  -0.0267
  C  C614  1  0.026790  0.791440  0.565700  1.0  -0.0449
  C  C615  1  0.002580  0.791370  0.595530  1.0  -0.3407
  C  C616  1  0.982050  0.822800  0.603670  1.0  -0.0127
  C  C617  1  0.985740  0.854290  0.582000  1.0  -0.0642
  C  C618  1  0.514000  0.386800  0.029600  1.0  0.3373
  C  C619  1  0.509950  0.354360  0.052180  1.0  -0.0579
  C  C620  1  0.530480  0.322900  0.044040  1.0  -0.0267
  C  C621  1  0.526790  0.291440  0.065700  1.0  -0.0449
  C  C622  1  0.502580  0.291370  0.095530  1.0  -0.3407
  C  C623  1  0.482050  0.322800  0.103670  1.0  -0.013
  C  C624  1  0.485740  0.354290  0.082000  1.0  -0.0642
  C  C625  1  0.236000  0.279600  0.136800  1.0  0.3384
  C  C626  1  0.240050  0.302180  0.104360  1.0  -0.0595
  C  C627  1  0.219520  0.294040  0.072900  1.0  -0.0264
  C  C628  1  0.223210  0.315700  0.041440  1.0  -0.0449
  C  C629  1  0.247420  0.345530  0.041370  1.0  -0.3429
  C  C630  1  0.267950  0.353670  0.072800  1.0  -0.0137
  C  C631  1  0.264260  0.332000  0.104290  1.0  -0.0654
  C  C632  1  0.736000  0.779600  0.636800  1.0  0.3384
  C  C633  1  0.740050  0.802180  0.604360  1.0  -0.0595
  C  C634  1  0.719520  0.794040  0.572900  1.0  -0.0264
  C  C635  1  0.723210  0.815700  0.541440  1.0  -0.0449
  C  C636  1  0.747420  0.845530  0.541370  1.0  -0.3429
  C  C637  1  0.767950  0.853670  0.572800  1.0  -0.0137
  C  C638  1  0.764260  0.832000  0.604290  1.0  -0.0654
  C  C639  1  0.264000  0.720400  0.636800  1.0  0.3374
  C  C640  1  0.259950  0.697820  0.604360  1.0  -0.059
  C  C641  1  0.280480  0.705960  0.572900  1.0  -0.0264
  C  C642  1  0.276790  0.684300  0.541440  1.0  -0.0446
  C  C643  1  0.252580  0.654470  0.541370  1.0  -0.3431
  C  C644  1  0.232050  0.646330  0.572800  1.0  -0.0131
  C  C645  1  0.235740  0.668000  0.604290  1.0  -0.0648
  C  C646  1  0.764000  0.220400  0.136800  1.0  0.3374
  C  C647  1  0.759950  0.197820  0.104360  1.0  -0.059
  C  C648  1  0.780480  0.205960  0.072900  1.0  -0.0264
  C  C649  1  0.776790  0.184300  0.041440  1.0  -0.0446
  C  C650  1  0.752580  0.154470  0.041370  1.0  -0.3431
  C  C651  1  0.732050  0.146330  0.072800  1.0  -0.0131
  C  C652  1  0.735740  0.168000  0.104290  1.0  -0.0648
  C  C653  1  0.736000  0.220400  0.863200  1.0  0.3389
  C  C654  1  0.740050  0.197820  0.895640  1.0  -0.0604
  C  C655  1  0.719520  0.205960  0.927100  1.0  -0.0262
  C  C656  1  0.723210  0.184300  0.958560  1.0  -0.0458
  C  C657  1  0.747420  0.154470  0.958630  1.0  -0.3417
  C  C658  1  0.767950  0.146330  0.927200  1.0  -0.0139
  C  C659  1  0.764260  0.168000  0.895710  1.0  -0.0659
  C  C660  1  0.236000  0.720400  0.363200  1.0  0.3389
  C  C661  1  0.240050  0.697820  0.395640  1.0  -0.0604
  C  C662  1  0.219520  0.705960  0.427100  1.0  -0.0262
  C  C663  1  0.223210  0.684300  0.458560  1.0  -0.0458
  C  C664  1  0.247420  0.654470  0.458630  1.0  -0.3417
  C  C665  1  0.267950  0.646330  0.427200  1.0  -0.0139
  C  C666  1  0.264260  0.668000  0.395710  1.0  -0.0659
  C  C667  1  0.764000  0.779600  0.363200  1.0  0.3379
  C  C668  1  0.759950  0.802180  0.395640  1.0  -0.0572
  C  C669  1  0.780480  0.794040  0.427100  1.0  -0.0271
  C  C670  1  0.776790  0.815700  0.458560  1.0  -0.0423
  C  C671  1  0.752580  0.845530  0.458630  1.0  -0.3419
  C  C672  1  0.732050  0.853670  0.427200  1.0  -0.0141
  C  C673  1  0.735740  0.832000  0.395710  1.0  -0.0657
  C  C674  1  0.264000  0.279600  0.863200  1.0  0.3379
  C  C675  1  0.259950  0.302180  0.895640  1.0  -0.0572
  C  C676  1  0.280480  0.294040  0.927100  1.0  -0.0271
  C  C677  1  0.276790  0.315700  0.958560  1.0  -0.0423
  C  C678  1  0.252580  0.345530  0.958630  1.0  -0.3419
  C  C679  1  0.232050  0.353670  0.927200  1.0  -0.0141
  C  C680  1  0.235740  0.332000  0.895710  1.0  -0.0657
  C  C681  1  0.779600  0.363200  0.764000  1.0  0.3378
  C  C682  1  0.802180  0.395640  0.759950  1.0  -0.0585
  C  C683  1  0.794040  0.427100  0.780480  1.0  -0.0284
  C  C684  1  0.815700  0.458560  0.776790  1.0  -0.0428
  C  C685  1  0.845530  0.458630  0.752580  1.0  -0.3385
  C  C686  1  0.853670  0.427200  0.732050  1.0  -0.0166
  C  C687  1  0.832000  0.395710  0.735740  1.0  -0.0664
  C  C688  1  0.279600  0.863200  0.264000  1.0  0.3378
  C  C689  1  0.302180  0.895640  0.259950  1.0  -0.0585
  C  C690  1  0.294040  0.927100  0.280480  1.0  -0.0284
  C  C691  1  0.315700  0.958560  0.276790  1.0  -0.0428
  C  C692  1  0.345530  0.958630  0.252580  1.0  -0.3385
  C  C693  1  0.353670  0.927200  0.232050  1.0  -0.0166
  C  C694  1  0.332000  0.895710  0.235740  1.0  -0.0664
  C  C695  1  0.220400  0.863200  0.736000  1.0  0.3371
  C  C696  1  0.197820  0.895640  0.740050  1.0  -0.0588
  C  C697  1  0.205960  0.927100  0.719520  1.0  -0.0264
  C  C698  1  0.184300  0.958560  0.723210  1.0  -0.0431
  C  C699  1  0.154470  0.958630  0.747420  1.0  -0.3394
  C  C700  1  0.146330  0.927200  0.767950  1.0  -0.0135
  C  C701  1  0.168000  0.895710  0.764260  1.0  -0.0658
  C  C702  1  0.720400  0.363200  0.236000  1.0  0.3371
  C  C703  1  0.697820  0.395640  0.240050  1.0  -0.0588
  C  C704  1  0.705960  0.427100  0.219520  1.0  -0.0264
  C  C705  1  0.684300  0.458560  0.223210  1.0  -0.0431
  C  C706  1  0.654470  0.458630  0.247420  1.0  -0.3394
  C  C707  1  0.646330  0.427200  0.267950  1.0  -0.0135
  C  C708  1  0.668000  0.395710  0.264260  1.0  -0.0658
  C  C709  1  0.720400  0.636800  0.264000  1.0  0.3371
  C  C710  1  0.697820  0.604360  0.259950  1.0  -0.0584
  C  C711  1  0.705960  0.572900  0.280480  1.0  -0.0259
  C  C712  1  0.684300  0.541440  0.276790  1.0  -0.0418
  C  C713  1  0.654470  0.541370  0.252580  1.0  -0.3394
  C  C714  1  0.646330  0.572800  0.232050  1.0  -0.0143
  C  C715  1  0.668000  0.604290  0.235740  1.0  -0.0661
  C  C716  1  0.220400  0.136800  0.764000  1.0  0.3371
  C  C717  1  0.197820  0.104360  0.759950  1.0  -0.0584
  C  C718  1  0.205960  0.072900  0.780480  1.0  -0.0259
  C  C719  1  0.184300  0.041440  0.776790  1.0  -0.0418
  C  C720  1  0.154470  0.041370  0.752580  1.0  -0.3394
  C  C721  1  0.146330  0.072800  0.732050  1.0  -0.0143
  C  C722  1  0.168000  0.104290  0.735740  1.0  -0.0661
  C  C723  1  0.279600  0.136800  0.236000  1.0  0.3377
  C  C724  1  0.302180  0.104360  0.240050  1.0  -0.0585
  C  C725  1  0.294040  0.072900  0.219520  1.0  -0.0276
  C  C726  1  0.315700  0.041440  0.223210  1.0  -0.0428
  C  C727  1  0.345530  0.041370  0.247420  1.0  -0.3391
  C  C728  1  0.353670  0.072800  0.267950  1.0  -0.0144
  C  C729  1  0.332000  0.104290  0.264260  1.0  -0.0649
  C  C730  1  0.779600  0.636800  0.736000  1.0  0.3377
  C  C731  1  0.802180  0.604360  0.740050  1.0  -0.0585
  C  C732  1  0.794040  0.572900  0.719520  1.0  -0.0276
  C  C733  1  0.815700  0.541440  0.723210  1.0  -0.0428
  C  C734  1  0.845530  0.541370  0.747420  1.0  -0.3391
  C  C735  1  0.853670  0.572800  0.767950  1.0  -0.0144
  C  C736  1  0.832000  0.604290  0.764260  1.0  -0.0649
  C  C737  1  0.863200  0.736000  0.220400  1.0  0.3381
  C  C738  1  0.895640  0.740050  0.197820  1.0  -0.0588
  C  C739  1  0.927100  0.719520  0.205960  1.0  -0.0272
  C  C740  1  0.958560  0.723210  0.184300  1.0  -0.0448
  C  C741  1  0.958630  0.747420  0.154470  1.0  -0.3445
  C  C742  1  0.927200  0.767950  0.146330  1.0  -0.0104
  C  C743  1  0.895710  0.764260  0.168000  1.0  -0.0675
  C  C744  1  0.363200  0.236000  0.720400  1.0  0.3381
  C  C745  1  0.395640  0.240050  0.697820  1.0  -0.0588
  C  C746  1  0.427100  0.219520  0.705960  1.0  -0.0272
  C  C747  1  0.458560  0.223210  0.684300  1.0  -0.0448
  C  C748  1  0.458630  0.247420  0.654470  1.0  -0.3445
  C  C749  1  0.427200  0.267950  0.646330  1.0  -0.0104
  C  C750  1  0.395710  0.264260  0.668000  1.0  -0.0675
  C  C751  1  0.363200  0.764000  0.779600  1.0  0.3385
  C  C752  1  0.395640  0.759950  0.802180  1.0  -0.0558
  C  C753  1  0.427100  0.780480  0.794040  1.0  -0.0269
  C  C754  1  0.458560  0.776790  0.815700  1.0  -0.0468
  C  C755  1  0.458630  0.752580  0.845530  1.0  -0.3434
  C  C756  1  0.427200  0.732050  0.853670  1.0  -0.0095
  C  C757  1  0.395710  0.735740  0.832000  1.0  -0.0657
  C  C758  1  0.863200  0.264000  0.279600  1.0  0.3385
  C  C759  1  0.895640  0.259950  0.302180  1.0  -0.0558
  C  C760  1  0.927100  0.280480  0.294040  1.0  -0.0269
  C  C761  1  0.958560  0.276790  0.315700  1.0  -0.0468
  C  C762  1  0.958630  0.252580  0.345530  1.0  -0.3434
  C  C763  1  0.927200  0.232050  0.353670  1.0  -0.0095
  C  C764  1  0.895710  0.235740  0.332000  1.0  -0.0657
  C  C765  1  0.136800  0.236000  0.279600  1.0  0.3381
  C  C766  1  0.104360  0.240050  0.302180  1.0  -0.059
  C  C767  1  0.072900  0.219520  0.294040  1.0  -0.0272
  C  C768  1  0.041440  0.223210  0.315700  1.0  -0.0453
  C  C769  1  0.041370  0.247420  0.345530  1.0  -0.3452
  C  C770  1  0.072800  0.267950  0.353670  1.0  -0.0104
  C  C771  1  0.104290  0.264260  0.332000  1.0  -0.0643
  C  C772  1  0.636800  0.736000  0.779600  1.0  0.3381
  C  C773  1  0.604360  0.740050  0.802180  1.0  -0.059
  C  C774  1  0.572900  0.719520  0.794040  1.0  -0.0272
  C  C775  1  0.541440  0.723210  0.815700  1.0  -0.0453
  C  C776  1  0.541370  0.747420  0.845530  1.0  -0.3452
  C  C777  1  0.572800  0.767950  0.853670  1.0  -0.0104
  C  C778  1  0.604290  0.764260  0.832000  1.0  -0.0643
  C  C779  1  0.636800  0.264000  0.720400  1.0  0.3373
  C  C780  1  0.604360  0.259950  0.697820  1.0  -0.0589
  C  C781  1  0.572900  0.280480  0.705960  1.0  -0.0281
  C  C782  1  0.541440  0.276790  0.684300  1.0  -0.0445
  C  C783  1  0.541370  0.252580  0.654470  1.0  -0.3459
  C  C784  1  0.572800  0.232050  0.646330  1.0  -0.0097
  C  C785  1  0.604290  0.235740  0.668000  1.0  -0.0644
  C  C786  1  0.136800  0.764000  0.220400  1.0  0.3373
  C  C787  1  0.104360  0.759950  0.197820  1.0  -0.0589
  C  C788  1  0.072900  0.780480  0.205960  1.0  -0.0281
  C  C789  1  0.041440  0.776790  0.184300  1.0  -0.0445
  C  C790  1  0.041370  0.752580  0.154470  1.0  -0.3459
  C  C791  1  0.072800  0.732050  0.146330  1.0  -0.0097
  C  C792  1  0.104290  0.735740  0.168000  1.0  -0.0644
  C  C793  1  0.970400  0.514000  0.886800  1.0  0.3366
  C  C794  1  0.947820  0.509950  0.854360  1.0  -0.0602
  C  C795  1  0.955960  0.530480  0.822900  1.0  -0.025
  C  C796  1  0.934300  0.526790  0.791440  1.0  -0.0431
  C  C797  1  0.904470  0.502580  0.791370  1.0  -0.344
  C  C798  1  0.896330  0.482050  0.822800  1.0  -0.0137
  C  C799  1  0.918000  0.485740  0.854290  1.0  -0.0653
  C  C800  1  0.470400  0.014000  0.386800  1.0  0.3366
  C  C801  1  0.447820  0.009950  0.354360  1.0  -0.0602
  C  C802  1  0.455960  0.030480  0.322900  1.0  -0.025
  C  C803  1  0.434300  0.026790  0.291440  1.0  -0.0431
  C  C804  1  0.404470  0.002580  0.291370  1.0  -0.344
  C  C805  1  0.396330  0.982050  0.322800  1.0  -0.0137
  C  C806  1  0.418000  0.985740  0.354290  1.0  -0.0653
  C  C807  1  0.529600  0.486000  0.386800  1.0  0.3373
  C  C808  1  0.552180  0.490050  0.354360  1.0  -0.0603
  C  C809  1  0.544040  0.469520  0.322900  1.0  -0.0258
  C  C810  1  0.565700  0.473210  0.291440  1.0  -0.0435
  C  C811  1  0.595530  0.497420  0.291370  1.0  -0.3431
  C  C812  1  0.603670  0.517950  0.322800  1.0  -0.0156
  C  C813  1  0.582000  0.514260  0.354290  1.0  -0.0661
  C  C814  1  0.029600  0.986000  0.886800  1.0  0.3373
  C  C815  1  0.052180  0.990050  0.854360  1.0  -0.0609
  C  C816  1  0.044040  0.969520  0.822900  1.0  -0.0258
  C  C817  1  0.065700  0.973210  0.791440  1.0  -0.0435
  C  C818  1  0.095530  0.997420  0.791370  1.0  -0.3431
  C  C819  1  0.103670  0.017950  0.822800  1.0  -0.0156
  C  C820  1  0.082000  0.014260  0.854290  1.0  -0.0661
  C  C821  1  0.029600  0.014000  0.613200  1.0  0.3382
  C  C822  1  0.052180  0.009950  0.645640  1.0  -0.0612
  C  C823  1  0.044040  0.030480  0.677100  1.0  -0.0275
  C  C824  1  0.065700  0.026790  0.708560  1.0  -0.043
  C  C825  1  0.095530  0.002580  0.708630  1.0  -0.3417
  C  C826  1  0.103670  0.982050  0.677200  1.0  -0.0151
  C  C827  1  0.082000  0.985740  0.645710  1.0  -0.0663
  C  C828  1  0.529600  0.514000  0.113200  1.0  0.3382
  C  C829  1  0.552180  0.509950  0.145640  1.0  -0.0606
  C  C830  1  0.544040  0.530480  0.177100  1.0  -0.0275
  C  C831  1  0.565700  0.526790  0.208560  1.0  -0.043
  C  C832  1  0.595530  0.502580  0.208630  1.0  -0.3417
  C  C833  1  0.603670  0.482050  0.177200  1.0  -0.0151
  C  C834  1  0.582000  0.485740  0.145710  1.0  -0.0663
  C  C835  1  0.470400  0.986000  0.113200  1.0  0.3371
  C  C836  1  0.447820  0.990050  0.145640  1.0  -0.0603
  C  C837  1  0.455960  0.969520  0.177100  1.0  -0.0247
  C  C838  1  0.434300  0.973210  0.208560  1.0  -0.0413
  C  C839  1  0.404470  0.997420  0.208630  1.0  -0.3429
  C  C840  1  0.396330  0.017950  0.177200  1.0  -0.0145
  C  C841  1  0.418000  0.014260  0.145710  1.0  -0.0675
  C  C842  1  0.970400  0.486000  0.613200  1.0  0.3371
  C  C843  1  0.947820  0.490050  0.645640  1.0  -0.0603
  C  C844  1  0.955960  0.469520  0.677100  1.0  -0.0247
  C  C845  1  0.934300  0.473210  0.708560  1.0  -0.0413
  C  C846  1  0.904470  0.497420  0.708630  1.0  -0.3429
  C  C847  1  0.896330  0.517950  0.677200  1.0  -0.0145
  C  C848  1  0.918000  0.514260  0.645710  1.0  -0.0675
  C  C849  1  0.886800  0.970400  0.514000  1.0  0.338
  C  C850  1  0.854360  0.947820  0.509950  1.0  -0.0593
  C  C851  1  0.822900  0.955960  0.530480  1.0  -0.028
  C  C852  1  0.791440  0.934300  0.526790  1.0  -0.0456
  C  C853  1  0.791370  0.904470  0.502580  1.0  -0.3428
  C  C854  1  0.822800  0.896330  0.482050  1.0  -0.0104
  C  C855  1  0.854290  0.918000  0.485740  1.0  -0.0653
  C  C856  1  0.386800  0.470400  0.014000  1.0  0.338
  C  C857  1  0.354360  0.447820  0.009950  1.0  -0.0593
  C  C858  1  0.322900  0.455960  0.030480  1.0  -0.028
  C  C859  1  0.291440  0.434300  0.026790  1.0  -0.0456
  C  C860  1  0.291370  0.404470  0.002580  1.0  -0.3428
  C  C861  1  0.322800  0.396330  0.982050  1.0  -0.0106
  C  C862  1  0.354290  0.418000  0.985740  1.0  -0.0653
  C  C863  1  0.386800  0.529600  0.486000  1.0  0.338
  C  C864  1  0.354360  0.552180  0.490050  1.0  -0.0594
  C  C865  1  0.322900  0.544040  0.469520  1.0  -0.0289
  C  C866  1  0.291440  0.565700  0.473210  1.0  -0.045
  C  C867  1  0.291370  0.595530  0.497420  1.0  -0.3431
  C  C868  1  0.322800  0.603670  0.517950  1.0  -0.0098
  C  C869  1  0.354290  0.582000  0.514260  1.0  -0.0639
  C  C870  1  0.886800  0.029600  0.986000  1.0  0.338
  C  C871  1  0.854360  0.052180  0.990050  1.0  -0.0594
  C  C872  1  0.822900  0.044040  0.969520  1.0  -0.0289
  C  C873  1  0.791440  0.065700  0.973210  1.0  -0.045
  C  C874  1  0.791370  0.095530  0.997420  1.0  -0.3431
  C  C875  1  0.822800  0.103670  0.017950  1.0  -0.0098
  C  C876  1  0.854290  0.082000  0.014260  1.0  -0.0639
  C  C877  1  0.613200  0.029600  0.014000  1.0  0.3389
  C  C878  1  0.645640  0.052180  0.009950  1.0  -0.0595
  C  C879  1  0.677100  0.044040  0.030480  1.0  -0.0283
  C  C880  1  0.708560  0.065700  0.026790  1.0  -0.0446
  C  C881  1  0.708630  0.095530  0.002580  1.0  -0.3417
  C  C882  1  0.677200  0.103670  0.982050  1.0  -0.0117
  C  C883  1  0.645710  0.082000  0.985740  1.0  -0.0656
  C  C884  1  0.113200  0.529600  0.514000  1.0  0.3389
  C  C885  1  0.145640  0.552180  0.509950  1.0  -0.0593
  C  C886  1  0.177100  0.544040  0.530480  1.0  -0.0283
  C  C887  1  0.208560  0.565700  0.526790  1.0  -0.0446
  C  C888  1  0.208630  0.595530  0.502580  1.0  -0.3417
  C  C889  1  0.177200  0.603670  0.482050  1.0  -0.0116
  C  C890  1  0.145710  0.582000  0.485740  1.0  -0.0656
  C  C891  1  0.113200  0.470400  0.986000  1.0  0.3387
  C  C892  1  0.145640  0.447820  0.990050  1.0  -0.0585
  C  C893  1  0.177100  0.455960  0.969520  1.0  -0.0273
  C  C894  1  0.208560  0.434300  0.973210  1.0  -0.0463
  C  C895  1  0.208630  0.404470  0.997420  1.0  -0.3415
  C  C896  1  0.177200  0.396330  0.017950  1.0  -0.0093
  C  C897  1  0.145710  0.418000  0.014260  1.0  -0.0667
  C  C898  1  0.613200  0.970400  0.486000  1.0  0.3387
  C  C899  1  0.645640  0.947820  0.490050  1.0  -0.0585
  C  C900  1  0.677100  0.955960  0.469520  1.0  -0.0273
  C  C901  1  0.708560  0.934300  0.473210  1.0  -0.0463
  C  C902  1  0.708630  0.904470  0.497420  1.0  -0.3415
  C  C903  1  0.677200  0.896330  0.517950  1.0  -0.0093
  C  C904  1  0.645710  0.918000  0.514260  1.0  -0.0667
  C  C905  1  0.514000  0.886800  0.970400  1.0  0.3372
  C  C906  1  0.509950  0.854360  0.947820  1.0  -0.0577
  C  C907  1  0.530480  0.822900  0.955960  1.0  -0.0272
  C  C908  1  0.526790  0.791440  0.934300  1.0  -0.0426
  C  C909  1  0.502580  0.791370  0.904470  1.0  -0.3416
  C  C910  1  0.482050  0.822800  0.896330  1.0  -0.0128
  C  C911  1  0.485740  0.854290  0.918000  1.0  -0.0642
  C  C912  1  0.014000  0.386800  0.470400  1.0  0.3372
  C  C913  1  0.009950  0.354360  0.447820  1.0  -0.0577
  C  C914  1  0.030480  0.322900  0.455960  1.0  -0.0272
  C  C915  1  0.026790  0.291440  0.434300  1.0  -0.0426
  C  C916  1  0.002580  0.291370  0.404470  1.0  -0.3416
  C  C917  1  0.982050  0.322800  0.396330  1.0  -0.0128
  C  C918  1  0.985740  0.354290  0.418000  1.0  -0.0642
  C  C919  1  0.486000  0.386800  0.529600  1.0  0.3382
  C  C920  1  0.490050  0.354360  0.552180  1.0  -0.0584
  C  C921  1  0.469520  0.322900  0.544040  1.0  -0.0262
  C  C922  1  0.473210  0.291440  0.565700  1.0  -0.0454
  C  C923  1  0.497420  0.291370  0.595530  1.0  -0.3407
  C  C924  1  0.517950  0.322800  0.603670  1.0  -0.0131
  C  C925  1  0.514260  0.354290  0.582000  1.0  -0.0643
  C  C926  1  0.986000  0.886800  0.029600  1.0  0.3382
  C  C927  1  0.990050  0.854360  0.052180  1.0  -0.0584
  C  C928  1  0.969520  0.822900  0.044040  1.0  -0.0262
  C  C929  1  0.973210  0.791440  0.065700  1.0  -0.0454
  C  C930  1  0.997420  0.791370  0.095530  1.0  -0.3407
  C  C931  1  0.017950  0.822800  0.103670  1.0  -0.0131
  C  C932  1  0.014260  0.854290  0.082000  1.0  -0.0643
  C  C933  1  0.014000  0.613200  0.029600  1.0  0.3376
  C  C934  1  0.009950  0.645640  0.052180  1.0  -0.0574
  C  C935  1  0.030480  0.677100  0.044040  1.0  -0.0269
  C  C936  1  0.026790  0.708560  0.065700  1.0  -0.045
  C  C937  1  0.002580  0.708630  0.095530  1.0  -0.3407
  C  C938  1  0.982050  0.677200  0.103670  1.0  -0.0141
  C  C939  1  0.985740  0.645710  0.082000  1.0  -0.0647
  C  C940  1  0.514000  0.113200  0.529600  1.0  0.3376
  C  C941  1  0.509950  0.145640  0.552180  1.0  -0.055
  C  C942  1  0.530480  0.177100  0.544040  1.0  -0.0269
  C  C943  1  0.526790  0.208560  0.565700  1.0  -0.045
  C  C944  1  0.502580  0.208630  0.595530  1.0  -0.3407
  C  C945  1  0.482050  0.177200  0.603670  1.0  -0.0141
  C  C946  1  0.485740  0.145710  0.582000  1.0  -0.0647
  C  C947  1  0.986000  0.113200  0.470400  1.0  0.3382
  C  C948  1  0.990050  0.145640  0.447820  1.0  -0.0585
  C  C949  1  0.969520  0.177100  0.455960  1.0  -0.0267
  C  C950  1  0.973210  0.208560  0.434300  1.0  -0.046
  C  C951  1  0.997420  0.208630  0.404470  1.0  -0.3412
  C  C952  1  0.017950  0.177200  0.396330  1.0  -0.0146
  C  C953  1  0.014260  0.145710  0.418000  1.0  -0.0671
  C  C954  1  0.486000  0.613200  0.970400  1.0  0.3382
  C  C955  1  0.490050  0.645640  0.947820  1.0  -0.0585
  C  C956  1  0.469520  0.677100  0.955960  1.0  -0.0267
  C  C957  1  0.473210  0.708560  0.934300  1.0  -0.046
  C  C958  1  0.497420  0.708630  0.904470  1.0  -0.3412
  C  C959  1  0.517950  0.677200  0.896330  1.0  -0.0146
  C  C960  1  0.514260  0.645710  0.918000  1.0  -0.0671
  C  C961  1  0.764000  0.720400  0.863200  1.0  0.3379
  C  C962  1  0.759950  0.697820  0.895640  1.0  -0.0595
  C  C963  1  0.780480  0.705960  0.927100  1.0  -0.0262
  C  C964  1  0.776790  0.684300  0.958560  1.0  -0.0445
  C  C965  1  0.752580  0.654470  0.958630  1.0  -0.3418
  C  C966  1  0.732050  0.646330  0.927200  1.0  -0.0123
  C  C967  1  0.735740  0.668000  0.895710  1.0  -0.0645
  C  C968  1  0.264000  0.220400  0.363200  1.0  0.3379
  C  C969  1  0.259950  0.197820  0.395640  1.0  -0.0595
  C  C970  1  0.280480  0.205960  0.427100  1.0  -0.0262
  C  C971  1  0.276790  0.184300  0.458560  1.0  -0.0445
  C  C972  1  0.252580  0.154470  0.458630  1.0  -0.3418
  C  C973  1  0.232050  0.146330  0.427200  1.0  -0.0123
  C  C974  1  0.235740  0.168000  0.395710  1.0  -0.0645
  C  C975  1  0.736000  0.279600  0.363200  1.0  0.3391
  C  C976  1  0.740050  0.302180  0.395640  1.0  -0.0608
  C  C977  1  0.719520  0.294040  0.427100  1.0  -0.0261
  C  C978  1  0.723210  0.315700  0.458560  1.0  -0.0436
  C  C979  1  0.747420  0.345530  0.458630  1.0  -0.3417
  C  C980  1  0.767950  0.353670  0.427200  1.0  -0.0149
  C  C981  1  0.764260  0.332000  0.395710  1.0  -0.0674
  C  C982  1  0.236000  0.779600  0.863200  1.0  0.3391
  C  C983  1  0.240050  0.802180  0.895640  1.0  -0.0608
  C  C984  1  0.219520  0.794040  0.927100  1.0  -0.0261
  C  C985  1  0.223210  0.815700  0.958560  1.0  -0.0436
  C  C986  1  0.247420  0.845530  0.958630  1.0  -0.3417
  C  C987  1  0.267950  0.853670  0.927200  1.0  -0.0149
  C  C988  1  0.264260  0.832000  0.895710  1.0  -0.0674
  C  C989  1  0.264000  0.779600  0.136800  1.0  0.3375
  C  C990  1  0.259950  0.802180  0.104360  1.0  -0.0608
  C  C991  1  0.280480  0.794040  0.072900  1.0  -0.0274
  C  C992  1  0.276790  0.815700  0.041440  1.0  -0.0443
  C  C993  1  0.252580  0.845530  0.041370  1.0  -0.3432
  C  C994  1  0.232050  0.853670  0.072800  1.0  -0.0149
  C  C995  1  0.235740  0.832000  0.104290  1.0  -0.0653
  C  C996  1  0.764000  0.279600  0.636800  1.0  0.3375
  C  C997  1  0.759950  0.302180  0.604360  1.0  -0.0608
  C  C998  1  0.780480  0.294040  0.572900  1.0  -0.0274
  C  C999  1  0.776790  0.315700  0.541440  1.0  -0.0443
  C  C1000  1  0.752580  0.345530  0.541370  1.0  -0.3432
  C  C1001  1  0.732050  0.353670  0.572800  1.0  -0.0149
  C  C1002  1  0.735740  0.332000  0.604290  1.0  -0.0653
  C  C1003  1  0.236000  0.220400  0.636800  1.0  0.3382
  C  C1004  1  0.240050  0.197820  0.604360  1.0  -0.0601
  C  C1005  1  0.219520  0.205960  0.572900  1.0  -0.0262
  C  C1006  1  0.223210  0.184300  0.541440  1.0  -0.0456
  C  C1007  1  0.247420  0.154470  0.541370  1.0  -0.3428
  C  C1008  1  0.267950  0.146330  0.572800  1.0  -0.0127
  C  C1009  1  0.264260  0.168000  0.604290  1.0  -0.0652
  C  C1010  1  0.736000  0.720400  0.136800  1.0  0.3382
  C  C1011  1  0.740050  0.697820  0.104360  1.0  -0.0601
  C  C1012  1  0.719520  0.705960  0.072900  1.0  -0.0262
  C  C1013  1  0.723210  0.684300  0.041440  1.0  -0.0456
  C  C1014  1  0.747420  0.654470  0.041370  1.0  -0.3428
  C  C1015  1  0.767950  0.646330  0.072800  1.0  -0.0127
  C  C1016  1  0.764260  0.668000  0.104290  1.0  -0.0652
  C  C1017  1  0.220400  0.636800  0.236000  1.0  0.337
  C  C1018  1  0.197820  0.604360  0.240050  1.0  -0.0587
  C  C1019  1  0.205960  0.572900  0.219520  1.0  -0.0263
  C  C1020  1  0.184300  0.541440  0.223210  1.0  -0.0426
  C  C1021  1  0.154470  0.541370  0.247420  1.0  -0.3393
  C  C1022  1  0.146330  0.572800  0.267950  1.0  -0.0139
  C  C1023  1  0.168000  0.604290  0.264260  1.0  -0.065
  C  C1024  1  0.720400  0.136800  0.736000  1.0  0.337
  C  C1025  1  0.697820  0.104360  0.740050  1.0  -0.0587
  C  C1026  1  0.705960  0.072900  0.719520  1.0  -0.0263
  C  C1027  1  0.684300  0.041440  0.723210  1.0  -0.0426
  C  C1028  1  0.654470  0.041370  0.747420  1.0  -0.3393
  C  C1029  1  0.646330  0.072800  0.767950  1.0  -0.0139
  C  C1030  1  0.668000  0.104290  0.764260  1.0  -0.065
  C  C1031  1  0.779600  0.136800  0.264000  1.0  0.3378
  C  C1032  1  0.802180  0.104360  0.259950  1.0  -0.0585
  C  C1033  1  0.794040  0.072900  0.280480  1.0  -0.0283
  C  C1034  1  0.815700  0.041440  0.276790  1.0  -0.042
  C  C1035  1  0.845530  0.041370  0.252580  1.0  -0.339
  C  C1036  1  0.853670  0.072800  0.232050  1.0  -0.0161
  C  C1037  1  0.832000  0.104290  0.235740  1.0  -0.0664
  C  C1038  1  0.279600  0.636800  0.764000  1.0  0.3378
  C  C1039  1  0.302180  0.604360  0.759950  1.0  -0.0585
  C  C1040  1  0.294040  0.572900  0.780480  1.0  -0.0283
  C  C1041  1  0.315700  0.541440  0.776790  1.0  -0.042
  C  C1042  1  0.345530  0.541370  0.752580  1.0  -0.339
  C  C1043  1  0.353670  0.572800  0.732050  1.0  -0.0161
  C  C1044  1  0.332000  0.604290  0.735740  1.0  -0.0664
  C  C1045  1  0.279600  0.363200  0.736000  1.0  0.3378
  C  C1046  1  0.302180  0.395640  0.740050  1.0  -0.0591
  C  C1047  1  0.294040  0.427100  0.719520  1.0  -0.0278
  C  C1048  1  0.315700  0.458560  0.723210  1.0  -0.0438
  C  C1049  1  0.345530  0.458630  0.747420  1.0  -0.3387
  C  C1050  1  0.353670  0.427200  0.767950  1.0  -0.0154
  C  C1051  1  0.332000  0.395710  0.764260  1.0  -0.0661
  C  C1052  1  0.779600  0.863200  0.236000  1.0  0.3378
  C  C1053  1  0.802180  0.895640  0.240050  1.0  -0.0591
  C  C1054  1  0.794040  0.927100  0.219520  1.0  -0.0278
  C  C1055  1  0.815700  0.958560  0.223210  1.0  -0.0438
  C  C1056  1  0.845530  0.958630  0.247420  1.0  -0.3387
  C  C1057  1  0.853670  0.927200  0.267950  1.0  -0.0154
  C  C1058  1  0.832000  0.895710  0.264260  1.0  -0.0661
  C  C1059  1  0.720400  0.863200  0.764000  1.0  0.337
  C  C1060  1  0.697820  0.895640  0.759950  1.0  -0.0587
  C  C1061  1  0.705960  0.927100  0.780480  1.0  -0.0261
  C  C1062  1  0.684300  0.958560  0.776790  1.0  -0.042
  C  C1063  1  0.654470  0.958630  0.752580  1.0  -0.3394
  C  C1064  1  0.646330  0.927200  0.732050  1.0  -0.0143
  C  C1065  1  0.668000  0.895710  0.735740  1.0  -0.0658
  C  C1066  1  0.220400  0.363200  0.264000  1.0  0.337
  C  C1067  1  0.197820  0.395640  0.259950  1.0  -0.0587
  C  C1068  1  0.205960  0.427100  0.280480  1.0  -0.0261
  C  C1069  1  0.184300  0.458560  0.276790  1.0  -0.042
  C  C1070  1  0.154470  0.458630  0.252580  1.0  -0.3394
  C  C1071  1  0.146330  0.427200  0.232050  1.0  -0.0143
  C  C1072  1  0.168000  0.395710  0.235740  1.0  -0.0658
  C  C1073  1  0.136800  0.264000  0.779600  1.0  0.338
  C  C1074  1  0.104360  0.259950  0.802180  1.0  -0.0586
  C  C1075  1  0.072900  0.280480  0.794040  1.0  -0.0271
  C  C1076  1  0.041440  0.276790  0.815700  1.0  -0.0454
  C  C1077  1  0.041370  0.252580  0.845530  1.0  -0.3456
  C  C1078  1  0.072800  0.232050  0.853670  1.0  -0.0092
  C  C1079  1  0.104290  0.235740  0.832000  1.0  -0.0634
  C  C1080  1  0.636800  0.764000  0.279600  1.0  0.338
  C  C1081  1  0.604360  0.759950  0.302180  1.0  -0.0586
  C  C1082  1  0.572900  0.780480  0.294040  1.0  -0.0271
  C  C1083  1  0.541440  0.776790  0.315700  1.0  -0.0454
  C  C1084  1  0.541370  0.752580  0.345530  1.0  -0.3456
  C  C1085  1  0.572800  0.732050  0.353670  1.0  -0.0092
  C  C1086  1  0.604290  0.735740  0.332000  1.0  -0.0634
  C  C1087  1  0.636800  0.236000  0.220400  1.0  0.3374
  C  C1088  1  0.604360  0.240050  0.197820  1.0  -0.0588
  C  C1089  1  0.572900  0.219520  0.205960  1.0  -0.0277
  C  C1090  1  0.541440  0.223210  0.184300  1.0  -0.044
  C  C1091  1  0.541370  0.247420  0.154470  1.0  -0.3457
  C  C1092  1  0.572800  0.267950  0.146330  1.0  -0.0106
  C  C1093  1  0.604290  0.264260  0.168000  1.0  -0.0649
  C  C1094  1  0.136800  0.736000  0.720400  1.0  0.3374
  C  C1095  1  0.104360  0.740050  0.697820  1.0  -0.0588
  C  C1096  1  0.072900  0.719520  0.705960  1.0  -0.0277
  C  C1097  1  0.041440  0.723210  0.684300  1.0  -0.044
  C  C1098  1  0.041370  0.747420  0.654470  1.0  -0.3457
  C  C1099  1  0.072800  0.767950  0.646330  1.0  -0.0106
  C  C1100  1  0.104290  0.764260  0.668000  1.0  -0.0649
  C  C1101  1  0.863200  0.764000  0.720400  1.0  0.338
  C  C1102  1  0.895640  0.759950  0.697820  1.0  -0.0584
  C  C1103  1  0.927100  0.780480  0.705960  1.0  -0.028
  C  C1104  1  0.958560  0.776790  0.684300  1.0  -0.0455
  C  C1105  1  0.958630  0.752580  0.654470  1.0  -0.3444
  C  C1106  1  0.927200  0.732050  0.646330  1.0  -0.0094
  C  C1107  1  0.895710  0.735740  0.668000  1.0  -0.0657
  C  C1108  1  0.363200  0.264000  0.220400  1.0  0.338
  C  C1109  1  0.395640  0.259950  0.197820  1.0  -0.0584
  C  C1110  1  0.427100  0.280480  0.205960  1.0  -0.028
  C  C1111  1  0.458560  0.276790  0.184300  1.0  -0.0455
  C  C1112  1  0.458630  0.252580  0.154470  1.0  -0.3444
  C  C1113  1  0.427200  0.232050  0.146330  1.0  -0.0094
  C  C1114  1  0.395710  0.235740  0.168000  1.0  -0.0657
  C  C1115  1  0.363200  0.736000  0.279600  1.0  0.3385
  C  C1116  1  0.395640  0.740050  0.302180  1.0  -0.0591
  C  C1117  1  0.427100  0.719520  0.294040  1.0  -0.0269
  C  C1118  1  0.458560  0.723210  0.315700  1.0  -0.0464
  C  C1119  1  0.458630  0.747420  0.345530  1.0  -0.3433
  C  C1120  1  0.427200  0.767950  0.353670  1.0  -0.0116
  C  C1121  1  0.395710  0.764260  0.332000  1.0  -0.0671
  C  C1122  1  0.863200  0.236000  0.779600  1.0  0.3385
  C  C1123  1  0.895640  0.240050  0.802180  1.0  -0.0591
  C  C1124  1  0.927100  0.219520  0.794040  1.0  -0.0269
  C  C1125  1  0.958560  0.223210  0.815700  1.0  -0.0464
  C  C1126  1  0.958630  0.247420  0.845530  1.0  -0.3433
  C  C1127  1  0.927200  0.267950  0.853670  1.0  -0.0116
  C  C1128  1  0.895710  0.264260  0.832000  1.0  -0.0671
  N  N1129  1  0.985900  0.466700  0.077600  1.0  -0.1611
  N  N1130  1  0.008100  0.489300  0.058500  1.0  -0.002
  N  N1131  1  0.035500  0.500600  0.079800  1.0  -0.2302
  N  N1132  1  0.999300  0.465300  0.112800  1.0  -0.3158
  N  N1133  1  0.485900  0.966700  0.577600  1.0  -0.1611
  N  N1134  1  0.508100  0.989300  0.558500  1.0  -0.002
  N  N1135  1  0.535500  0.000600  0.579800  1.0  -0.2301
  N  N1136  1  0.499300  0.965300  0.612800  1.0  -0.3158
  N  N1137  1  0.514100  0.533300  0.577600  1.0  -0.1615
  N  N1138  1  0.491900  0.510700  0.558500  1.0  -0.0017
  N  N1139  1  0.464500  0.499400  0.579800  1.0  -0.2352
  N  N1140  1  0.500700  0.534700  0.612800  1.0  -0.3118
  N  N1141  1  0.014100  0.033300  0.077600  1.0  -0.1615
  N  N1142  1  0.991900  0.010700  0.058500  1.0  -0.0017
  N  N1143  1  0.964500  0.999400  0.079800  1.0  -0.2357
  N  N1144  1  0.000700  0.034700  0.112800  1.0  -0.3118
  N  N1145  1  0.014100  0.966700  0.422400  1.0  -0.1616
  N  N1146  1  0.991900  0.989300  0.441500  1.0  -0.0028
  N  N1147  1  0.964500  0.000600  0.420200  1.0  -0.2329
  N  N1148  1  0.000700  0.965300  0.387200  1.0  -0.3165
  N  N1149  1  0.514100  0.466700  0.922400  1.0  -0.1616
  N  N1150  1  0.491900  0.489300  0.941500  1.0  -0.0028
  N  N1151  1  0.464500  0.500600  0.920200  1.0  -0.2349
  N  N1152  1  0.500700  0.465300  0.887200  1.0  -0.3165
  N  N1153  1  0.485900  0.033300  0.922400  1.0  -0.1635
  N  N1154  1  0.508100  0.010700  0.941500  1.0  -0.0029
  N  N1155  1  0.535500  0.999400  0.920200  1.0  -0.2257
  N  N1156  1  0.499300  0.034700  0.887200  1.0  -0.3172
  N  N1157  1  0.985900  0.533300  0.422400  1.0  -0.1635
  N  N1158  1  0.008100  0.510700  0.441500  1.0  -0.0029
  N  N1159  1  0.035500  0.499400  0.420200  1.0  -0.2258
  N  N1160  1  0.999300  0.534700  0.387200  1.0  -0.3173
  N  N1161  1  0.077600  0.985900  0.466700  1.0  -0.1617
  N  N1162  1  0.058500  0.008100  0.489300  1.0  0.0017
  N  N1163  1  0.079800  0.035500  0.500600  1.0  -0.23
  N  N1164  1  0.112800  0.999300  0.465300  1.0  -0.3175
  N  N1165  1  0.577600  0.485900  0.966700  1.0  -0.1617
  N  N1166  1  0.558500  0.508100  0.989300  1.0  0.0017
  N  N1167  1  0.579800  0.535500  0.000600  1.0  -0.2299
  N  N1168  1  0.612800  0.499300  0.965300  1.0  -0.3175
  N  N1169  1  0.577600  0.514100  0.533300  1.0  -0.1613
  N  N1170  1  0.558500  0.491900  0.510700  1.0  0.002
  N  N1171  1  0.579800  0.464500  0.499400  1.0  -0.2355
  N  N1172  1  0.612800  0.500700  0.534700  1.0  -0.3133
  N  N1173  1  0.077600  0.014100  0.033300  1.0  -0.1613
  N  N1174  1  0.058500  0.991900  0.010700  1.0  0.002
  N  N1175  1  0.079800  0.964500  0.999400  1.0  -0.2343
  N  N1176  1  0.112800  0.000700  0.034700  1.0  -0.3132
  N  N1177  1  0.422400  0.014100  0.966700  1.0  -0.1611
  N  N1178  1  0.441500  0.991900  0.989300  1.0  0.0017
  N  N1179  1  0.420200  0.964500  0.000600  1.0  -0.2317
  N  N1180  1  0.387200  0.000700  0.965300  1.0  -0.3147
  N  N1181  1  0.922400  0.514100  0.466700  1.0  -0.1611
  N  N1182  1  0.941500  0.491900  0.489300  1.0  0.0017
  N  N1183  1  0.920200  0.464500  0.500600  1.0  -0.2335
  N  N1184  1  0.887200  0.500700  0.465300  1.0  -0.3147
  N  N1185  1  0.922400  0.485900  0.033300  1.0  -0.1601
  N  N1186  1  0.941500  0.508100  0.010700  1.0  0.002
  N  N1187  1  0.920200  0.535500  0.999400  1.0  -0.2297
  N  N1188  1  0.887200  0.499300  0.034700  1.0  -0.3161
  N  N1189  1  0.422400  0.985900  0.533300  1.0  -0.1601
  N  N1190  1  0.441500  0.008100  0.510700  1.0  0.002
  N  N1191  1  0.420200  0.035500  0.499400  1.0  -0.2299
  N  N1192  1  0.387200  0.999300  0.534700  1.0  -0.3176
  N  N1193  1  0.466700  0.077600  0.985900  1.0  -0.164
  N  N1194  1  0.489300  0.058500  0.008100  1.0  0.0007
  N  N1195  1  0.500600  0.079800  0.035500  1.0  -0.2304
  N  N1196  1  0.465300  0.112800  0.999300  1.0  -0.3157
  N  N1197  1  0.966700  0.577600  0.485900  1.0  -0.164
  N  N1198  1  0.989300  0.558500  0.508100  1.0  0.0007
  N  N1199  1  0.000600  0.579800  0.535500  1.0  -0.2303
  N  N1200  1  0.965300  0.612800  0.499300  1.0  -0.3157
  N  N1201  1  0.533300  0.577600  0.514100  1.0  -0.1591
  N  N1202  1  0.510700  0.558500  0.491900  1.0  0.0003
  N  N1203  1  0.499400  0.579800  0.464500  1.0  -0.2354
  N  N1204  1  0.534700  0.612800  0.500700  1.0  -0.3116
  N  N1205  1  0.033300  0.077600  0.014100  1.0  -0.1591
  N  N1206  1  0.010700  0.058500  0.991900  1.0  0.0003
  N  N1207  1  0.999400  0.079800  0.964500  1.0  -0.2357
  N  N1208  1  0.034700  0.112800  0.000700  1.0  -0.3128
  N  N1209  1  0.966700  0.422400  0.014100  1.0  -0.1625
  N  N1210  1  0.989300  0.441500  0.991900  1.0  -0.0004
  N  N1211  1  0.000600  0.420200  0.964500  1.0  -0.229
  N  N1212  1  0.965300  0.387200  0.000700  1.0  -0.3154
  N  N1213  1  0.466700  0.922400  0.514100  1.0  -0.1625
  N  N1214  1  0.489300  0.941500  0.491900  1.0  -0.0004
  N  N1215  1  0.500600  0.920200  0.464500  1.0  -0.229
  N  N1216  1  0.465300  0.887200  0.500700  1.0  -0.3154
  N  N1217  1  0.033300  0.922400  0.485900  1.0  -0.1621
  N  N1218  1  0.010700  0.941500  0.508100  1.0  -0.0008
  N  N1219  1  0.999400  0.920200  0.535500  1.0  -0.2329
  N  N1220  1  0.034700  0.887200  0.499300  1.0  -0.3172
  N  N1221  1  0.533300  0.422400  0.985900  1.0  -0.1621
  N  N1222  1  0.510700  0.441500  0.008100  1.0  -0.0008
  N  N1223  1  0.499400  0.420200  0.035500  1.0  -0.2352
  N  N1224  1  0.534700  0.387200  0.999300  1.0  -0.315
  N  N1225  1  0.216700  0.235900  0.172400  1.0  -0.1626
  N  N1226  1  0.239300  0.258100  0.191500  1.0  -0.0016
  N  N1227  1  0.250600  0.285500  0.170200  1.0  -0.2275
  N  N1228  1  0.215300  0.249300  0.137200  1.0  -0.3178
  N  N1229  1  0.716700  0.735900  0.672400  1.0  -0.1626
  N  N1230  1  0.739300  0.758100  0.691500  1.0  -0.0016
  N  N1231  1  0.750600  0.785500  0.670200  1.0  -0.2275
  N  N1232  1  0.715300  0.749300  0.637200  1.0  -0.3178
  N  N1233  1  0.283300  0.764100  0.672400  1.0  -0.1613
  N  N1234  1  0.260700  0.741900  0.691500  1.0  -0.0023
  N  N1235  1  0.249400  0.714500  0.670200  1.0  -0.2346
  N  N1236  1  0.284700  0.750700  0.637200  1.0  -0.3168
  N  N1237  1  0.783300  0.264100  0.172400  1.0  -0.1613
  N  N1238  1  0.760700  0.241900  0.191500  1.0  -0.0023
  N  N1239  1  0.749400  0.214500  0.170200  1.0  -0.2346
  N  N1240  1  0.784700  0.250700  0.137200  1.0  -0.3168
  N  N1241  1  0.716700  0.264100  0.827600  1.0  -0.1618
  N  N1242  1  0.739300  0.241900  0.808500  1.0  -0.0013
  N  N1243  1  0.750600  0.214500  0.829800  1.0  -0.2306
  N  N1244  1  0.715300  0.250700  0.862800  1.0  -0.3139
  N  N1245  1  0.216700  0.764100  0.327600  1.0  -0.1618
  N  N1246  1  0.239300  0.741900  0.308500  1.0  -0.0013
  N  N1247  1  0.250600  0.714500  0.329800  1.0  -0.2306
  N  N1248  1  0.215300  0.750700  0.362800  1.0  -0.3139
  N  N1249  1  0.783300  0.735900  0.327600  1.0  -0.1601
  N  N1250  1  0.760700  0.758100  0.308500  1.0  -0.0009
  N  N1251  1  0.749400  0.785500  0.329800  1.0  -0.2349
  N  N1252  1  0.784700  0.749300  0.362800  1.0  -0.3144
  N  N1253  1  0.283300  0.235900  0.827600  1.0  -0.1601
  N  N1254  1  0.260700  0.258100  0.808500  1.0  -0.0009
  N  N1255  1  0.249400  0.285500  0.829800  1.0  -0.2349
  N  N1256  1  0.284700  0.249300  0.862800  1.0  -0.3144
  N  N1257  1  0.735900  0.327600  0.783300  1.0  -0.1612
  N  N1258  1  0.758100  0.308500  0.760700  1.0  0.0003
  N  N1259  1  0.785500  0.329800  0.749400  1.0  -0.2304
  N  N1260  1  0.749300  0.362800  0.784700  1.0  -0.3153
  N  N1261  1  0.235900  0.827600  0.283300  1.0  -0.1612
  N  N1262  1  0.258100  0.808500  0.260700  1.0  0.0003
  N  N1263  1  0.285500  0.829800  0.249400  1.0  -0.2304
  N  N1264  1  0.249300  0.862800  0.284700  1.0  -0.3153
  N  N1265  1  0.264100  0.827600  0.716700  1.0  -0.1607
  N  N1266  1  0.241900  0.808500  0.739300  1.0  0.0003
  N  N1267  1  0.214500  0.829800  0.750600  1.0  -0.2356
  N  N1268  1  0.250700  0.862800  0.715300  1.0  -0.3111
  N  N1269  1  0.764100  0.327600  0.216700  1.0  -0.1607
  N  N1270  1  0.741900  0.308500  0.239300  1.0  0.0003
  N  N1271  1  0.714500  0.329800  0.250600  1.0  -0.2356
  N  N1272  1  0.750700  0.362800  0.215300  1.0  -0.3111
  N  N1273  1  0.764100  0.672400  0.283300  1.0  -0.1607
  N  N1274  1  0.741900  0.691500  0.260700  1.0  -0.0003
  N  N1275  1  0.714500  0.670200  0.249400  1.0  -0.2354
  N  N1276  1  0.750700  0.637200  0.284700  1.0  -0.3121
  N  N1277  1  0.264100  0.172400  0.783300  1.0  -0.1607
  N  N1278  1  0.241900  0.191500  0.760700  1.0  -0.0003
  N  N1279  1  0.214500  0.170200  0.749400  1.0  -0.2354
  N  N1280  1  0.250700  0.137200  0.784700  1.0  -0.3121
  N  N1281  1  0.235900  0.172400  0.216700  1.0  -0.1615
  N  N1282  1  0.258100  0.191500  0.239300  1.0  -0.0009
  N  N1283  1  0.285500  0.170200  0.250600  1.0  -0.2277
  N  N1284  1  0.249300  0.137200  0.215300  1.0  -0.3145
  N  N1285  1  0.735900  0.672400  0.716700  1.0  -0.1615
  N  N1286  1  0.758100  0.691500  0.739300  1.0  -0.0009
  N  N1287  1  0.785500  0.670200  0.750600  1.0  -0.2277
  N  N1288  1  0.749300  0.637200  0.715300  1.0  -0.3145
  N  N1289  1  0.827600  0.716700  0.264100  1.0  -0.1617
  N  N1290  1  0.808500  0.739300  0.241900  1.0  0.0009
  N  N1291  1  0.829800  0.750600  0.214500  1.0  -0.2301
  N  N1292  1  0.862800  0.715300  0.250700  1.0  -0.3122
  N  N1293  1  0.327600  0.216700  0.764100  1.0  -0.1617
  N  N1294  1  0.308500  0.239300  0.741900  1.0  0.0009
  N  N1295  1  0.329800  0.250600  0.714500  1.0  -0.2301
  N  N1296  1  0.362800  0.215300  0.750700  1.0  -0.3122
  N  N1297  1  0.327600  0.783300  0.735900  1.0  -0.1637
  N  N1298  1  0.308500  0.760700  0.758100  1.0  0.001
  N  N1299  1  0.329800  0.749400  0.785500  1.0  -0.2299
  N  N1300  1  0.362800  0.784700  0.749300  1.0  -0.3147
  N  N1301  1  0.827600  0.283300  0.235900  1.0  -0.1637
  N  N1302  1  0.808500  0.260700  0.258100  1.0  0.001
  N  N1303  1  0.829800  0.249400  0.285500  1.0  -0.2299
  N  N1304  1  0.862800  0.284700  0.249300  1.0  -0.3147
  N  N1305  1  0.172400  0.216700  0.235900  1.0  -0.1624
  N  N1306  1  0.191500  0.239300  0.258100  1.0  0.001
  N  N1307  1  0.170200  0.250600  0.285500  1.0  -0.2258
  N  N1308  1  0.137200  0.215300  0.249300  1.0  -0.3156
  N  N1309  1  0.672400  0.716700  0.735900  1.0  -0.1624
  N  N1310  1  0.691500  0.739300  0.758100  1.0  0.001
  N  N1311  1  0.670200  0.750600  0.785500  1.0  -0.2258
  N  N1312  1  0.637200  0.715300  0.749300  1.0  -0.3156
  N  N1313  1  0.672400  0.283300  0.764100  1.0  -0.1611
  N  N1314  1  0.691500  0.260700  0.741900  1.0  0.0013
  N  N1315  1  0.670200  0.249400  0.714500  1.0  -0.2339
  N  N1316  1  0.637200  0.284700  0.750700  1.0  -0.3126
  N  N1317  1  0.172400  0.783300  0.264100  1.0  -0.1611
  N  N1318  1  0.191500  0.760700  0.241900  1.0  0.0013
  N  N1319  1  0.170200  0.749400  0.214500  1.0  -0.2339
  N  N1320  1  0.137200  0.784700  0.250700  1.0  -0.3126
  N  N1321  1  0.014100  0.533300  0.922400  1.0  -0.1626
  N  N1322  1  0.991900  0.510700  0.941500  1.0  -0.0029
  N  N1323  1  0.964500  0.499400  0.920200  1.0  -0.2347
  N  N1324  1  0.000700  0.534700  0.887200  1.0  -0.3152
  N  N1325  1  0.514100  0.033300  0.422400  1.0  -0.1626
  N  N1326  1  0.491900  0.010700  0.441500  1.0  -0.0029
  N  N1327  1  0.464500  0.999400  0.420200  1.0  -0.2347
  N  N1328  1  0.500700  0.034700  0.387200  1.0  -0.3155
  N  N1329  1  0.485900  0.466700  0.422400  1.0  -0.1621
  N  N1330  1  0.508100  0.489300  0.441500  1.0  -0.0028
  N  N1331  1  0.535500  0.500600  0.420200  1.0  -0.227
  N  N1332  1  0.499300  0.465300  0.387200  1.0  -0.3164
  N  N1333  1  0.985900  0.966700  0.922400  1.0  -0.1621
  N  N1334  1  0.008100  0.989300  0.941500  1.0  -0.0028
  N  N1335  1  0.035500  0.000600  0.920200  1.0  -0.2265
  N  N1336  1  0.999300  0.965300  0.887200  1.0  -0.3164
  N  N1337  1  0.985900  0.033300  0.577600  1.0  -0.1623
  N  N1338  1  0.008100  0.010700  0.558500  1.0  -0.0017
  N  N1339  1  0.035500  0.999400  0.579800  1.0  -0.2304
  N  N1340  1  0.999300  0.034700  0.612800  1.0  -0.3162
  N  N1341  1  0.485900  0.533300  0.077600  1.0  -0.1623
  N  N1342  1  0.508100  0.510700  0.058500  1.0  -0.0017
  N  N1343  1  0.535500  0.499400  0.079800  1.0  -0.2289
  N  N1344  1  0.499300  0.534700  0.112800  1.0  -0.3158
  N  N1345  1  0.514100  0.966700  0.077600  1.0  -0.1607
  N  N1346  1  0.491900  0.989300  0.058500  1.0  -0.002
  N  N1347  1  0.464500  0.000600  0.079800  1.0  -0.2357
  N  N1348  1  0.500700  0.965300  0.112800  1.0  -0.3121
  N  N1349  1  0.014100  0.466700  0.577600  1.0  -0.1607
  N  N1350  1  0.991900  0.489300  0.558500  1.0  -0.002
  N  N1351  1  0.964500  0.500600  0.579800  1.0  -0.2354
  N  N1352  1  0.000700  0.465300  0.612800  1.0  -0.3121
  N  N1353  1  0.922400  0.014100  0.533300  1.0  -0.161
  N  N1354  1  0.941500  0.991900  0.510700  1.0  0.0018
  N  N1355  1  0.920200  0.964500  0.499400  1.0  -0.234
  N  N1356  1  0.887200  0.000700  0.534700  1.0  -0.3127
  N  N1357  1  0.422400  0.514100  0.033300  1.0  -0.161
  N  N1358  1  0.441500  0.491900  0.010700  1.0  0.0018
  N  N1359  1  0.420200  0.464500  0.999400  1.0  -0.234
  N  N1360  1  0.387200  0.500700  0.034700  1.0  -0.3156
  N  N1361  1  0.422400  0.485900  0.466700  1.0  -0.1603
  N  N1362  1  0.441500  0.508100  0.489300  1.0  0.0016
  N  N1363  1  0.420200  0.535500  0.500600  1.0  -0.2265
  N  N1364  1  0.387200  0.499300  0.465300  1.0  -0.3164
  N  N1365  1  0.922400  0.985900  0.966700  1.0  -0.1603
  N  N1366  1  0.941500  0.008100  0.989300  1.0  0.0016
  N  N1367  1  0.920200  0.035500  0.000600  1.0  -0.2294
  N  N1368  1  0.887200  0.999300  0.965300  1.0  -0.3164
  N  N1369  1  0.577600  0.985900  0.033300  1.0  -0.1618
  N  N1370  1  0.558500  0.008100  0.010700  1.0  0.0023
  N  N1371  1  0.579800  0.035500  0.999400  1.0  -0.2311
  N  N1372  1  0.612800  0.999300  0.034700  1.0  -0.3163
  N  N1373  1  0.077600  0.485900  0.533300  1.0  -0.1618
  N  N1374  1  0.058500  0.508100  0.510700  1.0  0.0023
  N  N1375  1  0.079800  0.535500  0.499400  1.0  -0.2297
  N  N1376  1  0.112800  0.499300  0.534700  1.0  -0.3161
  N  N1377  1  0.077600  0.514100  0.966700  1.0  -0.1613
  N  N1378  1  0.058500  0.491900  0.989300  1.0  0.0015
  N  N1379  1  0.079800  0.464500  0.000600  1.0  -0.2347
  N  N1380  1  0.112800  0.500700  0.965300  1.0  -0.3144
  N  N1381  1  0.577600  0.014100  0.466700  1.0  -0.1613
  N  N1382  1  0.558500  0.991900  0.489300  1.0  0.0015
  N  N1383  1  0.579800  0.964500  0.500600  1.0  -0.2324
  N  N1384  1  0.612800  0.000700  0.465300  1.0  -0.3144
  N  N1385  1  0.533300  0.922400  0.014100  1.0  -0.1601
  N  N1386  1  0.510700  0.941500  0.991900  1.0  -0.0008
  N  N1387  1  0.499400  0.920200  0.964500  1.0  -0.2352
  N  N1388  1  0.534700  0.887200  0.000700  1.0  -0.3125
  N  N1389  1  0.033300  0.422400  0.514100  1.0  -0.1601
  N  N1390  1  0.010700  0.441500  0.491900  1.0  -0.0008
  N  N1391  1  0.999400  0.420200  0.464500  1.0  -0.2352
  N  N1392  1  0.034700  0.387200  0.500700  1.0  -0.3132
  N  N1393  1  0.466700  0.422400  0.485900  1.0  -0.1639
  N  N1394  1  0.489300  0.441500  0.508100  1.0  -0.0004
  N  N1395  1  0.500600  0.420200  0.535500  1.0  -0.2279
  N  N1396  1  0.465300  0.387200  0.499300  1.0  -0.3147
  N  N1397  1  0.966700  0.922400  0.985900  1.0  -0.1639
  N  N1398  1  0.989300  0.941500  0.008100  1.0  -0.0004
  N  N1399  1  0.000600  0.920200  0.035500  1.0  -0.2278
  N  N1400  1  0.965300  0.887200  0.999300  1.0  -0.3147
  N  N1401  1  0.033300  0.577600  0.985900  1.0  -0.1624
  N  N1402  1  0.010700  0.558500  0.008100  1.0  0.0002
  N  N1403  1  0.999400  0.579800  0.035500  1.0  -0.2343
  N  N1404  1  0.034700  0.612800  0.999300  1.0  -0.3144
  N  N1405  1  0.533300  0.077600  0.485900  1.0  -0.1624
  N  N1406  1  0.510700  0.058500  0.508100  1.0  0.0002
  N  N1407  1  0.499400  0.079800  0.535500  1.0  -0.2346
  N  N1408  1  0.534700  0.112800  0.499300  1.0  -0.3143
  N  N1409  1  0.966700  0.077600  0.514100  1.0  -0.1617
  N  N1410  1  0.989300  0.058500  0.491900  1.0  0.0007
  N  N1411  1  0.000600  0.079800  0.464500  1.0  -0.2338
  N  N1412  1  0.965300  0.112800  0.500700  1.0  -0.3154
  N  N1413  1  0.466700  0.577600  0.014100  1.0  -0.1617
  N  N1414  1  0.489300  0.558500  0.991900  1.0  0.0007
  N  N1415  1  0.500600  0.579800  0.964500  1.0  -0.232
  N  N1416  1  0.465300  0.612800  0.000700  1.0  -0.3154
  N  N1417  1  0.783300  0.764100  0.827600  1.0  -0.1603
  N  N1418  1  0.760700  0.741900  0.808500  1.0  -0.0013
  N  N1419  1  0.749400  0.714500  0.829800  1.0  -0.2349
  N  N1420  1  0.784700  0.750700  0.862800  1.0  -0.3126
  N  N1421  1  0.283300  0.264100  0.327600  1.0  -0.1603
  N  N1422  1  0.260700  0.241900  0.308500  1.0  -0.0013
  N  N1423  1  0.249400  0.214500  0.329800  1.0  -0.2349
  N  N1424  1  0.284700  0.250700  0.362800  1.0  -0.3126
  N  N1425  1  0.716700  0.235900  0.327600  1.0  -0.1615
  N  N1426  1  0.739300  0.258100  0.308500  1.0  -0.0007
  N  N1427  1  0.750600  0.285500  0.329800  1.0  -0.2283
  N  N1428  1  0.715300  0.249300  0.362800  1.0  -0.3174
  N  N1429  1  0.216700  0.735900  0.827600  1.0  -0.1615
  N  N1430  1  0.239300  0.758100  0.808500  1.0  -0.0007
  N  N1431  1  0.250600  0.785500  0.829800  1.0  -0.2283
  N  N1432  1  0.215300  0.749300  0.862800  1.0  -0.3174
  N  N1433  1  0.283300  0.735900  0.172400  1.0  -0.1607
  N  N1434  1  0.260700  0.758100  0.191500  1.0  -0.0019
  N  N1435  1  0.249400  0.785500  0.170200  1.0  -0.2295
  N  N1436  1  0.284700  0.749300  0.137200  1.0  -0.3193
  N  N1437  1  0.783300  0.235900  0.672400  1.0  -0.1607
  N  N1438  1  0.760700  0.258100  0.691500  1.0  -0.0019
  N  N1439  1  0.749400  0.285500  0.670200  1.0  -0.2295
  N  N1440  1  0.784700  0.249300  0.637200  1.0  -0.3193
  N  N1441  1  0.216700  0.264100  0.672400  1.0  -0.1632
  N  N1442  1  0.239300  0.241900  0.691500  1.0  -0.0018
  N  N1443  1  0.250600  0.214500  0.670200  1.0  -0.2273
  N  N1444  1  0.215300  0.250700  0.637200  1.0  -0.319
  N  N1445  1  0.716700  0.764100  0.172400  1.0  -0.1632
  N  N1446  1  0.739300  0.741900  0.191500  1.0  -0.0018
  N  N1447  1  0.750600  0.714500  0.170200  1.0  -0.2273
  N  N1448  1  0.715300  0.750700  0.137200  1.0  -0.319
  N  N1449  1  0.264100  0.672400  0.216700  1.0  -0.1609
  N  N1450  1  0.241900  0.691500  0.239300  1.0  -0.0009
  N  N1451  1  0.214500  0.670200  0.250600  1.0  -0.234
  N  N1452  1  0.250700  0.637200  0.215300  1.0  -0.314
  N  N1453  1  0.764100  0.172400  0.716700  1.0  -0.1609
  N  N1454  1  0.741900  0.191500  0.739300  1.0  -0.0009
  N  N1455  1  0.714500  0.170200  0.750600  1.0  -0.234
  N  N1456  1  0.750700  0.137200  0.715300  1.0  -0.314
  N  N1457  1  0.735900  0.172400  0.283300  1.0  -0.1615
  N  N1458  1  0.758100  0.191500  0.260700  1.0  -0.0003
  N  N1459  1  0.785500  0.170200  0.249400  1.0  -0.2285
  N  N1460  1  0.749300  0.137200  0.284700  1.0  -0.3138
  N  N1461  1  0.235900  0.672400  0.783300  1.0  -0.1615
  N  N1462  1  0.258100  0.691500  0.760700  1.0  -0.0003
  N  N1463  1  0.285500  0.670200  0.749400  1.0  -0.2285
  N  N1464  1  0.249300  0.637200  0.784700  1.0  -0.3138
  N  N1465  1  0.235900  0.327600  0.716700  1.0  -0.1614
  N  N1466  1  0.258100  0.308500  0.739300  1.0  0.0003
  N  N1467  1  0.285500  0.329800  0.750600  1.0  -0.227
  N  N1468  1  0.249300  0.362800  0.715300  1.0  -0.3166
  N  N1469  1  0.735900  0.827600  0.216700  1.0  -0.1614
  N  N1470  1  0.758100  0.808500  0.239300  1.0  0.0003
  N  N1471  1  0.785500  0.829800  0.250600  1.0  -0.227
  N  N1472  1  0.749300  0.862800  0.215300  1.0  -0.3166
  N  N1473  1  0.764100  0.827600  0.783300  1.0  -0.1599
  N  N1474  1  0.741900  0.808500  0.760700  1.0  0.0005
  N  N1475  1  0.714500  0.829800  0.749400  1.0  -0.2354
  N  N1476  1  0.750700  0.862800  0.784700  1.0  -0.3111
  N  N1477  1  0.264100  0.327600  0.283300  1.0  -0.1599
  N  N1478  1  0.241900  0.308500  0.260700  1.0  0.0005
  N  N1479  1  0.214500  0.329800  0.249400  1.0  -0.2354
  N  N1480  1  0.250700  0.362800  0.284700  1.0  -0.3111
  N  N1481  1  0.172400  0.283300  0.735900  1.0  -0.1629
  N  N1482  1  0.191500  0.260700  0.758100  1.0  0.0012
  N  N1483  1  0.170200  0.249400  0.785500  1.0  -0.2279
  N  N1484  1  0.137200  0.284700  0.749300  1.0  -0.3154
  N  N1485  1  0.672400  0.783300  0.235900  1.0  -0.1629
  N  N1486  1  0.691500  0.760700  0.258100  1.0  0.0012
  N  N1487  1  0.670200  0.749400  0.285500  1.0  -0.2279
  N  N1488  1  0.637200  0.784700  0.249300  1.0  -0.3154
  N  N1489  1  0.672400  0.216700  0.264100  1.0  -0.1601
  N  N1490  1  0.691500  0.239300  0.241900  1.0  0.0012
  N  N1491  1  0.670200  0.250600  0.214500  1.0  -0.2296
  N  N1492  1  0.637200  0.215300  0.250700  1.0  -0.3154
  N  N1493  1  0.172400  0.716700  0.764100  1.0  -0.1601
  N  N1494  1  0.191500  0.739300  0.741900  1.0  0.0012
  N  N1495  1  0.170200  0.750600  0.714500  1.0  -0.2296
  N  N1496  1  0.137200  0.715300  0.750700  1.0  -0.3154
  N  N1497  1  0.827600  0.783300  0.764100  1.0  -0.162
  N  N1498  1  0.808500  0.760700  0.741900  1.0  0.0009
  N  N1499  1  0.829800  0.749400  0.714500  1.0  -0.2348
  N  N1500  1  0.862800  0.784700  0.750700  1.0  -0.3133
  N  N1501  1  0.327600  0.283300  0.264100  1.0  -0.162
  N  N1502  1  0.308500  0.260700  0.241900  1.0  0.0009
  N  N1503  1  0.329800  0.249400  0.214500  1.0  -0.2348
  N  N1504  1  0.362800  0.284700  0.250700  1.0  -0.3133
  N  N1505  1  0.327600  0.716700  0.235900  1.0  -0.164
  N  N1506  1  0.308500  0.739300  0.258100  1.0  0.001
  N  N1507  1  0.329800  0.750600  0.285500  1.0  -0.2265
  N  N1508  1  0.362800  0.715300  0.249300  1.0  -0.317
  N  N1509  1  0.827600  0.216700  0.735900  1.0  -0.164
  N  N1510  1  0.808500  0.239300  0.758100  1.0  0.001
  N  N1511  1  0.829800  0.250600  0.785500  1.0  -0.2265
  N  N1512  1  0.862800  0.215300  0.749300  1.0  -0.317
