# generated using pymatgen
data_InH20C36(NO2)2
_symmetry_space_group_name_H-M   'P 1'
_cell_length_a   41.98200000
_cell_length_b   21.55880000
_cell_length_c   43.75500000
_cell_angle_alpha   90.00000000
_cell_angle_beta   92.63500000
_cell_angle_gamma   90.00000000
_symmetry_Int_Tables_number   1
_chemical_formula_structural   InH20C36(NO2)2
_chemical_formula_sum   'In32 H640 C1152 N64 O128'
_cell_volume   39559.97074447
_cell_formula_units_Z   32
loop_
 _symmetry_equiv_pos_site_id
 _symmetry_equiv_pos_as_xyz
  1  'x, y, z'
loop_
 _atom_site_type_symbol
 _atom_site_label
 _atom_site_symmetry_multiplicity
 _atom_site_fract_x
 _atom_site_fract_y
 _atom_site_fract_z
 _atom_site_occupancy
 _atom_site_charge
  In  In1  1  0.707490  0.051830  0.504990  1.0  1.4839
  In  In2  1  0.460200  0.740950  0.255950  1.0  1.4275
  In  In3  1  0.207490  0.551830  0.504990  1.0  1.4848
  In  In4  1  0.960200  0.240950  0.255950  1.0  1.4275
  In  In5  1  0.707490  0.948170  0.004990  1.0  1.4849
  In  In6  1  0.460200  0.259050  0.755950  1.0  1.4277
  In  In7  1  0.207490  0.448170  0.004990  1.0  1.4857
  In  In8  1  0.960200  0.759050  0.755950  1.0  1.4277
  In  In9  1  0.457410  0.543750  0.630470  1.0  1.5145
  In  In10  1  0.207360  0.247260  0.381600  1.0  1.4711
  In  In11  1  0.957410  0.043750  0.630470  1.0  1.5145
  In  In12  1  0.707360  0.747260  0.381600  1.0  1.4711
  In  In13  1  0.457410  0.456250  0.130470  1.0  1.5147
  In  In14  1  0.207360  0.752740  0.881600  1.0  1.4709
  In  In15  1  0.957410  0.956250  0.130470  1.0  1.5147
  In  In16  1  0.707360  0.252740  0.881600  1.0  1.4709
  In  In17  1  0.180520  0.955880  0.061470  1.0  1.5271
  In  In18  1  0.934700  0.731040  0.312040  1.0  1.4557
  In  In19  1  0.680520  0.455880  0.061470  1.0  1.5271
  In  In20  1  0.434700  0.231040  0.312040  1.0  1.4557
  In  In21  1  0.180520  0.044120  0.561470  1.0  1.5282
  In  In22  1  0.934700  0.268960  0.812040  1.0  1.4555
  In  In23  1  0.680520  0.544120  0.561470  1.0  1.5288
  In  In24  1  0.434700  0.768960  0.812040  1.0  1.4555
  In  In25  1  0.739330  0.271780  0.159320  1.0  1.4205
  In  In26  1  0.995220  0.448390  0.911320  1.0  1.5025
  In  In27  1  0.239330  0.771780  0.159320  1.0  1.4205
  In  In28  1  0.495220  0.948390  0.911320  1.0  1.5025
  In  In29  1  0.739330  0.728220  0.659320  1.0  1.4207
  In  In30  1  0.995220  0.551610  0.411320  1.0  1.5027
  In  In31  1  0.239330  0.228220  0.659320  1.0  1.4207
  In  In32  1  0.495220  0.051610  0.411320  1.0  1.5027
  H  H33  1  0.565100  0.841600  0.226500  1.0  0.125
  H  H34  1  0.624300  0.838300  0.415800  1.0  0.1068
  H  H35  1  0.659600  0.888600  0.450600  1.0  0.0917
  H  H36  1  0.623300  0.054800  0.423300  1.0  0.1092
  H  H37  1  0.588000  0.004500  0.388600  1.0  0.1084
  H  H38  1  0.347000  0.723800  0.180700  1.0  0.1124
  H  H39  1  0.311200  0.679000  0.144600  1.0  0.1196
  H  H40  1  0.374300  0.540700  0.130800  1.0  0.1186
  H  H41  1  0.410100  0.585400  0.166900  1.0  0.1115
  H  H42  1  0.295900  0.657600  0.096300  1.0  0.112
  H  H43  1  0.258700  0.613200  0.061300  1.0  0.101
  H  H44  1  0.291400  0.441900  0.084600  1.0  0.113
  H  H45  1  0.328700  0.486300  0.119500  1.0  0.1185
  H  H46  1  0.350200  0.656000  0.285000  1.0  0.1211
  H  H47  1  0.349700  0.643300  0.228400  1.0  0.1254
  H  H48  1  0.487100  0.790600  0.369100  1.0  0.1092
  H  H49  1  0.351600  0.771000  0.328200  1.0  0.1108
  H  H50  1  0.317700  0.743800  0.367000  1.0  0.1181
  H  H51  1  0.371900  0.592100  0.386400  1.0  0.1198
  H  H52  1  0.405800  0.619200  0.347500  1.0  0.1222
  H  H53  1  0.547200  0.899300  0.125600  1.0  0.1225
  H  H54  1  0.512400  0.871200  0.163400  1.0  0.1316
  H  H55  1  0.563900  0.714900  0.180400  1.0  0.1069
  H  H56  1  0.598700  0.743000  0.142500  1.0  0.1189
  H  H57  1  0.567700  0.845000  0.284600  1.0  0.1282
  H  H58  1  0.433400  0.695900  0.141600  1.0  0.1071
  H  H59  1  0.433700  0.739800  0.370300  1.0  0.1383
  H  H60  1  0.543500  0.946000  0.380500  1.0  0.1047
  H  H61  1  0.507600  0.898700  0.345300  1.0  0.1097
  H  H62  1  0.572500  0.764100  0.330500  1.0  0.1054
  H  H63  1  0.608400  0.811300  0.365800  1.0  0.1127
  H  H64  1  0.630700  0.962800  0.077000  1.0  0.109
  H  H65  1  0.650100  0.782600  0.059200  1.0  0.1085
  H  H66  1  0.613400  0.751700  0.094800  1.0  0.1228
  H  H67  1  0.593900  0.931900  0.112600  1.0  0.1195
  H  H68  1  0.298500  0.738500  0.409500  1.0  0.1164
  H  H69  1  0.329700  0.560700  0.407500  1.0  0.117
  H  H70  1  0.293400  0.533600  0.444200  1.0  0.1008
  H  H71  1  0.262200  0.711500  0.446200  1.0  0.1178
  H  H72  1  0.485400  0.743400  0.142000  1.0  0.1162
  H  H73  1  0.065100  0.341600  0.226500  1.0  0.125
  H  H74  1  0.124300  0.338300  0.415800  1.0  0.1068
  H  H75  1  0.159600  0.388600  0.450600  1.0  0.0916
  H  H76  1  0.123300  0.554800  0.423300  1.0  0.1092
  H  H77  1  0.088000  0.504500  0.388600  1.0  0.1084
  H  H78  1  0.847000  0.223800  0.180700  1.0  0.1124
  H  H79  1  0.811200  0.179000  0.144600  1.0  0.1196
  H  H80  1  0.874300  0.040700  0.130800  1.0  0.1186
  H  H81  1  0.910100  0.085400  0.166900  1.0  0.1115
  H  H82  1  0.795900  0.157600  0.096300  1.0  0.112
  H  H83  1  0.758700  0.113200  0.061300  1.0  0.101
  H  H84  1  0.791400  0.941900  0.084600  1.0  0.113
  H  H85  1  0.828700  0.986300  0.119500  1.0  0.1185
  H  H86  1  0.850200  0.156000  0.285000  1.0  0.1211
  H  H87  1  0.849700  0.143300  0.228400  1.0  0.1254
  H  H88  1  0.987100  0.290600  0.369100  1.0  0.1092
  H  H89  1  0.851600  0.271000  0.328200  1.0  0.1108
  H  H90  1  0.817700  0.243800  0.367000  1.0  0.1181
  H  H91  1  0.871900  0.092100  0.386400  1.0  0.1198
  H  H92  1  0.905800  0.119200  0.347500  1.0  0.1222
  H  H93  1  0.047200  0.399300  0.125600  1.0  0.1225
  H  H94  1  0.012400  0.371200  0.163400  1.0  0.1316
  H  H95  1  0.063900  0.214900  0.180400  1.0  0.1069
  H  H96  1  0.098700  0.243000  0.142500  1.0  0.1189
  H  H97  1  0.067700  0.345000  0.284600  1.0  0.1282
  H  H98  1  0.933400  0.195900  0.141600  1.0  0.1071
  H  H99  1  0.933700  0.239800  0.370300  1.0  0.1383
  H  H100  1  0.043500  0.446000  0.380500  1.0  0.1047
  H  H101  1  0.007600  0.398700  0.345300  1.0  0.1097
  H  H102  1  0.072500  0.264100  0.330500  1.0  0.1054
  H  H103  1  0.108400  0.311300  0.365800  1.0  0.1127
  H  H104  1  0.130700  0.462800  0.077000  1.0  0.109
  H  H105  1  0.150100  0.282600  0.059200  1.0  0.1085
  H  H106  1  0.113400  0.251700  0.094800  1.0  0.1228
  H  H107  1  0.093900  0.431900  0.112600  1.0  0.1195
  H  H108  1  0.798500  0.238500  0.409500  1.0  0.1164
  H  H109  1  0.829700  0.060700  0.407500  1.0  0.117
  H  H110  1  0.793400  0.033600  0.444200  1.0  0.1008
  H  H111  1  0.762200  0.211500  0.446200  1.0  0.1178
  H  H112  1  0.985400  0.243400  0.142000  1.0  0.1162
  H  H113  1  0.565100  0.158400  0.726500  1.0  0.1243
  H  H114  1  0.624300  0.161700  0.915800  1.0  0.1073
  H  H115  1  0.659600  0.111400  0.950600  1.0  0.0919
  H  H116  1  0.623300  0.945200  0.923300  1.0  0.1089
  H  H117  1  0.588000  0.995500  0.888600  1.0  0.1081
  H  H118  1  0.347000  0.276200  0.680700  1.0  0.1124
  H  H119  1  0.311200  0.321000  0.644600  1.0  0.1195
  H  H120  1  0.374300  0.459300  0.630800  1.0  0.1183
  H  H121  1  0.410100  0.414600  0.666900  1.0  0.1112
  H  H122  1  0.295900  0.342400  0.596300  1.0  0.1111
  H  H123  1  0.258700  0.386800  0.561300  1.0  0.1013
  H  H124  1  0.291400  0.558100  0.584600  1.0  0.114
  H  H125  1  0.328700  0.513700  0.619500  1.0  0.1185
  H  H126  1  0.350200  0.344000  0.785000  1.0  0.1209
  H  H127  1  0.349700  0.356700  0.728400  1.0  0.1256
  H  H128  1  0.487100  0.209400  0.869100  1.0  0.1092
  H  H129  1  0.351600  0.229000  0.828200  1.0  0.1107
  H  H130  1  0.317700  0.256200  0.867000  1.0  0.1174
  H  H131  1  0.371900  0.407900  0.886400  1.0  0.1199
  H  H132  1  0.405800  0.380800  0.847500  1.0  0.1227
  H  H133  1  0.547200  0.100700  0.625600  1.0  0.1221
  H  H134  1  0.512400  0.128800  0.663400  1.0  0.129
  H  H135  1  0.563900  0.285100  0.680400  1.0  0.1077
  H  H136  1  0.598700  0.257000  0.642500  1.0  0.119
  H  H137  1  0.567700  0.155000  0.784600  1.0  0.1285
  H  H138  1  0.433400  0.304100  0.641600  1.0  0.107
  H  H139  1  0.433700  0.260200  0.870300  1.0  0.1383
  H  H140  1  0.543500  0.054000  0.880500  1.0  0.1056
  H  H141  1  0.507600  0.101300  0.845300  1.0  0.1097
  H  H142  1  0.572500  0.235900  0.830500  1.0  0.1058
  H  H143  1  0.608400  0.188700  0.865800  1.0  0.1125
  H  H144  1  0.630700  0.037200  0.577000  1.0  0.1081
  H  H145  1  0.650100  0.217400  0.559200  1.0  0.109
  H  H146  1  0.613400  0.248300  0.594800  1.0  0.1226
  H  H147  1  0.593900  0.068100  0.612600  1.0  0.1194
  H  H148  1  0.298500  0.261500  0.909500  1.0  0.1161
  H  H149  1  0.329700  0.439300  0.907500  1.0  0.1172
  H  H150  1  0.293400  0.466400  0.944200  1.0  0.1009
  H  H151  1  0.262200  0.288500  0.946200  1.0  0.1175
  H  H152  1  0.485400  0.256600  0.642000  1.0  0.1162
  H  H153  1  0.065100  0.658400  0.726500  1.0  0.1243
  H  H154  1  0.124300  0.661700  0.915800  1.0  0.1073
  H  H155  1  0.159600  0.611400  0.950600  1.0  0.0918
  H  H156  1  0.123300  0.445200  0.923300  1.0  0.1089
  H  H157  1  0.088000  0.495500  0.888600  1.0  0.1081
  H  H158  1  0.847000  0.776200  0.680700  1.0  0.1124
  H  H159  1  0.811200  0.821000  0.644600  1.0  0.1195
  H  H160  1  0.874300  0.959300  0.630800  1.0  0.1183
  H  H161  1  0.910100  0.914600  0.666900  1.0  0.1112
  H  H162  1  0.795900  0.842400  0.596300  1.0  0.1111
  H  H163  1  0.758700  0.886800  0.561300  1.0  0.1013
  H  H164  1  0.791400  0.058100  0.584600  1.0  0.114
  H  H165  1  0.828700  0.013700  0.619500  1.0  0.1185
  H  H166  1  0.850200  0.844000  0.785000  1.0  0.1209
  H  H167  1  0.849700  0.856700  0.728400  1.0  0.1256
  H  H168  1  0.987100  0.709400  0.869100  1.0  0.1092
  H  H169  1  0.851600  0.729000  0.828200  1.0  0.1107
  H  H170  1  0.817700  0.756200  0.867000  1.0  0.1174
  H  H171  1  0.871900  0.907900  0.886400  1.0  0.1199
  H  H172  1  0.905800  0.880800  0.847500  1.0  0.1227
  H  H173  1  0.047200  0.600700  0.625600  1.0  0.1221
  H  H174  1  0.012400  0.628800  0.663400  1.0  0.129
  H  H175  1  0.063900  0.785100  0.680400  1.0  0.1077
  H  H176  1  0.098700  0.757000  0.642500  1.0  0.119
  H  H177  1  0.067700  0.655000  0.784600  1.0  0.1285
  H  H178  1  0.933400  0.804100  0.641600  1.0  0.107
  H  H179  1  0.933700  0.760200  0.870300  1.0  0.1383
  H  H180  1  0.043500  0.554000  0.880500  1.0  0.1056
  H  H181  1  0.007600  0.601300  0.845300  1.0  0.1097
  H  H182  1  0.072500  0.735900  0.830500  1.0  0.1058
  H  H183  1  0.108400  0.688700  0.865800  1.0  0.1125
  H  H184  1  0.130700  0.537200  0.577000  1.0  0.1081
  H  H185  1  0.150100  0.717400  0.559200  1.0  0.109
  H  H186  1  0.113400  0.748300  0.594800  1.0  0.1226
  H  H187  1  0.093900  0.568100  0.612600  1.0  0.1194
  H  H188  1  0.798500  0.761500  0.909500  1.0  0.1161
  H  H189  1  0.829700  0.939300  0.907500  1.0  0.1172
  H  H190  1  0.793400  0.966400  0.944200  1.0  0.1009
  H  H191  1  0.762200  0.788500  0.946200  1.0  0.1175
  H  H192  1  0.985400  0.756600  0.642000  1.0  0.1162
  H  H193  1  0.160500  0.164300  0.489700  1.0  0.1169
  H  H194  1  0.124300  0.139200  0.526800  1.0  0.107
  H  H195  1  0.053900  0.226300  0.476800  1.0  0.1102
  H  H196  1  0.090200  0.251400  0.439700  1.0  0.1095
  H  H197  1  0.309700  0.364500  0.350600  1.0  0.1231
  H  H198  1  0.308200  0.383200  0.406600  1.0  0.1199
  H  H199  1  0.376300  0.560800  0.549600  1.0  0.1123
  H  H200  1  0.338300  0.520500  0.514200  1.0  0.1166
  H  H201  1  0.362500  0.346000  0.540800  1.0  0.1156
  H  H202  1  0.400400  0.386300  0.576200  1.0  0.1095
  H  H203  1  0.099300  0.140000  0.355700  1.0  0.1079
  H  H204  1  0.226800  0.330700  0.493800  1.0  0.1288
  H  H205  1  0.171600  0.289300  0.491600  1.0  0.1073
  H  H206  1  0.080600  0.993400  0.239300  1.0  0.1263
  H  H207  1  0.039000  0.162100  0.228600  1.0  0.1032
  H  H208  1  0.001100  0.119600  0.193800  1.0  0.0986
  H  H209  1  0.042700  0.950900  0.204500  1.0  0.0997
  H  H210  1  0.041200  0.237800  0.533500  1.0  0.1124
  H  H211  1  0.005000  0.201800  0.568500  1.0  0.11
  H  H212  1  0.046700  0.032300  0.567800  1.0  0.1135
  H  H213  1  0.082900  0.068300  0.532700  1.0  0.0998
  H  H214  1  0.291500  0.472800  0.504100  1.0  0.1145
  H  H215  1  0.253800  0.431200  0.468600  1.0  0.1124
  H  H216  1  0.311600  0.283600  0.456200  1.0  0.1002
  H  H217  1  0.349200  0.325200  0.491600  1.0  0.1192
  H  H218  1  0.353100  0.281600  0.279400  1.0  0.1155
  H  H219  1  0.316700  0.254500  0.316000  1.0  0.1081
  H  H220  1  0.251200  0.369900  0.275700  1.0  0.1173
  H  H221  1  0.287600  0.397100  0.239100  1.0  0.1226
  H  H222  1  0.098300  0.152900  0.411500  1.0  0.1213
  H  H223  1  0.178500  0.204000  0.267100  1.0  0.1274
  H  H224  1  0.375000  0.283600  0.238200  1.0  0.1143
  H  H225  1  0.412700  0.313500  0.203300  1.0  0.0976
  H  H226  1  0.366800  0.477500  0.190400  1.0  0.0987
  H  H227  1  0.329100  0.447600  0.225300  1.0  0.1171
  H  H228  1  0.134400  0.064700  0.317700  1.0  0.124
  H  H229  1  0.098700  0.024500  0.280100  1.0  0.1169
  H  H230  1  0.084400  0.197300  0.245700  1.0  0.1143
  H  H231  1  0.120100  0.237500  0.283300  1.0  0.1227
  H  H232  1  0.232800  0.250200  0.267700  1.0  0.1092
  H  H233  1  0.660500  0.664300  0.489700  1.0  0.1169
  H  H234  1  0.624300  0.639200  0.526800  1.0  0.107
  H  H235  1  0.553900  0.726300  0.476800  1.0  0.1102
  H  H236  1  0.590200  0.751400  0.439700  1.0  0.1095
  H  H237  1  0.809700  0.864500  0.350600  1.0  0.1231
  H  H238  1  0.808200  0.883200  0.406600  1.0  0.1199
  H  H239  1  0.876300  0.060800  0.549600  1.0  0.1123
  H  H240  1  0.838300  0.020500  0.514200  1.0  0.1166
  H  H241  1  0.862500  0.846000  0.540800  1.0  0.1156
  H  H242  1  0.900400  0.886300  0.576200  1.0  0.1095
  H  H243  1  0.599300  0.640000  0.355700  1.0  0.1079
  H  H244  1  0.726800  0.830700  0.493800  1.0  0.1288
  H  H245  1  0.671600  0.789300  0.491600  1.0  0.1073
  H  H246  1  0.580600  0.493400  0.239300  1.0  0.1263
  H  H247  1  0.539000  0.662100  0.228600  1.0  0.1032
  H  H248  1  0.501100  0.619600  0.193800  1.0  0.0986
  H  H249  1  0.542700  0.450900  0.204500  1.0  0.0997
  H  H250  1  0.541200  0.737800  0.533500  1.0  0.1124
  H  H251  1  0.505000  0.701800  0.568500  1.0  0.11
  H  H252  1  0.546700  0.532300  0.567800  1.0  0.1135
  H  H253  1  0.582900  0.568300  0.532700  1.0  0.0998
  H  H254  1  0.791500  0.972800  0.504100  1.0  0.1145
  H  H255  1  0.753800  0.931200  0.468600  1.0  0.1124
  H  H256  1  0.811600  0.783600  0.456200  1.0  0.1002
  H  H257  1  0.849200  0.825200  0.491600  1.0  0.1192
  H  H258  1  0.853100  0.781600  0.279400  1.0  0.1155
  H  H259  1  0.816700  0.754500  0.316000  1.0  0.1081
  H  H260  1  0.751200  0.869900  0.275700  1.0  0.1173
  H  H261  1  0.787600  0.897100  0.239100  1.0  0.1226
  H  H262  1  0.598300  0.652900  0.411500  1.0  0.1213
  H  H263  1  0.678500  0.704000  0.267100  1.0  0.1274
  H  H264  1  0.875000  0.783600  0.238200  1.0  0.1143
  H  H265  1  0.912700  0.813500  0.203300  1.0  0.0976
  H  H266  1  0.866800  0.977500  0.190400  1.0  0.0987
  H  H267  1  0.829100  0.947600  0.225300  1.0  0.1171
  H  H268  1  0.634400  0.564700  0.317700  1.0  0.124
  H  H269  1  0.598700  0.524500  0.280100  1.0  0.1169
  H  H270  1  0.584400  0.697300  0.245700  1.0  0.1143
  H  H271  1  0.620100  0.737500  0.283300  1.0  0.1227
  H  H272  1  0.732800  0.750200  0.267700  1.0  0.1092
  H  H273  1  0.160500  0.835700  0.989700  1.0  0.1172
  H  H274  1  0.124300  0.860800  0.026800  1.0  0.1067
  H  H275  1  0.053900  0.773700  0.976800  1.0  0.1099
  H  H276  1  0.090200  0.748600  0.939700  1.0  0.1096
  H  H277  1  0.309700  0.635500  0.850600  1.0  0.1228
  H  H278  1  0.308200  0.616800  0.906600  1.0  0.1196
  H  H279  1  0.376300  0.439200  0.049600  1.0  0.1126
  H  H280  1  0.338300  0.479500  0.014200  1.0  0.1161
  H  H281  1  0.362500  0.654000  0.040800  1.0  0.1161
  H  H282  1  0.400400  0.613700  0.076200  1.0  0.1096
  H  H283  1  0.099300  0.860000  0.855700  1.0  0.1085
  H  H284  1  0.226800  0.669300  0.993800  1.0  0.1294
  H  H285  1  0.171600  0.710700  0.991600  1.0  0.1073
  H  H286  1  0.080600  0.006600  0.739300  1.0  0.1261
  H  H287  1  0.039000  0.837900  0.728600  1.0  0.1026
  H  H288  1  0.001100  0.880400  0.693800  1.0  0.0991
  H  H289  1  0.042700  0.049100  0.704500  1.0  0.0992
  H  H290  1  0.041200  0.762200  0.033500  1.0  0.1123
  H  H291  1  0.005000  0.798200  0.068500  1.0  0.1096
  H  H292  1  0.046700  0.967700  0.067800  1.0  0.1128
  H  H293  1  0.082900  0.931700  0.032700  1.0  0.1
  H  H294  1  0.291500  0.527200  0.004100  1.0  0.1143
  H  H295  1  0.253800  0.568800  0.968600  1.0  0.1121
  H  H296  1  0.311600  0.716400  0.956200  1.0  0.1003
  H  H297  1  0.349200  0.674800  0.991600  1.0  0.1192
  H  H298  1  0.353100  0.718400  0.779400  1.0  0.1159
  H  H299  1  0.316700  0.745500  0.816000  1.0  0.1079
  H  H300  1  0.251200  0.630100  0.775700  1.0  0.1172
  H  H301  1  0.287600  0.602900  0.739100  1.0  0.1219
  H  H302  1  0.098300  0.847100  0.911500  1.0  0.1217
  H  H303  1  0.178500  0.796000  0.767100  1.0  0.1276
  H  H304  1  0.375000  0.716400  0.738200  1.0  0.1144
  H  H305  1  0.412700  0.686500  0.703300  1.0  0.0976
  H  H306  1  0.366800  0.522500  0.690400  1.0  0.0983
  H  H307  1  0.329100  0.552400  0.725300  1.0  0.1165
  H  H308  1  0.134400  0.935300  0.817700  1.0  0.1242
  H  H309  1  0.098700  0.975500  0.780100  1.0  0.1159
  H  H310  1  0.084400  0.802700  0.745700  1.0  0.114
  H  H311  1  0.120100  0.762500  0.783300  1.0  0.1229
  H  H312  1  0.232800  0.749800  0.767700  1.0  0.1091
  H  H313  1  0.660500  0.335700  0.989700  1.0  0.1172
  H  H314  1  0.624300  0.360800  0.026800  1.0  0.1067
  H  H315  1  0.553900  0.273700  0.976800  1.0  0.1099
  H  H316  1  0.590200  0.248600  0.939700  1.0  0.1096
  H  H317  1  0.809700  0.135500  0.850600  1.0  0.1228
  H  H318  1  0.808200  0.116800  0.906600  1.0  0.1196
  H  H319  1  0.876300  0.939200  0.049600  1.0  0.1126
  H  H320  1  0.838300  0.979500  0.014200  1.0  0.1161
  H  H321  1  0.862500  0.154000  0.040800  1.0  0.1161
  H  H322  1  0.900400  0.113700  0.076200  1.0  0.1096
  H  H323  1  0.599300  0.360000  0.855700  1.0  0.1085
  H  H324  1  0.726800  0.169300  0.993800  1.0  0.1294
  H  H325  1  0.671600  0.210700  0.991600  1.0  0.1073
  H  H326  1  0.580600  0.506600  0.739300  1.0  0.1261
  H  H327  1  0.539000  0.337900  0.728600  1.0  0.1026
  H  H328  1  0.501100  0.380400  0.693800  1.0  0.0991
  H  H329  1  0.542700  0.549100  0.704500  1.0  0.0992
  H  H330  1  0.541200  0.262200  0.033500  1.0  0.1123
  H  H331  1  0.505000  0.298200  0.068500  1.0  0.1096
  H  H332  1  0.546700  0.467700  0.067800  1.0  0.1128
  H  H333  1  0.582900  0.431700  0.032700  1.0  0.1
  H  H334  1  0.791500  0.027200  0.004100  1.0  0.1143
  H  H335  1  0.753800  0.068800  0.968600  1.0  0.1121
  H  H336  1  0.811600  0.216400  0.956200  1.0  0.1003
  H  H337  1  0.849200  0.174800  0.991600  1.0  0.1192
  H  H338  1  0.853100  0.218400  0.779400  1.0  0.1159
  H  H339  1  0.816700  0.245500  0.816000  1.0  0.1079
  H  H340  1  0.751200  0.130100  0.775700  1.0  0.1172
  H  H341  1  0.787600  0.102900  0.739100  1.0  0.1219
  H  H342  1  0.598300  0.347100  0.911500  1.0  0.1217
  H  H343  1  0.678500  0.296000  0.767100  1.0  0.1276
  H  H344  1  0.875000  0.216400  0.738200  1.0  0.1144
  H  H345  1  0.912700  0.186500  0.703300  1.0  0.0976
  H  H346  1  0.866800  0.022500  0.690400  1.0  0.0983
  H  H347  1  0.829100  0.052400  0.725300  1.0  0.1165
  H  H348  1  0.634400  0.435300  0.817700  1.0  0.1242
  H  H349  1  0.598700  0.475500  0.780100  1.0  0.1159
  H  H350  1  0.584400  0.302700  0.745700  1.0  0.114
  H  H351  1  0.620100  0.262500  0.783300  1.0  0.1229
  H  H352  1  0.732800  0.249800  0.767700  1.0  0.1091
  H  H353  1  0.828300  0.627700  0.340700  1.0  0.1244
  H  H354  1  0.829100  0.622600  0.285800  1.0  0.1148
  H  H355  1  0.042900  0.824600  0.282200  1.0  0.1211
  H  H356  1  0.049200  0.922000  0.153000  1.0  0.1112
  H  H357  1  0.086300  0.959800  0.119300  1.0  0.1134
  H  H358  1  0.137600  0.801500  0.130000  1.0  0.0958
  H  H359  1  0.100500  0.763700  0.163700  1.0  0.1149
  H  H360  1  0.859900  0.710000  0.206400  1.0  0.1108
  H  H361  1  0.822300  0.672000  0.169900  1.0  0.1212
  H  H362  1  0.828600  0.501800  0.209100  1.0  0.1128
  H  H363  1  0.866100  0.539900  0.245600  1.0  0.1134
  H  H364  1  0.920100  0.656300  0.201400  1.0  0.1203
  H  H365  1  0.971300  0.707800  0.200800  1.0  0.1147
  H  H366  1  0.956000  0.791800  0.423100  1.0  0.1117
  H  H367  1  0.084800  0.769100  0.212200  1.0  0.1166
  H  H368  1  0.011200  0.850500  0.164300  1.0  0.1159
  H  H369  1  0.976500  0.820300  0.201900  1.0  0.108
  H  H370  1  0.050100  0.738900  0.249800  1.0  0.104
  H  H371  1  0.911400  0.721000  0.428300  1.0  0.1172
  H  H372  1  0.825100  0.728000  0.377200  1.0  0.11
  H  H373  1  0.789200  0.699500  0.414000  1.0  0.1243
  H  H374  1  0.853900  0.578100  0.450700  1.0  0.1106
  H  H375  1  0.889900  0.606600  0.413900  1.0  0.1048
  H  H376  1  0.729600  0.603700  0.128400  1.0  0.1108
  H  H377  1  0.768700  0.640800  0.163600  1.0  0.1147
  H  H378  1  0.814600  0.475600  0.160800  1.0  0.1171
  H  H379  1  0.775500  0.438500  0.125600  1.0  0.097
  H  H380  1  0.030800  0.957000  0.417300  1.0  0.1167
  H  H381  1  0.995100  0.910100  0.381600  1.0  0.1226
  H  H382  1  0.029500  0.741000  0.406600  1.0  0.1056
  H  H383  1  0.065100  0.787800  0.442200  1.0  0.1194
  H  H384  1  0.775000  0.705200  0.459100  1.0  0.1116
  H  H385  1  0.735900  0.681600  0.493700  1.0  0.1019
  H  H386  1  0.769800  0.506000  0.501100  1.0  0.1133
  H  H387  1  0.808900  0.529600  0.466500  1.0  0.1221
  H  H388  1  0.111400  0.874900  0.519700  1.0  0.1121
  H  H389  1  0.109800  0.038900  0.474400  1.0  0.1023
  H  H390  1  0.074200  0.997100  0.437200  1.0  0.117
  H  H391  1  0.075800  0.833100  0.482500  1.0  0.12
  H  H392  1  0.031100  0.865200  0.332100  1.0  0.1186
  H  H393  1  0.328300  0.127700  0.340700  1.0  0.1244
  H  H394  1  0.329100  0.122600  0.285800  1.0  0.1148
  H  H395  1  0.542900  0.324600  0.282200  1.0  0.1211
  H  H396  1  0.549200  0.422000  0.153000  1.0  0.1112
  H  H397  1  0.586300  0.459800  0.119300  1.0  0.1134
  H  H398  1  0.637600  0.301500  0.130000  1.0  0.0958
  H  H399  1  0.600500  0.263700  0.163700  1.0  0.1149
  H  H400  1  0.359900  0.210000  0.206400  1.0  0.1108
  H  H401  1  0.322300  0.172000  0.169900  1.0  0.1212
  H  H402  1  0.328600  0.001800  0.209100  1.0  0.1128
  H  H403  1  0.366100  0.039900  0.245600  1.0  0.1134
  H  H404  1  0.420100  0.156300  0.201400  1.0  0.1203
  H  H405  1  0.471300  0.207800  0.200800  1.0  0.1147
  H  H406  1  0.456000  0.291800  0.423100  1.0  0.1117
  H  H407  1  0.584800  0.269100  0.212200  1.0  0.1166
  H  H408  1  0.511200  0.350500  0.164300  1.0  0.1159
  H  H409  1  0.476500  0.320300  0.201900  1.0  0.108
  H  H410  1  0.550100  0.238900  0.249800  1.0  0.104
  H  H411  1  0.411400  0.221000  0.428300  1.0  0.1172
  H  H412  1  0.325100  0.228000  0.377200  1.0  0.11
  H  H413  1  0.289200  0.199500  0.414000  1.0  0.1243
  H  H414  1  0.353900  0.078100  0.450700  1.0  0.1106
  H  H415  1  0.389900  0.106600  0.413900  1.0  0.1048
  H  H416  1  0.229600  0.103700  0.128400  1.0  0.1108
  H  H417  1  0.268700  0.140800  0.163600  1.0  0.1147
  H  H418  1  0.314600  0.975600  0.160800  1.0  0.1171
  H  H419  1  0.275500  0.938500  0.125600  1.0  0.097
  H  H420  1  0.530800  0.457000  0.417300  1.0  0.1167
  H  H421  1  0.495100  0.410100  0.381600  1.0  0.1226
  H  H422  1  0.529500  0.241000  0.406600  1.0  0.1056
  H  H423  1  0.565100  0.287800  0.442200  1.0  0.1194
  H  H424  1  0.275000  0.205200  0.459100  1.0  0.1116
  H  H425  1  0.235900  0.181600  0.493700  1.0  0.1019
  H  H426  1  0.269800  0.006000  0.501100  1.0  0.1132
  H  H427  1  0.308900  0.029600  0.466500  1.0  0.1221
  H  H428  1  0.611400  0.374900  0.519700  1.0  0.1121
  H  H429  1  0.609800  0.538900  0.474400  1.0  0.1023
  H  H430  1  0.574200  0.497100  0.437200  1.0  0.117
  H  H431  1  0.575800  0.333100  0.482500  1.0  0.12
  H  H432  1  0.531100  0.365200  0.332100  1.0  0.1186
  H  H433  1  0.828300  0.372300  0.840700  1.0  0.1245
  H  H434  1  0.829100  0.377400  0.785800  1.0  0.1151
  H  H435  1  0.042900  0.175400  0.782200  1.0  0.1211
  H  H436  1  0.049200  0.078000  0.653000  1.0  0.111
  H  H437  1  0.086300  0.040200  0.619300  1.0  0.1127
  H  H438  1  0.137600  0.198500  0.630000  1.0  0.0958
  H  H439  1  0.100500  0.236300  0.663700  1.0  0.1151
  H  H440  1  0.859900  0.290000  0.706400  1.0  0.1104
  H  H441  1  0.822300  0.328000  0.669900  1.0  0.1205
  H  H442  1  0.828600  0.498200  0.709100  1.0  0.1127
  H  H443  1  0.866100  0.460100  0.745600  1.0  0.1133
  H  H444  1  0.920100  0.343700  0.701400  1.0  0.1211
  H  H445  1  0.971300  0.292200  0.700800  1.0  0.114
  H  H446  1  0.956000  0.208200  0.923100  1.0  0.1122
  H  H447  1  0.084800  0.230900  0.712200  1.0  0.1165
  H  H448  1  0.011200  0.149500  0.664300  1.0  0.1161
  H  H449  1  0.976500  0.179700  0.701900  1.0  0.1082
  H  H450  1  0.050100  0.261100  0.749800  1.0  0.1039
  H  H451  1  0.911400  0.279000  0.928300  1.0  0.1175
  H  H452  1  0.825100  0.272000  0.877200  1.0  0.1098
  H  H453  1  0.789200  0.300500  0.914000  1.0  0.1243
  H  H454  1  0.853900  0.421900  0.950700  1.0  0.1106
  H  H455  1  0.889900  0.393400  0.913900  1.0  0.1045
  H  H456  1  0.729600  0.396300  0.628400  1.0  0.1098
  H  H457  1  0.768700  0.359200  0.663600  1.0  0.1149
  H  H458  1  0.814600  0.524400  0.660800  1.0  0.117
  H  H459  1  0.775500  0.561500  0.625600  1.0  0.0969
  H  H460  1  0.030800  0.043000  0.917300  1.0  0.1165
  H  H461  1  0.995100  0.089900  0.881600  1.0  0.1207
  H  H462  1  0.029500  0.259000  0.906600  1.0  0.1053
  H  H463  1  0.065100  0.212200  0.942200  1.0  0.1197
  H  H464  1  0.775000  0.294800  0.959100  1.0  0.1115
  H  H465  1  0.735900  0.318400  0.993700  1.0  0.1019
  H  H466  1  0.769800  0.494000  0.001100  1.0  0.1134
  H  H467  1  0.808900  0.470400  0.966500  1.0  0.123
  H  H468  1  0.111400  0.125100  0.019700  1.0  0.111
  H  H469  1  0.109800  0.961100  0.974400  1.0  0.1024
  H  H470  1  0.074200  0.002900  0.937200  1.0  0.117
  H  H471  1  0.075800  0.166900  0.982500  1.0  0.1199
  H  H472  1  0.031100  0.134800  0.832100  1.0  0.1187
  H  H473  1  0.328300  0.872300  0.840700  1.0  0.1245
  H  H474  1  0.329100  0.877400  0.785800  1.0  0.1151
  H  H475  1  0.542900  0.675400  0.782200  1.0  0.1211
  H  H476  1  0.549200  0.578000  0.653000  1.0  0.111
  H  H477  1  0.586300  0.540200  0.619300  1.0  0.1127
  H  H478  1  0.637600  0.698500  0.630000  1.0  0.0958
  H  H479  1  0.600500  0.736300  0.663700  1.0  0.1151
  H  H480  1  0.359900  0.790000  0.706400  1.0  0.1104
  H  H481  1  0.322300  0.828000  0.669900  1.0  0.1205
  H  H482  1  0.328600  0.998200  0.709100  1.0  0.1127
  H  H483  1  0.366100  0.960100  0.745600  1.0  0.1133
  H  H484  1  0.420100  0.843700  0.701400  1.0  0.1211
  H  H485  1  0.471300  0.792200  0.700800  1.0  0.114
  H  H486  1  0.456000  0.708200  0.923100  1.0  0.1122
  H  H487  1  0.584800  0.730900  0.712200  1.0  0.1165
  H  H488  1  0.511200  0.649500  0.664300  1.0  0.1161
  H  H489  1  0.476500  0.679700  0.701900  1.0  0.1082
  H  H490  1  0.550100  0.761100  0.749800  1.0  0.1039
  H  H491  1  0.411400  0.779000  0.928300  1.0  0.1175
  H  H492  1  0.325100  0.772000  0.877200  1.0  0.1098
  H  H493  1  0.289200  0.800500  0.914000  1.0  0.1243
  H  H494  1  0.353900  0.921900  0.950700  1.0  0.1106
  H  H495  1  0.389900  0.893400  0.913900  1.0  0.1045
  H  H496  1  0.229600  0.896300  0.628400  1.0  0.1098
  H  H497  1  0.268700  0.859200  0.663600  1.0  0.1149
  H  H498  1  0.314600  0.024400  0.660800  1.0  0.117
  H  H499  1  0.275500  0.061500  0.625600  1.0  0.0969
  H  H500  1  0.530800  0.543000  0.917300  1.0  0.1165
  H  H501  1  0.495100  0.589900  0.881600  1.0  0.1207
  H  H502  1  0.529500  0.759000  0.906600  1.0  0.1053
  H  H503  1  0.565100  0.712200  0.942200  1.0  0.1197
  H  H504  1  0.275000  0.794800  0.959100  1.0  0.1115
  H  H505  1  0.235900  0.818400  0.993700  1.0  0.1019
  H  H506  1  0.269800  0.994000  0.001100  1.0  0.1132
  H  H507  1  0.308900  0.970400  0.966500  1.0  0.123
  H  H508  1  0.611400  0.625100  0.019700  1.0  0.111
  H  H509  1  0.609800  0.461100  0.974400  1.0  0.1024
  H  H510  1  0.574200  0.502900  0.937200  1.0  0.117
  H  H511  1  0.575800  0.666900  0.982500  1.0  0.1199
  H  H512  1  0.531100  0.634800  0.832100  1.0  0.1187
  H  H513  1  0.942900  0.394100  0.352400  1.0  0.1051
  H  H514  1  0.904900  0.351800  0.317700  1.0  0.1032
  H  H515  1  0.867100  0.522800  0.302900  1.0  0.11
  H  H516  1  0.905100  0.565100  0.337700  1.0  0.0955
  H  H517  1  0.845800  0.381200  0.189400  1.0  0.1289
  H  H518  1  0.634900  0.166800  0.187800  1.0  0.1172
  H  H519  1  0.580700  0.171500  0.997500  1.0  0.1147
  H  H520  1  0.545900  0.122100  0.962000  1.0  0.1092
  H  H521  1  0.582300  0.955300  0.988200  1.0  0.1114
  H  H522  1  0.617100  0.004700  0.023700  1.0  0.106
  H  H523  1  0.885100  0.331300  0.271500  1.0  0.1177
  H  H524  1  0.847800  0.290200  0.235600  1.0  0.1097
  H  H525  1  0.788200  0.433900  0.250800  1.0  0.1197
  H  H526  1  0.825600  0.474900  0.286600  1.0  0.1175
  H  H527  1  0.913800  0.482000  0.980700  1.0  0.1066
  H  H528  1  0.876800  0.452100  0.016300  1.0  0.1173
  H  H529  1  0.908400  0.274800  0.011900  1.0  0.1132
  H  H530  1  0.945300  0.304700  0.976300  1.0  0.1068
  H  H531  1  0.890400  0.273800  0.061400  1.0  0.1171
  H  H532  1  0.852700  0.250500  0.097400  1.0  0.1108
  H  H533  1  0.792100  0.376300  0.057800  1.0  0.1169
  H  H534  1  0.829800  0.399500  0.021800  1.0  0.1064
  H  H535  1  0.771200  0.255300  0.045800  1.0  0.1374
  H  H536  1  0.849600  0.354400  0.134300  1.0  0.111
  H  H537  1  0.712100  0.228600  0.044700  1.0  0.1282
  H  H538  1  0.711100  0.278600  0.274200  1.0  0.1259
  H  H539  1  0.611600  0.073400  0.305400  1.0  0.1186
  H  H540  1  0.577000  0.039600  0.342400  1.0  0.1089
  H  H541  1  0.545000  0.215600  0.352100  1.0  0.0888
  H  H542  1  0.579600  0.249400  0.315100  1.0  0.114
  H  H543  1  0.764600  0.326100  0.274300  1.0  0.1204
  H  H544  1  0.632200  0.161600  0.130200  1.0  0.1289
  H  H545  1  0.649000  0.312800  0.251400  1.0  0.119
  H  H546  1  0.616300  0.279600  0.290000  1.0  0.1183
  H  H547  1  0.632900  0.100700  0.267200  1.0  0.1185
  H  H548  1  0.665700  0.133900  0.228600  1.0  0.1169
  H  H549  1  0.695900  0.109200  0.069700  1.0  0.1165
  H  H550  1  0.662000  0.061400  0.032800  1.0  0.1133
  H  H551  1  0.596900  0.198100  0.042300  1.0  0.1184
  H  H552  1  0.630800  0.245800  0.079200  1.0  0.1066
  H  H553  1  0.442900  0.894100  0.352400  1.0  0.1051
  H  H554  1  0.404900  0.851800  0.317700  1.0  0.1032
  H  H555  1  0.367100  0.022800  0.302900  1.0  0.11
  H  H556  1  0.405100  0.065100  0.337700  1.0  0.0955
  H  H557  1  0.345800  0.881200  0.189400  1.0  0.1289
  H  H558  1  0.134900  0.666800  0.187800  1.0  0.1172
  H  H559  1  0.080700  0.671500  0.997500  1.0  0.1147
  H  H560  1  0.045900  0.622100  0.962000  1.0  0.1092
  H  H561  1  0.082300  0.455300  0.988200  1.0  0.1114
  H  H562  1  0.117100  0.504700  0.023700  1.0  0.106
  H  H563  1  0.385100  0.831300  0.271500  1.0  0.1177
  H  H564  1  0.347800  0.790200  0.235600  1.0  0.1097
  H  H565  1  0.288200  0.933900  0.250800  1.0  0.1197
  H  H566  1  0.325600  0.974900  0.286600  1.0  0.1175
  H  H567  1  0.413800  0.982000  0.980700  1.0  0.106
  H  H568  1  0.376800  0.952100  0.016300  1.0  0.1179
  H  H569  1  0.408400  0.774800  0.011900  1.0  0.1132
  H  H570  1  0.445300  0.804700  0.976300  1.0  0.1068
  H  H571  1  0.390400  0.773800  0.061400  1.0  0.1171
  H  H572  1  0.352700  0.750500  0.097400  1.0  0.1108
  H  H573  1  0.292100  0.876300  0.057800  1.0  0.1169
  H  H574  1  0.329800  0.899500  0.021800  1.0  0.1064
  H  H575  1  0.271200  0.755300  0.045800  1.0  0.1374
  H  H576  1  0.349600  0.854400  0.134300  1.0  0.111
  H  H577  1  0.212100  0.728600  0.044700  1.0  0.1282
  H  H578  1  0.211100  0.778600  0.274200  1.0  0.1259
  H  H579  1  0.111600  0.573400  0.305400  1.0  0.1186
  H  H580  1  0.077000  0.539600  0.342400  1.0  0.1089
  H  H581  1  0.045000  0.715600  0.352100  1.0  0.0888
  H  H582  1  0.079600  0.749400  0.315100  1.0  0.114
  H  H583  1  0.264600  0.826100  0.274300  1.0  0.1204
  H  H584  1  0.132200  0.661600  0.130200  1.0  0.1289
  H  H585  1  0.149000  0.812800  0.251400  1.0  0.119
  H  H586  1  0.116300  0.779600  0.290000  1.0  0.1183
  H  H587  1  0.132900  0.600700  0.267200  1.0  0.1185
  H  H588  1  0.165700  0.633900  0.228600  1.0  0.1169
  H  H589  1  0.195900  0.609200  0.069700  1.0  0.1165
  H  H590  1  0.162000  0.561400  0.032800  1.0  0.1133
  H  H591  1  0.096900  0.698100  0.042300  1.0  0.1184
  H  H592  1  0.130800  0.745800  0.079200  1.0  0.1066
  H  H593  1  0.942900  0.605900  0.852400  1.0  0.1049
  H  H594  1  0.904900  0.648200  0.817700  1.0  0.1042
  H  H595  1  0.867100  0.477200  0.802900  1.0  0.1103
  H  H596  1  0.905100  0.434900  0.837700  1.0  0.0952
  H  H597  1  0.845800  0.618800  0.689400  1.0  0.1287
  H  H598  1  0.634900  0.833200  0.687800  1.0  0.1168
  H  H599  1  0.580700  0.828500  0.497500  1.0  0.114
  H  H600  1  0.545900  0.877900  0.462000  1.0  0.109
  H  H601  1  0.582300  0.044700  0.488200  1.0  0.1119
  H  H602  1  0.617100  0.995300  0.523700  1.0  0.1055
  H  H603  1  0.885100  0.668700  0.771500  1.0  0.1179
  H  H604  1  0.847800  0.709800  0.735600  1.0  0.1096
  H  H605  1  0.788200  0.566100  0.750800  1.0  0.1197
  H  H606  1  0.825600  0.525100  0.786600  1.0  0.1176
  H  H607  1  0.913800  0.518000  0.480700  1.0  0.1068
  H  H608  1  0.876800  0.547900  0.516300  1.0  0.1168
  H  H609  1  0.908400  0.725200  0.511900  1.0  0.1129
  H  H610  1  0.945300  0.695300  0.476300  1.0  0.1067
  H  H611  1  0.890400  0.726200  0.561400  1.0  0.1172
  H  H612  1  0.852700  0.749500  0.597400  1.0  0.1102
  H  H613  1  0.792100  0.623700  0.557800  1.0  0.1166
  H  H614  1  0.829800  0.600500  0.521800  1.0  0.1067
  H  H615  1  0.771200  0.744700  0.545800  1.0  0.1372
  H  H616  1  0.849600  0.645600  0.634300  1.0  0.111
  H  H617  1  0.712100  0.771400  0.544700  1.0  0.1277
  H  H618  1  0.711100  0.721400  0.774200  1.0  0.126
  H  H619  1  0.611600  0.926600  0.805400  1.0  0.1184
  H  H620  1  0.577000  0.960400  0.842400  1.0  0.1088
  H  H621  1  0.545000  0.784400  0.852100  1.0  0.0891
  H  H622  1  0.579600  0.750600  0.815100  1.0  0.1138
  H  H623  1  0.764600  0.673900  0.774300  1.0  0.1202
  H  H624  1  0.632200  0.838400  0.630200  1.0  0.1291
  H  H625  1  0.649000  0.687200  0.751400  1.0  0.1187
  H  H626  1  0.616300  0.720400  0.790000  1.0  0.1183
  H  H627  1  0.632900  0.899300  0.767200  1.0  0.1189
  H  H628  1  0.665700  0.866100  0.728600  1.0  0.1167
  H  H629  1  0.695900  0.890800  0.569700  1.0  0.1166
  H  H630  1  0.662000  0.938600  0.532800  1.0  0.1134
  H  H631  1  0.596900  0.801900  0.542300  1.0  0.1185
  H  H632  1  0.630800  0.754200  0.579200  1.0  0.1068
  H  H633  1  0.442900  0.105900  0.852400  1.0  0.1049
  H  H634  1  0.404900  0.148200  0.817700  1.0  0.1042
  H  H635  1  0.367100  0.977200  0.802900  1.0  0.1103
  H  H636  1  0.405100  0.934900  0.837700  1.0  0.0952
  H  H637  1  0.345800  0.118800  0.689400  1.0  0.1287
  H  H638  1  0.134900  0.333200  0.687800  1.0  0.1168
  H  H639  1  0.080700  0.328500  0.497500  1.0  0.114
  H  H640  1  0.045900  0.377900  0.462000  1.0  0.109
  H  H641  1  0.082300  0.544700  0.488200  1.0  0.1119
  H  H642  1  0.117100  0.495300  0.523700  1.0  0.1055
  H  H643  1  0.385100  0.168700  0.771500  1.0  0.1179
  H  H644  1  0.347800  0.209800  0.735600  1.0  0.1096
  H  H645  1  0.288200  0.066100  0.750800  1.0  0.1197
  H  H646  1  0.325600  0.025100  0.786600  1.0  0.1176
  H  H647  1  0.413800  0.018000  0.480700  1.0  0.1057
  H  H648  1  0.376800  0.047900  0.516300  1.0  0.1165
  H  H649  1  0.408400  0.225200  0.511900  1.0  0.1129
  H  H650  1  0.445300  0.195300  0.476300  1.0  0.1067
  H  H651  1  0.390400  0.226200  0.561400  1.0  0.1172
  H  H652  1  0.352700  0.249500  0.597400  1.0  0.1102
  H  H653  1  0.292100  0.123700  0.557800  1.0  0.1166
  H  H654  1  0.329800  0.100500  0.521800  1.0  0.1067
  H  H655  1  0.271200  0.244700  0.545800  1.0  0.1372
  H  H656  1  0.349600  0.145600  0.634300  1.0  0.111
  H  H657  1  0.212100  0.271400  0.544700  1.0  0.1277
  H  H658  1  0.211100  0.221400  0.774200  1.0  0.126
  H  H659  1  0.111600  0.426600  0.805400  1.0  0.1184
  H  H660  1  0.077000  0.460400  0.842400  1.0  0.1088
  H  H661  1  0.045000  0.284400  0.852100  1.0  0.0891
  H  H662  1  0.079600  0.250600  0.815100  1.0  0.1138
  H  H663  1  0.264600  0.173900  0.774300  1.0  0.1202
  H  H664  1  0.132200  0.338400  0.630200  1.0  0.1291
  H  H665  1  0.149000  0.187200  0.751400  1.0  0.1187
  H  H666  1  0.116300  0.220400  0.790000  1.0  0.1183
  H  H667  1  0.132900  0.399300  0.767200  1.0  0.1189
  H  H668  1  0.165700  0.366100  0.728600  1.0  0.1167
  H  H669  1  0.195900  0.390800  0.569700  1.0  0.1166
  H  H670  1  0.162000  0.438600  0.532800  1.0  0.1134
  H  H671  1  0.096900  0.301900  0.542300  1.0  0.1185
  H  H672  1  0.130800  0.254200  0.579200  1.0  0.1068
  C  C673  1  0.665700  0.894700  0.039600  1.0  0.655
  C  C674  1  0.523800  0.785400  0.229000  1.0  0.0214
  C  C675  1  0.249000  0.599200  0.469300  1.0  0.626
  C  C676  1  0.550400  0.822700  0.239500  1.0  -0.1243
  C  C677  1  0.396800  0.684200  0.231400  1.0  0.2174
  C  C678  1  0.485700  0.744500  0.190300  1.0  0.2366
  C  C679  1  0.404400  0.685300  0.200600  1.0  -0.1056
  C  C680  1  0.624100  0.882200  0.417300  1.0  -0.1267
  C  C681  1  0.645080  0.912100  0.437980  1.0  -0.0126
  C  C682  1  0.644770  0.976400  0.440210  1.0  -0.1194
  C  C683  1  0.623500  0.010800  0.421800  1.0  -0.0597
  C  C684  1  0.602500  0.981000  0.401150  1.0  -0.1559
  C  C685  1  0.602800  0.916700  0.398920  1.0  0.043
  C  C686  1  0.435100  0.705900  0.190600  1.0  -0.0428
  C  C687  1  0.382000  0.658800  0.177230  1.0  0.0548
  C  C688  1  0.352600  0.686600  0.170600  1.0  -0.093
  C  C689  1  0.331300  0.660000  0.149100  1.0  -0.1236
  C  C690  1  0.339400  0.605700  0.134280  1.0  0.0489
  C  C691  1  0.368800  0.577800  0.140900  1.0  -0.1359
  C  C692  1  0.390050  0.604400  0.162400  1.0  -0.1267
  C  C693  1  0.315800  0.576100  0.111200  1.0  0.0442
  C  C694  1  0.295000  0.613800  0.093900  1.0  -0.1244
  C  C695  1  0.272900  0.587500  0.073200  1.0  -0.0248
  C  C696  1  0.271600  0.523400  0.069700  1.0  -0.1314
  C  C697  1  0.292300  0.485700  0.086900  1.0  -0.0353
  C  C698  1  0.314500  0.512000  0.107700  1.0  -0.1332
  C  C699  1  0.366700  0.667700  0.272000  1.0  -0.1441
  C  C700  1  0.483700  0.783800  0.319600  1.0  0.0958
  C  C701  1  0.666667  0.011200  0.463800  1.0  0.6301
  C  C702  1  0.366400  0.660500  0.241100  1.0  -0.1547
  C  C703  1  0.474600  0.777200  0.351700  1.0  -0.1459
  C  C704  1  0.513200  0.771700  0.200200  1.0  0.008
  C  C705  1  0.436300  0.736700  0.322100  1.0  0.1899
  C  C706  1  0.381900  0.697700  0.334200  1.0  0.0124
  C  C707  1  0.355700  0.734700  0.340000  1.0  -0.1221
  C  C708  1  0.335600  0.718500  0.363100  1.0  -0.1325
  C  C709  1  0.341600  0.665400  0.380400  1.0  0.0208
  C  C710  1  0.367800  0.628400  0.374600  1.0  -0.1321
  C  C711  1  0.387900  0.644500  0.351500  1.0  -0.1226
  C  C712  1  0.407600  0.711400  0.311100  1.0  -0.0744
  C  C713  1  0.521600  0.797200  0.278800  1.0  0.2444
  C  C714  1  0.576300  0.823800  0.130500  1.0  0.0304
  C  C715  1  0.550600  0.861900  0.136700  1.0  -0.1451
  C  C716  1  0.530000  0.845200  0.159200  1.0  -0.142
  C  C717  1  0.534900  0.790400  0.175500  1.0  0.04
  C  C718  1  0.560500  0.752300  0.169300  1.0  -0.1292
  C  C719  1  0.581200  0.769100  0.146800  1.0  -0.1294
  C  C720  1  0.551700  0.827200  0.271300  1.0  -0.1584
  C  C721  1  0.397300  0.697200  0.281800  1.0  0.1748
  C  C722  1  0.445400  0.709300  0.159300  1.0  -0.1482
  C  C723  1  0.445300  0.749000  0.352700  1.0  -0.0825
  C  C724  1  0.579300  0.883100  0.376470  1.0  0.0381
  C  C725  1  0.549400  0.909000  0.370400  1.0  -0.1542
  C  C726  1  0.528090  0.881000  0.349400  1.0  -0.1017
  C  C727  1  0.536700  0.826900  0.334560  1.0  0.0704
  C  C728  1  0.566600  0.801000  0.340700  1.0  -0.0731
  C  C729  1  0.587950  0.829100  0.361600  1.0  -0.1228
  C  C730  1  0.514700  0.797500  0.310500  1.0  -0.0488
  C  C731  1  0.627200  0.919900  0.080600  1.0  -0.0395
  C  C732  1  0.643800  0.875600  0.064800  1.0  -0.1361
  C  C733  1  0.638700  0.812900  0.070100  1.0  -0.0596
  C  C734  1  0.616900  0.794500  0.091200  1.0  -0.1387
  C  C735  1  0.600200  0.838900  0.107100  1.0  0.0328
  C  C736  1  0.605300  0.901600  0.101800  1.0  -0.1457
  C  C737  1  0.297500  0.697000  0.416500  1.0  -0.1245
  C  C738  1  0.317500  0.652200  0.405000  1.0  0.0197
  C  C739  1  0.316000  0.591300  0.415300  1.0  -0.1299
  C  C740  1  0.294400  0.575200  0.437100  1.0  -0.0289
  C  C741  1  0.274400  0.620000  0.448600  1.0  -0.1477
  C  C742  1  0.275900  0.680900  0.438300  1.0  -0.0508
  C  C743  1  0.474100  0.734000  0.159700  1.0  -0.1279
  C  C744  1  0.247600  0.494600  0.047700  1.0  0.6319
  C  C745  1  0.165700  0.394700  0.039600  1.0  0.655
  C  C746  1  0.023800  0.285400  0.229000  1.0  0.0214
  C  C747  1  0.749000  0.099200  0.469300  1.0  0.626
  C  C748  1  0.050400  0.322700  0.239500  1.0  -0.1243
  C  C749  1  0.896800  0.184200  0.231400  1.0  0.2174
  C  C750  1  0.985700  0.244500  0.190300  1.0  0.2366
  C  C751  1  0.904400  0.185300  0.200600  1.0  -0.1056
  C  C752  1  0.124100  0.382200  0.417300  1.0  -0.1267
  C  C753  1  0.145080  0.412100  0.437980  1.0  -0.0126
  C  C754  1  0.144770  0.476400  0.440210  1.0  -0.1195
  C  C755  1  0.123500  0.510800  0.421800  1.0  -0.0597
  C  C756  1  0.102500  0.481000  0.401150  1.0  -0.1559
  C  C757  1  0.102800  0.416700  0.398920  1.0  0.043
  C  C758  1  0.935100  0.205900  0.190600  1.0  -0.0428
  C  C759  1  0.882000  0.158800  0.177230  1.0  0.0548
  C  C760  1  0.852600  0.186600  0.170600  1.0  -0.093
  C  C761  1  0.831300  0.160000  0.149100  1.0  -0.1236
  C  C762  1  0.839400  0.105700  0.134280  1.0  0.0489
  C  C763  1  0.868800  0.077800  0.140900  1.0  -0.1359
  C  C764  1  0.890050  0.104400  0.162400  1.0  -0.1267
  C  C765  1  0.815800  0.076100  0.111200  1.0  0.0442
  C  C766  1  0.795000  0.113800  0.093900  1.0  -0.1244
  C  C767  1  0.772900  0.087500  0.073200  1.0  -0.0248
  C  C768  1  0.771600  0.023400  0.069700  1.0  -0.1314
  C  C769  1  0.792300  0.985700  0.086900  1.0  -0.0353
  C  C770  1  0.814500  0.012000  0.107700  1.0  -0.1332
  C  C771  1  0.866700  0.167700  0.272000  1.0  -0.1441
  C  C772  1  0.983700  0.283800  0.319600  1.0  0.0958
  C  C773  1  0.166700  0.511200  0.463800  1.0  0.6337
  C  C774  1  0.866400  0.160500  0.241100  1.0  -0.1547
  C  C775  1  0.974600  0.277200  0.351700  1.0  -0.1459
  C  C776  1  0.013200  0.271700  0.200200  1.0  0.008
  C  C777  1  0.936300  0.236700  0.322100  1.0  0.1899
  C  C778  1  0.881900  0.197700  0.334200  1.0  0.0124
  C  C779  1  0.855700  0.234700  0.340000  1.0  -0.1221
  C  C780  1  0.835600  0.218500  0.363100  1.0  -0.1325
  C  C781  1  0.841600  0.165400  0.380400  1.0  0.0208
  C  C782  1  0.867800  0.128400  0.374600  1.0  -0.1321
  C  C783  1  0.887900  0.144500  0.351500  1.0  -0.1226
  C  C784  1  0.907600  0.211400  0.311100  1.0  -0.0744
  C  C785  1  0.021600  0.297200  0.278800  1.0  0.2444
  C  C786  1  0.076300  0.323800  0.130500  1.0  0.0304
  C  C787  1  0.050600  0.361900  0.136700  1.0  -0.1451
  C  C788  1  0.030000  0.345200  0.159200  1.0  -0.142
  C  C789  1  0.034900  0.290400  0.175500  1.0  0.04
  C  C790  1  0.060500  0.252300  0.169300  1.0  -0.1292
  C  C791  1  0.081200  0.269100  0.146800  1.0  -0.1294
  C  C792  1  0.051700  0.327200  0.271300  1.0  -0.1584
  C  C793  1  0.897300  0.197200  0.281800  1.0  0.1748
  C  C794  1  0.945400  0.209300  0.159300  1.0  -0.1482
  C  C795  1  0.945300  0.249000  0.352700  1.0  -0.0825
  C  C796  1  0.079300  0.383100  0.376470  1.0  0.0381
  C  C797  1  0.049400  0.409000  0.370400  1.0  -0.1542
  C  C798  1  0.028090  0.381000  0.349400  1.0  -0.1017
  C  C799  1  0.036700  0.326900  0.334560  1.0  0.0704
  C  C800  1  0.066600  0.301000  0.340700  1.0  -0.0731
  C  C801  1  0.087950  0.329100  0.361600  1.0  -0.1228
  C  C802  1  0.014700  0.297500  0.310500  1.0  -0.0488
  C  C803  1  0.127200  0.419900  0.080600  1.0  -0.0395
  C  C804  1  0.143800  0.375600  0.064800  1.0  -0.1361
  C  C805  1  0.138700  0.312900  0.070100  1.0  -0.0596
  C  C806  1  0.116900  0.294500  0.091200  1.0  -0.1387
  C  C807  1  0.100200  0.338900  0.107100  1.0  0.0328
  C  C808  1  0.105300  0.401600  0.101800  1.0  -0.1457
  C  C809  1  0.797500  0.197000  0.416500  1.0  -0.1245
  C  C810  1  0.817500  0.152200  0.405000  1.0  0.0197
  C  C811  1  0.816000  0.091300  0.415300  1.0  -0.1299
  C  C812  1  0.794400  0.075200  0.437100  1.0  -0.0289
  C  C813  1  0.774400  0.120000  0.448600  1.0  -0.1464
  C  C814  1  0.775900  0.180900  0.438300  1.0  -0.0508
  C  C815  1  0.974100  0.234000  0.159700  1.0  -0.1279
  C  C816  1  0.747600  0.994600  0.047700  1.0  0.6319
  C  C817  1  0.665700  0.105300  0.539600  1.0  0.6558
  C  C818  1  0.523800  0.214600  0.729000  1.0  0.0215
  C  C819  1  0.249000  0.400800  0.969300  1.0  0.6258
  C  C820  1  0.550400  0.177300  0.739500  1.0  -0.1242
  C  C821  1  0.396800  0.315800  0.731400  1.0  0.2172
  C  C822  1  0.485700  0.255500  0.690300  1.0  0.2362
  C  C823  1  0.404400  0.314700  0.700600  1.0  -0.1056
  C  C824  1  0.624100  0.117800  0.917300  1.0  -0.1258
  C  C825  1  0.645080  0.087900  0.937980  1.0  -0.0128
  C  C826  1  0.644770  0.023600  0.940210  1.0  -0.1191
  C  C827  1  0.623500  0.989200  0.921800  1.0  -0.0598
  C  C828  1  0.602500  0.019000  0.901150  1.0  -0.1562
  C  C829  1  0.602800  0.083300  0.898920  1.0  0.0438
  C  C830  1  0.435100  0.294100  0.690600  1.0  -0.0425
  C  C831  1  0.382000  0.341200  0.677230  1.0  0.055
  C  C832  1  0.352600  0.313400  0.670600  1.0  -0.0931
  C  C833  1  0.331300  0.340000  0.649100  1.0  -0.1232
  C  C834  1  0.339400  0.394300  0.634280  1.0  0.0483
  C  C835  1  0.368800  0.422200  0.640900  1.0  -0.1358
  C  C836  1  0.390050  0.395600  0.662400  1.0  -0.1276
  C  C837  1  0.315800  0.423900  0.611200  1.0  0.044
  C  C838  1  0.295000  0.386200  0.593900  1.0  -0.1249
  C  C839  1  0.272900  0.412500  0.573200  1.0  -0.025
  C  C840  1  0.271600  0.476600  0.569700  1.0  -0.1304
  C  C841  1  0.292300  0.514300  0.586900  1.0  -0.0341
  C  C842  1  0.314500  0.488000  0.607700  1.0  -0.1333
  C  C843  1  0.366700  0.332300  0.772000  1.0  -0.1442
  C  C844  1  0.483700  0.216200  0.819600  1.0  0.0958
  C  C845  1  0.666667  0.988800  0.963800  1.0  0.6301
  C  C846  1  0.366400  0.339500  0.741100  1.0  -0.1544
  C  C847  1  0.474600  0.222800  0.851700  1.0  -0.1451
  C  C848  1  0.513200  0.228300  0.700200  1.0  0.0067
  C  C849  1  0.436300  0.263300  0.822100  1.0  0.1901
  C  C850  1  0.381900  0.302300  0.834200  1.0  0.0127
  C  C851  1  0.355700  0.265300  0.840000  1.0  -0.1217
  C  C852  1  0.335600  0.281500  0.863100  1.0  -0.1321
  C  C853  1  0.341600  0.334600  0.880400  1.0  0.0215
  C  C854  1  0.367800  0.371600  0.874600  1.0  -0.1316
  C  C855  1  0.387900  0.355500  0.851500  1.0  -0.123
  C  C856  1  0.407600  0.288600  0.811100  1.0  -0.0735
  C  C857  1  0.521600  0.202800  0.778800  1.0  0.2446
  C  C858  1  0.576300  0.176200  0.630500  1.0  0.0303
  C  C859  1  0.550600  0.138100  0.636700  1.0  -0.1451
  C  C860  1  0.530000  0.154800  0.659200  1.0  -0.1414
  C  C861  1  0.534900  0.209600  0.675500  1.0  0.0396
  C  C862  1  0.560500  0.247700  0.669300  1.0  -0.1285
  C  C863  1  0.581200  0.230900  0.646800  1.0  -0.1295
  C  C864  1  0.551700  0.172800  0.771300  1.0  -0.1573
  C  C865  1  0.397300  0.302800  0.781800  1.0  0.1758
  C  C866  1  0.445400  0.290700  0.659300  1.0  -0.1487
  C  C867  1  0.445300  0.251000  0.852700  1.0  -0.0835
  C  C868  1  0.579300  0.116900  0.876470  1.0  0.038
  C  C869  1  0.549400  0.091000  0.870400  1.0  -0.153
  C  C870  1  0.528090  0.119000  0.849400  1.0  -0.1002
  C  C871  1  0.536700  0.173100  0.834560  1.0  0.0708
  C  C872  1  0.566600  0.199000  0.840700  1.0  -0.0721
  C  C873  1  0.587950  0.170900  0.861600  1.0  -0.1234
  C  C874  1  0.514700  0.202500  0.810500  1.0  -0.048
  C  C875  1  0.627200  0.080100  0.580600  1.0  -0.0402
  C  C876  1  0.643800  0.124400  0.564800  1.0  -0.136
  C  C877  1  0.638700  0.187100  0.570100  1.0  -0.0597
  C  C878  1  0.616900  0.205500  0.591200  1.0  -0.1382
  C  C879  1  0.600200  0.161100  0.607100  1.0  0.0331
  C  C880  1  0.605300  0.098400  0.601800  1.0  -0.1455
  C  C881  1  0.297500  0.303000  0.916500  1.0  -0.1241
  C  C882  1  0.317500  0.347800  0.905000  1.0  0.0196
  C  C883  1  0.316000  0.408700  0.915300  1.0  -0.1295
  C  C884  1  0.294400  0.424800  0.937100  1.0  -0.0303
  C  C885  1  0.274400  0.380000  0.948600  1.0  -0.148
  C  C886  1  0.275900  0.319100  0.938300  1.0  -0.0503
  C  C887  1  0.474100  0.266000  0.659700  1.0  -0.1282
  C  C888  1  0.247600  0.505400  0.547700  1.0  0.6325
  C  C889  1  0.165700  0.605300  0.539600  1.0  0.6558
  C  C890  1  0.023800  0.714600  0.729000  1.0  0.0215
  C  C891  1  0.749000  0.900800  0.969300  1.0  0.6258
  C  C892  1  0.050400  0.677300  0.739500  1.0  -0.1242
  C  C893  1  0.896800  0.815800  0.731400  1.0  0.2172
  C  C894  1  0.985700  0.755500  0.690300  1.0  0.2362
  C  C895  1  0.904400  0.814700  0.700600  1.0  -0.1056
  C  C896  1  0.124100  0.617800  0.917300  1.0  -0.1258
  C  C897  1  0.145080  0.587900  0.937980  1.0  -0.0129
  C  C898  1  0.144770  0.523600  0.940210  1.0  -0.1192
  C  C899  1  0.123500  0.489200  0.921800  1.0  -0.0598
  C  C900  1  0.102500  0.519000  0.901150  1.0  -0.1562
  C  C901  1  0.102800  0.583300  0.898920  1.0  0.0438
  C  C902  1  0.935100  0.794100  0.690600  1.0  -0.0425
  C  C903  1  0.882000  0.841200  0.677230  1.0  0.055
  C  C904  1  0.852600  0.813400  0.670600  1.0  -0.0931
  C  C905  1  0.831300  0.840000  0.649100  1.0  -0.1232
  C  C906  1  0.839400  0.894300  0.634280  1.0  0.0483
  C  C907  1  0.868800  0.922200  0.640900  1.0  -0.1358
  C  C908  1  0.890050  0.895600  0.662400  1.0  -0.1276
  C  C909  1  0.815800  0.923900  0.611200  1.0  0.044
  C  C910  1  0.795000  0.886200  0.593900  1.0  -0.1249
  C  C911  1  0.772900  0.912500  0.573200  1.0  -0.025
  C  C912  1  0.771600  0.976600  0.569700  1.0  -0.1304
  C  C913  1  0.792300  0.014300  0.586900  1.0  -0.0341
  C  C914  1  0.814500  0.988000  0.607700  1.0  -0.1333
  C  C915  1  0.866700  0.832300  0.772000  1.0  -0.1442
  C  C916  1  0.983700  0.716200  0.819600  1.0  0.0958
  C  C917  1  0.166700  0.488800  0.963800  1.0  0.6338
  C  C918  1  0.866400  0.839500  0.741100  1.0  -0.1544
  C  C919  1  0.974600  0.722800  0.851700  1.0  -0.1451
  C  C920  1  0.013200  0.728300  0.700200  1.0  0.0067
  C  C921  1  0.936300  0.763300  0.822100  1.0  0.1901
  C  C922  1  0.881900  0.802300  0.834200  1.0  0.0127
  C  C923  1  0.855700  0.765300  0.840000  1.0  -0.1217
  C  C924  1  0.835600  0.781500  0.863100  1.0  -0.1321
  C  C925  1  0.841600  0.834600  0.880400  1.0  0.0215
  C  C926  1  0.867800  0.871600  0.874600  1.0  -0.1316
  C  C927  1  0.887900  0.855500  0.851500  1.0  -0.123
  C  C928  1  0.907600  0.788600  0.811100  1.0  -0.0735
  C  C929  1  0.021600  0.702800  0.778800  1.0  0.2446
  C  C930  1  0.076300  0.676200  0.630500  1.0  0.0303
  C  C931  1  0.050600  0.638100  0.636700  1.0  -0.1451
  C  C932  1  0.030000  0.654800  0.659200  1.0  -0.1414
  C  C933  1  0.034900  0.709600  0.675500  1.0  0.0396
  C  C934  1  0.060500  0.747700  0.669300  1.0  -0.1285
  C  C935  1  0.081200  0.730900  0.646800  1.0  -0.1295
  C  C936  1  0.051700  0.672800  0.771300  1.0  -0.1573
  C  C937  1  0.897300  0.802800  0.781800  1.0  0.1758
  C  C938  1  0.945400  0.790700  0.659300  1.0  -0.1487
  C  C939  1  0.945300  0.751000  0.852700  1.0  -0.0835
  C  C940  1  0.079300  0.616900  0.876470  1.0  0.038
  C  C941  1  0.049400  0.591000  0.870400  1.0  -0.153
  C  C942  1  0.028090  0.619000  0.849400  1.0  -0.1002
  C  C943  1  0.036700  0.673100  0.834560  1.0  0.0708
  C  C944  1  0.066600  0.699000  0.840700  1.0  -0.0721
  C  C945  1  0.087950  0.670900  0.861600  1.0  -0.1234
  C  C946  1  0.014700  0.702500  0.810500  1.0  -0.048
  C  C947  1  0.127200  0.580100  0.580600  1.0  -0.0402
  C  C948  1  0.143800  0.624400  0.564800  1.0  -0.136
  C  C949  1  0.138700  0.687100  0.570100  1.0  -0.0597
  C  C950  1  0.116900  0.705500  0.591200  1.0  -0.1382
  C  C951  1  0.100200  0.661100  0.607100  1.0  0.0331
  C  C952  1  0.105300  0.598400  0.601800  1.0  -0.1455
  C  C953  1  0.797500  0.803000  0.916500  1.0  -0.1241
  C  C954  1  0.817500  0.847800  0.905000  1.0  0.0196
  C  C955  1  0.816000  0.908700  0.915300  1.0  -0.1295
  C  C956  1  0.794400  0.924800  0.937100  1.0  -0.0303
  C  C957  1  0.774400  0.880000  0.948600  1.0  -0.1467
  C  C958  1  0.775900  0.819100  0.938300  1.0  -0.0503
  C  C959  1  0.974100  0.766000  0.659700  1.0  -0.1282
  C  C960  1  0.747600  0.005400  0.547700  1.0  0.6325
  C  C961  1  0.226900  0.305100  0.445700  1.0  0.2372
  C  C962  1  0.230000  0.260700  0.315200  1.0  0.1736
  C  C963  1  0.128750  0.210300  0.461210  1.0  0.0682
  C  C964  1  0.138880  0.176900  0.487100  1.0  -0.0914
  C  C965  1  0.117300  0.162000  0.509090  1.0  -0.1768
  C  C966  1  0.085700  0.180300  0.505280  1.0  0.0798
  C  C967  1  0.075540  0.213700  0.479400  1.0  -0.1004
  C  C968  1  0.097100  0.228600  0.457400  1.0  -0.092
  C  C969  1  0.180200  0.257600  0.446900  1.0  0.0748
  C  C970  1  0.995300  0.010100  0.172100  1.0  0.725
  C  C971  1  0.151200  0.226700  0.436900  1.0  -0.0104
  C  C972  1  0.266900  0.325000  0.405100  1.0  0.1306
  C  C973  1  0.293900  0.350300  0.363800  1.0  -0.155
  C  C974  1  0.293600  0.359000  0.394500  1.0  -0.1538
  C  C975  1  0.142400  0.202200  0.407100  1.0  0.0925
  C  C976  1  0.265900  0.315500  0.354900  1.0  0.047
  C  C977  1  0.373500  0.517200  0.547800  1.0  -0.0708
  C  C978  1  0.350900  0.493300  0.526800  1.0  -0.1408
  C  C979  1  0.346800  0.429500  0.524130  1.0  0.039
  C  C980  1  0.365300  0.389600  0.542600  1.0  -0.1465
  C  C981  1  0.387800  0.413500  0.563630  1.0  -0.0128
  C  C982  1  0.391930  0.477300  0.566270  1.0  -0.1765
  C  C983  1  0.115200  0.160400  0.368200  1.0  -0.138
  C  C984  1  0.256200  0.324000  0.435300  1.0  -0.0624
  C  C985  1  0.143800  0.188200  0.357100  1.0  -0.0159
  C  C986  1  0.215700  0.312400  0.476700  1.0  -0.1867
  C  C987  1  0.186100  0.287300  0.475600  1.0  -0.1458
  C  C988  1  0.064500  0.019000  0.230100  1.0  -0.1483
  C  C989  1  0.063400  0.081800  0.237200  1.0  0.034
  C  C990  1  0.039700  0.119200  0.223700  1.0  -0.1244
  C  C991  1  0.017200  0.094000  0.203100  1.0  -0.0955
  C  C992  1  0.018300  0.031200  0.195900  1.0  -0.142
  C  C993  1  0.041900  0.993700  0.209400  1.0  -0.0539
  C  C994  1  0.065500  0.156400  0.529810  1.0  0.023
  C  C995  1  0.042300  0.196100  0.540400  1.0  -0.1496
  C  C996  1  0.020840  0.174700  0.561300  1.0  -0.0609
  C  C997  1  0.022500  0.113700  0.571440  1.0  -0.1207
  C  C998  1  0.045600  0.074000  0.560800  1.0  -0.037
  C  C999  1  0.067100  0.095400  0.540000  1.0  -0.1449
  C  C1000  1  0.181500  0.218400  0.315300  1.0  0.0766
  C  C1001  1  0.258400  0.290200  0.323800  1.0  -0.0689
  C  C1002  1  0.323880  0.402900  0.501160  1.0  0.0448
  C  C1003  1  0.295500  0.434400  0.494340  1.0  -0.1313
  C  C1004  1  0.273200  0.409700  0.473290  1.0  -0.1215
  C  C1005  1  0.279190  0.353500  0.459070  1.0  0.0674
  C  C1006  1  0.307500  0.322000  0.465890  1.0  -0.1291
  C  C1007  1  0.329870  0.346700  0.486900  1.0  -0.1254
  C  C1008  1  0.332450  0.299500  0.278700  1.0  -0.1249
  C  C1009  1  0.310800  0.283400  0.300420  1.0  -0.0867
  C  C1010  1  0.280500  0.309600  0.299330  1.0  0.0636
  C  C1011  1  0.271900  0.352000  0.276500  1.0  -0.1236
  C  C1012  1  0.293500  0.368100  0.254720  1.0  -0.1575
  C  C1013  1  0.323800  0.341900  0.255800  1.0  0.025
  C  C1014  1  0.114200  0.167500  0.398500  1.0  -0.1761
  C  C1015  1  0.154000  0.185700  0.325600  1.0  -0.0793
  C  C1016  1  0.190600  0.218700  0.284500  1.0  -0.1708
  C  C1017  1  0.348500  0.362800  0.235070  1.0  0.0219
  C  C1018  1  0.373300  0.323000  0.228500  1.0  -0.168
  C  C1019  1  0.395700  0.340700  0.207800  1.0  -0.0537
  C  C1020  1  0.393300  0.398300  0.193590  1.0  -0.1297
  C  C1021  1  0.368400  0.438100  0.200100  1.0  -0.0606
  C  C1022  1  0.346100  0.420400  0.220900  1.0  -0.1511
  C  C1023  1  0.130600  0.154900  0.304000  1.0  0.0623
  C  C1024  1  0.124300  0.091700  0.303100  1.0  -0.1086
  C  C1025  1  0.103100  0.067800  0.280800  1.0  -0.1442
  C  C1026  1  0.088200  0.107100  0.259380  1.0  0.017
  C  C1027  1  0.094600  0.170400  0.260300  1.0  -0.1344
  C  C1028  1  0.115800  0.194300  0.282600  1.0  -0.1644
  C  C1029  1  0.220400  0.244300  0.285100  1.0  -0.0739
  C  C1030  1  0.417000  0.417600  0.169300  1.0  0.6299
  C  C1031  1  0.416500  0.503100  0.587200  1.0  0.6699
  C  C1032  1  0.000100  0.084800  0.594300  1.0  0.6863
  C  C1033  1  0.726900  0.805100  0.445700  1.0  0.2372
  C  C1034  1  0.730000  0.760700  0.315200  1.0  0.1736
  C  C1035  1  0.628750  0.710300  0.461210  1.0  0.0682
  C  C1036  1  0.638880  0.676900  0.487100  1.0  -0.0914
  C  C1037  1  0.617300  0.662000  0.509090  1.0  -0.1768
  C  C1038  1  0.585700  0.680300  0.505280  1.0  0.0798
  C  C1039  1  0.575540  0.713700  0.479400  1.0  -0.1004
  C  C1040  1  0.597100  0.728600  0.457400  1.0  -0.092
  C  C1041  1  0.680200  0.757600  0.446900  1.0  0.0748
  C  C1042  1  0.495300  0.510100  0.172100  1.0  0.725
  C  C1043  1  0.651200  0.726700  0.436900  1.0  -0.0104
  C  C1044  1  0.766900  0.825000  0.405100  1.0  0.1306
  C  C1045  1  0.793900  0.850300  0.363800  1.0  -0.155
  C  C1046  1  0.793600  0.859000  0.394500  1.0  -0.1538
  C  C1047  1  0.642400  0.702200  0.407100  1.0  0.0925
  C  C1048  1  0.765900  0.815500  0.354900  1.0  0.047
  C  C1049  1  0.873500  0.017200  0.547800  1.0  -0.0708
  C  C1050  1  0.850900  0.993300  0.526800  1.0  -0.1408
  C  C1051  1  0.846800  0.929500  0.524130  1.0  0.039
  C  C1052  1  0.865300  0.889600  0.542600  1.0  -0.1465
  C  C1053  1  0.887800  0.913500  0.563630  1.0  -0.0128
  C  C1054  1  0.891930  0.977300  0.566270  1.0  -0.1765
  C  C1055  1  0.615200  0.660400  0.368200  1.0  -0.138
  C  C1056  1  0.756200  0.824000  0.435300  1.0  -0.0624
  C  C1057  1  0.643800  0.688200  0.357100  1.0  -0.0159
  C  C1058  1  0.715700  0.812400  0.476700  1.0  -0.1867
  C  C1059  1  0.686100  0.787300  0.475600  1.0  -0.1458
  C  C1060  1  0.564500  0.519000  0.230100  1.0  -0.1483
  C  C1061  1  0.563400  0.581800  0.237200  1.0  0.034
  C  C1062  1  0.539700  0.619200  0.223700  1.0  -0.1244
  C  C1063  1  0.517200  0.594000  0.203100  1.0  -0.0955
  C  C1064  1  0.518300  0.531200  0.195900  1.0  -0.142
  C  C1065  1  0.541900  0.493700  0.209400  1.0  -0.0539
  C  C1066  1  0.565500  0.656400  0.529810  1.0  0.023
  C  C1067  1  0.542300  0.696100  0.540400  1.0  -0.1496
  C  C1068  1  0.520840  0.674700  0.561300  1.0  -0.0609
  C  C1069  1  0.522500  0.613700  0.571440  1.0  -0.1207
  C  C1070  1  0.545600  0.574000  0.560800  1.0  -0.037
  C  C1071  1  0.567100  0.595400  0.540000  1.0  -0.1449
  C  C1072  1  0.681500  0.718400  0.315300  1.0  0.0766
  C  C1073  1  0.758400  0.790200  0.323800  1.0  -0.0689
  C  C1074  1  0.823880  0.902900  0.501160  1.0  0.0448
  C  C1075  1  0.795500  0.934400  0.494340  1.0  -0.1313
  C  C1076  1  0.773200  0.909700  0.473290  1.0  -0.1215
  C  C1077  1  0.779190  0.853500  0.459070  1.0  0.0674
  C  C1078  1  0.807500  0.822000  0.465890  1.0  -0.1291
  C  C1079  1  0.829870  0.846700  0.486900  1.0  -0.1254
  C  C1080  1  0.832450  0.799500  0.278700  1.0  -0.1249
  C  C1081  1  0.810800  0.783400  0.300420  1.0  -0.0867
  C  C1082  1  0.780500  0.809600  0.299330  1.0  0.0636
  C  C1083  1  0.771900  0.852000  0.276500  1.0  -0.1236
  C  C1084  1  0.793500  0.868100  0.254720  1.0  -0.1575
  C  C1085  1  0.823800  0.841900  0.255800  1.0  0.025
  C  C1086  1  0.614200  0.667500  0.398500  1.0  -0.1761
  C  C1087  1  0.654000  0.685700  0.325600  1.0  -0.0793
  C  C1088  1  0.690600  0.718700  0.284500  1.0  -0.1708
  C  C1089  1  0.848500  0.862800  0.235070  1.0  0.0219
  C  C1090  1  0.873300  0.823000  0.228500  1.0  -0.168
  C  C1091  1  0.895700  0.840700  0.207800  1.0  -0.0537
  C  C1092  1  0.893300  0.898300  0.193590  1.0  -0.1297
  C  C1093  1  0.868400  0.938100  0.200100  1.0  -0.0606
  C  C1094  1  0.846100  0.920400  0.220900  1.0  -0.1511
  C  C1095  1  0.630600  0.654900  0.304000  1.0  0.0623
  C  C1096  1  0.624300  0.591700  0.303100  1.0  -0.1086
  C  C1097  1  0.603100  0.567800  0.280800  1.0  -0.1442
  C  C1098  1  0.588200  0.607100  0.259380  1.0  0.017
  C  C1099  1  0.594600  0.670400  0.260300  1.0  -0.1344
  C  C1100  1  0.615800  0.694300  0.282600  1.0  -0.1644
  C  C1101  1  0.720400  0.744300  0.285100  1.0  -0.0739
  C  C1102  1  0.917000  0.917600  0.169300  1.0  0.6299
  C  C1103  1  0.916500  0.003100  0.587200  1.0  0.6699
  C  C1104  1  0.500100  0.584800  0.594300  1.0  0.6863
  C  C1105  1  0.226900  0.694900  0.945700  1.0  0.2367
  C  C1106  1  0.230000  0.739300  0.815200  1.0  0.1736
  C  C1107  1  0.128750  0.789700  0.961210  1.0  0.0675
  C  C1108  1  0.138880  0.823100  0.987100  1.0  -0.0915
  C  C1109  1  0.117300  0.838000  0.009090  1.0  -0.1777
  C  C1110  1  0.085700  0.819700  0.005280  1.0  0.0794
  C  C1111  1  0.075540  0.786300  0.979400  1.0  -0.1007
  C  C1112  1  0.097100  0.771400  0.957400  1.0  -0.0921
  C  C1113  1  0.180200  0.742400  0.946900  1.0  0.0745
  C  C1114  1  0.995300  0.989900  0.672100  1.0  0.7253
  C  C1115  1  0.151200  0.773300  0.936900  1.0  -0.01
  C  C1116  1  0.266900  0.675000  0.905100  1.0  0.1303
  C  C1117  1  0.293900  0.649700  0.863800  1.0  -0.1563
  C  C1118  1  0.293600  0.641000  0.894500  1.0  -0.1544
  C  C1119  1  0.142400  0.797800  0.907100  1.0  0.0931
  C  C1120  1  0.265900  0.684500  0.854900  1.0  0.0471
  C  C1121  1  0.373500  0.482800  0.047800  1.0  -0.0706
  C  C1122  1  0.350900  0.506700  0.026800  1.0  -0.1369
  C  C1123  1  0.346800  0.570500  0.024130  1.0  0.0394
  C  C1124  1  0.365300  0.610400  0.042600  1.0  -0.1467
  C  C1125  1  0.387800  0.586500  0.063630  1.0  -0.0132
  C  C1126  1  0.391930  0.522700  0.066270  1.0  -0.177
  C  C1127  1  0.115200  0.839600  0.868200  1.0  -0.1391
  C  C1128  1  0.256200  0.676000  0.935300  1.0  -0.0627
  C  C1129  1  0.143800  0.811800  0.857100  1.0  -0.0158
  C  C1130  1  0.215700  0.687600  0.976700  1.0  -0.1869
  C  C1131  1  0.186100  0.712700  0.975600  1.0  -0.1459
  C  C1132  1  0.064500  0.981000  0.730100  1.0  -0.148
  C  C1133  1  0.063400  0.918200  0.737200  1.0  0.0346
  C  C1134  1  0.039700  0.880800  0.723700  1.0  -0.1241
  C  C1135  1  0.017200  0.906000  0.703100  1.0  -0.0952
  C  C1136  1  0.018300  0.968800  0.695900  1.0  -0.1421
  C  C1137  1  0.041900  0.006300  0.709400  1.0  -0.0543
  C  C1138  1  0.065500  0.843600  0.029810  1.0  0.023
  C  C1139  1  0.042300  0.803900  0.040400  1.0  -0.1496
  C  C1140  1  0.020840  0.825300  0.061300  1.0  -0.0606
  C  C1141  1  0.022500  0.886300  0.071440  1.0  -0.1204
  C  C1142  1  0.045600  0.926000  0.060800  1.0  -0.0352
  C  C1143  1  0.067100  0.904600  0.040000  1.0  -0.1444
  C  C1144  1  0.181500  0.781600  0.815300  1.0  0.0766
  C  C1145  1  0.258400  0.709800  0.823800  1.0  -0.0685
  C  C1146  1  0.323880  0.597100  0.001160  1.0  0.0451
  C  C1147  1  0.295500  0.565600  0.994340  1.0  -0.1318
  C  C1148  1  0.273200  0.590300  0.973290  1.0  -0.121
  C  C1149  1  0.279190  0.646500  0.959070  1.0  0.0673
  C  C1150  1  0.307500  0.678000  0.965890  1.0  -0.1285
  C  C1151  1  0.329870  0.653300  0.986900  1.0  -0.1245
  C  C1152  1  0.332450  0.700500  0.778700  1.0  -0.1253
  C  C1153  1  0.310800  0.716600  0.800420  1.0  -0.087
  C  C1154  1  0.280500  0.690400  0.799330  1.0  0.0635
  C  C1155  1  0.271900  0.648000  0.776500  1.0  -0.1243
  C  C1156  1  0.293500  0.631900  0.754720  1.0  -0.1573
  C  C1157  1  0.323800  0.658100  0.755800  1.0  0.0255
  C  C1158  1  0.114200  0.832500  0.898500  1.0  -0.1777
  C  C1159  1  0.154000  0.814300  0.825600  1.0  -0.0793
  C  C1160  1  0.190600  0.781300  0.784500  1.0  -0.1707
  C  C1161  1  0.348500  0.637200  0.735070  1.0  0.0219
  C  C1162  1  0.373300  0.677000  0.728500  1.0  -0.1688
  C  C1163  1  0.395700  0.659300  0.707800  1.0  -0.054
  C  C1164  1  0.393300  0.601700  0.693590  1.0  -0.1294
  C  C1165  1  0.368400  0.561900  0.700100  1.0  -0.0601
  C  C1166  1  0.346100  0.579600  0.720900  1.0  -0.1495
  C  C1167  1  0.130600  0.845100  0.804000  1.0  0.0626
  C  C1168  1  0.124300  0.908300  0.803100  1.0  -0.1092
  C  C1169  1  0.103100  0.932200  0.780800  1.0  -0.143
  C  C1170  1  0.088200  0.892900  0.759380  1.0  0.017
  C  C1171  1  0.094600  0.829600  0.760300  1.0  -0.1343
  C  C1172  1  0.115800  0.805700  0.782600  1.0  -0.1647
  C  C1173  1  0.220400  0.755700  0.785100  1.0  -0.0739
  C  C1174  1  0.417000  0.582400  0.669300  1.0  0.6298
  C  C1175  1  0.416500  0.496900  0.087200  1.0  0.6697
  C  C1176  1  0.000100  0.915200  0.094300  1.0  0.6862
  C  C1177  1  0.726900  0.194900  0.945700  1.0  0.2367
  C  C1178  1  0.730000  0.239300  0.815200  1.0  0.1736
  C  C1179  1  0.628750  0.289700  0.961210  1.0  0.0675
  C  C1180  1  0.638880  0.323100  0.987100  1.0  -0.0915
  C  C1181  1  0.617300  0.338000  0.009090  1.0  -0.1777
  C  C1182  1  0.585700  0.319700  0.005280  1.0  0.0794
  C  C1183  1  0.575540  0.286300  0.979400  1.0  -0.1007
  C  C1184  1  0.597100  0.271400  0.957400  1.0  -0.0921
  C  C1185  1  0.680200  0.242400  0.946900  1.0  0.0745
  C  C1186  1  0.495300  0.489900  0.672100  1.0  0.7253
  C  C1187  1  0.651200  0.273300  0.936900  1.0  -0.01
  C  C1188  1  0.766900  0.175000  0.905100  1.0  0.1303
  C  C1189  1  0.793900  0.149700  0.863800  1.0  -0.1563
  C  C1190  1  0.793600  0.141000  0.894500  1.0  -0.1544
  C  C1191  1  0.642400  0.297800  0.907100  1.0  0.0931
  C  C1192  1  0.765900  0.184500  0.854900  1.0  0.0471
  C  C1193  1  0.873500  0.982800  0.047800  1.0  -0.0706
  C  C1194  1  0.850900  0.006700  0.026800  1.0  -0.1369
  C  C1195  1  0.846800  0.070500  0.024130  1.0  0.0394
  C  C1196  1  0.865300  0.110400  0.042600  1.0  -0.1467
  C  C1197  1  0.887800  0.086500  0.063630  1.0  -0.0132
  C  C1198  1  0.891930  0.022700  0.066270  1.0  -0.177
  C  C1199  1  0.615200  0.339600  0.868200  1.0  -0.1391
  C  C1200  1  0.756200  0.176000  0.935300  1.0  -0.0627
  C  C1201  1  0.643800  0.311800  0.857100  1.0  -0.0158
  C  C1202  1  0.715700  0.187600  0.976700  1.0  -0.1869
  C  C1203  1  0.686100  0.212700  0.975600  1.0  -0.1459
  C  C1204  1  0.564500  0.481000  0.730100  1.0  -0.148
  C  C1205  1  0.563400  0.418200  0.737200  1.0  0.0346
  C  C1206  1  0.539700  0.380800  0.723700  1.0  -0.1241
  C  C1207  1  0.517200  0.406000  0.703100  1.0  -0.0952
  C  C1208  1  0.518300  0.468800  0.695900  1.0  -0.1421
  C  C1209  1  0.541900  0.506300  0.709400  1.0  -0.0543
  C  C1210  1  0.565500  0.343600  0.029810  1.0  0.023
  C  C1211  1  0.542300  0.303900  0.040400  1.0  -0.1496
  C  C1212  1  0.520840  0.325300  0.061300  1.0  -0.0606
  C  C1213  1  0.522500  0.386300  0.071440  1.0  -0.1204
  C  C1214  1  0.545600  0.426000  0.060800  1.0  -0.0352
  C  C1215  1  0.567100  0.404600  0.040000  1.0  -0.1444
  C  C1216  1  0.681500  0.281600  0.815300  1.0  0.0766
  C  C1217  1  0.758400  0.209800  0.823800  1.0  -0.0685
  C  C1218  1  0.823880  0.097100  0.001160  1.0  0.0451
  C  C1219  1  0.795500  0.065600  0.994340  1.0  -0.1318
  C  C1220  1  0.773200  0.090300  0.973290  1.0  -0.121
  C  C1221  1  0.779190  0.146500  0.959070  1.0  0.0673
  C  C1222  1  0.807500  0.178000  0.965890  1.0  -0.1285
  C  C1223  1  0.829870  0.153300  0.986900  1.0  -0.1245
  C  C1224  1  0.832450  0.200500  0.778700  1.0  -0.1253
  C  C1225  1  0.810800  0.216600  0.800420  1.0  -0.087
  C  C1226  1  0.780500  0.190400  0.799330  1.0  0.0635
  C  C1227  1  0.771900  0.148000  0.776500  1.0  -0.1243
  C  C1228  1  0.793500  0.131900  0.754720  1.0  -0.1573
  C  C1229  1  0.823800  0.158100  0.755800  1.0  0.0255
  C  C1230  1  0.614200  0.332500  0.898500  1.0  -0.1777
  C  C1231  1  0.654000  0.314300  0.825600  1.0  -0.0793
  C  C1232  1  0.690600  0.281300  0.784500  1.0  -0.1707
  C  C1233  1  0.848500  0.137200  0.735070  1.0  0.0219
  C  C1234  1  0.873300  0.177000  0.728500  1.0  -0.1688
  C  C1235  1  0.895700  0.159300  0.707800  1.0  -0.054
  C  C1236  1  0.893300  0.101700  0.693590  1.0  -0.1294
  C  C1237  1  0.868400  0.061900  0.700100  1.0  -0.0601
  C  C1238  1  0.846100  0.079600  0.720900  1.0  -0.1495
  C  C1239  1  0.630600  0.345100  0.804000  1.0  0.0626
  C  C1240  1  0.624300  0.408300  0.803100  1.0  -0.1092
  C  C1241  1  0.603100  0.432200  0.780800  1.0  -0.143
  C  C1242  1  0.588200  0.392900  0.759380  1.0  0.017
  C  C1243  1  0.594600  0.329600  0.760300  1.0  -0.1343
  C  C1244  1  0.615800  0.305700  0.782600  1.0  -0.1647
  C  C1245  1  0.720400  0.255700  0.785100  1.0  -0.0739
  C  C1246  1  0.917000  0.082400  0.669300  1.0  0.6298
  C  C1247  1  0.916500  0.996900  0.087200  1.0  0.6697
  C  C1248  1  0.500100  0.415200  0.094300  1.0  0.6862
  C  C1249  1  0.987100  0.766000  0.254100  1.0  0.014
  C  C1250  1  0.913100  0.716300  0.379200  1.0  0.1199
  C  C1251  1  0.961000  0.731900  0.246100  1.0  0.2831
  C  C1252  1  0.139200  0.906200  0.100400  1.0  0.5353
  C  C1253  1  0.998100  0.780100  0.285100  1.0  0.1104
  C  C1254  1  0.916300  0.675700  0.248200  1.0  0.0435
  C  C1255  1  0.844600  0.642900  0.328400  1.0  -0.1837
  C  C1256  1  0.846400  0.638800  0.298000  1.0  -0.1196
  C  C1257  1  0.724000  0.495300  0.099800  1.0  0.6413
  C  C1258  1  0.024900  0.815300  0.293800  1.0  -0.1242
  C  C1259  1  0.071300  0.839300  0.161500  1.0  0.0362
  C  C1260  1  0.067100  0.897500  0.148300  1.0  -0.1552
  C  C1261  1  0.089200  0.920000  0.128300  1.0  -0.0319
  C  C1262  1  0.115400  0.884200  0.121500  1.0  -0.0935
  C  C1263  1  0.119700  0.825900  0.134700  1.0  -0.0934
  C  C1264  1  0.097600  0.803500  0.154700  1.0  -0.197
  C  C1265  1  0.994700  0.800100  0.337300  1.0  0.001
  C  C1266  1  0.883700  0.688700  0.368000  1.0  -0.1104
  C  C1267  1  0.959800  0.760900  0.378000  1.0  0.2611
  C  C1268  1  0.866500  0.628500  0.229400  1.0  0.0248
  C  C1269  1  0.853500  0.667800  0.206900  1.0  -0.1035
  C  C1270  1  0.831200  0.645200  0.185300  1.0  -0.1498
  C  C1271  1  0.821900  0.583300  0.186100  1.0  0.051
  C  C1272  1  0.834900  0.544100  0.208600  1.0  -0.1269
  C  C1273  1  0.857200  0.566700  0.230200  1.0  -0.0805
  C  C1274  1  0.930100  0.676000  0.218700  1.0  -0.0476
  C  C1275  1  0.873900  0.658600  0.284800  1.0  0.1075
  C  C1276  1  0.957500  0.705400  0.217300  1.0  -0.1665
  C  C1277  1  0.947000  0.766200  0.407300  1.0  -0.0694
  C  C1278  1  0.885300  0.655400  0.255700  1.0  -0.0742
  C  C1279  1  0.062800  0.779500  0.210100  1.0  -0.1289
  C  C1280  1  0.051300  0.812600  0.184700  1.0  0.0299
  C  C1281  1  0.019100  0.827800  0.181600  1.0  -0.2258
  C  C1282  1  0.998500  0.809900  0.204000  1.0  -0.113
  C  C1283  1  0.010100  0.776700  0.229400  1.0  0.0456
  C  C1284  1  0.042200  0.761500  0.232400  1.0  -0.092
  C  C1285  1  0.921600  0.732200  0.410200  1.0  -0.1704
  C  C1286  1  0.984500  0.794100  0.366900  1.0  -0.0723
  C  C1287  1  0.860900  0.670000  0.392100  1.0  0.0718
  C  C1288  1  0.831000  0.697600  0.392100  1.0  -0.0897
  C  C1289  1  0.809600  0.680600  0.413900  1.0  -0.1609
  C  C1290  1  0.818200  0.636100  0.435800  1.0  0.0532
  C  C1291  1  0.848100  0.608500  0.435800  1.0  -0.1178
  C  C1292  1  0.869400  0.625400  0.413900  1.0  -0.0956
  C  C1293  1  0.746900  0.577700  0.135000  1.0  -0.0591
  C  C1294  1  0.770100  0.599800  0.155900  1.0  -0.152
  C  C1295  1  0.795400  0.561700  0.165500  1.0  0.0486
  C  C1296  1  0.797300  0.501600  0.154200  1.0  -0.1451
  C  C1297  1  0.774100  0.479600  0.133300  1.0  -0.0475
  C  C1298  1  0.748900  0.517600  0.123700  1.0  -0.13
  C  C1299  1  0.872800  0.675300  0.337900  1.0  0.1105
  C  C1300  1  0.051300  0.876800  0.433100  1.0  0.0013
  C  C1301  1  0.030500  0.913100  0.415100  1.0  -0.1211
  C  C1302  1  0.009300  0.885300  0.393900  1.0  -0.1094
  C  C1303  1  0.008900  0.821200  0.390800  1.0  0.0134
  C  C1304  1  0.029700  0.784800  0.408800  1.0  -0.1485
  C  C1305  1  0.050900  0.812700  0.429900  1.0  -0.1375
  C  C1306  1  0.795600  0.619600  0.459600  1.0  0.0458
  C  C1307  1  0.773900  0.664700  0.467600  1.0  -0.1577
  C  C1308  1  0.750700  0.650700  0.488200  1.0  -0.0269
  C  C1309  1  0.749200  0.591600  0.500700  1.0  -0.1326
  C  C1310  1  0.770900  0.546400  0.492600  1.0  -0.0375
  C  C1311  1  0.794100  0.560400  0.472000  1.0  -0.0718
  C  C1312  1  0.137700  0.987800  0.521600  1.0  0.4398
  C  C1313  1  0.724900  0.571700  0.523000  1.0  0.6072
  C  C1314  1  0.103800  0.899700  0.503000  1.0  -0.0691
  C  C1315  1  0.113900  0.960900  0.500600  1.0  -0.1594
  C  C1316  1  0.102900  0.997200  0.476100  1.0  -0.0712
  C  C1317  1  0.081800  0.972300  0.454000  1.0  -0.1422
  C  C1318  1  0.071700  0.911200  0.456400  1.0  0.0265
  C  C1319  1  0.082700  0.874900  0.480900  1.0  -0.1987
  C  C1320  1  0.019300  0.832700  0.322300  1.0  -0.0555
  C  C1321  1  0.487100  0.266000  0.254100  1.0  0.014
  C  C1322  1  0.413100  0.216300  0.379200  1.0  0.1199
  C  C1323  1  0.461000  0.231900  0.246100  1.0  0.2831
  C  C1324  1  0.639200  0.406200  0.100400  1.0  0.5353
  C  C1325  1  0.498100  0.280100  0.285100  1.0  0.1104
  C  C1326  1  0.416300  0.175700  0.248200  1.0  0.0435
  C  C1327  1  0.344600  0.142900  0.328400  1.0  -0.1837
  C  C1328  1  0.346400  0.138800  0.298000  1.0  -0.1196
  C  C1329  1  0.224000  0.995300  0.099800  1.0  0.6413
  C  C1330  1  0.524900  0.315300  0.293800  1.0  -0.1242
  C  C1331  1  0.571300  0.339300  0.161500  1.0  0.0362
  C  C1332  1  0.567100  0.397500  0.148300  1.0  -0.1552
  C  C1333  1  0.589200  0.420000  0.128300  1.0  -0.0319
  C  C1334  1  0.615400  0.384200  0.121500  1.0  -0.0935
  C  C1335  1  0.619700  0.325900  0.134700  1.0  -0.0934
  C  C1336  1  0.597600  0.303500  0.154700  1.0  -0.197
  C  C1337  1  0.494700  0.300100  0.337300  1.0  0.001
  C  C1338  1  0.383700  0.188700  0.368000  1.0  -0.1104
  C  C1339  1  0.459800  0.260900  0.378000  1.0  0.2611
  C  C1340  1  0.366500  0.128500  0.229400  1.0  0.0248
  C  C1341  1  0.353500  0.167800  0.206900  1.0  -0.1035
  C  C1342  1  0.331200  0.145200  0.185300  1.0  -0.1498
  C  C1343  1  0.321900  0.083300  0.186100  1.0  0.051
  C  C1344  1  0.334900  0.044100  0.208600  1.0  -0.1269
  C  C1345  1  0.357200  0.066700  0.230200  1.0  -0.0805
  C  C1346  1  0.430100  0.176000  0.218700  1.0  -0.0476
  C  C1347  1  0.373900  0.158600  0.284800  1.0  0.1075
  C  C1348  1  0.457500  0.205400  0.217300  1.0  -0.1665
  C  C1349  1  0.447000  0.266200  0.407300  1.0  -0.0694
  C  C1350  1  0.385300  0.155400  0.255700  1.0  -0.0742
  C  C1351  1  0.562800  0.279500  0.210100  1.0  -0.1289
  C  C1352  1  0.551300  0.312600  0.184700  1.0  0.0299
  C  C1353  1  0.519100  0.327800  0.181600  1.0  -0.2258
  C  C1354  1  0.498500  0.309900  0.204000  1.0  -0.113
  C  C1355  1  0.510100  0.276700  0.229400  1.0  0.0456
  C  C1356  1  0.542200  0.261500  0.232400  1.0  -0.092
  C  C1357  1  0.421600  0.232200  0.410200  1.0  -0.1704
  C  C1358  1  0.484500  0.294100  0.366900  1.0  -0.0723
  C  C1359  1  0.360900  0.170000  0.392100  1.0  0.0718
  C  C1360  1  0.331000  0.197600  0.392100  1.0  -0.0897
  C  C1361  1  0.309600  0.180600  0.413900  1.0  -0.1609
  C  C1362  1  0.318200  0.136100  0.435800  1.0  0.0532
  C  C1363  1  0.348100  0.108500  0.435800  1.0  -0.1178
  C  C1364  1  0.369400  0.125400  0.413900  1.0  -0.0956
  C  C1365  1  0.246900  0.077700  0.135000  1.0  -0.0591
  C  C1366  1  0.270100  0.099800  0.155900  1.0  -0.152
  C  C1367  1  0.295400  0.061700  0.165500  1.0  0.0486
  C  C1368  1  0.297300  0.001600  0.154200  1.0  -0.1451
  C  C1369  1  0.274100  0.979600  0.133300  1.0  -0.0475
  C  C1370  1  0.248900  0.017600  0.123700  1.0  -0.13
  C  C1371  1  0.372800  0.175300  0.337900  1.0  0.1105
  C  C1372  1  0.551300  0.376800  0.433100  1.0  0.0013
  C  C1373  1  0.530500  0.413100  0.415100  1.0  -0.1211
  C  C1374  1  0.509300  0.385300  0.393900  1.0  -0.1094
  C  C1375  1  0.508900  0.321200  0.390800  1.0  0.0134
  C  C1376  1  0.529700  0.284800  0.408800  1.0  -0.1485
  C  C1377  1  0.550900  0.312700  0.429900  1.0  -0.1375
  C  C1378  1  0.295600  0.119600  0.459600  1.0  0.0458
  C  C1379  1  0.273900  0.164700  0.467600  1.0  -0.1577
  C  C1380  1  0.250700  0.150700  0.488200  1.0  -0.0269
  C  C1381  1  0.249200  0.091600  0.500700  1.0  -0.1326
  C  C1382  1  0.270900  0.046400  0.492600  1.0  -0.0375
  C  C1383  1  0.294100  0.060400  0.472000  1.0  -0.0718
  C  C1384  1  0.637700  0.487800  0.521600  1.0  0.4398
  C  C1385  1  0.224900  0.071700  0.523000  1.0  0.6072
  C  C1386  1  0.603800  0.399700  0.503000  1.0  -0.0691
  C  C1387  1  0.613900  0.460900  0.500600  1.0  -0.1594
  C  C1388  1  0.602900  0.497200  0.476100  1.0  -0.0712
  C  C1389  1  0.581800  0.472300  0.454000  1.0  -0.1422
  C  C1390  1  0.571700  0.411200  0.456400  1.0  0.0265
  C  C1391  1  0.582700  0.374900  0.480900  1.0  -0.1987
  C  C1392  1  0.519300  0.332700  0.322300  1.0  -0.0555
  C  C1393  1  0.987100  0.234000  0.754100  1.0  0.0142
  C  C1394  1  0.913100  0.283700  0.879200  1.0  0.1202
  C  C1395  1  0.961000  0.268100  0.746100  1.0  0.2834
  C  C1396  1  0.139200  0.093800  0.600400  1.0  0.5353
  C  C1397  1  0.998100  0.219900  0.785100  1.0  0.1108
  C  C1398  1  0.916300  0.324300  0.748200  1.0  0.0443
  C  C1399  1  0.844600  0.357100  0.828400  1.0  -0.1843
  C  C1400  1  0.846400  0.361200  0.798000  1.0  -0.1193
  C  C1401  1  0.724000  0.504700  0.599800  1.0  0.6405
  C  C1402  1  0.024900  0.184700  0.793800  1.0  -0.1253
  C  C1403  1  0.071300  0.160700  0.661500  1.0  0.0359
  C  C1404  1  0.067100  0.102500  0.648300  1.0  -0.155
  C  C1405  1  0.089200  0.080000  0.628300  1.0  -0.032
  C  C1406  1  0.115400  0.115800  0.621500  1.0  -0.0937
  C  C1407  1  0.119700  0.174100  0.634700  1.0  -0.0937
  C  C1408  1  0.097600  0.196500  0.654700  1.0  -0.1975
  C  C1409  1  0.994700  0.199900  0.837300  1.0  0.0005
  C  C1410  1  0.883700  0.311300  0.868000  1.0  -0.1112
  C  C1411  1  0.959800  0.239100  0.878000  1.0  0.261
  C  C1412  1  0.866500  0.371500  0.729400  1.0  0.0245
  C  C1413  1  0.853500  0.332200  0.706900  1.0  -0.1041
  C  C1414  1  0.831200  0.354800  0.685300  1.0  -0.1486
  C  C1415  1  0.821900  0.416700  0.686100  1.0  0.051
  C  C1416  1  0.834900  0.455900  0.708600  1.0  -0.1271
  C  C1417  1  0.857200  0.433300  0.730200  1.0  -0.081
  C  C1418  1  0.930100  0.324000  0.718700  1.0  -0.0466
  C  C1419  1  0.873900  0.341400  0.784800  1.0  0.107
  C  C1420  1  0.957500  0.294600  0.717300  1.0  -0.1666
  C  C1421  1  0.947000  0.233800  0.907300  1.0  -0.0685
  C  C1422  1  0.885300  0.344600  0.755700  1.0  -0.0741
  C  C1423  1  0.062800  0.220500  0.710100  1.0  -0.129
  C  C1424  1  0.051300  0.187400  0.684700  1.0  0.0305
  C  C1425  1  0.019100  0.172200  0.681600  1.0  -0.225
  C  C1426  1  0.998500  0.190100  0.704000  1.0  -0.1128
  C  C1427  1  0.010100  0.223300  0.729400  1.0  0.0459
  C  C1428  1  0.042200  0.238500  0.732400  1.0  -0.0915
  C  C1429  1  0.921600  0.267800  0.910200  1.0  -0.1723
  C  C1430  1  0.984500  0.205900  0.866900  1.0  -0.0729
  C  C1431  1  0.860900  0.330000  0.892100  1.0  0.0717
  C  C1432  1  0.831000  0.302400  0.892100  1.0  -0.0894
  C  C1433  1  0.809600  0.319400  0.913900  1.0  -0.1607
  C  C1434  1  0.818200  0.363900  0.935800  1.0  0.0532
  C  C1435  1  0.848100  0.391500  0.935800  1.0  -0.1178
  C  C1436  1  0.869400  0.374600  0.913900  1.0  -0.0931
  C  C1437  1  0.746900  0.422300  0.635000  1.0  -0.059
  C  C1438  1  0.770100  0.400200  0.655900  1.0  -0.152
  C  C1439  1  0.795400  0.438300  0.665500  1.0  0.0481
  C  C1440  1  0.797300  0.498400  0.654200  1.0  -0.1456
  C  C1441  1  0.774100  0.520400  0.633300  1.0  -0.0489
  C  C1442  1  0.748900  0.482400  0.623700  1.0  -0.1294
  C  C1443  1  0.872800  0.324700  0.837900  1.0  0.1106
  C  C1444  1  0.051300  0.123200  0.933100  1.0  0.0014
  C  C1445  1  0.030500  0.086900  0.915100  1.0  -0.1221
  C  C1446  1  0.009300  0.114700  0.893900  1.0  -0.1088
  C  C1447  1  0.008900  0.178800  0.890800  1.0  0.0132
  C  C1448  1  0.029700  0.215200  0.908800  1.0  -0.1499
  C  C1449  1  0.050900  0.187300  0.929900  1.0  -0.1381
  C  C1450  1  0.795600  0.380400  0.959600  1.0  0.0456
  C  C1451  1  0.773900  0.335300  0.967600  1.0  -0.1571
  C  C1452  1  0.750700  0.349300  0.988200  1.0  -0.027
  C  C1453  1  0.749200  0.408400  0.000700  1.0  -0.1318
  C  C1454  1  0.770900  0.453600  0.992600  1.0  -0.0351
  C  C1455  1  0.794100  0.439600  0.972000  1.0  -0.0715
  C  C1456  1  0.137700  0.012200  0.021600  1.0  0.4389
  C  C1457  1  0.724900  0.428300  0.023000  1.0  0.6064
  C  C1458  1  0.103800  0.100300  0.003000  1.0  -0.0667
  C  C1459  1  0.113900  0.039100  0.000600  1.0  -0.1586
  C  C1460  1  0.102900  0.002800  0.976100  1.0  -0.0711
  C  C1461  1  0.081800  0.027700  0.954000  1.0  -0.1423
  C  C1462  1  0.071700  0.088800  0.956400  1.0  0.0268
  C  C1463  1  0.082700  0.125100  0.980900  1.0  -0.1977
  C  C1464  1  0.019300  0.167300  0.822300  1.0  -0.0558
  C  C1465  1  0.487100  0.734000  0.754100  1.0  0.0142
  C  C1466  1  0.413100  0.783700  0.879200  1.0  0.1202
  C  C1467  1  0.461000  0.768100  0.746100  1.0  0.2834
  C  C1468  1  0.639200  0.593800  0.600400  1.0  0.5353
  C  C1469  1  0.498100  0.719900  0.785100  1.0  0.1108
  C  C1470  1  0.416300  0.824300  0.748200  1.0  0.0443
  C  C1471  1  0.344600  0.857100  0.828400  1.0  -0.1843
  C  C1472  1  0.346400  0.861200  0.798000  1.0  -0.1193
  C  C1473  1  0.224000  0.004700  0.599800  1.0  0.6405
  C  C1474  1  0.524900  0.684700  0.793800  1.0  -0.1253
  C  C1475  1  0.571300  0.660700  0.661500  1.0  0.0359
  C  C1476  1  0.567100  0.602500  0.648300  1.0  -0.155
  C  C1477  1  0.589200  0.580000  0.628300  1.0  -0.032
  C  C1478  1  0.615400  0.615800  0.621500  1.0  -0.0937
  C  C1479  1  0.619700  0.674100  0.634700  1.0  -0.0937
  C  C1480  1  0.597600  0.696500  0.654700  1.0  -0.1975
  C  C1481  1  0.494700  0.699900  0.837300  1.0  0.0005
  C  C1482  1  0.383700  0.811300  0.868000  1.0  -0.1112
  C  C1483  1  0.459800  0.739100  0.878000  1.0  0.261
  C  C1484  1  0.366500  0.871500  0.729400  1.0  0.0245
  C  C1485  1  0.353500  0.832200  0.706900  1.0  -0.1041
  C  C1486  1  0.331200  0.854800  0.685300  1.0  -0.1486
  C  C1487  1  0.321900  0.916700  0.686100  1.0  0.051
  C  C1488  1  0.334900  0.955900  0.708600  1.0  -0.1271
  C  C1489  1  0.357200  0.933300  0.730200  1.0  -0.081
  C  C1490  1  0.430100  0.824000  0.718700  1.0  -0.0466
  C  C1491  1  0.373900  0.841400  0.784800  1.0  0.107
  C  C1492  1  0.457500  0.794600  0.717300  1.0  -0.1666
  C  C1493  1  0.447000  0.733800  0.907300  1.0  -0.0685
  C  C1494  1  0.385300  0.844600  0.755700  1.0  -0.0741
  C  C1495  1  0.562800  0.720500  0.710100  1.0  -0.129
  C  C1496  1  0.551300  0.687400  0.684700  1.0  0.0305
  C  C1497  1  0.519100  0.672200  0.681600  1.0  -0.225
  C  C1498  1  0.498500  0.690100  0.704000  1.0  -0.1128
  C  C1499  1  0.510100  0.723300  0.729400  1.0  0.0459
  C  C1500  1  0.542200  0.738500  0.732400  1.0  -0.0915
  C  C1501  1  0.421600  0.767800  0.910200  1.0  -0.1723
  C  C1502  1  0.484500  0.705900  0.866900  1.0  -0.0729
  C  C1503  1  0.360900  0.830000  0.892100  1.0  0.0717
  C  C1504  1  0.331000  0.802400  0.892100  1.0  -0.0894
  C  C1505  1  0.309600  0.819400  0.913900  1.0  -0.1607
  C  C1506  1  0.318200  0.863900  0.935800  1.0  0.0532
  C  C1507  1  0.348100  0.891500  0.935800  1.0  -0.1178
  C  C1508  1  0.369400  0.874600  0.913900  1.0  -0.0931
  C  C1509  1  0.246900  0.922300  0.635000  1.0  -0.059
  C  C1510  1  0.270100  0.900200  0.655900  1.0  -0.152
  C  C1511  1  0.295400  0.938300  0.665500  1.0  0.0481
  C  C1512  1  0.297300  0.998400  0.654200  1.0  -0.1456
  C  C1513  1  0.274100  0.020400  0.633300  1.0  -0.0489
  C  C1514  1  0.248900  0.982400  0.623700  1.0  -0.1294
  C  C1515  1  0.372800  0.824700  0.837900  1.0  0.1106
  C  C1516  1  0.551300  0.623200  0.933100  1.0  0.0014
  C  C1517  1  0.530500  0.586900  0.915100  1.0  -0.1221
  C  C1518  1  0.509300  0.614700  0.893900  1.0  -0.1088
  C  C1519  1  0.508900  0.678800  0.890800  1.0  0.0132
  C  C1520  1  0.529700  0.715200  0.908800  1.0  -0.1499
  C  C1521  1  0.550900  0.687300  0.929900  1.0  -0.1381
  C  C1522  1  0.295600  0.880400  0.959600  1.0  0.0456
  C  C1523  1  0.273900  0.835300  0.967600  1.0  -0.1571
  C  C1524  1  0.250700  0.849300  0.988200  1.0  -0.027
  C  C1525  1  0.249200  0.908400  0.000700  1.0  -0.1318
  C  C1526  1  0.270900  0.953600  0.992600  1.0  -0.0351
  C  C1527  1  0.294100  0.939600  0.972000  1.0  -0.0715
  C  C1528  1  0.637700  0.512200  0.021600  1.0  0.4389
  C  C1529  1  0.224900  0.928300  0.023000  1.0  0.6064
  C  C1530  1  0.603800  0.600300  0.003000  1.0  -0.0667
  C  C1531  1  0.613900  0.539100  0.000600  1.0  -0.1586
  C  C1532  1  0.602900  0.502800  0.976100  1.0  -0.0711
  C  C1533  1  0.581800  0.527700  0.954000  1.0  -0.1423
  C  C1534  1  0.571700  0.588800  0.956400  1.0  0.0268
  C  C1535  1  0.582700  0.625100  0.980900  1.0  -0.1977
  C  C1536  1  0.519300  0.667300  0.822300  1.0  -0.0558
  C  C1537  1  0.713500  0.277400  0.224600  1.0  0.0273
  C  C1538  1  0.927610  0.483600  0.348320  1.0  -0.123
  C  C1539  1  0.927520  0.420200  0.342390  1.0  -0.0448
  C  C1540  1  0.904900  0.395100  0.321700  1.0  -0.1419
  C  C1541  1  0.882380  0.433300  0.307020  1.0  -0.0289
  C  C1542  1  0.882500  0.496700  0.313000  1.0  -0.1299
  C  C1543  1  0.905100  0.521800  0.333600  1.0  -0.0324
  C  C1544  1  0.537300  0.001200  0.948900  1.0  0.6381
  C  C1545  1  0.718800  0.235100  0.094800  1.0  0.158
  C  C1546  1  0.830900  0.358700  0.176700  1.0  -0.1389
  C  C1547  1  0.765200  0.273100  0.094100  1.0  0.1319
  C  C1548  1  0.761800  0.311400  0.225600  1.0  0.2749
  C  C1549  1  0.650000  0.183900  0.174600  1.0  -0.1714
  C  C1550  1  0.602200  0.092700  0.013940  1.0  0.0294
  C  C1551  1  0.581000  0.127600  0.995600  1.0  -0.127
  C  C1552  1  0.560300  0.098300  0.974500  1.0  -0.026
  C  C1553  1  0.560800  0.034100  0.971700  1.0  -0.118
  C  C1554  1  0.582000  0.999200  0.990100  1.0  -0.0421
  C  C1555  1  0.602600  0.028500  0.011170  1.0  -0.1592
  C  C1556  1  0.957100  0.413600  0.952000  1.0  0.663
  C  C1557  1  0.858820  0.407000  0.282440  1.0  0.0132
  C  C1558  1  0.865410  0.352100  0.267280  1.0  -0.1289
  C  C1559  1  0.843200  0.327700  0.245970  1.0  -0.0927
  C  C1560  1  0.814490  0.358200  0.239810  1.0  0.0713
  C  C1561  1  0.807890  0.413100  0.255000  1.0  -0.1099
  C  C1562  1  0.830100  0.437400  0.276280  1.0  -0.1323
  C  C1563  1  0.933060  0.396200  0.975200  1.0  -0.1691
  C  C1564  1  0.912700  0.439900  0.987100  1.0  -0.0337
  C  C1565  1  0.890700  0.422200  0.008200  1.0  -0.13
  C  C1566  1  0.889110  0.360600  0.017490  1.0  0.0345
  C  C1567  1  0.909500  0.316900  0.005600  1.0  -0.1329
  C  C1568  1  0.931400  0.334600  0.984500  1.0  -0.0662
  C  C1569  1  0.863690  0.338800  0.038180  1.0  0.029
  C  C1570  1  0.870480  0.294600  0.060640  1.0  -0.13
  C  C1571  1  0.848100  0.280800  0.082040  1.0  -0.0762
  C  C1572  1  0.818850  0.311200  0.080970  1.0  0.0564
  C  C1573  1  0.812060  0.355500  0.058500  1.0  -0.0962
  C  C1574  1  0.834500  0.369300  0.037110  1.0  -0.1559
  C  C1575  1  0.802300  0.331300  0.184400  1.0  0.2689
  C  C1576  1  0.677800  0.218300  0.184300  1.0  0.1044
  C  C1577  1  0.757400  0.255000  0.062500  1.0  -0.1802
  C  C1578  1  0.832000  0.345200  0.146400  1.0  -0.087
  C  C1579  1  0.790800  0.331500  0.215500  1.0  -0.0639
  C  C1580  1  0.726000  0.237300  0.062000  1.0  -0.1659
  C  C1581  1  0.687200  0.216800  0.102600  1.0  -0.136
  C  C1582  1  0.804000  0.316300  0.135400  1.0  0.0778
  C  C1583  1  0.677700  0.208700  0.134600  1.0  0.0579
  C  C1584  1  0.795500  0.297800  0.104700  1.0  0.0214
  C  C1585  1  0.723200  0.287500  0.256900  1.0  -0.1604
  C  C1586  1  0.598800  0.164600  0.306800  1.0  0.0473
  C  C1587  1  0.598100  0.102300  0.314900  1.0  -0.1247
  C  C1588  1  0.577500  0.082200  0.336880  1.0  -0.0994
  C  C1589  1  0.557700  0.124400  0.350700  1.0  -0.1593
  C  C1590  1  0.558500  0.186700  0.342600  1.0  -0.0361
  C  C1591  1  0.579100  0.206800  0.320700  1.0  -0.1213
  C  C1592  1  0.752300  0.311600  0.257000  1.0  -0.1791
  C  C1593  1  0.684700  0.245300  0.212900  1.0  -0.0695
  C  C1594  1  0.950900  0.511100  0.370200  1.0  0.597
  C  C1595  1  0.648500  0.179500  0.143100  1.0  -0.193
  C  C1596  1  0.534100  0.103000  0.374300  1.0  0.6767
  C  C1597  1  0.660450  0.226500  0.236350  1.0  0.0248
  C  C1598  1  0.645800  0.269700  0.254600  1.0  -0.0798
  C  C1599  1  0.626300  0.250000  0.277530  1.0  -0.1481
  C  C1600  1  0.621500  0.187000  0.282250  1.0  0.0141
  C  C1601  1  0.636200  0.143700  0.264000  1.0  -0.1455
  C  C1602  1  0.655700  0.163500  0.241070  1.0  -0.1261
  C  C1603  1  0.666500  0.182000  0.077950  1.0  0.0485
  C  C1604  1  0.675780  0.127200  0.064200  1.0  -0.1294
  C  C1605  1  0.655700  0.098800  0.042200  1.0  -0.147
  C  C1606  1  0.626300  0.125200  0.034080  1.0  0.043
  C  C1607  1  0.617020  0.180000  0.047900  1.0  -0.12
  C  C1608  1  0.637100  0.208400  0.069800  1.0  -0.0746
  C  C1609  1  0.213500  0.777400  0.224600  1.0  0.0273
  C  C1610  1  0.427610  0.983600  0.348320  1.0  -0.123
  C  C1611  1  0.427520  0.920200  0.342390  1.0  -0.0448
  C  C1612  1  0.404900  0.895100  0.321700  1.0  -0.1419
  C  C1613  1  0.382380  0.933300  0.307020  1.0  -0.0289
  C  C1614  1  0.382500  0.996700  0.313000  1.0  -0.1299
  C  C1615  1  0.405100  0.021800  0.333600  1.0  -0.0324
  C  C1616  1  0.037300  0.501200  0.948900  1.0  0.6381
  C  C1617  1  0.218800  0.735100  0.094800  1.0  0.158
  C  C1618  1  0.330900  0.858700  0.176700  1.0  -0.1389
  C  C1619  1  0.265200  0.773100  0.094100  1.0  0.1319
  C  C1620  1  0.261800  0.811400  0.225600  1.0  0.2749
  C  C1621  1  0.150000  0.683900  0.174600  1.0  -0.1714
  C  C1622  1  0.102200  0.592700  0.013940  1.0  0.0294
  C  C1623  1  0.081000  0.627600  0.995600  1.0  -0.127
  C  C1624  1  0.060300  0.598300  0.974500  1.0  -0.026
  C  C1625  1  0.060800  0.534100  0.971700  1.0  -0.118
  C  C1626  1  0.082000  0.499200  0.990100  1.0  -0.0421
  C  C1627  1  0.102600  0.528500  0.011170  1.0  -0.1592
  C  C1628  1  0.457100  0.913600  0.952000  1.0  0.663
  C  C1629  1  0.358820  0.907000  0.282440  1.0  0.0132
  C  C1630  1  0.365410  0.852100  0.267280  1.0  -0.1289
  C  C1631  1  0.343200  0.827700  0.245970  1.0  -0.0927
  C  C1632  1  0.314490  0.858200  0.239810  1.0  0.0713
  C  C1633  1  0.307890  0.913100  0.255000  1.0  -0.1099
  C  C1634  1  0.330100  0.937400  0.276280  1.0  -0.1323
  C  C1635  1  0.433060  0.896200  0.975200  1.0  -0.1691
  C  C1636  1  0.412700  0.939900  0.987100  1.0  -0.0337
  C  C1637  1  0.390700  0.922200  0.008200  1.0  -0.13
  C  C1638  1  0.389110  0.860600  0.017490  1.0  0.0345
  C  C1639  1  0.409500  0.816900  0.005600  1.0  -0.1329
  C  C1640  1  0.431400  0.834600  0.984500  1.0  -0.0662
  C  C1641  1  0.363690  0.838800  0.038180  1.0  0.029
  C  C1642  1  0.370480  0.794600  0.060640  1.0  -0.13
  C  C1643  1  0.348100  0.780800  0.082040  1.0  -0.0762
  C  C1644  1  0.318850  0.811200  0.080970  1.0  0.0564
  C  C1645  1  0.312060  0.855500  0.058500  1.0  -0.0962
  C  C1646  1  0.334500  0.869300  0.037110  1.0  -0.1559
  C  C1647  1  0.302300  0.831300  0.184400  1.0  0.2689
  C  C1648  1  0.177800  0.718300  0.184300  1.0  0.1044
  C  C1649  1  0.257400  0.755000  0.062500  1.0  -0.1802
  C  C1650  1  0.332000  0.845200  0.146400  1.0  -0.087
  C  C1651  1  0.290800  0.831500  0.215500  1.0  -0.0639
  C  C1652  1  0.226000  0.737300  0.062000  1.0  -0.1659
  C  C1653  1  0.187200  0.716800  0.102600  1.0  -0.136
  C  C1654  1  0.304000  0.816300  0.135400  1.0  0.0778
  C  C1655  1  0.177700  0.708700  0.134600  1.0  0.0579
  C  C1656  1  0.295500  0.797800  0.104700  1.0  0.0214
  C  C1657  1  0.223200  0.787500  0.256900  1.0  -0.1604
  C  C1658  1  0.098800  0.664600  0.306800  1.0  0.0473
  C  C1659  1  0.098100  0.602300  0.314900  1.0  -0.1247
  C  C1660  1  0.077500  0.582200  0.336880  1.0  -0.0994
  C  C1661  1  0.057700  0.624400  0.350700  1.0  -0.1593
  C  C1662  1  0.058500  0.686700  0.342600  1.0  -0.0361
  C  C1663  1  0.079100  0.706800  0.320700  1.0  -0.1213
  C  C1664  1  0.252300  0.811600  0.257000  1.0  -0.1791
  C  C1665  1  0.184700  0.745300  0.212900  1.0  -0.0695
  C  C1666  1  0.450900  0.011100  0.370200  1.0  0.597
  C  C1667  1  0.148500  0.679500  0.143100  1.0  -0.193
  C  C1668  1  0.034100  0.603000  0.374300  1.0  0.6767
  C  C1669  1  0.160450  0.726500  0.236350  1.0  0.0248
  C  C1670  1  0.145800  0.769700  0.254600  1.0  -0.0798
  C  C1671  1  0.126300  0.750000  0.277530  1.0  -0.1481
  C  C1672  1  0.121500  0.687000  0.282250  1.0  0.0141
  C  C1673  1  0.136200  0.643700  0.264000  1.0  -0.1455
  C  C1674  1  0.155700  0.663500  0.241070  1.0  -0.1261
  C  C1675  1  0.166500  0.682000  0.077950  1.0  0.0485
  C  C1676  1  0.175780  0.627200  0.064200  1.0  -0.1294
  C  C1677  1  0.155700  0.598800  0.042200  1.0  -0.147
  C  C1678  1  0.126300  0.625200  0.034080  1.0  0.043
  C  C1679  1  0.117020  0.680000  0.047900  1.0  -0.12
  C  C1680  1  0.137100  0.708400  0.069800  1.0  -0.0746
  C  C1681  1  0.713500  0.722600  0.724600  1.0  0.0268
  C  C1682  1  0.927610  0.516400  0.848320  1.0  -0.1229
  C  C1683  1  0.927520  0.579800  0.842390  1.0  -0.0447
  C  C1684  1  0.904900  0.604900  0.821700  1.0  -0.1418
  C  C1685  1  0.882380  0.566700  0.807020  1.0  -0.0289
  C  C1686  1  0.882500  0.503300  0.813000  1.0  -0.1295
  C  C1687  1  0.905100  0.478200  0.833600  1.0  -0.0325
  C  C1688  1  0.537300  0.998800  0.448900  1.0  0.638
  C  C1689  1  0.718800  0.764900  0.594800  1.0  0.1585
  C  C1690  1  0.830900  0.641300  0.676700  1.0  -0.1396
  C  C1691  1  0.765200  0.726900  0.594100  1.0  0.132
  C  C1692  1  0.761800  0.688600  0.725600  1.0  0.2755
  C  C1693  1  0.650000  0.816100  0.674600  1.0  -0.1732
  C  C1694  1  0.602200  0.907300  0.513940  1.0  0.0291
  C  C1695  1  0.581000  0.872400  0.495600  1.0  -0.1262
  C  C1696  1  0.560300  0.901700  0.474500  1.0  -0.0254
  C  C1697  1  0.560800  0.965900  0.471700  1.0  -0.1169
  C  C1698  1  0.582000  0.000800  0.490100  1.0  -0.0431
  C  C1699  1  0.602600  0.971500  0.511170  1.0  -0.1589
  C  C1700  1  0.957100  0.586400  0.452000  1.0  0.6633
  C  C1701  1  0.858820  0.593000  0.782440  1.0  0.0133
  C  C1702  1  0.865410  0.647900  0.767280  1.0  -0.1287
  C  C1703  1  0.843200  0.672300  0.745970  1.0  -0.0924
  C  C1704  1  0.814490  0.641800  0.739810  1.0  0.0713
  C  C1705  1  0.807890  0.586900  0.755000  1.0  -0.1089
  C  C1706  1  0.830100  0.562600  0.776280  1.0  -0.131
  C  C1707  1  0.933060  0.603800  0.475200  1.0  -0.1688
  C  C1708  1  0.912700  0.560100  0.487100  1.0  -0.0351
  C  C1709  1  0.890700  0.577800  0.508200  1.0  -0.1304
  C  C1710  1  0.889110  0.639400  0.517490  1.0  0.0346
  C  C1711  1  0.909500  0.683100  0.505600  1.0  -0.1343
  C  C1712  1  0.931400  0.665400  0.484500  1.0  -0.0663
  C  C1713  1  0.863690  0.661200  0.538180  1.0  0.0291
  C  C1714  1  0.870480  0.705400  0.560640  1.0  -0.1287
  C  C1715  1  0.848100  0.719200  0.582040  1.0  -0.0769
  C  C1716  1  0.818850  0.688800  0.580970  1.0  0.0565
  C  C1717  1  0.812060  0.644500  0.558500  1.0  -0.0959
  C  C1718  1  0.834500  0.630700  0.537110  1.0  -0.1555
  C  C1719  1  0.802300  0.668700  0.684400  1.0  0.2688
  C  C1720  1  0.677800  0.781700  0.684300  1.0  0.1043
  C  C1721  1  0.757400  0.745000  0.562500  1.0  -0.1802
  C  C1722  1  0.832000  0.654800  0.646400  1.0  -0.0871
  C  C1723  1  0.790800  0.668500  0.715500  1.0  -0.0637
  C  C1724  1  0.726000  0.762700  0.562000  1.0  -0.166
  C  C1725  1  0.687200  0.783200  0.602600  1.0  -0.1359
  C  C1726  1  0.804000  0.683700  0.635400  1.0  0.0776
  C  C1727  1  0.677700  0.791300  0.634600  1.0  0.0576
  C  C1728  1  0.795500  0.702200  0.604700  1.0  0.0211
  C  C1729  1  0.723200  0.712500  0.756900  1.0  -0.1606
  C  C1730  1  0.598800  0.835400  0.806800  1.0  0.0468
  C  C1731  1  0.598100  0.897700  0.814900  1.0  -0.1246
  C  C1732  1  0.577500  0.917800  0.836880  1.0  -0.0997
  C  C1733  1  0.557700  0.875600  0.850700  1.0  -0.1592
  C  C1734  1  0.558500  0.813300  0.842600  1.0  -0.036
  C  C1735  1  0.579100  0.793200  0.820700  1.0  -0.1218
  C  C1736  1  0.752300  0.688400  0.757000  1.0  -0.179
  C  C1737  1  0.684700  0.754700  0.712900  1.0  -0.0692
  C  C1738  1  0.950900  0.488900  0.870200  1.0  0.596
  C  C1739  1  0.648500  0.820500  0.643100  1.0  -0.1934
  C  C1740  1  0.534100  0.897000  0.874300  1.0  0.6766
  C  C1741  1  0.660450  0.773500  0.736350  1.0  0.0244
  C  C1742  1  0.645800  0.730300  0.754600  1.0  -0.0791
  C  C1743  1  0.626300  0.750000  0.777530  1.0  -0.1499
  C  C1744  1  0.621500  0.813000  0.782250  1.0  0.0137
  C  C1745  1  0.636200  0.856300  0.764000  1.0  -0.1447
  C  C1746  1  0.655700  0.836500  0.741070  1.0  -0.1242
  C  C1747  1  0.666500  0.818000  0.577950  1.0  0.0488
  C  C1748  1  0.675780  0.872800  0.564200  1.0  -0.1287
  C  C1749  1  0.655700  0.901200  0.542200  1.0  -0.1478
  C  C1750  1  0.626300  0.874800  0.534080  1.0  0.0431
  C  C1751  1  0.617020  0.820000  0.547900  1.0  -0.1196
  C  C1752  1  0.637100  0.791600  0.569800  1.0  -0.0755
  C  C1753  1  0.213500  0.222600  0.724600  1.0  0.0268
  C  C1754  1  0.427610  0.016400  0.848320  1.0  -0.1229
  C  C1755  1  0.427520  0.079800  0.842390  1.0  -0.0447
  C  C1756  1  0.404900  0.104900  0.821700  1.0  -0.1418
  C  C1757  1  0.382380  0.066700  0.807020  1.0  -0.0289
  C  C1758  1  0.382500  0.003300  0.813000  1.0  -0.1295
  C  C1759  1  0.405100  0.978200  0.833600  1.0  -0.0325
  C  C1760  1  0.037300  0.498800  0.448900  1.0  0.638
  C  C1761  1  0.218800  0.264900  0.594800  1.0  0.1585
  C  C1762  1  0.330900  0.141300  0.676700  1.0  -0.1396
  C  C1763  1  0.265200  0.226900  0.594100  1.0  0.132
  C  C1764  1  0.261800  0.188600  0.725600  1.0  0.2755
  C  C1765  1  0.150000  0.316100  0.674600  1.0  -0.1732
  C  C1766  1  0.102200  0.407300  0.513940  1.0  0.0291
  C  C1767  1  0.081000  0.372400  0.495600  1.0  -0.1262
  C  C1768  1  0.060300  0.401700  0.474500  1.0  -0.0254
  C  C1769  1  0.060800  0.465900  0.471700  1.0  -0.1169
  C  C1770  1  0.082000  0.500800  0.490100  1.0  -0.0431
  C  C1771  1  0.102600  0.471500  0.511170  1.0  -0.1589
  C  C1772  1  0.457100  0.086400  0.452000  1.0  0.6633
  C  C1773  1  0.358820  0.093000  0.782440  1.0  0.0133
  C  C1774  1  0.365410  0.147900  0.767280  1.0  -0.1287
  C  C1775  1  0.343200  0.172300  0.745970  1.0  -0.0924
  C  C1776  1  0.314490  0.141800  0.739810  1.0  0.0713
  C  C1777  1  0.307890  0.086900  0.755000  1.0  -0.1089
  C  C1778  1  0.330100  0.062600  0.776280  1.0  -0.131
  C  C1779  1  0.433060  0.103800  0.475200  1.0  -0.1688
  C  C1780  1  0.412700  0.060100  0.487100  1.0  -0.0351
  C  C1781  1  0.390700  0.077800  0.508200  1.0  -0.1304
  C  C1782  1  0.389110  0.139400  0.517490  1.0  0.0346
  C  C1783  1  0.409500  0.183100  0.505600  1.0  -0.1343
  C  C1784  1  0.431400  0.165400  0.484500  1.0  -0.0663
  C  C1785  1  0.363690  0.161200  0.538180  1.0  0.0291
  C  C1786  1  0.370480  0.205400  0.560640  1.0  -0.1287
  C  C1787  1  0.348100  0.219200  0.582040  1.0  -0.0769
  C  C1788  1  0.318850  0.188800  0.580970  1.0  0.0565
  C  C1789  1  0.312060  0.144500  0.558500  1.0  -0.0959
  C  C1790  1  0.334500  0.130700  0.537110  1.0  -0.1555
  C  C1791  1  0.302300  0.168700  0.684400  1.0  0.2688
  C  C1792  1  0.177800  0.281700  0.684300  1.0  0.1043
  C  C1793  1  0.257400  0.245000  0.562500  1.0  -0.1802
  C  C1794  1  0.332000  0.154800  0.646400  1.0  -0.0871
  C  C1795  1  0.290800  0.168500  0.715500  1.0  -0.0637
  C  C1796  1  0.226000  0.262700  0.562000  1.0  -0.166
  C  C1797  1  0.187200  0.283200  0.602600  1.0  -0.1359
  C  C1798  1  0.304000  0.183700  0.635400  1.0  0.0776
  C  C1799  1  0.177700  0.291300  0.634600  1.0  0.0576
  C  C1800  1  0.295500  0.202200  0.604700  1.0  0.0211
  C  C1801  1  0.223200  0.212500  0.756900  1.0  -0.1606
  C  C1802  1  0.098800  0.335400  0.806800  1.0  0.0468
  C  C1803  1  0.098100  0.397700  0.814900  1.0  -0.1246
  C  C1804  1  0.077500  0.417800  0.836880  1.0  -0.0997
  C  C1805  1  0.057700  0.375600  0.850700  1.0  -0.1592
  C  C1806  1  0.058500  0.313300  0.842600  1.0  -0.036
  C  C1807  1  0.079100  0.293200  0.820700  1.0  -0.1218
  C  C1808  1  0.252300  0.188400  0.757000  1.0  -0.179
  C  C1809  1  0.184700  0.254700  0.712900  1.0  -0.0692
  C  C1810  1  0.450900  0.988900  0.870200  1.0  0.596
  C  C1811  1  0.148500  0.320500  0.643100  1.0  -0.1934
  C  C1812  1  0.034100  0.397000  0.874300  1.0  0.6766
  C  C1813  1  0.160450  0.273500  0.736350  1.0  0.0244
  C  C1814  1  0.145800  0.230300  0.754600  1.0  -0.0791
  C  C1815  1  0.126300  0.250000  0.777530  1.0  -0.1499
  C  C1816  1  0.121500  0.313000  0.782250  1.0  0.0137
  C  C1817  1  0.136200  0.356300  0.764000  1.0  -0.1447
  C  C1818  1  0.155700  0.336500  0.741070  1.0  -0.1242
  C  C1819  1  0.166500  0.318000  0.577950  1.0  0.0488
  C  C1820  1  0.175780  0.372800  0.564200  1.0  -0.1287
  C  C1821  1  0.155700  0.401200  0.542200  1.0  -0.1478
  C  C1822  1  0.126300  0.374800  0.534080  1.0  0.0431
  C  C1823  1  0.117020  0.320000  0.547900  1.0  -0.1196
  C  C1824  1  0.137100  0.291600  0.569800  1.0  -0.0755
  N  N1825  1  0.462500  0.730400  0.209500  1.0  -0.3453
  N  N1826  1  0.460000  0.753900  0.303100  1.0  -0.3965
  N  N1827  1  0.414400  0.706400  0.255800  1.0  -0.3697
  N  N1828  1  0.505900  0.772500  0.256600  1.0  -0.4152
  N  N1829  1  0.962500  0.230400  0.209500  1.0  -0.3453
  N  N1830  1  0.960000  0.253900  0.303100  1.0  -0.3965
  N  N1831  1  0.914400  0.206400  0.255800  1.0  -0.3697
  N  N1832  1  0.005900  0.272500  0.256600  1.0  -0.4152
  N  N1833  1  0.462500  0.269600  0.709500  1.0  -0.3447
  N  N1834  1  0.460000  0.246100  0.803100  1.0  -0.3948
  N  N1835  1  0.414400  0.293600  0.755800  1.0  -0.37
  N  N1836  1  0.505900  0.227500  0.756600  1.0  -0.4144
  N  N1837  1  0.962500  0.769600  0.709500  1.0  -0.3447
  N  N1838  1  0.960000  0.746100  0.803100  1.0  -0.3948
  N  N1839  1  0.914400  0.793600  0.755800  1.0  -0.37
  N  N1840  1  0.005900  0.727500  0.756600  1.0  -0.4144
  N  N1841  1  0.161000  0.216000  0.382700  1.0  -0.4151
  N  N1842  1  0.205500  0.274000  0.429100  1.0  -0.3453
  N  N1843  1  0.248200  0.299000  0.380600  1.0  -0.4757
  N  N1844  1  0.205400  0.245700  0.334000  1.0  -0.3393
  N  N1845  1  0.661000  0.716000  0.382700  1.0  -0.4151
  N  N1846  1  0.705500  0.774000  0.429100  1.0  -0.3453
  N  N1847  1  0.748200  0.799000  0.380600  1.0  -0.4757
  N  N1848  1  0.705400  0.745700  0.334000  1.0  -0.3393
  N  N1849  1  0.161000  0.784000  0.882700  1.0  -0.4154
  N  N1850  1  0.205500  0.726000  0.929100  1.0  -0.345
  N  N1851  1  0.248200  0.701000  0.880600  1.0  -0.4754
  N  N1852  1  0.205400  0.754300  0.834000  1.0  -0.3394
  N  N1853  1  0.661000  0.284000  0.882700  1.0  -0.4154
  N  N1854  1  0.705500  0.226000  0.929100  1.0  -0.345
  N  N1855  1  0.748200  0.201000  0.880600  1.0  -0.4754
  N  N1856  1  0.705400  0.254300  0.834000  1.0  -0.3394
  N  N1857  1  0.938500  0.714100  0.264400  1.0  -0.3451
  N  N1858  1  0.937100  0.735800  0.359500  1.0  -0.4433
  N  N1859  1  0.980400  0.769000  0.310900  1.0  -0.3203
  N  N1860  1  0.889000  0.683300  0.311400  1.0  -0.3769
  N  N1861  1  0.438500  0.214100  0.264400  1.0  -0.3451
  N  N1862  1  0.437100  0.235800  0.359500  1.0  -0.4433
  N  N1863  1  0.480400  0.269000  0.310900  1.0  -0.3203
  N  N1864  1  0.389000  0.183300  0.311400  1.0  -0.3769
  N  N1865  1  0.938500  0.285900  0.764400  1.0  -0.3449
  N  N1866  1  0.937100  0.264200  0.859500  1.0  -0.4431
  N  N1867  1  0.980400  0.231000  0.810900  1.0  -0.32
  N  N1868  1  0.889000  0.316700  0.811400  1.0  -0.3756
  N  N1869  1  0.438500  0.785900  0.764400  1.0  -0.3449
  N  N1870  1  0.437100  0.764200  0.859500  1.0  -0.4431
  N  N1871  1  0.480400  0.731000  0.810900  1.0  -0.32
  N  N1872  1  0.389000  0.816700  0.811400  1.0  -0.3756
  N  N1873  1  0.741300  0.259100  0.112500  1.0  -0.3208
  N  N1874  1  0.786300  0.310300  0.160000  1.0  -0.2528
  N  N1875  1  0.694700  0.233800  0.159700  1.0  -0.4136
  N  N1876  1  0.738700  0.290700  0.208300  1.0  -0.1938
  N  N1877  1  0.241300  0.759100  0.112500  1.0  -0.3208
  N  N1878  1  0.286300  0.810300  0.160000  1.0  -0.2528
  N  N1879  1  0.194700  0.733800  0.159700  1.0  -0.4136
  N  N1880  1  0.238700  0.790700  0.208300  1.0  -0.1938
  N  N1881  1  0.741300  0.740900  0.612500  1.0  -0.321
  N  N1882  1  0.786300  0.689700  0.660000  1.0  -0.2524
  N  N1883  1  0.694700  0.766200  0.659700  1.0  -0.4138
  N  N1884  1  0.738700  0.709300  0.708300  1.0  -0.1937
  N  N1885  1  0.241300  0.240900  0.612500  1.0  -0.321
  N  N1886  1  0.286300  0.189700  0.660000  1.0  -0.2524
  N  N1887  1  0.194700  0.266200  0.659700  1.0  -0.4138
  N  N1888  1  0.238700  0.209300  0.708300  1.0  -0.1937
  O  O1889  1  0.247000  0.434400  0.044200  1.0  -0.6019
  O  O1890  1  0.671300  0.953500  0.039700  1.0  -0.5838
  O  O1891  1  0.667900  0.065600  0.466100  1.0  -0.5333
  O  O1892  1  0.246100  0.544800  0.473300  1.0  -0.5563
  O  O1893  1  0.681000  0.857800  0.026000  1.0  -0.5778
  O  O1894  1  0.684500  0.975600  0.481100  1.0  -0.602
  O  O1895  1  0.231100  0.633300  0.479600  1.0  -0.5693
  O  O1896  1  0.229700  0.530600  0.032300  1.0  -0.5761
  O  O1897  1  0.747000  0.934400  0.044200  1.0  -0.6019
  O  O1898  1  0.171300  0.453500  0.039700  1.0  -0.5838
  O  O1899  1  0.167900  0.565600  0.466100  1.0  -0.5328
  O  O1900  1  0.746100  0.044800  0.473300  1.0  -0.5563
  O  O1901  1  0.181000  0.357800  0.026000  1.0  -0.5782
  O  O1902  1  0.184500  0.475600  0.481100  1.0  -0.5934
  O  O1903  1  0.731100  0.133300  0.479600  1.0  -0.5694
  O  O1904  1  0.729700  0.030600  0.032300  1.0  -0.5761
  O  O1905  1  0.247000  0.565600  0.544200  1.0  -0.6008
  O  O1906  1  0.671300  0.046500  0.539700  1.0  -0.5846
  O  O1907  1  0.667900  0.934400  0.966100  1.0  -0.5327
  O  O1908  1  0.246100  0.455200  0.973300  1.0  -0.5564
  O  O1909  1  0.681000  0.142200  0.526000  1.0  -0.5768
  O  O1910  1  0.684500  0.024400  0.981100  1.0  -0.602
  O  O1911  1  0.231100  0.366700  0.979600  1.0  -0.5698
  O  O1912  1  0.229700  0.469400  0.532300  1.0  -0.576
  O  O1913  1  0.747000  0.065600  0.544200  1.0  -0.6008
  O  O1914  1  0.171300  0.546500  0.539700  1.0  -0.5846
  O  O1915  1  0.167900  0.434400  0.966100  1.0  -0.5322
  O  O1916  1  0.746100  0.955200  0.973300  1.0  -0.5564
  O  O1917  1  0.181000  0.642200  0.526000  1.0  -0.577
  O  O1918  1  0.184500  0.524400  0.981100  1.0  -0.5933
  O  O1919  1  0.731100  0.866700  0.979600  1.0  -0.5698
  O  O1920  1  0.729700  0.969400  0.532300  1.0  -0.576
  O  O1921  1  0.418100  0.559600  0.591300  1.0  -0.5734
  O  O1922  1  0.997600  0.030400  0.597900  1.0  -0.5184
  O  O1923  1  0.418600  0.470400  0.162300  1.0  -0.5399
  O  O1924  1  0.978300  0.044000  0.156900  1.0  -0.5658
  O  O1925  1  0.433800  0.468900  0.603800  1.0  -0.5953
  O  O1926  1  0.982300  0.123700  0.607600  1.0  -0.5861
  O  O1927  1  0.994300  0.951700  0.168900  1.0  -0.6045
  O  O1928  1  0.434200  0.370600  0.159000  1.0  -0.6286
  O  O1929  1  0.918100  0.059600  0.591300  1.0  -0.5735
  O  O1930  1  0.497600  0.530400  0.597900  1.0  -0.5184
  O  O1931  1  0.918600  0.970400  0.162300  1.0  -0.5399
  O  O1932  1  0.478300  0.544000  0.156900  1.0  -0.5658
  O  O1933  1  0.933800  0.968900  0.603800  1.0  -0.5953
  O  O1934  1  0.482300  0.623700  0.607600  1.0  -0.5861
  O  O1935  1  0.494300  0.451700  0.168900  1.0  -0.6045
  O  O1936  1  0.934200  0.870600  0.159000  1.0  -0.6286
  O  O1937  1  0.418100  0.440400  0.091300  1.0  -0.5732
  O  O1938  1  0.997600  0.969600  0.097900  1.0  -0.5192
  O  O1939  1  0.418600  0.529600  0.662300  1.0  -0.5396
  O  O1940  1  0.978300  0.956000  0.656900  1.0  -0.5668
  O  O1941  1  0.433800  0.531100  0.103800  1.0  -0.5959
  O  O1942  1  0.982300  0.876300  0.107600  1.0  -0.5838
  O  O1943  1  0.994300  0.048300  0.668900  1.0  -0.6048
  O  O1944  1  0.434200  0.629400  0.659000  1.0  -0.628
  O  O1945  1  0.918100  0.940400  0.091300  1.0  -0.5733
  O  O1946  1  0.497600  0.469600  0.097900  1.0  -0.5192
  O  O1947  1  0.918600  0.029600  0.662300  1.0  -0.5396
  O  O1948  1  0.478300  0.456000  0.656900  1.0  -0.5668
  O  O1949  1  0.933800  0.031100  0.103800  1.0  -0.5959
  O  O1950  1  0.482300  0.376300  0.107600  1.0  -0.5838
  O  O1951  1  0.494300  0.548300  0.668900  1.0  -0.6048
  O  O1952  1  0.934200  0.129400  0.659000  1.0  -0.628
  O  O1953  1  0.704000  0.532700  0.088100  1.0  -0.5455
  O  O1954  1  0.141500  0.964000  0.095600  1.0  -0.6245
  O  O1955  1  0.154800  0.879900  0.081600  1.0  -0.5926
  O  O1956  1  0.721400  0.436400  0.095800  1.0  -0.5643
  O  O1957  1  0.144700  0.041800  0.523300  1.0  -0.6052
  O  O1958  1  0.722300  0.513700  0.530600  1.0  -0.6219
  O  O1959  1  0.150800  0.963000  0.541900  1.0  -0.608
  O  O1960  1  0.703400  0.610300  0.532200  1.0  -0.5766
  O  O1961  1  0.204000  0.032700  0.088100  1.0  -0.5457
  O  O1962  1  0.641500  0.464000  0.095600  1.0  -0.625
  O  O1963  1  0.654800  0.379900  0.081600  1.0  -0.5926
  O  O1964  1  0.221400  0.936400  0.095800  1.0  -0.5643
  O  O1965  1  0.644700  0.541800  0.523300  1.0  -0.6052
  O  O1966  1  0.222300  0.013700  0.530600  1.0  -0.6219
  O  O1967  1  0.650800  0.463000  0.541900  1.0  -0.608
  O  O1968  1  0.203400  0.110300  0.532200  1.0  -0.5766
  O  O1969  1  0.704000  0.467300  0.588100  1.0  -0.5465
  O  O1970  1  0.141500  0.036000  0.595600  1.0  -0.6245
  O  O1971  1  0.154800  0.120100  0.581600  1.0  -0.593
  O  O1972  1  0.721400  0.563600  0.595800  1.0  -0.5644
  O  O1973  1  0.144700  0.958200  0.023300  1.0  -0.6045
  O  O1974  1  0.722300  0.486300  0.030600  1.0  -0.6223
  O  O1975  1  0.150800  0.037000  0.041900  1.0  -0.6069
  O  O1976  1  0.703400  0.389700  0.032200  1.0  -0.5771
  O  O1977  1  0.204000  0.967300  0.588100  1.0  -0.5464
  O  O1978  1  0.641500  0.536000  0.595600  1.0  -0.6249
  O  O1979  1  0.654800  0.620100  0.581600  1.0  -0.593
  O  O1980  1  0.221400  0.063600  0.595800  1.0  -0.5644
  O  O1981  1  0.644700  0.458200  0.023300  1.0  -0.6045
  O  O1982  1  0.222300  0.986300  0.030600  1.0  -0.6223
  O  O1983  1  0.650800  0.537000  0.041900  1.0  -0.6069
  O  O1984  1  0.203400  0.889700  0.032200  1.0  -0.5771
  O  O1985  1  0.537500  0.943800  0.947200  1.0  -0.5383
  O  O1986  1  0.970600  0.469700  0.385300  1.0  -0.6324
  O  O1987  1  0.518100  0.137800  0.388500  1.0  -0.6353
  O  O1988  1  0.973100  0.373200  0.940300  1.0  -0.5371
  O  O1989  1  0.956400  0.470200  0.944500  1.0  -0.6034
  O  O1990  1  0.519300  0.037400  0.932600  1.0  -0.6157
  O  O1991  1  0.953500  0.565300  0.375670  1.0  -0.5242
  O  O1992  1  0.530300  0.046500  0.375300  1.0  -0.5743
  O  O1993  1  0.037500  0.443800  0.947200  1.0  -0.5385
  O  O1994  1  0.470600  0.969700  0.385300  1.0  -0.6324
  O  O1995  1  0.018100  0.637800  0.388500  1.0  -0.6353
  O  O1996  1  0.473100  0.873200  0.940300  1.0  -0.5369
  O  O1997  1  0.456400  0.970200  0.944500  1.0  -0.6034
  O  O1998  1  0.019300  0.537400  0.932600  1.0  -0.6157
  O  O1999  1  0.453500  0.065300  0.375670  1.0  -0.5244
  O  O2000  1  0.030300  0.546500  0.375300  1.0  -0.5743
  O  O2001  1  0.537500  0.056200  0.447200  1.0  -0.5414
  O  O2002  1  0.970600  0.530300  0.885300  1.0  -0.6313
  O  O2003  1  0.518100  0.862200  0.888500  1.0  -0.6352
  O  O2004  1  0.973100  0.626800  0.440300  1.0  -0.537
  O  O2005  1  0.956400  0.529800  0.444500  1.0  -0.6022
  O  O2006  1  0.519300  0.962600  0.432600  1.0  -0.6164
  O  O2007  1  0.953500  0.434700  0.875670  1.0  -0.525
  O  O2008  1  0.530300  0.953500  0.875300  1.0  -0.5756
  O  O2009  1  0.037500  0.556200  0.447200  1.0  -0.5416
  O  O2010  1  0.470600  0.030300  0.885300  1.0  -0.6313
  O  O2011  1  0.018100  0.362200  0.888500  1.0  -0.6352
  O  O2012  1  0.473100  0.126800  0.440300  1.0  -0.5372
  O  O2013  1  0.456400  0.029800  0.444500  1.0  -0.6022
  O  O2014  1  0.019300  0.462600  0.432600  1.0  -0.6164
  O  O2015  1  0.453500  0.934700  0.875670  1.0  -0.525
  O  O2016  1  0.030300  0.453500  0.875300  1.0  -0.5756
