# generated using pymatgen
data_Ag2P4H56(C25O)3
_symmetry_space_group_name_H-M   'P 1'
_cell_length_a   36.62840000
_cell_length_b   36.62840000
_cell_length_c   27.51270000
_cell_angle_alpha   90.00000000
_cell_angle_beta   90.00000000
_cell_angle_gamma   120.00000000
_symmetry_Int_Tables_number   1
_chemical_formula_structural   Ag2P4H56(C25O)3
_chemical_formula_sum   'Ag36 P72 H1008 C1350 O54'
_cell_volume   31966.84246483
_cell_formula_units_Z   18
loop_
 _symmetry_equiv_pos_site_id
 _symmetry_equiv_pos_as_xyz
  1  'x, y, z'
loop_
 _atom_site_type_symbol
 _atom_site_label
 _atom_site_symmetry_multiplicity
 _atom_site_fract_x
 _atom_site_fract_y
 _atom_site_fract_z
 _atom_site_occupancy
 _atom_site_charge
  Ag  Ag1  1  0.075680  0.202540  0.686070  1.0  0.265
  Ag  Ag2  1  0.742350  0.535870  0.019400  1.0  0.265
  Ag  Ag3  1  0.409010  0.869210  0.352740  1.0  0.265
  Ag  Ag4  1  0.797460  0.873140  0.686070  1.0  0.2647
  Ag  Ag5  1  0.464130  0.206470  0.019400  1.0  0.2649
  Ag  Ag6  1  0.130790  0.539810  0.352740  1.0  0.2647
  Ag  Ag7  1  0.126860  0.924320  0.686070  1.0  0.2648
  Ag  Ag8  1  0.793530  0.257650  0.019400  1.0  0.2637
  Ag  Ag9  1  0.460190  0.590990  0.352740  1.0  0.2648
  Ag  Ag10  1  0.202540  0.075680  0.813930  1.0  0.264
  Ag  Ag11  1  0.869210  0.409010  0.147260  1.0  0.264
  Ag  Ag12  1  0.535870  0.742350  0.480600  1.0  0.264
  Ag  Ag13  1  0.873140  0.797460  0.813930  1.0  0.2663
  Ag  Ag14  1  0.539810  0.130790  0.147260  1.0  0.2663
  Ag  Ag15  1  0.206470  0.464130  0.480600  1.0  0.2665
  Ag  Ag16  1  0.924320  0.126860  0.813930  1.0  0.2657
  Ag  Ag17  1  0.590990  0.460190  0.147260  1.0  0.2657
  Ag  Ag18  1  0.257650  0.793530  0.480600  1.0  0.2646
  Ag  Ag19  1  0.924320  0.797460  0.313930  1.0  0.2652
  Ag  Ag20  1  0.590990  0.130790  0.647260  1.0  0.2652
  Ag  Ag21  1  0.257650  0.464130  0.980600  1.0  0.2652
  Ag  Ag22  1  0.202540  0.126860  0.313930  1.0  0.2632
  Ag  Ag23  1  0.869210  0.460190  0.647260  1.0  0.2632
  Ag  Ag24  1  0.535870  0.793530  0.980600  1.0  0.2634
  Ag  Ag25  1  0.873140  0.075680  0.313930  1.0  0.2649
  Ag  Ag26  1  0.539810  0.409010  0.647260  1.0  0.2649
  Ag  Ag27  1  0.206470  0.742350  0.980600  1.0  0.2639
  Ag  Ag28  1  0.797460  0.924320  0.186070  1.0  0.2635
  Ag  Ag29  1  0.464130  0.257650  0.519400  1.0  0.2635
  Ag  Ag30  1  0.130790  0.590990  0.852740  1.0  0.2635
  Ag  Ag31  1  0.126860  0.202540  0.186070  1.0  0.2645
  Ag  Ag32  1  0.793530  0.535870  0.519400  1.0  0.2647
  Ag  Ag33  1  0.460190  0.869210  0.852740  1.0  0.2645
  Ag  Ag34  1  0.075680  0.873140  0.186070  1.0  0.2635
  Ag  Ag35  1  0.742350  0.206470  0.519400  1.0  0.2623
  Ag  Ag36  1  0.409010  0.539810  0.852740  1.0  0.2633
  P  P37  1  0.115630  0.251260  0.751620  1.0  0.9867
  P  P38  1  0.396320  0.519930  0.766500  1.0  0.9244
  P  P39  1  0.782300  0.584590  0.084950  1.0  0.9866
  P  P40  1  0.062990  0.853260  0.099830  1.0  0.9244
  P  P41  1  0.448960  0.917930  0.418290  1.0  0.9868
  P  P42  1  0.729650  0.186600  0.433170  1.0  0.9244
  P  P43  1  0.748740  0.864370  0.751620  1.0  0.9891
  P  P44  1  0.480070  0.876390  0.766500  1.0  0.9214
  P  P45  1  0.415410  0.197700  0.084950  1.0  0.9892
  P  P46  1  0.146740  0.209720  0.099830  1.0  0.9214
  P  P47  1  0.082070  0.531040  0.418290  1.0  0.9892
  P  P48  1  0.813400  0.543060  0.433170  1.0  0.9212
  P  P49  1  0.135630  0.884370  0.751620  1.0  0.9874
  P  P50  1  0.123610  0.603680  0.766500  1.0  0.9228
  P  P51  1  0.802300  0.217700  0.084950  1.0  0.9875
  P  P52  1  0.790280  0.937010  0.099830  1.0  0.9228
  P  P53  1  0.468960  0.551040  0.418290  1.0  0.9874
  P  P54  1  0.456940  0.270350  0.433170  1.0  0.9228
  P  P55  1  0.251260  0.115630  0.748380  1.0  0.9875
  P  P56  1  0.519930  0.396320  0.733500  1.0  0.9235
  P  P57  1  0.917930  0.448960  0.081710  1.0  0.9876
  P  P58  1  0.186600  0.729650  0.066830  1.0  0.9235
  P  P59  1  0.584590  0.782300  0.415050  1.0  0.9875
  P  P60  1  0.853260  0.062990  0.400170  1.0  0.9235
  P  P61  1  0.864370  0.748740  0.748380  1.0  0.9849
  P  P62  1  0.876390  0.480070  0.733500  1.0  0.925
  P  P63  1  0.531040  0.082070  0.081710  1.0  0.985
  P  P64  1  0.543060  0.813400  0.066830  1.0  0.9247
  P  P65  1  0.197700  0.415410  0.415050  1.0  0.985
  P  P66  1  0.209720  0.146740  0.400170  1.0  0.925
  P  P67  1  0.884370  0.135630  0.748380  1.0  0.9888
  P  P68  1  0.603680  0.123610  0.733500  1.0  0.9234
  P  P69  1  0.551040  0.468960  0.081710  1.0  0.9888
  P  P70  1  0.270350  0.456940  0.066830  1.0  0.9234
  P  P71  1  0.217700  0.802300  0.415050  1.0  0.989
  P  P72  1  0.937010  0.790280  0.400170  1.0  0.9234
  P  P73  1  0.884370  0.748740  0.248380  1.0  0.9838
  P  P74  1  0.603680  0.480070  0.233500  1.0  0.9247
  P  P75  1  0.551040  0.082070  0.581710  1.0  0.9839
  P  P76  1  0.270350  0.813400  0.566830  1.0  0.9247
  P  P77  1  0.217700  0.415410  0.915050  1.0  0.9838
  P  P78  1  0.937010  0.146740  0.900170  1.0  0.9247
  P  P79  1  0.251260  0.135630  0.248380  1.0  0.9873
  P  P80  1  0.519930  0.123610  0.233500  1.0  0.9236
  P  P81  1  0.917930  0.468960  0.581710  1.0  0.9874
  P  P82  1  0.186600  0.456940  0.566830  1.0  0.9234
  P  P83  1  0.584590  0.802300  0.915050  1.0  0.9874
  P  P84  1  0.853260  0.790280  0.900170  1.0  0.9236
  P  P85  1  0.864370  0.115630  0.248380  1.0  0.9878
  P  P86  1  0.876390  0.396320  0.233500  1.0  0.923
  P  P87  1  0.531040  0.448960  0.581710  1.0  0.9878
  P  P88  1  0.543060  0.729650  0.566830  1.0  0.923
  P  P89  1  0.197700  0.782300  0.915050  1.0  0.9879
  P  P90  1  0.209720  0.062990  0.900170  1.0  0.923
  P  P91  1  0.748740  0.884370  0.251620  1.0  0.9887
  P  P92  1  0.480070  0.603680  0.266500  1.0  0.9215
  P  P93  1  0.415410  0.217700  0.584950  1.0  0.9887
  P  P94  1  0.146740  0.937010  0.599830  1.0  0.9215
  P  P95  1  0.082070  0.551040  0.918290  1.0  0.9888
  P  P96  1  0.813400  0.270350  0.933170  1.0  0.9215
  P  P97  1  0.135630  0.251260  0.251620  1.0  0.9858
  P  P98  1  0.123610  0.519930  0.266500  1.0  0.9241
  P  P99  1  0.802300  0.584590  0.584950  1.0  0.9859
  P  P100  1  0.790280  0.853260  0.599830  1.0  0.9241
  P  P101  1  0.468960  0.917930  0.918290  1.0  0.9859
  P  P102  1  0.456940  0.186600  0.933170  1.0  0.9239
  P  P103  1  0.115630  0.864370  0.251620  1.0  0.9868
  P  P104  1  0.396320  0.876390  0.266500  1.0  0.9225
  P  P105  1  0.782300  0.197700  0.584950  1.0  0.9869
  P  P106  1  0.062990  0.209720  0.599830  1.0  0.9225
  P  P107  1  0.448960  0.531040  0.918290  1.0  0.9868
  P  P108  1  0.729650  0.543060  0.933170  1.0  0.9225
  H  H109  1  0.249600  0.294800  0.677200  1.0  0.0876
  H  H110  1  0.177500  0.268000  0.678300  1.0  0.0965
  H  H111  1  0.182200  0.279400  0.824600  1.0  0.0758
  H  H112  1  0.255700  0.308800  0.820200  1.0  0.0548
  H  H113  1  0.335700  0.387100  0.678000  1.0  0.0953
  H  H114  1  0.366500  0.460300  0.686100  1.0  0.0749
  H  H115  1  0.360500  0.451800  0.829500  1.0  0.0771
  H  H116  1  0.328700  0.379100  0.824200  1.0  0.0834
  H  H117  1  0.046000  0.265300  0.750700  1.0  0.0875
  H  H118  1  0.037500  0.324000  0.740100  1.0  0.0866
  H  H119  1  0.094800  0.390500  0.735700  1.0  0.0945
  H  H120  1  0.162400  0.400100  0.738900  1.0  0.0823
  H  H121  1  0.172500  0.343300  0.745100  1.0  0.0699
  H  H122  1  0.095400  0.175500  0.800100  1.0  0.1141
  H  H123  1  0.076500  0.151500  0.881500  1.0  0.0755
  H  H124  1  0.070100  0.192000  0.940000  1.0  0.0821
  H  H125  1  0.077700  0.257300  0.920200  1.0  0.083
  H  H126  1  0.097800  0.283600  0.840100  1.0  0.0733
  H  H127  1  0.385600  0.523400  0.661700  1.0  0.0963
  H  H128  1  0.345500  0.543200  0.614400  1.0  0.081
  H  H129  1  0.309700  0.571400  0.646500  1.0  0.0917
  H  H130  1  0.308400  0.579500  0.728800  1.0  0.1019
  H  H131  1  0.347900  0.559100  0.780200  1.0  0.0953
  H  H132  1  0.445200  0.485200  0.725300  1.0  0.0761
  H  H133  1  0.512600  0.515100  0.688400  1.0  0.0887
  H  H134  1  0.555300  0.588100  0.686400  1.0  0.0887
  H  H135  1  0.523800  0.629400  0.698500  1.0  0.0944
  H  H136  1  0.458600  0.599600  0.738700  1.0  0.0814
  H  H137  1  0.916270  0.628130  0.010530  1.0  0.0876
  H  H138  1  0.844170  0.601330  0.011630  1.0  0.0963
  H  H139  1  0.848870  0.612730  0.157930  1.0  0.0758
  H  H140  1  0.922370  0.642130  0.153530  1.0  0.0548
  H  H141  1  0.002370  0.720430  0.011330  1.0  0.0953
  H  H142  1  0.033170  0.793630  0.019430  1.0  0.0749
  H  H143  1  0.027170  0.785130  0.162830  1.0  0.0771
  H  H144  1  0.995370  0.712430  0.157530  1.0  0.0834
  H  H145  1  0.712670  0.598630  0.084030  1.0  0.0875
  H  H146  1  0.704170  0.657330  0.073430  1.0  0.0866
  H  H147  1  0.761470  0.723830  0.069030  1.0  0.0945
  H  H148  1  0.829070  0.733430  0.072230  1.0  0.0823
  H  H149  1  0.839170  0.676630  0.078430  1.0  0.07
  H  H150  1  0.762070  0.508830  0.133430  1.0  0.114
  H  H151  1  0.743170  0.484830  0.214830  1.0  0.0755
  H  H152  1  0.736770  0.525330  0.273330  1.0  0.0822
  H  H153  1  0.744370  0.590630  0.253530  1.0  0.0831
  H  H154  1  0.764470  0.616930  0.173430  1.0  0.0733
  H  H155  1  0.052270  0.856730  0.995030  1.0  0.0963
  H  H156  1  0.012170  0.876530  0.947730  1.0  0.081
  H  H157  1  0.976370  0.904730  0.979830  1.0  0.0917
  H  H158  1  0.975070  0.912830  0.062130  1.0  0.1022
  H  H159  1  0.014570  0.892430  0.113530  1.0  0.0953
  H  H160  1  0.111870  0.818530  0.058630  1.0  0.0761
  H  H161  1  0.179270  0.848430  0.021730  1.0  0.0887
  H  H162  1  0.221970  0.921430  0.019730  1.0  0.0888
  H  H163  1  0.190470  0.962730  0.031830  1.0  0.0944
  H  H164  1  0.125270  0.932930  0.072030  1.0  0.0814
  H  H165  1  0.582930  0.961470  0.343870  1.0  0.0876
  H  H166  1  0.510830  0.934670  0.344970  1.0  0.0964
  H  H167  1  0.515530  0.946070  0.491270  1.0  0.0759
  H  H168  1  0.589030  0.975470  0.486870  1.0  0.0551
  H  H169  1  0.669030  0.053770  0.344670  1.0  0.0953
  H  H170  1  0.699830  0.126970  0.352770  1.0  0.0749
  H  H171  1  0.693830  0.118470  0.496170  1.0  0.077
  H  H172  1  0.662030  0.045770  0.490870  1.0  0.0834
  H  H173  1  0.379330  0.931970  0.417370  1.0  0.0875
  H  H174  1  0.370830  0.990670  0.406770  1.0  0.0866
  H  H175  1  0.428130  0.057170  0.402370  1.0  0.0945
  H  H176  1  0.495730  0.066770  0.405570  1.0  0.0823
  H  H177  1  0.505830  0.009970  0.411770  1.0  0.07
  H  H178  1  0.428730  0.842170  0.466770  1.0  0.1141
  H  H179  1  0.409830  0.818170  0.548170  1.0  0.0755
  H  H180  1  0.403430  0.858670  0.606670  1.0  0.0821
  H  H181  1  0.411030  0.923970  0.586870  1.0  0.0831
  H  H182  1  0.431130  0.950270  0.506770  1.0  0.0733
  H  H183  1  0.718930  0.190070  0.328370  1.0  0.0963
  H  H184  1  0.678830  0.209870  0.281070  1.0  0.081
  H  H185  1  0.643030  0.238070  0.313170  1.0  0.0917
  H  H186  1  0.641730  0.246170  0.395470  1.0  0.1034
  H  H187  1  0.681230  0.225770  0.446870  1.0  0.0953
  H  H188  1  0.778530  0.151870  0.391970  1.0  0.0761
  H  H189  1  0.845930  0.181770  0.355070  1.0  0.0887
  H  H190  1  0.888630  0.254770  0.353070  1.0  0.0887
  H  H191  1  0.857130  0.296070  0.365170  1.0  0.0944
  H  H192  1  0.791930  0.266270  0.405370  1.0  0.0814
  H  H193  1  0.705200  0.954800  0.677200  1.0  0.0879
  H  H194  1  0.732000  0.909500  0.678300  1.0  0.0948
  H  H195  1  0.720600  0.902800  0.824600  1.0  0.0753
  H  H196  1  0.691200  0.946900  0.820200  1.0  0.0547
  H  H197  1  0.612900  0.948600  0.678000  1.0  0.0947
  H  H198  1  0.539700  0.906200  0.686100  1.0  0.0745
  H  H199  1  0.548200  0.908700  0.829500  1.0  0.077
  H  H200  1  0.620900  0.949600  0.824200  1.0  0.083
  H  H201  1  0.734700  0.780700  0.750700  1.0  0.0874
  H  H202  1  0.676000  0.713500  0.740100  1.0  0.0863
  H  H203  1  0.609500  0.704300  0.735700  1.0  0.0953
  H  H204  1  0.599900  0.762300  0.738900  1.0  0.0825
  H  H205  1  0.656700  0.829200  0.745100  1.0  0.0705
  H  H206  1  0.824500  0.919900  0.800100  1.0  0.1149
  H  H207  1  0.848500  0.925000  0.881500  1.0  0.076
  H  H208  1  0.808000  0.878100  0.940000  1.0  0.0824
  H  H209  1  0.742700  0.820400  0.920200  1.0  0.0831
  H  H210  1  0.716400  0.814200  0.840100  1.0  0.0738
  H  H211  1  0.476600  0.862200  0.661700  1.0  0.0974
  H  H212  1  0.456800  0.802300  0.614400  1.0  0.0809
  H  H213  1  0.428600  0.738300  0.646500  1.0  0.0911
  H  H214  1  0.420500  0.728900  0.728800  1.0  0.0987
  H  H215  1  0.440900  0.788800  0.780200  1.0  0.095
  H  H216  1  0.514800  0.960000  0.725300  1.0  0.0745
  H  H217  1  0.484900  0.997500  0.688400  1.0  0.0894
  H  H218  1  0.411900  0.967200  0.686400  1.0  0.0889
  H  H219  1  0.370600  0.894400  0.698500  1.0  0.0932
  H  H220  1  0.400400  0.859000  0.738700  1.0  0.0823
  H  H221  1  0.371870  0.288130  0.010530  1.0  0.0879
  H  H222  1  0.398670  0.242830  0.011630  1.0  0.0948
  H  H223  1  0.387270  0.236130  0.157930  1.0  0.0753
  H  H224  1  0.357870  0.280230  0.153530  1.0  0.0547
  H  H225  1  0.279570  0.281930  0.011330  1.0  0.0947
  H  H226  1  0.206370  0.239530  0.019430  1.0  0.0745
  H  H227  1  0.214870  0.242030  0.162830  1.0  0.077
  H  H228  1  0.287570  0.282930  0.157530  1.0  0.083
  H  H229  1  0.401370  0.114030  0.084030  1.0  0.0874
  H  H230  1  0.342670  0.046830  0.073430  1.0  0.0863
  H  H231  1  0.276170  0.037630  0.069030  1.0  0.0953
  H  H232  1  0.266570  0.095630  0.072230  1.0  0.0825
  H  H233  1  0.323370  0.162530  0.078430  1.0  0.0704
  H  H234  1  0.491170  0.253230  0.133430  1.0  0.1149
  H  H235  1  0.515170  0.258330  0.214830  1.0  0.076
  H  H236  1  0.474670  0.211430  0.273330  1.0  0.0824
  H  H237  1  0.409370  0.153730  0.253530  1.0  0.0831
  H  H238  1  0.383070  0.147530  0.173430  1.0  0.0738
  H  H239  1  0.143270  0.195530  0.995030  1.0  0.0974
  H  H240  1  0.123470  0.135630  0.947730  1.0  0.0808
  H  H241  1  0.095270  0.071630  0.979830  1.0  0.0912
  H  H242  1  0.087170  0.062230  0.062130  1.0  0.1003
  H  H243  1  0.107570  0.122130  0.113530  1.0  0.095
  H  H244  1  0.181470  0.293330  0.058630  1.0  0.0745
  H  H245  1  0.151570  0.330830  0.021730  1.0  0.0894
  H  H246  1  0.078570  0.300530  0.019730  1.0  0.089
  H  H247  1  0.037270  0.227730  0.031830  1.0  0.0932
  H  H248  1  0.067070  0.192330  0.072030  1.0  0.0823
  H  H249  1  0.038530  0.621470  0.343870  1.0  0.0879
  H  H250  1  0.065330  0.576170  0.344970  1.0  0.0948
  H  H251  1  0.053930  0.569470  0.491270  1.0  0.0753
  H  H252  1  0.024530  0.613570  0.486870  1.0  0.0547
  H  H253  1  0.946230  0.615270  0.344670  1.0  0.0947
  H  H254  1  0.873030  0.572870  0.352770  1.0  0.0745
  H  H255  1  0.881530  0.575370  0.496170  1.0  0.077
  H  H256  1  0.954230  0.616270  0.490870  1.0  0.083
  H  H257  1  0.068030  0.447370  0.417370  1.0  0.0874
  H  H258  1  0.009330  0.380170  0.406770  1.0  0.0863
  H  H259  1  0.942830  0.370970  0.402370  1.0  0.0953
  H  H260  1  0.933230  0.428970  0.405570  1.0  0.0826
  H  H261  1  0.990030  0.495870  0.411770  1.0  0.0704
  H  H262  1  0.157830  0.586570  0.466770  1.0  0.1149
  H  H263  1  0.181830  0.591670  0.548170  1.0  0.0761
  H  H264  1  0.141330  0.544770  0.606670  1.0  0.0824
  H  H265  1  0.076030  0.487070  0.586870  1.0  0.083
  H  H266  1  0.049730  0.480870  0.506770  1.0  0.0739
  H  H267  1  0.809930  0.528870  0.328370  1.0  0.0974
  H  H268  1  0.790130  0.468970  0.281070  1.0  0.0809
  H  H269  1  0.761930  0.404970  0.313170  1.0  0.0911
  H  H270  1  0.753830  0.395570  0.395470  1.0  0.1029
  H  H271  1  0.774230  0.455470  0.446870  1.0  0.0949
  H  H272  1  0.848130  0.626670  0.391970  1.0  0.0745
  H  H273  1  0.818230  0.664170  0.355070  1.0  0.0894
  H  H274  1  0.745230  0.633870  0.353070  1.0  0.0889
  H  H275  1  0.703930  0.561070  0.365170  1.0  0.0932
  H  H276  1  0.733730  0.525670  0.405370  1.0  0.0823
  H  H277  1  0.045200  0.750400  0.677200  1.0  0.089
  H  H278  1  0.090500  0.822500  0.678300  1.0  0.0952
  H  H279  1  0.097200  0.817800  0.824600  1.0  0.0757
  H  H280  1  0.053100  0.744300  0.820200  1.0  0.0555
  H  H281  1  0.051400  0.664300  0.678000  1.0  0.0948
  H  H282  1  0.093800  0.633500  0.686100  1.0  0.0748
  H  H283  1  0.091300  0.639500  0.829500  1.0  0.0768
  H  H284  1  0.050400  0.671300  0.824200  1.0  0.0831
  H  H285  1  0.219300  0.954000  0.750700  1.0  0.0872
  H  H286  1  0.286500  0.962500  0.740100  1.0  0.0857
  H  H287  1  0.295700  0.905200  0.735700  1.0  0.0955
  H  H288  1  0.237700  0.837600  0.738900  1.0  0.0818
  H  H289  1  0.170800  0.827500  0.745100  1.0  0.0702
  H  H290  1  0.080100  0.904600  0.800100  1.0  0.1139
  H  H291  1  0.075000  0.923500  0.881500  1.0  0.0755
  H  H292  1  0.121900  0.929900  0.940000  1.0  0.0821
  H  H293  1  0.179600  0.922300  0.920200  1.0  0.0833
  H  H294  1  0.185800  0.902200  0.840100  1.0  0.0735
  H  H295  1  0.137800  0.614400  0.661700  1.0  0.096
  H  H296  1  0.197700  0.654500  0.614400  1.0  0.0811
  H  H297  1  0.261700  0.690300  0.646500  1.0  0.0923
  H  H298  1  0.271100  0.691600  0.728800  1.0  0.0995
  H  H299  1  0.211200  0.652100  0.780200  1.0  0.0938
  H  H300  1  0.040000  0.554800  0.725300  1.0  0.0753
  H  H301  1  0.002500  0.487400  0.688400  1.0  0.0886
  H  H302  1  0.032800  0.444700  0.686400  1.0  0.0909
  H  H303  1  0.105600  0.476200  0.698500  1.0  0.0933
  H  H304  1  0.141000  0.541400  0.738700  1.0  0.0813
  H  H305  1  0.711870  0.083730  0.010530  1.0  0.089
  H  H306  1  0.757170  0.155830  0.011630  1.0  0.0953
  H  H307  1  0.763870  0.151130  0.157930  1.0  0.0757
  H  H308  1  0.719770  0.077630  0.153530  1.0  0.0555
  H  H309  1  0.718070  0.997630  0.011330  1.0  0.0948
  H  H310  1  0.760470  0.966830  0.019430  1.0  0.0748
  H  H311  1  0.757970  0.972830  0.162830  1.0  0.0768
  H  H312  1  0.717070  0.004630  0.157530  1.0  0.0831
  H  H313  1  0.885970  0.287330  0.084030  1.0  0.0872
  H  H314  1  0.953170  0.295830  0.073430  1.0  0.0858
  H  H315  1  0.962370  0.238530  0.069030  1.0  0.0954
  H  H316  1  0.904370  0.170930  0.072230  1.0  0.0818
  H  H317  1  0.837470  0.160830  0.078430  1.0  0.0703
  H  H318  1  0.746770  0.237930  0.133430  1.0  0.1137
  H  H319  1  0.741670  0.256830  0.214830  1.0  0.0755
  H  H320  1  0.788570  0.263230  0.273330  1.0  0.082
  H  H321  1  0.846270  0.255630  0.253530  1.0  0.0832
  H  H322  1  0.852470  0.235530  0.173430  1.0  0.0735
  H  H323  1  0.804470  0.947730  0.995030  1.0  0.096
  H  H324  1  0.864370  0.987830  0.947730  1.0  0.0811
  H  H325  1  0.928370  0.023630  0.979830  1.0  0.0914
  H  H326  1  0.937770  0.024930  0.062130  1.0  0.1028
  H  H327  1  0.877870  0.985430  0.113530  1.0  0.0938
  H  H328  1  0.706670  0.888130  0.058630  1.0  0.0753
  H  H329  1  0.669170  0.820730  0.021730  1.0  0.0886
  H  H330  1  0.699470  0.778030  0.019730  1.0  0.091
  H  H331  1  0.772270  0.809530  0.031830  1.0  0.0933
  H  H332  1  0.807670  0.874730  0.072030  1.0  0.0813
  H  H333  1  0.378530  0.417070  0.343870  1.0  0.089
  H  H334  1  0.423830  0.489170  0.344970  1.0  0.0952
  H  H335  1  0.430530  0.484470  0.491270  1.0  0.0757
  H  H336  1  0.386430  0.410970  0.486870  1.0  0.0555
  H  H337  1  0.384730  0.330970  0.344670  1.0  0.0948
  H  H338  1  0.427130  0.300170  0.352770  1.0  0.0748
  H  H339  1  0.424630  0.306170  0.496170  1.0  0.0769
  H  H340  1  0.383730  0.337970  0.490870  1.0  0.0831
  H  H341  1  0.552630  0.620670  0.417370  1.0  0.0872
  H  H342  1  0.619830  0.629170  0.406770  1.0  0.0858
  H  H343  1  0.629030  0.571870  0.402370  1.0  0.0955
  H  H344  1  0.571030  0.504270  0.405570  1.0  0.0817
  H  H345  1  0.504130  0.494170  0.411770  1.0  0.0703
  H  H346  1  0.413430  0.571270  0.466770  1.0  0.1139
  H  H347  1  0.408330  0.590170  0.548170  1.0  0.0755
  H  H348  1  0.455230  0.596570  0.606670  1.0  0.0821
  H  H349  1  0.512930  0.588970  0.586870  1.0  0.0833
  H  H350  1  0.519130  0.568870  0.506770  1.0  0.0735
  H  H351  1  0.471130  0.281070  0.328370  1.0  0.096
  H  H352  1  0.531030  0.321170  0.281070  1.0  0.0811
  H  H353  1  0.595030  0.356970  0.313170  1.0  0.0923
  H  H354  1  0.604430  0.358270  0.395470  1.0  0.098
  H  H355  1  0.544530  0.318770  0.446870  1.0  0.0937
  H  H356  1  0.373330  0.221470  0.391970  1.0  0.0753
  H  H357  1  0.335830  0.154070  0.355070  1.0  0.0886
  H  H358  1  0.366130  0.111370  0.353070  1.0  0.0909
  H  H359  1  0.438930  0.142870  0.365170  1.0  0.0933
  H  H360  1  0.474330  0.208070  0.405370  1.0  0.0813
  H  H361  1  0.294800  0.249600  0.822800  1.0  0.0892
  H  H362  1  0.268000  0.177500  0.821700  1.0  0.0964
  H  H363  1  0.279400  0.182200  0.675400  1.0  0.0757
  H  H364  1  0.308800  0.255700  0.679800  1.0  0.0561
  H  H365  1  0.387100  0.335700  0.822000  1.0  0.0939
  H  H366  1  0.460300  0.366500  0.813900  1.0  0.0753
  H  H367  1  0.451800  0.360500  0.670500  1.0  0.0764
  H  H368  1  0.379100  0.328700  0.675800  1.0  0.0835
  H  H369  1  0.265300  0.046000  0.749300  1.0  0.0867
  H  H370  1  0.324000  0.037500  0.759900  1.0  0.0859
  H  H371  1  0.390500  0.094800  0.764300  1.0  0.0955
  H  H372  1  0.400100  0.162400  0.761100  1.0  0.0811
  H  H373  1  0.343300  0.172500  0.754900  1.0  0.0699
  H  H374  1  0.175500  0.095400  0.699900  1.0  0.1144
  H  H375  1  0.151500  0.076500  0.618500  1.0  0.0752
  H  H376  1  0.192000  0.070100  0.560000  1.0  0.0825
  H  H377  1  0.257300  0.077700  0.579800  1.0  0.0828
  H  H378  1  0.283600  0.097800  0.659900  1.0  0.0736
  H  H379  1  0.523400  0.385600  0.838300  1.0  0.0965
  H  H380  1  0.543200  0.345500  0.885600  1.0  0.0805
  H  H381  1  0.571400  0.309700  0.853500  1.0  0.0917
  H  H382  1  0.579500  0.308400  0.771200  1.0  0.102
  H  H383  1  0.559100  0.347900  0.719800  1.0  0.0949
  H  H384  1  0.485200  0.445200  0.774700  1.0  0.0752
  H  H385  1  0.515100  0.512600  0.811600  1.0  0.0886
  H  H386  1  0.588100  0.555300  0.813600  1.0  0.0906
  H  H387  1  0.629400  0.523800  0.801500  1.0  0.0927
  H  H388  1  0.599600  0.458600  0.761300  1.0  0.0818
  H  H389  1  0.961470  0.582930  0.156130  1.0  0.0892
  H  H390  1  0.934670  0.510830  0.155030  1.0  0.0964
  H  H391  1  0.946070  0.515530  0.008730  1.0  0.0757
  H  H392  1  0.975470  0.589030  0.013130  1.0  0.0561
  H  H393  1  0.053770  0.669030  0.155330  1.0  0.0939
  H  H394  1  0.126970  0.699830  0.147230  1.0  0.0753
  H  H395  1  0.118470  0.693830  0.003830  1.0  0.0764
  H  H396  1  0.045770  0.662030  0.009130  1.0  0.0834
  H  H397  1  0.931970  0.379330  0.082630  1.0  0.0867
  H  H398  1  0.990670  0.370830  0.093230  1.0  0.086
  H  H399  1  0.057170  0.428130  0.097630  1.0  0.0954
  H  H400  1  0.066770  0.495730  0.094430  1.0  0.0811
  H  H401  1  0.009970  0.505830  0.088230  1.0  0.0701
  H  H402  1  0.842170  0.428730  0.033230  1.0  0.1144
  H  H403  1  0.818170  0.409830  0.951830  1.0  0.0752
  H  H404  1  0.858670  0.403430  0.893330  1.0  0.0825
  H  H405  1  0.923970  0.411030  0.913130  1.0  0.0828
  H  H406  1  0.950270  0.431130  0.993230  1.0  0.0736
  H  H407  1  0.190070  0.718930  0.171630  1.0  0.0965
  H  H408  1  0.209870  0.678830  0.218930  1.0  0.0805
  H  H409  1  0.238070  0.643030  0.186830  1.0  0.0917
  H  H410  1  0.246170  0.641730  0.104530  1.0  0.1037
  H  H411  1  0.225770  0.681230  0.053130  1.0  0.0949
  H  H412  1  0.151870  0.778530  0.108030  1.0  0.0752
  H  H413  1  0.181770  0.845930  0.144930  1.0  0.0886
  H  H414  1  0.254770  0.888630  0.146930  1.0  0.0906
  H  H415  1  0.296070  0.857130  0.134830  1.0  0.0927
  H  H416  1  0.266270  0.791930  0.094630  1.0  0.0818
  H  H417  1  0.628130  0.916270  0.489470  1.0  0.0892
  H  H418  1  0.601330  0.844170  0.488370  1.0  0.0964
  H  H419  1  0.612730  0.848870  0.342070  1.0  0.0757
  H  H420  1  0.642130  0.922370  0.346470  1.0  0.0561
  H  H421  1  0.720430  0.002370  0.488670  1.0  0.0939
  H  H422  1  0.793630  0.033170  0.480570  1.0  0.0753
  H  H423  1  0.785130  0.027170  0.337170  1.0  0.0764
  H  H424  1  0.712430  0.995370  0.342470  1.0  0.0835
  H  H425  1  0.598630  0.712670  0.415970  1.0  0.0867
  H  H426  1  0.657330  0.704170  0.426570  1.0  0.086
  H  H427  1  0.723830  0.761470  0.430970  1.0  0.0955
  H  H428  1  0.733430  0.829070  0.427770  1.0  0.0811
  H  H429  1  0.676630  0.839170  0.421570  1.0  0.0701
  H  H430  1  0.508830  0.762070  0.366570  1.0  0.1143
  H  H431  1  0.484830  0.743170  0.285170  1.0  0.0752
  H  H432  1  0.525330  0.736770  0.226670  1.0  0.0826
  H  H433  1  0.590630  0.744370  0.246470  1.0  0.0828
  H  H434  1  0.616930  0.764470  0.326570  1.0  0.0736
  H  H435  1  0.856730  0.052270  0.504970  1.0  0.0965
  H  H436  1  0.876530  0.012170  0.552270  1.0  0.0805
  H  H437  1  0.904730  0.976370  0.520170  1.0  0.092
  H  H438  1  0.912830  0.975070  0.437870  1.0  0.102
  H  H439  1  0.892430  0.014570  0.386470  1.0  0.0949
  H  H440  1  0.818530  0.111870  0.441370  1.0  0.0752
  H  H441  1  0.848430  0.179270  0.478270  1.0  0.0886
  H  H442  1  0.921430  0.221970  0.480270  1.0  0.0907
  H  H443  1  0.962730  0.190470  0.468170  1.0  0.0927
  H  H444  1  0.932930  0.125270  0.427970  1.0  0.0818
  H  H445  1  0.954800  0.705200  0.822800  1.0  0.0881
  H  H446  1  0.909500  0.732000  0.821700  1.0  0.0971
  H  H447  1  0.902800  0.720600  0.675400  1.0  0.0759
  H  H448  1  0.946900  0.691200  0.679800  1.0  0.0552
  H  H449  1  0.948600  0.612900  0.822000  1.0  0.0943
  H  H450  1  0.906200  0.539700  0.813900  1.0  0.0753
  H  H451  1  0.908700  0.548200  0.670500  1.0  0.0768
  H  H452  1  0.949600  0.620900  0.675800  1.0  0.0839
  H  H453  1  0.780700  0.734700  0.749300  1.0  0.0884
  H  H454  1  0.713500  0.676000  0.759900  1.0  0.0863
  H  H455  1  0.704300  0.609500  0.764300  1.0  0.0941
  H  H456  1  0.762300  0.599900  0.761100  1.0  0.0823
  H  H457  1  0.829200  0.656700  0.754900  1.0  0.0701
  H  H458  1  0.919900  0.824500  0.699900  1.0  0.114
  H  H459  1  0.925000  0.848500  0.618500  1.0  0.0757
  H  H460  1  0.878100  0.808000  0.560000  1.0  0.0826
  H  H461  1  0.820400  0.742700  0.579800  1.0  0.0829
  H  H462  1  0.814200  0.716400  0.659900  1.0  0.0731
  H  H463  1  0.862200  0.476600  0.838300  1.0  0.0966
  H  H464  1  0.802300  0.456800  0.885600  1.0  0.0806
  H  H465  1  0.738300  0.428600  0.853500  1.0  0.0918
  H  H466  1  0.728900  0.420500  0.771200  1.0  0.0992
  H  H467  1  0.788800  0.440900  0.719800  1.0  0.0953
  H  H468  1  0.960000  0.514800  0.774700  1.0  0.0757
  H  H469  1  0.997500  0.484900  0.811600  1.0  0.0886
  H  H470  1  0.967200  0.411900  0.813600  1.0  0.0885
  H  H471  1  0.894400  0.370600  0.801500  1.0  0.0942
  H  H472  1  0.859000  0.400400  0.761300  1.0  0.0818
  H  H473  1  0.621470  0.038530  0.156130  1.0  0.0881
  H  H474  1  0.576170  0.065330  0.155030  1.0  0.097
  H  H475  1  0.569470  0.053930  0.008730  1.0  0.0759
  H  H476  1  0.613570  0.024530  0.013130  1.0  0.0552
  H  H477  1  0.615270  0.946230  0.155330  1.0  0.0943
  H  H478  1  0.572870  0.873030  0.147230  1.0  0.0753
  H  H479  1  0.575370  0.881530  0.003830  1.0  0.0768
  H  H480  1  0.616270  0.954230  0.009130  1.0  0.0839
  H  H481  1  0.447370  0.068030  0.082630  1.0  0.0884
  H  H482  1  0.380170  0.009330  0.093230  1.0  0.0863
  H  H483  1  0.370970  0.942830  0.097630  1.0  0.0942
  H  H484  1  0.428970  0.933230  0.094430  1.0  0.0824
  H  H485  1  0.495870  0.990030  0.088230  1.0  0.07
  H  H486  1  0.586570  0.157830  0.033230  1.0  0.114
  H  H487  1  0.591670  0.181830  0.951830  1.0  0.0757
  H  H488  1  0.544770  0.141330  0.893330  1.0  0.0826
  H  H489  1  0.487070  0.076030  0.913130  1.0  0.0828
  H  H490  1  0.480870  0.049730  0.993230  1.0  0.0732
  H  H491  1  0.528870  0.809930  0.171630  1.0  0.0966
  H  H492  1  0.468970  0.790130  0.218930  1.0  0.0806
  H  H493  1  0.404970  0.761930  0.186830  1.0  0.0917
  H  H494  1  0.395570  0.753830  0.104530  1.0  0.1032
  H  H495  1  0.455470  0.774230  0.053130  1.0  0.0952
  H  H496  1  0.626670  0.848130  0.108030  1.0  0.0757
  H  H497  1  0.664170  0.818230  0.144930  1.0  0.0886
  H  H498  1  0.633870  0.745230  0.146930  1.0  0.0885
  H  H499  1  0.561070  0.703930  0.134830  1.0  0.0942
  H  H500  1  0.525670  0.733730  0.094630  1.0  0.0818
  H  H501  1  0.288130  0.371870  0.489470  1.0  0.0881
  H  H502  1  0.242830  0.398670  0.488370  1.0  0.0969
  H  H503  1  0.236130  0.387270  0.342070  1.0  0.0759
  H  H504  1  0.280230  0.357870  0.346470  1.0  0.0552
  H  H505  1  0.281930  0.279570  0.488670  1.0  0.0943
  H  H506  1  0.239530  0.206370  0.480570  1.0  0.0753
  H  H507  1  0.242030  0.214870  0.337170  1.0  0.0768
  H  H508  1  0.282930  0.287570  0.342470  1.0  0.0839
  H  H509  1  0.114030  0.401370  0.415970  1.0  0.0884
  H  H510  1  0.046830  0.342670  0.426570  1.0  0.0863
  H  H511  1  0.037630  0.276170  0.430970  1.0  0.0942
  H  H512  1  0.095630  0.266570  0.427770  1.0  0.0823
  H  H513  1  0.162530  0.323370  0.421570  1.0  0.07
  H  H514  1  0.253230  0.491170  0.366570  1.0  0.114
  H  H515  1  0.258330  0.515170  0.285170  1.0  0.0757
  H  H516  1  0.211430  0.474670  0.226670  1.0  0.0826
  H  H517  1  0.153730  0.409370  0.246470  1.0  0.0828
  H  H518  1  0.147530  0.383070  0.326570  1.0  0.0731
  H  H519  1  0.195530  0.143270  0.504970  1.0  0.0966
  H  H520  1  0.135630  0.123470  0.552270  1.0  0.0806
  H  H521  1  0.071630  0.095270  0.520170  1.0  0.0919
  H  H522  1  0.062230  0.087170  0.437870  1.0  0.1004
  H  H523  1  0.122130  0.107570  0.386470  1.0  0.0953
  H  H524  1  0.293330  0.181470  0.441370  1.0  0.0757
  H  H525  1  0.330830  0.151570  0.478270  1.0  0.0886
  H  H526  1  0.300530  0.078570  0.480270  1.0  0.0885
  H  H527  1  0.227730  0.037270  0.468170  1.0  0.0942
  H  H528  1  0.192330  0.067070  0.427970  1.0  0.0818
  H  H529  1  0.750400  0.045200  0.822800  1.0  0.0884
  H  H530  1  0.822500  0.090500  0.821700  1.0  0.095
  H  H531  1  0.817800  0.097200  0.675400  1.0  0.075
  H  H532  1  0.744300  0.053100  0.679800  1.0  0.0552
  H  H533  1  0.664300  0.051400  0.822000  1.0  0.0939
  H  H534  1  0.633500  0.093800  0.813900  1.0  0.0749
  H  H535  1  0.639500  0.091300  0.670500  1.0  0.0765
  H  H536  1  0.671300  0.050400  0.675800  1.0  0.0836
  H  H537  1  0.954000  0.219300  0.749300  1.0  0.0877
  H  H538  1  0.962500  0.286500  0.759900  1.0  0.0862
  H  H539  1  0.905200  0.295700  0.764300  1.0  0.0951
  H  H540  1  0.837600  0.237700  0.761100  1.0  0.0823
  H  H541  1  0.827500  0.170800  0.754900  1.0  0.0701
  H  H542  1  0.904600  0.080100  0.699900  1.0  0.1151
  H  H543  1  0.923500  0.075000  0.618500  1.0  0.0757
  H  H544  1  0.929900  0.121900  0.560000  1.0  0.0828
  H  H545  1  0.922300  0.179600  0.579800  1.0  0.0831
  H  H546  1  0.902200  0.185800  0.659900  1.0  0.0737
  H  H547  1  0.614400  0.137800  0.838300  1.0  0.0976
  H  H548  1  0.654500  0.197700  0.885600  1.0  0.0804
  H  H549  1  0.690300  0.261700  0.853500  1.0  0.0914
  H  H550  1  0.691600  0.271100  0.771200  1.0  0.0985
  H  H551  1  0.652100  0.211200  0.719800  1.0  0.0937
  H  H552  1  0.554800  0.040000  0.774700  1.0  0.0746
  H  H553  1  0.487400  0.002500  0.811600  1.0  0.0891
  H  H554  1  0.444700  0.032800  0.813600  1.0  0.0884
  H  H555  1  0.476200  0.105600  0.801500  1.0  0.0931
  H  H556  1  0.541400  0.141000  0.761300  1.0  0.0817
  H  H557  1  0.417070  0.378530  0.156130  1.0  0.0884
  H  H558  1  0.489170  0.423830  0.155030  1.0  0.095
  H  H559  1  0.484470  0.430530  0.008730  1.0  0.075
  H  H560  1  0.410970  0.386430  0.013130  1.0  0.0552
  H  H561  1  0.330970  0.384730  0.155330  1.0  0.0939
  H  H562  1  0.300170  0.427130  0.147230  1.0  0.0748
  H  H563  1  0.306170  0.424630  0.003830  1.0  0.0766
  H  H564  1  0.337970  0.383730  0.009130  1.0  0.0836
  H  H565  1  0.620670  0.552630  0.082630  1.0  0.0877
  H  H566  1  0.629170  0.619830  0.093230  1.0  0.0862
  H  H567  1  0.571870  0.629030  0.097630  1.0  0.0951
  H  H568  1  0.504270  0.571030  0.094430  1.0  0.0823
  H  H569  1  0.494170  0.504130  0.088230  1.0  0.0701
  H  H570  1  0.571270  0.413430  0.033230  1.0  0.1151
  H  H571  1  0.590170  0.408330  0.951830  1.0  0.0757
  H  H572  1  0.596570  0.455230  0.893330  1.0  0.0828
  H  H573  1  0.588970  0.512930  0.913130  1.0  0.0831
  H  H574  1  0.568870  0.519130  0.993230  1.0  0.0737
  H  H575  1  0.281070  0.471130  0.171630  1.0  0.0976
  H  H576  1  0.321170  0.531030  0.218930  1.0  0.0804
  H  H577  1  0.356970  0.595030  0.186830  1.0  0.0914
  H  H578  1  0.358270  0.604430  0.104530  1.0  0.0967
  H  H579  1  0.318770  0.544530  0.053130  1.0  0.0937
  H  H580  1  0.221470  0.373330  0.108030  1.0  0.0746
  H  H581  1  0.154070  0.335830  0.144930  1.0  0.0891
  H  H582  1  0.111370  0.366130  0.146930  1.0  0.0884
  H  H583  1  0.142870  0.438930  0.134830  1.0  0.0931
  H  H584  1  0.208070  0.474330  0.094630  1.0  0.0817
  H  H585  1  0.083730  0.711870  0.489470  1.0  0.0884
  H  H586  1  0.155830  0.757170  0.488370  1.0  0.0951
  H  H587  1  0.151130  0.763870  0.342070  1.0  0.075
  H  H588  1  0.077630  0.719770  0.346470  1.0  0.0552
  H  H589  1  0.997630  0.718070  0.488670  1.0  0.0939
  H  H590  1  0.966830  0.760470  0.480570  1.0  0.0749
  H  H591  1  0.972830  0.757970  0.337170  1.0  0.0765
  H  H592  1  0.004630  0.717070  0.342470  1.0  0.0836
  H  H593  1  0.287330  0.885970  0.415970  1.0  0.0877
  H  H594  1  0.295830  0.953170  0.426570  1.0  0.0862
  H  H595  1  0.238530  0.962370  0.430970  1.0  0.0952
  H  H596  1  0.170930  0.904370  0.427770  1.0  0.0823
  H  H597  1  0.160830  0.837470  0.421570  1.0  0.0701
  H  H598  1  0.237930  0.746770  0.366570  1.0  0.115
  H  H599  1  0.256830  0.741670  0.285170  1.0  0.0757
  H  H600  1  0.263230  0.788570  0.226670  1.0  0.0827
  H  H601  1  0.255630  0.846270  0.246470  1.0  0.083
  H  H602  1  0.235530  0.852470  0.326570  1.0  0.0737
  H  H603  1  0.947730  0.804470  0.504970  1.0  0.0976
  H  H604  1  0.987830  0.864370  0.552270  1.0  0.0805
  H  H605  1  0.023630  0.928370  0.520170  1.0  0.0906
  H  H606  1  0.024930  0.937770  0.437870  1.0  0.102
  H  H607  1  0.985430  0.877870  0.386470  1.0  0.0937
  H  H608  1  0.888130  0.706670  0.441370  1.0  0.0746
  H  H609  1  0.820730  0.669170  0.478270  1.0  0.0891
  H  H610  1  0.778030  0.699470  0.480270  1.0  0.0885
  H  H611  1  0.809530  0.772270  0.468170  1.0  0.0932
  H  H612  1  0.874730  0.807670  0.427970  1.0  0.0817
  H  H613  1  0.750400  0.705200  0.322800  1.0  0.0883
  H  H614  1  0.822500  0.732000  0.321700  1.0  0.0965
  H  H615  1  0.817800  0.720600  0.175400  1.0  0.0757
  H  H616  1  0.744300  0.691200  0.179800  1.0  0.0557
  H  H617  1  0.664300  0.612900  0.322000  1.0  0.0943
  H  H618  1  0.633500  0.539700  0.313900  1.0  0.0756
  H  H619  1  0.639500  0.548200  0.170500  1.0  0.0766
  H  H620  1  0.671300  0.620900  0.175800  1.0  0.0837
  H  H621  1  0.954000  0.734700  0.249300  1.0  0.0882
  H  H622  1  0.962500  0.676000  0.259900  1.0  0.0871
  H  H623  1  0.905200  0.609500  0.264300  1.0  0.0943
  H  H624  1  0.837600  0.599900  0.261100  1.0  0.0822
  H  H625  1  0.827500  0.656700  0.254900  1.0  0.0696
  H  H626  1  0.904600  0.824500  0.199900  1.0  0.1153
  H  H627  1  0.923500  0.848500  0.118500  1.0  0.0761
  H  H628  1  0.929900  0.808000  0.060000  1.0  0.0823
  H  H629  1  0.922300  0.742700  0.079800  1.0  0.0831
  H  H630  1  0.902200  0.716400  0.159900  1.0  0.0733
  H  H631  1  0.614400  0.476600  0.338300  1.0  0.0965
  H  H632  1  0.654500  0.456800  0.385600  1.0  0.0801
  H  H633  1  0.690300  0.428600  0.353500  1.0  0.0916
  H  H634  1  0.691600  0.420500  0.271200  1.0  0.1012
  H  H635  1  0.652100  0.440900  0.219800  1.0  0.0955
  H  H636  1  0.554800  0.514800  0.274700  1.0  0.0754
  H  H637  1  0.487400  0.484900  0.311600  1.0  0.0889
  H  H638  1  0.444700  0.411900  0.313600  1.0  0.0887
  H  H639  1  0.476200  0.370600  0.301500  1.0  0.0942
  H  H640  1  0.541400  0.400400  0.261300  1.0  0.0813
  H  H641  1  0.417070  0.038530  0.656130  1.0  0.0883
  H  H642  1  0.489170  0.065330  0.655030  1.0  0.0965
  H  H643  1  0.484470  0.053930  0.508730  1.0  0.0758
  H  H644  1  0.410970  0.024530  0.513130  1.0  0.0557
  H  H645  1  0.330970  0.946230  0.655330  1.0  0.0943
  H  H646  1  0.300170  0.873030  0.647230  1.0  0.0757
  H  H647  1  0.306170  0.881530  0.503830  1.0  0.0766
  H  H648  1  0.337970  0.954230  0.509130  1.0  0.0837
  H  H649  1  0.620670  0.068030  0.582630  1.0  0.0882
  H  H650  1  0.629170  0.009330  0.593230  1.0  0.0871
  H  H651  1  0.571870  0.942830  0.597630  1.0  0.0943
  H  H652  1  0.504270  0.933230  0.594430  1.0  0.0822
  H  H653  1  0.494170  0.990030  0.588230  1.0  0.0698
  H  H654  1  0.571270  0.157830  0.533230  1.0  0.1153
  H  H655  1  0.590170  0.181830  0.451830  1.0  0.0761
  H  H656  1  0.596570  0.141330  0.393330  1.0  0.0823
  H  H657  1  0.588970  0.076030  0.413130  1.0  0.0831
  H  H658  1  0.568870  0.049730  0.493230  1.0  0.0733
  H  H659  1  0.281070  0.809930  0.671630  1.0  0.0965
  H  H660  1  0.321170  0.790130  0.718930  1.0  0.0801
  H  H661  1  0.356970  0.761930  0.686830  1.0  0.0916
  H  H662  1  0.358270  0.753830  0.604530  1.0  0.1031
  H  H663  1  0.318770  0.774230  0.553130  1.0  0.0955
  H  H664  1  0.221470  0.848130  0.608030  1.0  0.0754
  H  H665  1  0.154070  0.818230  0.644930  1.0  0.0889
  H  H666  1  0.111370  0.745230  0.646930  1.0  0.0887
  H  H667  1  0.142870  0.703930  0.634830  1.0  0.0942
  H  H668  1  0.208070  0.733730  0.594630  1.0  0.0814
  H  H669  1  0.083730  0.371870  0.989470  1.0  0.0883
  H  H670  1  0.155830  0.398670  0.988370  1.0  0.0965
  H  H671  1  0.151130  0.387270  0.842070  1.0  0.0757
  H  H672  1  0.077630  0.357870  0.846470  1.0  0.0557
  H  H673  1  0.997630  0.279570  0.988670  1.0  0.0943
  H  H674  1  0.966830  0.206370  0.980570  1.0  0.0756
  H  H675  1  0.972830  0.214870  0.837170  1.0  0.0766
  H  H676  1  0.004630  0.287570  0.842470  1.0  0.0837
  H  H677  1  0.287330  0.401370  0.915970  1.0  0.0882
  H  H678  1  0.295830  0.342670  0.926570  1.0  0.0871
  H  H679  1  0.238530  0.276170  0.930970  1.0  0.0943
  H  H680  1  0.170930  0.266570  0.927770  1.0  0.0822
  H  H681  1  0.160830  0.323370  0.921570  1.0  0.0698
  H  H682  1  0.237930  0.491170  0.866570  1.0  0.1152
  H  H683  1  0.256830  0.515170  0.785170  1.0  0.0761
  H  H684  1  0.263230  0.474670  0.726670  1.0  0.0824
  H  H685  1  0.255630  0.409370  0.746470  1.0  0.0831
  H  H686  1  0.235530  0.383070  0.826570  1.0  0.0733
  H  H687  1  0.947730  0.143270  0.004970  1.0  0.0965
  H  H688  1  0.987830  0.123470  0.052270  1.0  0.0801
  H  H689  1  0.023630  0.095270  0.020170  1.0  0.0917
  H  H690  1  0.024930  0.087170  0.937870  1.0  0.1011
  H  H691  1  0.985430  0.107570  0.886470  1.0  0.0955
  H  H692  1  0.888130  0.181470  0.941370  1.0  0.0754
  H  H693  1  0.820730  0.151570  0.978270  1.0  0.0889
  H  H694  1  0.778030  0.078570  0.980270  1.0  0.0888
  H  H695  1  0.809530  0.037270  0.968170  1.0  0.0942
  H  H696  1  0.874730  0.067070  0.927970  1.0  0.0814
  H  H697  1  0.294800  0.045200  0.322800  1.0  0.089
  H  H698  1  0.268000  0.090500  0.321700  1.0  0.0955
  H  H699  1  0.279400  0.097200  0.175400  1.0  0.0747
  H  H700  1  0.308800  0.053100  0.179800  1.0  0.0559
  H  H701  1  0.387100  0.051400  0.322000  1.0  0.0939
  H  H702  1  0.460300  0.093800  0.313900  1.0  0.075
  H  H703  1  0.451800  0.091300  0.170500  1.0  0.0767
  H  H704  1  0.379100  0.050400  0.175800  1.0  0.0837
  H  H705  1  0.265300  0.219300  0.249300  1.0  0.0876
  H  H706  1  0.324000  0.286500  0.259900  1.0  0.0862
  H  H707  1  0.390500  0.295700  0.264300  1.0  0.0952
  H  H708  1  0.400100  0.237700  0.261100  1.0  0.0821
  H  H709  1  0.343300  0.170800  0.254900  1.0  0.0698
  H  H710  1  0.175500  0.080100  0.199900  1.0  0.1157
  H  H711  1  0.151500  0.075000  0.118500  1.0  0.0755
  H  H712  1  0.192000  0.121900  0.060000  1.0  0.0824
  H  H713  1  0.257300  0.179600  0.079800  1.0  0.0832
  H  H714  1  0.283600  0.185800  0.159900  1.0  0.0734
  H  H715  1  0.523400  0.137800  0.338300  1.0  0.0972
  H  H716  1  0.543200  0.197700  0.385600  1.0  0.0801
  H  H717  1  0.571400  0.261700  0.353500  1.0  0.091
  H  H718  1  0.579500  0.271100  0.271200  1.0  0.0984
  H  H719  1  0.559100  0.211200  0.219800  1.0  0.0947
  H  H720  1  0.485200  0.040000  0.274700  1.0  0.0746
  H  H721  1  0.515100  0.002500  0.311600  1.0  0.0892
  H  H722  1  0.588100  0.032800  0.313600  1.0  0.0882
  H  H723  1  0.629400  0.105600  0.301500  1.0  0.0927
  H  H724  1  0.599600  0.141000  0.261300  1.0  0.0819
  H  H725  1  0.961470  0.378530  0.656130  1.0  0.089
  H  H726  1  0.934670  0.423830  0.655030  1.0  0.0955
  H  H727  1  0.946070  0.430530  0.508730  1.0  0.0747
  H  H728  1  0.975470  0.386430  0.513130  1.0  0.0559
  H  H729  1  0.053770  0.384730  0.655330  1.0  0.0939
  H  H730  1  0.126970  0.427130  0.647230  1.0  0.0749
  H  H731  1  0.118470  0.424630  0.503830  1.0  0.0767
  H  H732  1  0.045770  0.383730  0.509130  1.0  0.0837
  H  H733  1  0.931970  0.552630  0.582630  1.0  0.0876
  H  H734  1  0.990670  0.619830  0.593230  1.0  0.0862
  H  H735  1  0.057170  0.629030  0.597630  1.0  0.0952
  H  H736  1  0.066770  0.571030  0.594430  1.0  0.0822
  H  H737  1  0.009970  0.504130  0.588230  1.0  0.0697
  H  H738  1  0.842170  0.413430  0.533230  1.0  0.1157
  H  H739  1  0.818170  0.408330  0.451830  1.0  0.0755
  H  H740  1  0.858670  0.455230  0.393330  1.0  0.0824
  H  H741  1  0.923970  0.512930  0.413130  1.0  0.0831
  H  H742  1  0.950270  0.519130  0.493230  1.0  0.0734
  H  H743  1  0.190070  0.471130  0.671630  1.0  0.0972
  H  H744  1  0.209870  0.531030  0.718930  1.0  0.0801
  H  H745  1  0.238070  0.595030  0.686830  1.0  0.091
  H  H746  1  0.246170  0.604430  0.604530  1.0  0.1028
  H  H747  1  0.225770  0.544530  0.553130  1.0  0.0947
  H  H748  1  0.151870  0.373330  0.608030  1.0  0.0746
  H  H749  1  0.181770  0.335830  0.644930  1.0  0.0892
  H  H750  1  0.254770  0.366130  0.646930  1.0  0.0881
  H  H751  1  0.296070  0.438930  0.634830  1.0  0.0927
  H  H752  1  0.266270  0.474330  0.594630  1.0  0.0819
  H  H753  1  0.628130  0.711870  0.989470  1.0  0.089
  H  H754  1  0.601330  0.757170  0.988370  1.0  0.0955
  H  H755  1  0.612730  0.763870  0.842070  1.0  0.0747
  H  H756  1  0.642130  0.719770  0.846470  1.0  0.0559
  H  H757  1  0.720430  0.718070  0.988670  1.0  0.0939
  H  H758  1  0.793630  0.760470  0.980570  1.0  0.0749
  H  H759  1  0.785130  0.757970  0.837170  1.0  0.0767
  H  H760  1  0.712430  0.717070  0.842470  1.0  0.0837
  H  H761  1  0.598630  0.885970  0.915970  1.0  0.0876
  H  H762  1  0.657330  0.953170  0.926570  1.0  0.0863
  H  H763  1  0.723830  0.962370  0.930970  1.0  0.0952
  H  H764  1  0.733430  0.904370  0.927770  1.0  0.0821
  H  H765  1  0.676630  0.837470  0.921570  1.0  0.0697
  H  H766  1  0.508830  0.746770  0.866570  1.0  0.1157
  H  H767  1  0.484830  0.741670  0.785170  1.0  0.0755
  H  H768  1  0.525330  0.788570  0.726670  1.0  0.0824
  H  H769  1  0.590630  0.846270  0.746470  1.0  0.0832
  H  H770  1  0.616930  0.852470  0.826570  1.0  0.0734
  H  H771  1  0.856730  0.804470  0.004970  1.0  0.0972
  H  H772  1  0.876530  0.864370  0.052270  1.0  0.0801
  H  H773  1  0.904730  0.928370  0.020170  1.0  0.0911
  H  H774  1  0.912830  0.937770  0.937870  1.0  0.1001
  H  H775  1  0.892430  0.877870  0.886470  1.0  0.0947
  H  H776  1  0.818530  0.706670  0.941370  1.0  0.0746
  H  H777  1  0.848430  0.669170  0.978270  1.0  0.0892
  H  H778  1  0.921430  0.699470  0.980270  1.0  0.0882
  H  H779  1  0.962730  0.772270  0.968170  1.0  0.0927
  H  H780  1  0.932930  0.807670  0.927970  1.0  0.0819
  H  H781  1  0.954800  0.249600  0.322800  1.0  0.0889
  H  H782  1  0.909500  0.177500  0.321700  1.0  0.0955
  H  H783  1  0.902800  0.182200  0.175400  1.0  0.0763
  H  H784  1  0.946900  0.255700  0.179800  1.0  0.0562
  H  H785  1  0.948600  0.335700  0.322000  1.0  0.094
  H  H786  1  0.906200  0.366500  0.313900  1.0  0.075
  H  H787  1  0.908700  0.360500  0.170500  1.0  0.0766
  H  H788  1  0.949600  0.328700  0.175800  1.0  0.0834
  H  H789  1  0.780700  0.046000  0.249300  1.0  0.0869
  H  H790  1  0.713500  0.037500  0.259900  1.0  0.0856
  H  H791  1  0.704300  0.094800  0.264300  1.0  0.0937
  H  H792  1  0.762300  0.162400  0.261100  1.0  0.0813
  H  H793  1  0.829200  0.172500  0.254900  1.0  0.0696
  H  H794  1  0.919900  0.095400  0.199900  1.0  0.1132
  H  H795  1  0.925000  0.076500  0.118500  1.0  0.0751
  H  H796  1  0.878100  0.070100  0.060000  1.0  0.0828
  H  H797  1  0.820400  0.077700  0.079800  1.0  0.0837
  H  H798  1  0.814200  0.097800  0.159900  1.0  0.0739
  H  H799  1  0.862200  0.385600  0.338300  1.0  0.0967
  H  H800  1  0.802300  0.345500  0.385600  1.0  0.0807
  H  H801  1  0.738300  0.309700  0.353500  1.0  0.0927
  H  H802  1  0.728900  0.308400  0.271200  1.0  0.1
  H  H803  1  0.788800  0.347900  0.219800  1.0  0.0947
  H  H804  1  0.960000  0.445200  0.274700  1.0  0.0754
  H  H805  1  0.997500  0.512600  0.311600  1.0  0.0889
  H  H806  1  0.967200  0.555300  0.313600  1.0  0.0906
  H  H807  1  0.894400  0.523800  0.301500  1.0  0.093
  H  H808  1  0.859000  0.458600  0.261300  1.0  0.0808
  H  H809  1  0.621470  0.582930  0.656130  1.0  0.0889
  H  H810  1  0.576170  0.510830  0.655030  1.0  0.0955
  H  H811  1  0.569470  0.515530  0.508730  1.0  0.0762
  H  H812  1  0.613570  0.589030  0.513130  1.0  0.0562
  H  H813  1  0.615270  0.669030  0.655330  1.0  0.094
  H  H814  1  0.572870  0.699830  0.647230  1.0  0.075
  H  H815  1  0.575370  0.693830  0.503830  1.0  0.0766
  H  H816  1  0.616270  0.662030  0.509130  1.0  0.0834
  H  H817  1  0.447370  0.379330  0.582630  1.0  0.0869
  H  H818  1  0.380170  0.370830  0.593230  1.0  0.0856
  H  H819  1  0.370970  0.428130  0.597630  1.0  0.0937
  H  H820  1  0.428970  0.495730  0.594430  1.0  0.0812
  H  H821  1  0.495870  0.505830  0.588230  1.0  0.0696
  H  H822  1  0.586570  0.428730  0.533230  1.0  0.1132
  H  H823  1  0.591670  0.409830  0.451830  1.0  0.0752
  H  H824  1  0.544770  0.403430  0.393330  1.0  0.0828
  H  H825  1  0.487070  0.411030  0.413130  1.0  0.0838
  H  H826  1  0.480870  0.431130  0.493230  1.0  0.0739
  H  H827  1  0.528870  0.718930  0.671630  1.0  0.0968
  H  H828  1  0.468970  0.678830  0.718930  1.0  0.0807
  H  H829  1  0.404970  0.643030  0.686830  1.0  0.0927
  H  H830  1  0.395570  0.641730  0.604530  1.0  0.0984
  H  H831  1  0.455470  0.681230  0.553130  1.0  0.0947
  H  H832  1  0.626670  0.778530  0.608030  1.0  0.0754
  H  H833  1  0.664170  0.845930  0.644930  1.0  0.0889
  H  H834  1  0.633870  0.888630  0.646930  1.0  0.0905
  H  H835  1  0.561070  0.857130  0.634830  1.0  0.093
  H  H836  1  0.525670  0.791930  0.594630  1.0  0.0808
  H  H837  1  0.288130  0.916270  0.989470  1.0  0.0889
  H  H838  1  0.242830  0.844170  0.988370  1.0  0.0956
  H  H839  1  0.236130  0.848870  0.842070  1.0  0.0763
  H  H840  1  0.280230  0.922370  0.846470  1.0  0.0562
  H  H841  1  0.281930  0.002370  0.988670  1.0  0.094
  H  H842  1  0.239530  0.033170  0.980570  1.0  0.075
  H  H843  1  0.242030  0.027170  0.837170  1.0  0.0766
  H  H844  1  0.282930  0.995370  0.842470  1.0  0.0834
  H  H845  1  0.114030  0.712670  0.915970  1.0  0.0869
  H  H846  1  0.046830  0.704170  0.926570  1.0  0.0856
  H  H847  1  0.037630  0.761470  0.930970  1.0  0.0937
  H  H848  1  0.095630  0.829070  0.927770  1.0  0.0813
  H  H849  1  0.162530  0.839170  0.921570  1.0  0.0695
  H  H850  1  0.253230  0.762070  0.866570  1.0  0.1131
  H  H851  1  0.258330  0.743170  0.785170  1.0  0.0752
  H  H852  1  0.211430  0.736770  0.726670  1.0  0.0827
  H  H853  1  0.153730  0.744370  0.746470  1.0  0.0837
  H  H854  1  0.147530  0.764470  0.826570  1.0  0.0739
  H  H855  1  0.195530  0.052270  0.004970  1.0  0.0968
  H  H856  1  0.135630  0.012170  0.052270  1.0  0.0807
  H  H857  1  0.071630  0.976370  0.020170  1.0  0.0916
  H  H858  1  0.062230  0.975070  0.937870  1.0  0.1029
  H  H859  1  0.122130  0.014570  0.886470  1.0  0.0948
  H  H860  1  0.293330  0.111870  0.941370  1.0  0.0754
  H  H861  1  0.330830  0.179270  0.978270  1.0  0.0889
  H  H862  1  0.300530  0.221970  0.980270  1.0  0.0907
  H  H863  1  0.227730  0.190470  0.968170  1.0  0.093
  H  H864  1  0.192330  0.125270  0.927970  1.0  0.0808
  H  H865  1  0.705200  0.750400  0.177200  1.0  0.0892
  H  H866  1  0.732000  0.822500  0.178300  1.0  0.0955
  H  H867  1  0.720600  0.817800  0.324600  1.0  0.0757
  H  H868  1  0.691200  0.744300  0.320200  1.0  0.0558
  H  H869  1  0.612900  0.664300  0.178000  1.0  0.0949
  H  H870  1  0.539700  0.633500  0.186100  1.0  0.0747
  H  H871  1  0.548200  0.639500  0.329500  1.0  0.077
  H  H872  1  0.620900  0.671300  0.324200  1.0  0.0829
  H  H873  1  0.734700  0.954000  0.250700  1.0  0.0869
  H  H874  1  0.676000  0.962500  0.240100  1.0  0.086
  H  H875  1  0.609500  0.905200  0.235700  1.0  0.0939
  H  H876  1  0.599900  0.837600  0.238900  1.0  0.0815
  H  H877  1  0.656700  0.827500  0.245100  1.0  0.0698
  H  H878  1  0.824500  0.904600  0.300100  1.0  0.1136
  H  H879  1  0.848500  0.923500  0.381500  1.0  0.0753
  H  H880  1  0.808000  0.929900  0.440000  1.0  0.0826
  H  H881  1  0.742700  0.922300  0.420200  1.0  0.0833
  H  H882  1  0.716400  0.902200  0.340100  1.0  0.074
  H  H883  1  0.476600  0.614400  0.161700  1.0  0.0964
  H  H884  1  0.456800  0.654500  0.114400  1.0  0.0808
  H  H885  1  0.428600  0.690300  0.146500  1.0  0.0917
  H  H886  1  0.420500  0.691600  0.228800  1.0  0.1021
  H  H887  1  0.440900  0.652100  0.280200  1.0  0.0954
  H  H888  1  0.514800  0.554800  0.225300  1.0  0.0752
  H  H889  1  0.484900  0.487400  0.188400  1.0  0.089
  H  H890  1  0.411900  0.444700  0.186400  1.0  0.0906
  H  H891  1  0.370600  0.476200  0.198500  1.0  0.0934
  H  H892  1  0.400400  0.541400  0.238700  1.0  0.0808
  H  H893  1  0.371870  0.083730  0.510530  1.0  0.0892
  H  H894  1  0.398670  0.155830  0.511630  1.0  0.0955
  H  H895  1  0.387270  0.151130  0.657930  1.0  0.0757
  H  H896  1  0.357870  0.077630  0.653530  1.0  0.0558
  H  H897  1  0.279570  0.997630  0.511330  1.0  0.0949
  H  H898  1  0.206370  0.966830  0.519430  1.0  0.0747
  H  H899  1  0.214870  0.972830  0.662830  1.0  0.077
  H  H900  1  0.287570  0.004630  0.657530  1.0  0.0829
  H  H901  1  0.401370  0.287330  0.584030  1.0  0.0869
  H  H902  1  0.342670  0.295830  0.573430  1.0  0.086
  H  H903  1  0.276170  0.238530  0.569030  1.0  0.0939
  H  H904  1  0.266570  0.170930  0.572230  1.0  0.0815
  H  H905  1  0.323370  0.160830  0.578430  1.0  0.0699
  H  H906  1  0.491170  0.237930  0.633430  1.0  0.1135
  H  H907  1  0.515170  0.256830  0.714830  1.0  0.0753
  H  H908  1  0.474670  0.263230  0.773330  1.0  0.0827
  H  H909  1  0.409370  0.255630  0.753530  1.0  0.0834
  H  H910  1  0.383070  0.235530  0.673430  1.0  0.074
  H  H911  1  0.143270  0.947730  0.495030  1.0  0.0964
  H  H912  1  0.123470  0.987830  0.447730  1.0  0.0808
  H  H913  1  0.095270  0.023630  0.479830  1.0  0.092
  H  H914  1  0.087170  0.024930  0.562130  1.0  0.1024
  H  H915  1  0.107570  0.985430  0.613530  1.0  0.0954
  H  H916  1  0.181470  0.888130  0.558630  1.0  0.0752
  H  H917  1  0.151570  0.820730  0.521730  1.0  0.089
  H  H918  1  0.078570  0.778030  0.519730  1.0  0.0908
  H  H919  1  0.037270  0.809530  0.531830  1.0  0.0934
  H  H920  1  0.067070  0.874730  0.572030  1.0  0.0808
  H  H921  1  0.038530  0.417070  0.843870  1.0  0.0892
  H  H922  1  0.065330  0.489170  0.844970  1.0  0.0955
  H  H923  1  0.053930  0.484470  0.991270  1.0  0.0758
  H  H924  1  0.024530  0.410970  0.986870  1.0  0.0558
  H  H925  1  0.946230  0.330970  0.844670  1.0  0.0949
  H  H926  1  0.873030  0.300170  0.852770  1.0  0.0747
  H  H927  1  0.881530  0.306170  0.996170  1.0  0.077
  H  H928  1  0.954230  0.337970  0.990870  1.0  0.0829
  H  H929  1  0.068030  0.620670  0.917370  1.0  0.0868
  H  H930  1  0.009330  0.629170  0.906770  1.0  0.086
  H  H931  1  0.942830  0.571870  0.902370  1.0  0.0939
  H  H932  1  0.933230  0.504270  0.905570  1.0  0.0815
  H  H933  1  0.990030  0.494170  0.911770  1.0  0.0699
  H  H934  1  0.157830  0.571270  0.966770  1.0  0.1136
  H  H935  1  0.181830  0.590170  0.048170  1.0  0.0753
  H  H936  1  0.141330  0.596570  0.106670  1.0  0.0826
  H  H937  1  0.076030  0.588970  0.086870  1.0  0.0834
  H  H938  1  0.049730  0.568870  0.006770  1.0  0.074
  H  H939  1  0.809930  0.281070  0.828370  1.0  0.0964
  H  H940  1  0.790130  0.321170  0.781070  1.0  0.0808
  H  H941  1  0.761930  0.356970  0.813170  1.0  0.0917
  H  H942  1  0.753830  0.358270  0.895470  1.0  0.1035
  H  H943  1  0.774230  0.318770  0.946870  1.0  0.0954
  H  H944  1  0.848130  0.221470  0.891970  1.0  0.0752
  H  H945  1  0.818230  0.154070  0.855070  1.0  0.089
  H  H946  1  0.745230  0.111370  0.853070  1.0  0.0906
  H  H947  1  0.703930  0.142870  0.865170  1.0  0.0934
  H  H948  1  0.733730  0.208070  0.905370  1.0  0.0808
  H  H949  1  0.045200  0.294800  0.177200  1.0  0.0878
  H  H950  1  0.090500  0.268000  0.178300  1.0  0.0961
  H  H951  1  0.097200  0.279400  0.324600  1.0  0.0761
  H  H952  1  0.053100  0.308800  0.320200  1.0  0.0551
  H  H953  1  0.051400  0.387100  0.178000  1.0  0.0952
  H  H954  1  0.093800  0.460300  0.186100  1.0  0.0754
  H  H955  1  0.091300  0.451800  0.329500  1.0  0.077
  H  H956  1  0.050400  0.379100  0.324200  1.0  0.0833
  H  H957  1  0.219300  0.265300  0.250700  1.0  0.0876
  H  H958  1  0.286500  0.324000  0.240100  1.0  0.087
  H  H959  1  0.295700  0.390500  0.235700  1.0  0.094
  H  H960  1  0.237700  0.400100  0.238900  1.0  0.082
  H  H961  1  0.170800  0.343300  0.245100  1.0  0.0701
  H  H962  1  0.080100  0.175500  0.300100  1.0  0.114
  H  H963  1  0.075000  0.151500  0.381500  1.0  0.0758
  H  H964  1  0.121900  0.192000  0.440000  1.0  0.0821
  H  H965  1  0.179600  0.257300  0.420200  1.0  0.0832
  H  H966  1  0.185800  0.283600  0.340100  1.0  0.0732
  H  H967  1  0.137800  0.523400  0.161700  1.0  0.0963
  H  H968  1  0.197700  0.543200  0.114400  1.0  0.0811
  H  H969  1  0.261700  0.571400  0.146500  1.0  0.0917
  H  H970  1  0.271100  0.579500  0.228800  1.0  0.0989
  H  H971  1  0.211200  0.559100  0.280200  1.0  0.0951
  H  H972  1  0.040000  0.485200  0.225300  1.0  0.0757
  H  H973  1  0.002500  0.515100  0.188400  1.0  0.0886
  H  H974  1  0.032800  0.588100  0.186400  1.0  0.089
  H  H975  1  0.105600  0.629400  0.198500  1.0  0.0943
  H  H976  1  0.141000  0.599600  0.238700  1.0  0.0812
  H  H977  1  0.711870  0.628130  0.510530  1.0  0.0878
  H  H978  1  0.757170  0.601330  0.511630  1.0  0.096
  H  H979  1  0.763870  0.612730  0.657930  1.0  0.0761
  H  H980  1  0.719770  0.642130  0.653530  1.0  0.0551
  H  H981  1  0.718070  0.720430  0.511330  1.0  0.0952
  H  H982  1  0.760470  0.793630  0.519430  1.0  0.0755
  H  H983  1  0.757970  0.785130  0.662830  1.0  0.077
  H  H984  1  0.717070  0.712430  0.657530  1.0  0.0833
  H  H985  1  0.885970  0.598630  0.584030  1.0  0.0876
  H  H986  1  0.953170  0.657330  0.573430  1.0  0.087
  H  H987  1  0.962370  0.723830  0.569030  1.0  0.0941
  H  H988  1  0.904370  0.733430  0.572230  1.0  0.082
  H  H989  1  0.837470  0.676630  0.578430  1.0  0.07
  H  H990  1  0.746770  0.508830  0.633430  1.0  0.114
  H  H991  1  0.741670  0.484830  0.714830  1.0  0.0758
  H  H992  1  0.788570  0.525330  0.773330  1.0  0.0821
  H  H993  1  0.846270  0.590630  0.753530  1.0  0.0832
  H  H994  1  0.852470  0.616930  0.673430  1.0  0.0732
  H  H995  1  0.804470  0.856730  0.495030  1.0  0.0963
  H  H996  1  0.864370  0.876530  0.447730  1.0  0.0811
  H  H997  1  0.928370  0.904730  0.479830  1.0  0.0918
  H  H998  1  0.937770  0.912830  0.562130  1.0  0.1006
  H  H999  1  0.877870  0.892430  0.613530  1.0  0.0951
  H  H1000  1  0.706670  0.818530  0.558630  1.0  0.0757
  H  H1001  1  0.669170  0.848430  0.521730  1.0  0.0886
  H  H1002  1  0.699470  0.921430  0.519730  1.0  0.0891
  H  H1003  1  0.772270  0.962730  0.531830  1.0  0.0943
  H  H1004  1  0.807670  0.932930  0.572030  1.0  0.0812
  H  H1005  1  0.378530  0.961470  0.843870  1.0  0.0878
  H  H1006  1  0.423830  0.934670  0.844970  1.0  0.0961
  H  H1007  1  0.430530  0.946070  0.991270  1.0  0.0761
  H  H1008  1  0.386430  0.975470  0.986870  1.0  0.0549
  H  H1009  1  0.384730  0.053770  0.844670  1.0  0.0952
  H  H1010  1  0.427130  0.126970  0.852770  1.0  0.0754
  H  H1011  1  0.424630  0.118470  0.996170  1.0  0.077
  H  H1012  1  0.383730  0.045770  0.990870  1.0  0.0833
  H  H1013  1  0.552630  0.931970  0.917370  1.0  0.0876
  H  H1014  1  0.619830  0.990670  0.906770  1.0  0.087
  H  H1015  1  0.629030  0.057170  0.902370  1.0  0.094
  H  H1016  1  0.571030  0.066770  0.905570  1.0  0.0821
  H  H1017  1  0.504130  0.009970  0.911770  1.0  0.07
  H  H1018  1  0.413430  0.842170  0.966770  1.0  0.114
  H  H1019  1  0.408330  0.818170  0.048170  1.0  0.0758
  H  H1020  1  0.455230  0.858670  0.106670  1.0  0.0821
  H  H1021  1  0.512930  0.923970  0.086870  1.0  0.0831
  H  H1022  1  0.519130  0.950270  0.006770  1.0  0.0732
  H  H1023  1  0.471130  0.190070  0.828370  1.0  0.0963
  H  H1024  1  0.531030  0.209870  0.781070  1.0  0.0811
  H  H1025  1  0.595030  0.238070  0.813170  1.0  0.0917
  H  H1026  1  0.604430  0.246170  0.895470  1.0  0.1035
  H  H1027  1  0.544530  0.225770  0.946870  1.0  0.095
  H  H1028  1  0.373330  0.151870  0.891970  1.0  0.0757
  H  H1029  1  0.335830  0.181770  0.855070  1.0  0.0886
  H  H1030  1  0.366130  0.254770  0.853070  1.0  0.089
  H  H1031  1  0.438930  0.296070  0.865170  1.0  0.0943
  H  H1032  1  0.474330  0.266270  0.905370  1.0  0.0813
  H  H1033  1  0.249600  0.954800  0.177200  1.0  0.0882
  H  H1034  1  0.177500  0.909500  0.178300  1.0  0.0948
  H  H1035  1  0.182200  0.902800  0.324600  1.0  0.0752
  H  H1036  1  0.255700  0.946900  0.320200  1.0  0.055
  H  H1037  1  0.335700  0.948600  0.178000  1.0  0.0947
  H  H1038  1  0.366500  0.906200  0.186100  1.0  0.0745
  H  H1039  1  0.360500  0.908700  0.329500  1.0  0.0771
  H  H1040  1  0.328700  0.949600  0.324200  1.0  0.0831
  H  H1041  1  0.046000  0.780700  0.250700  1.0  0.0875
  H  H1042  1  0.037500  0.713500  0.240100  1.0  0.0859
  H  H1043  1  0.094800  0.704300  0.235700  1.0  0.0953
  H  H1044  1  0.162400  0.762300  0.238900  1.0  0.0824
  H  H1045  1  0.172500  0.829200  0.245100  1.0  0.0696
  H  H1046  1  0.095400  0.919900  0.300100  1.0  0.1155
  H  H1047  1  0.076500  0.925000  0.381500  1.0  0.0769
  H  H1048  1  0.070100  0.878100  0.440000  1.0  0.0818
  H  H1049  1  0.077700  0.820400  0.420200  1.0  0.0839
  H  H1050  1  0.097800  0.814200  0.340100  1.0  0.0736
  H  H1051  1  0.385600  0.862200  0.161700  1.0  0.0973
  H  H1052  1  0.345500  0.802300  0.114400  1.0  0.0809
  H  H1053  1  0.309700  0.738300  0.146500  1.0  0.0913
  H  H1054  1  0.308400  0.728900  0.228800  1.0  0.0982
  H  H1055  1  0.347900  0.788800  0.280200  1.0  0.0942
  H  H1056  1  0.445200  0.960000  0.225300  1.0  0.0747
  H  H1057  1  0.512600  0.997500  0.188400  1.0  0.0895
  H  H1058  1  0.555300  0.967200  0.186400  1.0  0.0884
  H  H1059  1  0.523800  0.894400  0.198500  1.0  0.093
  H  H1060  1  0.458600  0.859000  0.238700  1.0  0.0815
  H  H1061  1  0.916270  0.288130  0.510530  1.0  0.0882
  H  H1062  1  0.844170  0.242830  0.511630  1.0  0.0949
  H  H1063  1  0.848870  0.236130  0.657930  1.0  0.0752
  H  H1064  1  0.922370  0.280230  0.653530  1.0  0.055
  H  H1065  1  0.002370  0.281930  0.511330  1.0  0.0947
  H  H1066  1  0.033170  0.239530  0.519430  1.0  0.0745
  H  H1067  1  0.027170  0.242030  0.662830  1.0  0.0771
  H  H1068  1  0.995370  0.282930  0.657530  1.0  0.0831
  H  H1069  1  0.712670  0.114030  0.584030  1.0  0.0875
  H  H1070  1  0.704170  0.046830  0.573430  1.0  0.0859
  H  H1071  1  0.761470  0.037630  0.569030  1.0  0.0953
  H  H1072  1  0.829070  0.095630  0.572230  1.0  0.0824
  H  H1073  1  0.839170  0.162530  0.578430  1.0  0.0696
  H  H1074  1  0.762070  0.253230  0.633430  1.0  0.1154
  H  H1075  1  0.743170  0.258330  0.714830  1.0  0.077
  H  H1076  1  0.736770  0.211430  0.773330  1.0  0.0817
  H  H1077  1  0.744370  0.153730  0.753530  1.0  0.0839
  H  H1078  1  0.764470  0.147530  0.673430  1.0  0.0736
  H  H1079  1  0.052270  0.195530  0.495030  1.0  0.0973
  H  H1080  1  0.012170  0.135630  0.447730  1.0  0.0809
  H  H1081  1  0.976370  0.071630  0.479830  1.0  0.0903
  H  H1082  1  0.975070  0.062230  0.562130  1.0  0.102
  H  H1083  1  0.014570  0.122130  0.613530  1.0  0.0942
  H  H1084  1  0.111870  0.293330  0.558630  1.0  0.0747
  H  H1085  1  0.179270  0.330830  0.521730  1.0  0.0895
  H  H1086  1  0.221970  0.300530  0.519730  1.0  0.0885
  H  H1087  1  0.190470  0.227730  0.531830  1.0  0.093
  H  H1088  1  0.125270  0.192330  0.572030  1.0  0.0815
  H  H1089  1  0.582930  0.621470  0.843870  1.0  0.0882
  H  H1090  1  0.510830  0.576170  0.844970  1.0  0.0948
  H  H1091  1  0.515530  0.569470  0.991270  1.0  0.0751
  H  H1092  1  0.589030  0.613570  0.986870  1.0  0.055
  H  H1093  1  0.669030  0.615270  0.844670  1.0  0.0947
  H  H1094  1  0.699830  0.572870  0.852770  1.0  0.0745
  H  H1095  1  0.693830  0.575370  0.996170  1.0  0.0772
  H  H1096  1  0.662030  0.616270  0.990870  1.0  0.0831
  H  H1097  1  0.379330  0.447370  0.917370  1.0  0.0875
  H  H1098  1  0.370830  0.380170  0.906770  1.0  0.0859
  H  H1099  1  0.428130  0.370970  0.902370  1.0  0.0953
  H  H1100  1  0.495730  0.428970  0.905570  1.0  0.0824
  H  H1101  1  0.505830  0.495870  0.911770  1.0  0.0696
  H  H1102  1  0.428730  0.586570  0.966770  1.0  0.1155
  H  H1103  1  0.409830  0.591670  0.048170  1.0  0.0769
  H  H1104  1  0.403430  0.544770  0.106670  1.0  0.0818
  H  H1105  1  0.411030  0.487070  0.086870  1.0  0.0839
  H  H1106  1  0.431130  0.480870  0.006770  1.0  0.0736
  H  H1107  1  0.718930  0.528870  0.828370  1.0  0.0973
  H  H1108  1  0.678830  0.468970  0.781070  1.0  0.0809
  H  H1109  1  0.643030  0.404970  0.813170  1.0  0.0913
  H  H1110  1  0.641730  0.395570  0.895470  1.0  0.0968
  H  H1111  1  0.681230  0.455470  0.946870  1.0  0.0941
  H  H1112  1  0.778530  0.626670  0.891970  1.0  0.0747
  H  H1113  1  0.845930  0.664170  0.855070  1.0  0.0895
  H  H1114  1  0.888630  0.633870  0.853070  1.0  0.0884
  H  H1115  1  0.857130  0.561070  0.865170  1.0  0.093
  H  H1116  1  0.791930  0.525670  0.905370  1.0  0.0815
  C  C1117  1  0.307500  0.327500  0.743900  1.0  0.0095
  C  C1118  1  0.260200  0.306100  0.749900  1.0  0.0651
  C  C1119  1  0.236000  0.292600  0.707300  1.0  -0.0985
  C  C1120  1  0.193000  0.276300  0.707800  1.0  -0.0964
  C  C1121  1  0.172000  0.271700  0.752500  1.0  -0.2319
  C  C1122  1  0.195400  0.283100  0.793800  1.0  -0.0852
  C  C1123  1  0.239900  0.300700  0.790900  1.0  -0.1327
  C  C1124  1  0.328700  0.374700  0.749800  1.0  0.0254
  C  C1125  1  0.340400  0.399400  0.709400  1.0  -0.1843
  C  C1126  1  0.359700  0.443600  0.714700  1.0  -0.0726
  C  C1127  1  0.369000  0.463300  0.758300  1.0  -0.1064
  C  C1128  1  0.356200  0.438900  0.798500  1.0  -0.0581
  C  C1129  1  0.336700  0.395400  0.795300  1.0  -0.1391
  C  C1130  1  0.110500  0.297500  0.747200  1.0  -0.2743
  C  C1131  1  0.070100  0.292600  0.747100  1.0  -0.1242
  C  C1132  1  0.065100  0.327700  0.741800  1.0  -0.103
  C  C1133  1  0.098700  0.366800  0.738900  1.0  -0.1062
  C  C1134  1  0.138700  0.372400  0.740500  1.0  -0.0747
  C  C1135  1  0.144600  0.338800  0.744300  1.0  -0.0831
  C  C1136  1  0.099000  0.233000  0.813000  1.0  -0.2342
  C  C1137  1  0.092500  0.192500  0.824000  1.0  -0.1179
  C  C1138  1  0.081200  0.178600  0.872900  1.0  -0.0936
  C  C1139  1  0.076700  0.202200  0.907700  1.0  -0.0751
  C  C1140  1  0.081900  0.241000  0.896300  1.0  -0.1498
  C  C1141  1  0.093600  0.256500  0.848100  1.0  -0.0584
  C  C1142  1  0.369200  0.538100  0.725500  1.0  -0.134
  C  C1143  1  0.369700  0.534300  0.676600  1.0  -0.2104
  C  C1144  1  0.346100  0.546700  0.648700  1.0  -0.1007
  C  C1145  1  0.324900  0.562900  0.667200  1.0  -0.1377
  C  C1146  1  0.324200  0.567800  0.715200  1.0  -0.1258
  C  C1147  1  0.347500  0.555400  0.746000  1.0  -0.1071
  C  C1148  1  0.446100  0.539600  0.735700  1.0  -0.1129
  C  C1149  1  0.461600  0.514900  0.721200  1.0  -0.0714
  C  C1150  1  0.502400  0.532800  0.699900  1.0  -0.1321
  C  C1151  1  0.526600  0.575500  0.696100  1.0  -0.1042
  C  C1152  1  0.509100  0.600200  0.706400  1.0  -0.1174
  C  C1153  1  0.469500  0.582100  0.728500  1.0  -0.0585
  C  C1154  1  0.974170  0.660830  0.077230  1.0  0.0095
  C  C1155  1  0.926870  0.639430  0.083230  1.0  0.0651
  C  C1156  1  0.902670  0.625930  0.040630  1.0  -0.0985
  C  C1157  1  0.859670  0.609630  0.041130  1.0  -0.0965
  C  C1158  1  0.838670  0.605030  0.085830  1.0  -0.2319
  C  C1159  1  0.862070  0.616430  0.127130  1.0  -0.0851
  C  C1160  1  0.906570  0.634030  0.124230  1.0  -0.1328
  C  C1161  1  0.995370  0.708030  0.083130  1.0  0.0254
  C  C1162  1  0.007070  0.732730  0.042730  1.0  -0.1843
  C  C1163  1  0.026370  0.776930  0.048030  1.0  -0.0726
  C  C1164  1  0.035670  0.796630  0.091630  1.0  -0.1064
  C  C1165  1  0.022870  0.772230  0.131830  1.0  -0.0581
  C  C1166  1  0.003370  0.728730  0.128630  1.0  -0.1391
  C  C1167  1  0.777170  0.630830  0.080530  1.0  -0.2743
  C  C1168  1  0.736770  0.625930  0.080430  1.0  -0.1242
  C  C1169  1  0.731770  0.661030  0.075130  1.0  -0.103
  C  C1170  1  0.765370  0.700130  0.072230  1.0  -0.1062
  C  C1171  1  0.805370  0.705730  0.073830  1.0  -0.0747
  C  C1172  1  0.811270  0.672130  0.077630  1.0  -0.083
  C  C1173  1  0.765670  0.566330  0.146330  1.0  -0.2342
  C  C1174  1  0.759170  0.525830  0.157330  1.0  -0.1179
  C  C1175  1  0.747870  0.511930  0.206230  1.0  -0.0936
  C  C1176  1  0.743370  0.535530  0.241030  1.0  -0.0751
  C  C1177  1  0.748570  0.574330  0.229630  1.0  -0.1498
  C  C1178  1  0.760270  0.589830  0.181430  1.0  -0.0584
  C  C1179  1  0.035870  0.871430  0.058830  1.0  -0.134
  C  C1180  1  0.036370  0.867630  0.009930  1.0  -0.2104
  C  C1181  1  0.012770  0.880030  0.982030  1.0  -0.1007
  C  C1182  1  0.991570  0.896230  0.000530  1.0  -0.1377
  C  C1183  1  0.990870  0.901130  0.048530  1.0  -0.1258
  C  C1184  1  0.014170  0.888730  0.079330  1.0  -0.1071
  C  C1185  1  0.112770  0.872930  0.069030  1.0  -0.1129
  C  C1186  1  0.128270  0.848230  0.054530  1.0  -0.0712
  C  C1187  1  0.169070  0.866130  0.033230  1.0  -0.1317
  C  C1188  1  0.193270  0.908830  0.029430  1.0  -0.1042
  C  C1189  1  0.175770  0.933530  0.039730  1.0  -0.1174
  C  C1190  1  0.136170  0.915430  0.061830  1.0  -0.0585
  C  C1191  1  0.640830  0.994170  0.410570  1.0  0.0095
  C  C1192  1  0.593530  0.972770  0.416570  1.0  0.0651
  C  C1193  1  0.569330  0.959270  0.373970  1.0  -0.0985
  C  C1194  1  0.526330  0.942970  0.374470  1.0  -0.0964
  C  C1195  1  0.505330  0.938370  0.419170  1.0  -0.2319
  C  C1196  1  0.528730  0.949770  0.460470  1.0  -0.0851
  C  C1197  1  0.573230  0.967370  0.457570  1.0  -0.1326
  C  C1198  1  0.662030  0.041370  0.416470  1.0  0.0253
  C  C1199  1  0.673730  0.066070  0.376070  1.0  -0.1843
  C  C1200  1  0.693030  0.110270  0.381370  1.0  -0.0726
  C  C1201  1  0.702330  0.129970  0.424970  1.0  -0.1065
  C  C1202  1  0.689530  0.105570  0.465170  1.0  -0.0581
  C  C1203  1  0.670030  0.062070  0.461970  1.0  -0.139
  C  C1204  1  0.443830  0.964170  0.413870  1.0  -0.2743
  C  C1205  1  0.403430  0.959270  0.413770  1.0  -0.1242
  C  C1206  1  0.398430  0.994370  0.408470  1.0  -0.103
  C  C1207  1  0.432030  0.033470  0.405570  1.0  -0.1062
  C  C1208  1  0.472030  0.039070  0.407170  1.0  -0.0747
  C  C1209  1  0.477930  0.005470  0.410970  1.0  -0.0832
  C  C1210  1  0.432330  0.899670  0.479670  1.0  -0.2342
  C  C1211  1  0.425830  0.859170  0.490670  1.0  -0.1179
  C  C1212  1  0.414530  0.845270  0.539570  1.0  -0.0936
  C  C1213  1  0.410030  0.868870  0.574370  1.0  -0.0752
  C  C1214  1  0.415230  0.907670  0.562970  1.0  -0.1498
  C  C1215  1  0.426930  0.923170  0.514770  1.0  -0.0583
  C  C1216  1  0.702530  0.204770  0.392170  1.0  -0.1341
  C  C1217  1  0.703030  0.200970  0.343270  1.0  -0.2104
  C  C1218  1  0.679430  0.213370  0.315370  1.0  -0.1007
  C  C1219  1  0.658230  0.229570  0.333870  1.0  -0.1377
  C  C1220  1  0.657530  0.234470  0.381870  1.0  -0.1258
  C  C1221  1  0.680830  0.222070  0.412670  1.0  -0.1075
  C  C1222  1  0.779430  0.206270  0.402370  1.0  -0.1129
  C  C1223  1  0.794930  0.181570  0.387870  1.0  -0.0714
  C  C1224  1  0.835730  0.199470  0.366570  1.0  -0.1321
  C  C1225  1  0.859930  0.242170  0.362770  1.0  -0.1043
  C  C1226  1  0.842430  0.266870  0.373070  1.0  -0.1174
  C  C1227  1  0.802830  0.248770  0.395170  1.0  -0.0586
  C  C1228  1  0.672500  0.980000  0.743900  1.0  0.009
  C  C1229  1  0.693900  0.954100  0.749900  1.0  0.0636
  C  C1230  1  0.707400  0.943400  0.707300  1.0  -0.0972
  C  C1231  1  0.723700  0.916700  0.707800  1.0  -0.093
  C  C1232  1  0.728300  0.900300  0.752500  1.0  -0.228
  C  C1233  1  0.716900  0.912300  0.793800  1.0  -0.0846
  C  C1234  1  0.699300  0.939200  0.790900  1.0  -0.1317
  C  C1235  1  0.625300  0.954000  0.749800  1.0  0.0244
  C  C1236  1  0.600600  0.941000  0.709400  1.0  -0.186
  C  C1237  1  0.556400  0.916100  0.714700  1.0  -0.0745
  C  C1238  1  0.536700  0.905700  0.758300  1.0  -0.107
  C  C1239  1  0.561100  0.917300  0.798500  1.0  -0.0614
  C  C1240  1  0.604600  0.941300  0.795300  1.0  -0.1416
  C  C1241  1  0.702500  0.813000  0.747200  1.0  -0.275
  C  C1242  1  0.707400  0.777500  0.747100  1.0  -0.1277
  C  C1243  1  0.672300  0.737400  0.741800  1.0  -0.099
  C  C1244  1  0.633200  0.731900  0.738900  1.0  -0.1057
  C  C1245  1  0.627600  0.766300  0.740500  1.0  -0.0757
  C  C1246  1  0.661200  0.805800  0.744300  1.0  -0.0781
  C  C1247  1  0.767000  0.866000  0.813000  1.0  -0.2351
  C  C1248  1  0.807500  0.900000  0.824000  1.0  -0.1199
  C  C1249  1  0.821400  0.902600  0.872900  1.0  -0.0888
  C  C1250  1  0.797800  0.874500  0.907700  1.0  -0.0762
  C  C1251  1  0.759000  0.840900  0.896300  1.0  -0.1478
  C  C1252  1  0.743500  0.837100  0.848100  1.0  -0.0571
  C  C1253  1  0.461900  0.831100  0.725500  1.0  -0.1324
  C  C1254  1  0.465700  0.835400  0.676600  1.0  -0.2078
  C  C1255  1  0.453300  0.799400  0.648700  1.0  -0.1006
  C  C1256  1  0.437100  0.762000  0.667200  1.0  -0.1378
  C  C1257  1  0.432200  0.756400  0.715200  1.0  -0.1252
  C  C1258  1  0.444600  0.792100  0.746000  1.0  -0.1068
  C  C1259  1  0.460400  0.906500  0.735700  1.0  -0.113
  C  C1260  1  0.485100  0.946700  0.721200  1.0  -0.0723
  C  C1261  1  0.467200  0.969600  0.699900  1.0  -0.1289
  C  C1262  1  0.424500  0.951100  0.696100  1.0  -0.1057
  C  C1263  1  0.399800  0.908900  0.706400  1.0  -0.1242
  C  C1264  1  0.417900  0.887400  0.728500  1.0  -0.0572
  C  C1265  1  0.339170  0.313330  0.077230  1.0  0.009
  C  C1266  1  0.360570  0.287430  0.083230  1.0  0.0636
  C  C1267  1  0.374070  0.276730  0.040630  1.0  -0.0973
  C  C1268  1  0.390370  0.250030  0.041130  1.0  -0.093
  C  C1269  1  0.394970  0.233630  0.085830  1.0  -0.2279
  C  C1270  1  0.383570  0.245630  0.127130  1.0  -0.0846
  C  C1271  1  0.365970  0.272530  0.124230  1.0  -0.1317
  C  C1272  1  0.291970  0.287330  0.083130  1.0  0.0244
  C  C1273  1  0.267270  0.274330  0.042730  1.0  -0.186
  C  C1274  1  0.223070  0.249430  0.048030  1.0  -0.0745
  C  C1275  1  0.203370  0.239030  0.091630  1.0  -0.107
  C  C1276  1  0.227770  0.250630  0.131830  1.0  -0.0614
  C  C1277  1  0.271270  0.274630  0.128630  1.0  -0.1416
  C  C1278  1  0.369170  0.146330  0.080530  1.0  -0.275
  C  C1279  1  0.374070  0.110830  0.080430  1.0  -0.1277
  C  C1280  1  0.338970  0.070730  0.075130  1.0  -0.099
  C  C1281  1  0.299870  0.065230  0.072230  1.0  -0.1057
  C  C1282  1  0.294270  0.099630  0.073830  1.0  -0.0757
  C  C1283  1  0.327870  0.139130  0.077630  1.0  -0.0782
  C  C1284  1  0.433670  0.199330  0.146330  1.0  -0.2351
  C  C1285  1  0.474170  0.233330  0.157330  1.0  -0.1199
  C  C1286  1  0.488070  0.235930  0.206230  1.0  -0.0889
  C  C1287  1  0.464470  0.207830  0.241030  1.0  -0.0762
  C  C1288  1  0.425670  0.174230  0.229630  1.0  -0.1479
  C  C1289  1  0.410170  0.170430  0.181430  1.0  -0.0571
  C  C1290  1  0.128570  0.164430  0.058830  1.0  -0.1324
  C  C1291  1  0.132370  0.168730  0.009930  1.0  -0.2078
  C  C1292  1  0.119970  0.132730  0.982030  1.0  -0.1004
  C  C1293  1  0.103770  0.095330  0.000530  1.0  -0.1378
  C  C1294  1  0.098870  0.089730  0.048530  1.0  -0.1251
  C  C1295  1  0.111270  0.125430  0.079330  1.0  -0.1068
  C  C1296  1  0.127070  0.239830  0.069030  1.0  -0.113
  C  C1297  1  0.151770  0.280030  0.054530  1.0  -0.0723
  C  C1298  1  0.133870  0.302930  0.033230  1.0  -0.1291
  C  C1299  1  0.091170  0.284430  0.029430  1.0  -0.1057
  C  C1300  1  0.066470  0.242230  0.039730  1.0  -0.1242
  C  C1301  1  0.084570  0.220730  0.061830  1.0  -0.0572
  C  C1302  1  0.005830  0.646670  0.410570  1.0  0.009
  C  C1303  1  0.027230  0.620770  0.416570  1.0  0.0636
  C  C1304  1  0.040730  0.610070  0.373970  1.0  -0.0972
  C  C1305  1  0.057030  0.583370  0.374470  1.0  -0.093
  C  C1306  1  0.061630  0.566970  0.419170  1.0  -0.2279
  C  C1307  1  0.050230  0.578970  0.460470  1.0  -0.0846
  C  C1308  1  0.032630  0.605870  0.457570  1.0  -0.1316
  C  C1309  1  0.958630  0.620670  0.416470  1.0  0.0245
  C  C1310  1  0.933930  0.607670  0.376070  1.0  -0.186
  C  C1311  1  0.889730  0.582770  0.381370  1.0  -0.0746
  C  C1312  1  0.870030  0.572370  0.424970  1.0  -0.1069
  C  C1313  1  0.894430  0.583970  0.465170  1.0  -0.0614
  C  C1314  1  0.937930  0.607970  0.461970  1.0  -0.1417
  C  C1315  1  0.035830  0.479670  0.413870  1.0  -0.275
  C  C1316  1  0.040730  0.444170  0.413770  1.0  -0.1277
  C  C1317  1  0.005630  0.404070  0.408470  1.0  -0.099
  C  C1318  1  0.966530  0.398570  0.405570  1.0  -0.1057
  C  C1319  1  0.960930  0.432970  0.407170  1.0  -0.0757
  C  C1320  1  0.994530  0.472470  0.410970  1.0  -0.0783
  C  C1321  1  0.100330  0.532670  0.479670  1.0  -0.2351
  C  C1322  1  0.140830  0.566670  0.490670  1.0  -0.1199
  C  C1323  1  0.154730  0.569270  0.539570  1.0  -0.0888
  C  C1324  1  0.131130  0.541170  0.574370  1.0  -0.0763
  C  C1325  1  0.092330  0.507570  0.562970  1.0  -0.1478
  C  C1326  1  0.076830  0.503770  0.514770  1.0  -0.0571
  C  C1327  1  0.795230  0.497770  0.392170  1.0  -0.1323
  C  C1328  1  0.799030  0.502070  0.343270  1.0  -0.2078
  C  C1329  1  0.786630  0.466070  0.315370  1.0  -0.1005
  C  C1330  1  0.770430  0.428670  0.333870  1.0  -0.1378
  C  C1331  1  0.765530  0.423070  0.381870  1.0  -0.1252
  C  C1332  1  0.777930  0.458770  0.412670  1.0  -0.1068
  C  C1333  1  0.793730  0.573170  0.402370  1.0  -0.113
  C  C1334  1  0.818430  0.613370  0.387870  1.0  -0.0723
  C  C1335  1  0.800530  0.636270  0.366570  1.0  -0.1289
  C  C1336  1  0.757830  0.617770  0.362770  1.0  -0.1056
  C  C1337  1  0.733130  0.575570  0.373070  1.0  -0.1242
  C  C1338  1  0.751230  0.554070  0.395170  1.0  -0.0573
  C  C1339  1  0.020000  0.692500  0.743900  1.0  0.0093
  C  C1340  1  0.045900  0.739800  0.749900  1.0  0.0638
  C  C1341  1  0.056600  0.764000  0.707300  1.0  -0.0993
  C  C1342  1  0.083300  0.807000  0.707800  1.0  -0.0946
  C  C1343  1  0.099700  0.828000  0.752500  1.0  -0.2274
  C  C1344  1  0.087700  0.804600  0.793800  1.0  -0.0782
  C  C1345  1  0.060800  0.760100  0.790900  1.0  -0.1323
  C  C1346  1  0.046000  0.671300  0.749800  1.0  0.0238
  C  C1347  1  0.059000  0.659600  0.709400  1.0  -0.1873
  C  C1348  1  0.083900  0.640300  0.714700  1.0  -0.0743
  C  C1349  1  0.094300  0.631000  0.758300  1.0  -0.1066
  C  C1350  1  0.082700  0.643800  0.798500  1.0  -0.0613
  C  C1351  1  0.058700  0.663300  0.795300  1.0  -0.1408
  C  C1352  1  0.187000  0.889500  0.747200  1.0  -0.2734
  C  C1353  1  0.222500  0.929900  0.747100  1.0  -0.1236
  C  C1354  1  0.262600  0.934900  0.741800  1.0  -0.099
  C  C1355  1  0.268100  0.901300  0.738900  1.0  -0.1087
  C  C1356  1  0.233700  0.861300  0.740500  1.0  -0.076
  C  C1357  1  0.194200  0.855400  0.744300  1.0  -0.0788
  C  C1358  1  0.134000  0.901000  0.813000  1.0  -0.2359
  C  C1359  1  0.100000  0.907500  0.824000  1.0  -0.1171
  C  C1360  1  0.097400  0.918800  0.872900  1.0  -0.0937
  C  C1361  1  0.125500  0.923300  0.907700  1.0  -0.0763
  C  C1362  1  0.159100  0.918100  0.896300  1.0  -0.1483
  C  C1363  1  0.162900  0.906400  0.848100  1.0  -0.0588
  C  C1364  1  0.168900  0.630800  0.725500  1.0  -0.1338
  C  C1365  1  0.164600  0.630300  0.676600  1.0  -0.2096
  C  C1366  1  0.200600  0.653900  0.648700  1.0  -0.1019
  C  C1367  1  0.238000  0.675100  0.667200  1.0  -0.1399
  C  C1368  1  0.243600  0.675800  0.715200  1.0  -0.1281
  C  C1369  1  0.207900  0.652500  0.746000  1.0  -0.1031
  C  C1370  1  0.093500  0.553900  0.735700  1.0  -0.1135
  C  C1371  1  0.053300  0.538400  0.721200  1.0  -0.0714
  C  C1372  1  0.030400  0.497600  0.699900  1.0  -0.132
  C  C1373  1  0.048900  0.473400  0.696100  1.0  -0.1005
  C  C1374  1  0.091100  0.490900  0.706400  1.0  -0.1203
  C  C1375  1  0.112600  0.530500  0.728500  1.0  -0.0575
  C  C1376  1  0.686670  0.025830  0.077230  1.0  0.0093
  C  C1377  1  0.712570  0.073130  0.083230  1.0  0.0638
  C  C1378  1  0.723270  0.097330  0.040630  1.0  -0.0992
  C  C1379  1  0.749970  0.140330  0.041130  1.0  -0.0939
  C  C1380  1  0.766370  0.161330  0.085830  1.0  -0.2274
  C  C1381  1  0.754370  0.137930  0.127130  1.0  -0.0782
  C  C1382  1  0.727470  0.093430  0.124230  1.0  -0.1323
  C  C1383  1  0.712670  0.004630  0.083130  1.0  0.0238
  C  C1384  1  0.725670  0.992930  0.042730  1.0  -0.1873
  C  C1385  1  0.750570  0.973630  0.048030  1.0  -0.0743
  C  C1386  1  0.760970  0.964330  0.091630  1.0  -0.1066
  C  C1387  1  0.749370  0.977130  0.131830  1.0  -0.0613
  C  C1388  1  0.725370  0.996630  0.128630  1.0  -0.1408
  C  C1389  1  0.853670  0.222830  0.080530  1.0  -0.2734
  C  C1390  1  0.889170  0.263230  0.080430  1.0  -0.1236
  C  C1391  1  0.929270  0.268230  0.075130  1.0  -0.099
  C  C1392  1  0.934770  0.234630  0.072230  1.0  -0.1087
  C  C1393  1  0.900370  0.194630  0.073830  1.0  -0.076
  C  C1394  1  0.860870  0.188730  0.077630  1.0  -0.079
  C  C1395  1  0.800670  0.234330  0.146330  1.0  -0.2359
  C  C1396  1  0.766670  0.240830  0.157330  1.0  -0.1171
  C  C1397  1  0.764070  0.252130  0.206230  1.0  -0.0937
  C  C1398  1  0.792170  0.256630  0.241030  1.0  -0.0763
  C  C1399  1  0.825770  0.251430  0.229630  1.0  -0.1483
  C  C1400  1  0.829570  0.239730  0.181430  1.0  -0.0588
  C  C1401  1  0.835570  0.964130  0.058830  1.0  -0.134
  C  C1402  1  0.831270  0.963630  0.009930  1.0  -0.2096
  C  C1403  1  0.867270  0.987230  0.982030  1.0  -0.1018
  C  C1404  1  0.904670  0.008430  0.000530  1.0  -0.1399
  C  C1405  1  0.910270  0.009130  0.048530  1.0  -0.1281
  C  C1406  1  0.874570  0.985830  0.079330  1.0  -0.1031
  C  C1407  1  0.760170  0.887230  0.069030  1.0  -0.1135
  C  C1408  1  0.719970  0.871730  0.054530  1.0  -0.0714
  C  C1409  1  0.697070  0.830930  0.033230  1.0  -0.1322
  C  C1410  1  0.715570  0.806730  0.029430  1.0  -0.1004
  C  C1411  1  0.757770  0.824230  0.039730  1.0  -0.1203
  C  C1412  1  0.779270  0.863830  0.061830  1.0  -0.0575
  C  C1413  1  0.353330  0.359170  0.410570  1.0  0.0093
  C  C1414  1  0.379230  0.406470  0.416570  1.0  0.0638
  C  C1415  1  0.389930  0.430670  0.373970  1.0  -0.0993
  C  C1416  1  0.416630  0.473670  0.374470  1.0  -0.0946
  C  C1417  1  0.433030  0.494670  0.419170  1.0  -0.2274
  C  C1418  1  0.421030  0.471270  0.460470  1.0  -0.0781
  C  C1419  1  0.394130  0.426770  0.457570  1.0  -0.1324
  C  C1420  1  0.379330  0.337970  0.416470  1.0  0.0239
  C  C1421  1  0.392330  0.326270  0.376070  1.0  -0.1873
  C  C1422  1  0.417230  0.306970  0.381370  1.0  -0.0742
  C  C1423  1  0.427630  0.297670  0.424970  1.0  -0.1066
  C  C1424  1  0.416030  0.310470  0.465170  1.0  -0.0614
  C  C1425  1  0.392030  0.329970  0.461970  1.0  -0.1408
  C  C1426  1  0.520330  0.556170  0.413870  1.0  -0.2734
  C  C1427  1  0.555830  0.596570  0.413770  1.0  -0.1236
  C  C1428  1  0.595930  0.601570  0.408470  1.0  -0.099
  C  C1429  1  0.601430  0.567970  0.405570  1.0  -0.1087
  C  C1430  1  0.567030  0.527970  0.407170  1.0  -0.076
  C  C1431  1  0.527530  0.522070  0.410970  1.0  -0.079
  C  C1432  1  0.467330  0.567670  0.479670  1.0  -0.2359
  C  C1433  1  0.433330  0.574170  0.490670  1.0  -0.1171
  C  C1434  1  0.430730  0.585470  0.539570  1.0  -0.0938
  C  C1435  1  0.458830  0.589970  0.574370  1.0  -0.0764
  C  C1436  1  0.492430  0.584770  0.562970  1.0  -0.1483
  C  C1437  1  0.496230  0.573070  0.514770  1.0  -0.0589
  C  C1438  1  0.502230  0.297470  0.392170  1.0  -0.134
  C  C1439  1  0.497930  0.296970  0.343270  1.0  -0.2096
  C  C1440  1  0.533930  0.320570  0.315370  1.0  -0.1019
  C  C1441  1  0.571330  0.341770  0.333870  1.0  -0.14
  C  C1442  1  0.576930  0.342470  0.381870  1.0  -0.1281
  C  C1443  1  0.541230  0.319170  0.412670  1.0  -0.1036
  C  C1444  1  0.426830  0.220570  0.402370  1.0  -0.1135
  C  C1445  1  0.386630  0.205070  0.387870  1.0  -0.0713
  C  C1446  1  0.363730  0.164270  0.366570  1.0  -0.132
  C  C1447  1  0.382230  0.140070  0.362770  1.0  -0.1005
  C  C1448  1  0.424430  0.157570  0.373070  1.0  -0.1203
  C  C1449  1  0.445930  0.197170  0.395170  1.0  -0.0576
  C  C1450  1  0.327500  0.307500  0.756100  1.0  0.0096
  C  C1451  1  0.306100  0.260200  0.750100  1.0  0.0632
  C  C1452  1  0.292600  0.236000  0.792700  1.0  -0.1
  C  C1453  1  0.276300  0.193000  0.792200  1.0  -0.0934
  C  C1454  1  0.271700  0.172000  0.747500  1.0  -0.2274
  C  C1455  1  0.283100  0.195400  0.706200  1.0  -0.0786
  C  C1456  1  0.300700  0.239900  0.709100  1.0  -0.133
  C  C1457  1  0.374700  0.328700  0.750200  1.0  0.0239
  C  C1458  1  0.399400  0.340400  0.790600  1.0  -0.1878
  C  C1459  1  0.443600  0.359700  0.785300  1.0  -0.0746
  C  C1460  1  0.463300  0.369000  0.741700  1.0  -0.1076
  C  C1461  1  0.438900  0.356200  0.701500  1.0  -0.0603
  C  C1462  1  0.395400  0.336700  0.704700  1.0  -0.1401
  C  C1463  1  0.297500  0.110500  0.752800  1.0  -0.2728
  C  C1464  1  0.292600  0.070100  0.752900  1.0  -0.1238
  C  C1465  1  0.327700  0.065100  0.758200  1.0  -0.1009
  C  C1466  1  0.366800  0.098700  0.761100  1.0  -0.1083
  C  C1467  1  0.372400  0.138700  0.759500  1.0  -0.0768
  C  C1468  1  0.338800  0.144600  0.755700  1.0  -0.0781
  C  C1469  1  0.233000  0.099000  0.687000  1.0  -0.2358
  C  C1470  1  0.192500  0.092500  0.676000  1.0  -0.1179
  C  C1471  1  0.178600  0.081200  0.627100  1.0  -0.0927
  C  C1472  1  0.202200  0.076700  0.592300  1.0  -0.0775
  C  C1473  1  0.241000  0.081900  0.603700  1.0  -0.1482
  C  C1474  1  0.256500  0.093600  0.651900  1.0  -0.0593
  C  C1475  1  0.538100  0.369200  0.774500  1.0  -0.1328
  C  C1476  1  0.534300  0.369700  0.823400  1.0  -0.2106
  C  C1477  1  0.546700  0.346100  0.851300  1.0  -0.1043
  C  C1478  1  0.562900  0.324900  0.832800  1.0  -0.1404
  C  C1479  1  0.567800  0.324200  0.784800  1.0  -0.1291
  C  C1480  1  0.555400  0.347500  0.754000  1.0  -0.1033
  C  C1481  1  0.539600  0.446100  0.764300  1.0  -0.1137
  C  C1482  1  0.514900  0.461600  0.778800  1.0  -0.0721
  C  C1483  1  0.532800  0.502400  0.800100  1.0  -0.1328
  C  C1484  1  0.575500  0.526600  0.803900  1.0  -0.1007
  C  C1485  1  0.600200  0.509100  0.793600  1.0  -0.1217
  C  C1486  1  0.582100  0.469500  0.771500  1.0  -0.0576
  C  C1487  1  0.994170  0.640830  0.089430  1.0  0.0096
  C  C1488  1  0.972770  0.593530  0.083430  1.0  0.0632
  C  C1489  1  0.959270  0.569330  0.126030  1.0  -0.1
  C  C1490  1  0.942970  0.526330  0.125530  1.0  -0.0934
  C  C1491  1  0.938370  0.505330  0.080830  1.0  -0.2274
  C  C1492  1  0.949770  0.528730  0.039530  1.0  -0.0786
  C  C1493  1  0.967370  0.573230  0.042430  1.0  -0.1329
  C  C1494  1  0.041370  0.662030  0.083530  1.0  0.0238
  C  C1495  1  0.066070  0.673730  0.123930  1.0  -0.1879
  C  C1496  1  0.110270  0.693030  0.118630  1.0  -0.0746
  C  C1497  1  0.129970  0.702330  0.075030  1.0  -0.1077
  C  C1498  1  0.105570  0.689530  0.034830  1.0  -0.0604
  C  C1499  1  0.062070  0.670030  0.038030  1.0  -0.1401
  C  C1500  1  0.964170  0.443830  0.086130  1.0  -0.2728
  C  C1501  1  0.959270  0.403430  0.086230  1.0  -0.1238
  C  C1502  1  0.994370  0.398430  0.091530  1.0  -0.101
  C  C1503  1  0.033470  0.432030  0.094430  1.0  -0.1083
  C  C1504  1  0.039070  0.472030  0.092830  1.0  -0.0768
  C  C1505  1  0.005470  0.477930  0.089030  1.0  -0.0782
  C  C1506  1  0.899670  0.432330  0.020330  1.0  -0.2358
  C  C1507  1  0.859170  0.425830  0.009330  1.0  -0.1179
  C  C1508  1  0.845270  0.414530  0.960430  1.0  -0.0927
  C  C1509  1  0.868870  0.410030  0.925630  1.0  -0.0776
  C  C1510  1  0.907670  0.415230  0.937030  1.0  -0.1482
  C  C1511  1  0.923170  0.426930  0.985230  1.0  -0.0592
  C  C1512  1  0.204770  0.702530  0.107830  1.0  -0.1329
  C  C1513  1  0.200970  0.703030  0.156730  1.0  -0.2106
  C  C1514  1  0.213370  0.679430  0.184630  1.0  -0.1043
  C  C1515  1  0.229570  0.658230  0.166130  1.0  -0.1404
  C  C1516  1  0.234470  0.657530  0.118130  1.0  -0.1291
  C  C1517  1  0.222070  0.680830  0.087330  1.0  -0.1037
  C  C1518  1  0.206270  0.779430  0.097630  1.0  -0.1137
  C  C1519  1  0.181570  0.794930  0.112130  1.0  -0.0721
  C  C1520  1  0.199470  0.835730  0.133430  1.0  -0.1328
  C  C1521  1  0.242170  0.859930  0.137230  1.0  -0.1007
  C  C1522  1  0.266870  0.842430  0.126930  1.0  -0.1217
  C  C1523  1  0.248770  0.802830  0.104830  1.0  -0.0576
  C  C1524  1  0.660830  0.974170  0.422770  1.0  0.0096
  C  C1525  1  0.639430  0.926870  0.416770  1.0  0.0632
  C  C1526  1  0.625930  0.902670  0.459370  1.0  -0.1
  C  C1527  1  0.609630  0.859670  0.458870  1.0  -0.0935
  C  C1528  1  0.605030  0.838670  0.414170  1.0  -0.2274
  C  C1529  1  0.616430  0.862070  0.372870  1.0  -0.0786
  C  C1530  1  0.634030  0.906570  0.375770  1.0  -0.133
  C  C1531  1  0.708030  0.995370  0.416870  1.0  0.0239
  C  C1532  1  0.732730  0.007070  0.457270  1.0  -0.1879
  C  C1533  1  0.776930  0.026370  0.451970  1.0  -0.0746
  C  C1534  1  0.796630  0.035670  0.408370  1.0  -0.1076
  C  C1535  1  0.772230  0.022870  0.368170  1.0  -0.0603
  C  C1536  1  0.728730  0.003370  0.371370  1.0  -0.1402
  C  C1537  1  0.630830  0.777170  0.419470  1.0  -0.2728
  C  C1538  1  0.625930  0.736770  0.419570  1.0  -0.1238
  C  C1539  1  0.661030  0.731770  0.424870  1.0  -0.1009
  C  C1540  1  0.700130  0.765370  0.427770  1.0  -0.1083
  C  C1541  1  0.705730  0.805370  0.426170  1.0  -0.0768
  C  C1542  1  0.672130  0.811270  0.422370  1.0  -0.0779
  C  C1543  1  0.566330  0.765670  0.353670  1.0  -0.2358
  C  C1544  1  0.525830  0.759170  0.342670  1.0  -0.1179
  C  C1545  1  0.511930  0.747870  0.293770  1.0  -0.0927
  C  C1546  1  0.535530  0.743370  0.258970  1.0  -0.0775
  C  C1547  1  0.574330  0.748570  0.270370  1.0  -0.1482
  C  C1548  1  0.589830  0.760270  0.318570  1.0  -0.0593
  C  C1549  1  0.871430  0.035870  0.441170  1.0  -0.1328
  C  C1550  1  0.867630  0.036370  0.490070  1.0  -0.2106
  C  C1551  1  0.880030  0.012770  0.517970  1.0  -0.1043
  C  C1552  1  0.896230  0.991570  0.499470  1.0  -0.1404
  C  C1553  1  0.901130  0.990870  0.451470  1.0  -0.1291
  C  C1554  1  0.888730  0.014170  0.420670  1.0  -0.1033
  C  C1555  1  0.872930  0.112770  0.430970  1.0  -0.1137
  C  C1556  1  0.848230  0.128270  0.445470  1.0  -0.072
  C  C1557  1  0.866130  0.169070  0.466770  1.0  -0.1325
  C  C1558  1  0.908830  0.193270  0.470570  1.0  -0.1006
  C  C1559  1  0.933530  0.175770  0.460270  1.0  -0.1217
  C  C1560  1  0.915430  0.136170  0.438170  1.0  -0.0577
  C  C1561  1  0.980000  0.672500  0.756100  1.0  0.0095
  C  C1562  1  0.954100  0.693900  0.750100  1.0  0.0649
  C  C1563  1  0.943400  0.707400  0.792700  1.0  -0.099
  C  C1564  1  0.916700  0.723700  0.792200  1.0  -0.0975
  C  C1565  1  0.900300  0.728300  0.747500  1.0  -0.2329
  C  C1566  1  0.912300  0.716900  0.706200  1.0  -0.0856
  C  C1567  1  0.939200  0.699300  0.709100  1.0  -0.1336
  C  C1568  1  0.954000  0.625300  0.750200  1.0  0.0249
  C  C1569  1  0.941000  0.600600  0.790600  1.0  -0.1843
  C  C1570  1  0.916100  0.556400  0.785300  1.0  -0.073
  C  C1571  1  0.905700  0.536700  0.741700  1.0  -0.1067
  C  C1572  1  0.917300  0.561100  0.701500  1.0  -0.0568
  C  C1573  1  0.941300  0.604600  0.704700  1.0  -0.1389
  C  C1574  1  0.813000  0.702500  0.752800  1.0  -0.2737
  C  C1575  1  0.777500  0.707400  0.752900  1.0  -0.1243
  C  C1576  1  0.737400  0.672300  0.758200  1.0  -0.1032
  C  C1577  1  0.731900  0.633200  0.761100  1.0  -0.1053
  C  C1578  1  0.766300  0.627600  0.759500  1.0  -0.0762
  C  C1579  1  0.805800  0.661200  0.755700  1.0  -0.082
  C  C1580  1  0.866000  0.767000  0.687000  1.0  -0.2358
  C  C1581  1  0.900000  0.807500  0.676000  1.0  -0.119
  C  C1582  1  0.902600  0.821400  0.627100  1.0  -0.0907
  C  C1583  1  0.874500  0.797800  0.592300  1.0  -0.0764
  C  C1584  1  0.840900  0.759000  0.603700  1.0  -0.1505
  C  C1585  1  0.837100  0.743500  0.651900  1.0  -0.0587
  C  C1586  1  0.831100  0.461900  0.774500  1.0  -0.1329
  C  C1587  1  0.835400  0.465700  0.823400  1.0  -0.2114
  C  C1588  1  0.799400  0.453300  0.851300  1.0  -0.1032
  C  C1589  1  0.762000  0.437100  0.832800  1.0  -0.1376
  C  C1590  1  0.756400  0.432200  0.784800  1.0  -0.1273
  C  C1591  1  0.792100  0.444600  0.754000  1.0  -0.106
  C  C1592  1  0.906500  0.460400  0.764300  1.0  -0.1142
  C  C1593  1  0.946700  0.485100  0.778800  1.0  -0.0701
  C  C1594  1  0.969600  0.467200  0.800100  1.0  -0.1321
  C  C1595  1  0.951100  0.424500  0.803900  1.0  -0.1042
  C  C1596  1  0.908900  0.399800  0.793600  1.0  -0.1188
  C  C1597  1  0.887400  0.417900  0.771500  1.0  -0.0581
  C  C1598  1  0.646670  0.005830  0.089430  1.0  0.0095
  C  C1599  1  0.620770  0.027230  0.083430  1.0  0.0649
  C  C1600  1  0.610070  0.040730  0.126030  1.0  -0.099
  C  C1601  1  0.583370  0.057030  0.125530  1.0  -0.0975
  C  C1602  1  0.566970  0.061630  0.080830  1.0  -0.2328
  C  C1603  1  0.578970  0.050230  0.039530  1.0  -0.0856
  C  C1604  1  0.605870  0.032630  0.042430  1.0  -0.1335
  C  C1605  1  0.620670  0.958630  0.083530  1.0  0.025
  C  C1606  1  0.607670  0.933930  0.123930  1.0  -0.1842
  C  C1607  1  0.582770  0.889730  0.118630  1.0  -0.0731
  C  C1608  1  0.572370  0.870030  0.075030  1.0  -0.1066
  C  C1609  1  0.583970  0.894430  0.034830  1.0  -0.0569
  C  C1610  1  0.607970  0.937930  0.038030  1.0  -0.1389
  C  C1611  1  0.479670  0.035830  0.086130  1.0  -0.2737
  C  C1612  1  0.444170  0.040730  0.086230  1.0  -0.1243
  C  C1613  1  0.404070  0.005630  0.091530  1.0  -0.1032
  C  C1614  1  0.398570  0.966530  0.094430  1.0  -0.1053
  C  C1615  1  0.432970  0.960930  0.092830  1.0  -0.0762
  C  C1616  1  0.472470  0.994530  0.089030  1.0  -0.0822
  C  C1617  1  0.532670  0.100330  0.020330  1.0  -0.2358
  C  C1618  1  0.566670  0.140830  0.009330  1.0  -0.119
  C  C1619  1  0.569270  0.154730  0.960430  1.0  -0.0907
  C  C1620  1  0.541170  0.131130  0.925630  1.0  -0.0765
  C  C1621  1  0.507570  0.092330  0.937030  1.0  -0.1505
  C  C1622  1  0.503770  0.076830  0.985230  1.0  -0.0587
  C  C1623  1  0.497770  0.795230  0.107830  1.0  -0.1328
  C  C1624  1  0.502070  0.799030  0.156730  1.0  -0.2114
  C  C1625  1  0.466070  0.786630  0.184630  1.0  -0.1032
  C  C1626  1  0.428670  0.770430  0.166130  1.0  -0.1376
  C  C1627  1  0.423070  0.765530  0.118130  1.0  -0.1273
  C  C1628  1  0.458770  0.777930  0.087330  1.0  -0.106
  C  C1629  1  0.573170  0.793730  0.097630  1.0  -0.1142
  C  C1630  1  0.613370  0.818430  0.112130  1.0  -0.0701
  C  C1631  1  0.636270  0.800530  0.133430  1.0  -0.1321
  C  C1632  1  0.617770  0.757830  0.137230  1.0  -0.1042
  C  C1633  1  0.575570  0.733130  0.126930  1.0  -0.1188
  C  C1634  1  0.554070  0.751230  0.104830  1.0  -0.0581
  C  C1635  1  0.313330  0.339170  0.422770  1.0  0.0095
  C  C1636  1  0.287430  0.360570  0.416770  1.0  0.0649
  C  C1637  1  0.276730  0.374070  0.459370  1.0  -0.099
  C  C1638  1  0.250030  0.390370  0.458870  1.0  -0.0975
  C  C1639  1  0.233630  0.394970  0.414170  1.0  -0.2328
  C  C1640  1  0.245630  0.383570  0.372870  1.0  -0.0856
  C  C1641  1  0.272530  0.365970  0.375770  1.0  -0.1336
  C  C1642  1  0.287330  0.291970  0.416870  1.0  0.0249
  C  C1643  1  0.274330  0.267270  0.457270  1.0  -0.1842
  C  C1644  1  0.249430  0.223070  0.451970  1.0  -0.073
  C  C1645  1  0.239030  0.203370  0.408370  1.0  -0.1067
  C  C1646  1  0.250630  0.227770  0.368170  1.0  -0.0568
  C  C1647  1  0.274630  0.271270  0.371370  1.0  -0.1389
  C  C1648  1  0.146330  0.369170  0.419470  1.0  -0.2737
  C  C1649  1  0.110830  0.374070  0.419570  1.0  -0.1243
  C  C1650  1  0.070730  0.338970  0.424870  1.0  -0.1032
  C  C1651  1  0.065230  0.299870  0.427770  1.0  -0.1052
  C  C1652  1  0.099630  0.294270  0.426170  1.0  -0.0762
  C  C1653  1  0.139130  0.327870  0.422370  1.0  -0.0821
  C  C1654  1  0.199330  0.433670  0.353670  1.0  -0.2358
  C  C1655  1  0.233330  0.474170  0.342670  1.0  -0.119
  C  C1656  1  0.235930  0.488070  0.293770  1.0  -0.0908
  C  C1657  1  0.207830  0.464470  0.258970  1.0  -0.0764
  C  C1658  1  0.174230  0.425670  0.270370  1.0  -0.1505
  C  C1659  1  0.170430  0.410170  0.318570  1.0  -0.0587
  C  C1660  1  0.164430  0.128570  0.441170  1.0  -0.1329
  C  C1661  1  0.168730  0.132370  0.490070  1.0  -0.2114
  C  C1662  1  0.132730  0.119970  0.517970  1.0  -0.1032
  C  C1663  1  0.095330  0.103770  0.499470  1.0  -0.1376
  C  C1664  1  0.089730  0.098870  0.451470  1.0  -0.1273
  C  C1665  1  0.125430  0.111270  0.420670  1.0  -0.106
  C  C1666  1  0.239830  0.127070  0.430970  1.0  -0.1142
  C  C1667  1  0.280030  0.151770  0.445470  1.0  -0.0701
  C  C1668  1  0.302930  0.133870  0.466770  1.0  -0.1323
  C  C1669  1  0.284430  0.091170  0.470570  1.0  -0.1042
  C  C1670  1  0.242230  0.066470  0.460270  1.0  -0.1188
  C  C1671  1  0.220730  0.084570  0.438170  1.0  -0.0581
  C  C1672  1  0.692500  0.020000  0.756100  1.0  0.0101
  C  C1673  1  0.739800  0.045900  0.750100  1.0  0.0638
  C  C1674  1  0.764000  0.056600  0.792700  1.0  -0.0977
  C  C1675  1  0.807000  0.083300  0.792200  1.0  -0.0945
  C  C1676  1  0.828000  0.099700  0.747500  1.0  -0.227
  C  C1677  1  0.804600  0.087700  0.706200  1.0  -0.0854
  C  C1678  1  0.760100  0.060800  0.709100  1.0  -0.1324
  C  C1679  1  0.671300  0.046000  0.750200  1.0  0.0239
  C  C1680  1  0.659600  0.059000  0.790600  1.0  -0.1861
  C  C1681  1  0.640300  0.083900  0.785300  1.0  -0.0745
  C  C1682  1  0.631000  0.094300  0.741700  1.0  -0.107
  C  C1683  1  0.643800  0.082700  0.701500  1.0  -0.0607
  C  C1684  1  0.663300  0.058700  0.704700  1.0  -0.1411
  C  C1685  1  0.889500  0.187000  0.752800  1.0  -0.274
  C  C1686  1  0.929900  0.222500  0.752900  1.0  -0.1275
  C  C1687  1  0.934900  0.262600  0.758200  1.0  -0.0979
  C  C1688  1  0.901300  0.268100  0.761100  1.0  -0.1061
  C  C1689  1  0.861300  0.233700  0.759500  1.0  -0.0765
  C  C1690  1  0.855400  0.194200  0.755700  1.0  -0.079
  C  C1691  1  0.901000  0.134000  0.687000  1.0  -0.2339
  C  C1692  1  0.907500  0.100000  0.676000  1.0  -0.1186
  C  C1693  1  0.918800  0.097400  0.627100  1.0  -0.0913
  C  C1694  1  0.923300  0.125500  0.592300  1.0  -0.0769
  C  C1695  1  0.918100  0.159100  0.603700  1.0  -0.1477
  C  C1696  1  0.906400  0.162900  0.651900  1.0  -0.0573
  C  C1697  1  0.630800  0.168900  0.774500  1.0  -0.1311
  C  C1698  1  0.630300  0.164600  0.823400  1.0  -0.2084
  C  C1699  1  0.653900  0.200600  0.851300  1.0  -0.1027
  C  C1700  1  0.675100  0.238000  0.832800  1.0  -0.1362
  C  C1701  1  0.675800  0.243600  0.784800  1.0  -0.1251
  C  C1702  1  0.652500  0.207900  0.754000  1.0  -0.1057
  C  C1703  1  0.553900  0.093500  0.764300  1.0  -0.114
  C  C1704  1  0.538400  0.053300  0.778800  1.0  -0.0721
  C  C1705  1  0.497600  0.030400  0.800100  1.0  -0.1292
  C  C1706  1  0.473400  0.048900  0.803900  1.0  -0.1061
  C  C1707  1  0.490900  0.091100  0.793600  1.0  -0.1252
  C  C1708  1  0.530500  0.112600  0.771500  1.0  -0.0572
  C  C1709  1  0.359170  0.353330  0.089430  1.0  0.0101
  C  C1710  1  0.406470  0.379230  0.083430  1.0  0.0638
  C  C1711  1  0.430670  0.389930  0.126030  1.0  -0.0977
  C  C1712  1  0.473670  0.416630  0.125530  1.0  -0.0945
  C  C1713  1  0.494670  0.433030  0.080830  1.0  -0.2271
  C  C1714  1  0.471270  0.421030  0.039530  1.0  -0.0853
  C  C1715  1  0.426770  0.394130  0.042430  1.0  -0.1324
  C  C1716  1  0.337970  0.379330  0.083530  1.0  0.024
  C  C1717  1  0.326270  0.392330  0.123930  1.0  -0.1861
  C  C1718  1  0.306970  0.417230  0.118630  1.0  -0.0745
  C  C1719  1  0.297670  0.427630  0.075030  1.0  -0.1071
  C  C1720  1  0.310470  0.416030  0.034830  1.0  -0.0608
  C  C1721  1  0.329970  0.392030  0.038030  1.0  -0.1411
  C  C1722  1  0.556170  0.520330  0.086130  1.0  -0.274
  C  C1723  1  0.596570  0.555830  0.086230  1.0  -0.1275
  C  C1724  1  0.601570  0.595930  0.091530  1.0  -0.0979
  C  C1725  1  0.567970  0.601430  0.094430  1.0  -0.1061
  C  C1726  1  0.527970  0.567030  0.092830  1.0  -0.0765
  C  C1727  1  0.522070  0.527530  0.089030  1.0  -0.0791
  C  C1728  1  0.567670  0.467330  0.020330  1.0  -0.2339
  C  C1729  1  0.574170  0.433330  0.009330  1.0  -0.1186
  C  C1730  1  0.585470  0.430730  0.960430  1.0  -0.0914
  C  C1731  1  0.589970  0.458830  0.925630  1.0  -0.0769
  C  C1732  1  0.584770  0.492430  0.937030  1.0  -0.1477
  C  C1733  1  0.573070  0.496230  0.985230  1.0  -0.0573
  C  C1734  1  0.297470  0.502230  0.107830  1.0  -0.1311
  C  C1735  1  0.296970  0.497930  0.156730  1.0  -0.2084
  C  C1736  1  0.320570  0.533930  0.184630  1.0  -0.1027
  C  C1737  1  0.341770  0.571330  0.166130  1.0  -0.1363
  C  C1738  1  0.342470  0.576930  0.118130  1.0  -0.1251
  C  C1739  1  0.319170  0.541230  0.087330  1.0  -0.1061
  C  C1740  1  0.220570  0.426830  0.097630  1.0  -0.1139
  C  C1741  1  0.205070  0.386630  0.112130  1.0  -0.072
  C  C1742  1  0.164270  0.363730  0.133430  1.0  -0.1292
  C  C1743  1  0.140070  0.382230  0.137230  1.0  -0.1061
  C  C1744  1  0.157570  0.424430  0.126930  1.0  -0.1252
  C  C1745  1  0.197170  0.445930  0.104830  1.0  -0.0572
  C  C1746  1  0.025830  0.686670  0.422770  1.0  0.0101
  C  C1747  1  0.073130  0.712570  0.416770  1.0  0.0638
  C  C1748  1  0.097330  0.723270  0.459370  1.0  -0.0977
  C  C1749  1  0.140330  0.749970  0.458870  1.0  -0.0937
  C  C1750  1  0.161330  0.766370  0.414170  1.0  -0.227
  C  C1751  1  0.137930  0.754370  0.372870  1.0  -0.0854
  C  C1752  1  0.093430  0.727470  0.375770  1.0  -0.1323
  C  C1753  1  0.004630  0.712670  0.416870  1.0  0.0239
  C  C1754  1  0.992930  0.725670  0.457270  1.0  -0.1861
  C  C1755  1  0.973630  0.750570  0.451970  1.0  -0.0745
  C  C1756  1  0.964330  0.760970  0.408370  1.0  -0.107
  C  C1757  1  0.977130  0.749370  0.368170  1.0  -0.0607
  C  C1758  1  0.996630  0.725370  0.371370  1.0  -0.1411
  C  C1759  1  0.222830  0.853670  0.419470  1.0  -0.274
  C  C1760  1  0.263230  0.889170  0.419570  1.0  -0.1275
  C  C1761  1  0.268230  0.929270  0.424870  1.0  -0.0979
  C  C1762  1  0.234630  0.934770  0.427770  1.0  -0.106
  C  C1763  1  0.194630  0.900370  0.426170  1.0  -0.0765
  C  C1764  1  0.188730  0.860870  0.422370  1.0  -0.0791
  C  C1765  1  0.234330  0.800670  0.353670  1.0  -0.2339
  C  C1766  1  0.240830  0.766670  0.342670  1.0  -0.1186
  C  C1767  1  0.252130  0.764070  0.293770  1.0  -0.0914
  C  C1768  1  0.256630  0.792170  0.258970  1.0  -0.0769
  C  C1769  1  0.251430  0.825770  0.270370  1.0  -0.1477
  C  C1770  1  0.239730  0.829570  0.318570  1.0  -0.0573
  C  C1771  1  0.964130  0.835570  0.441170  1.0  -0.1311
  C  C1772  1  0.963630  0.831270  0.490070  1.0  -0.2084
  C  C1773  1  0.987230  0.867270  0.517970  1.0  -0.1026
  C  C1774  1  0.008430  0.904670  0.499470  1.0  -0.1362
  C  C1775  1  0.009130  0.910270  0.451470  1.0  -0.1251
  C  C1776  1  0.985830  0.874570  0.420670  1.0  -0.1056
  C  C1777  1  0.887230  0.760170  0.430970  1.0  -0.114
  C  C1778  1  0.871730  0.719970  0.445470  1.0  -0.0721
  C  C1779  1  0.830930  0.697070  0.466770  1.0  -0.1294
  C  C1780  1  0.806730  0.715570  0.470570  1.0  -0.106
  C  C1781  1  0.824230  0.757770  0.460270  1.0  -0.1252
  C  C1782  1  0.863830  0.779270  0.438170  1.0  -0.057
  C  C1783  1  0.692500  0.672500  0.256100  1.0  0.0096
  C  C1784  1  0.739800  0.693900  0.250100  1.0  0.065
  C  C1785  1  0.764000  0.707400  0.292700  1.0  -0.0994
  C  C1786  1  0.807000  0.723700  0.292200  1.0  -0.0977
  C  C1787  1  0.828000  0.728300  0.247500  1.0  -0.2328
  C  C1788  1  0.804600  0.716900  0.206200  1.0  -0.0852
  C  C1789  1  0.760100  0.699300  0.209100  1.0  -0.1339
  C  C1790  1  0.671300  0.625300  0.250200  1.0  0.0246
  C  C1791  1  0.659600  0.600600  0.290600  1.0  -0.1849
  C  C1792  1  0.640300  0.556400  0.285300  1.0  -0.0732
  C  C1793  1  0.631000  0.536700  0.241700  1.0  -0.1072
  C  C1794  1  0.643800  0.561100  0.201500  1.0  -0.0572
  C  C1795  1  0.663300  0.604600  0.204700  1.0  -0.1389
  C  C1796  1  0.889500  0.702500  0.252800  1.0  -0.2732
  C  C1797  1  0.929900  0.707400  0.252900  1.0  -0.1245
  C  C1798  1  0.934900  0.672300  0.258200  1.0  -0.1022
  C  C1799  1  0.901300  0.633200  0.261100  1.0  -0.1051
  C  C1800  1  0.861300  0.627600  0.259500  1.0  -0.0755
  C  C1801  1  0.855400  0.661200  0.255700  1.0  -0.0809
  C  C1802  1  0.901000  0.767000  0.187000  1.0  -0.2357
  C  C1803  1  0.907500  0.807500  0.176000  1.0  -0.1194
  C  C1804  1  0.918800  0.821400  0.127100  1.0  -0.0926
  C  C1805  1  0.923300  0.797800  0.092300  1.0  -0.0765
  C  C1806  1  0.918100  0.759000  0.103700  1.0  -0.1485
  C  C1807  1  0.906400  0.743500  0.151900  1.0  -0.059
  C  C1808  1  0.630800  0.461900  0.274500  1.0  -0.1324
  C  C1809  1  0.630300  0.465700  0.323400  1.0  -0.2118
  C  C1810  1  0.653900  0.453300  0.351300  1.0  -0.1033
  C  C1811  1  0.675100  0.437100  0.332800  1.0  -0.1389
  C  C1812  1  0.675800  0.432200  0.284800  1.0  -0.1305
  C  C1813  1  0.652500  0.444600  0.254000  1.0  -0.1069
  C  C1814  1  0.553900  0.460400  0.264300  1.0  -0.1138
  C  C1815  1  0.538400  0.485100  0.278800  1.0  -0.0697
  C  C1816  1  0.497600  0.467200  0.300100  1.0  -0.1329
  C  C1817  1  0.473400  0.424500  0.303900  1.0  -0.1045
  C  C1818  1  0.490900  0.399800  0.293600  1.0  -0.1186
  C  C1819  1  0.530500  0.417900  0.271500  1.0  -0.0595
  C  C1820  1  0.359170  0.005830  0.589430  1.0  0.0096
  C  C1821  1  0.406470  0.027230  0.583430  1.0  0.065
  C  C1822  1  0.430670  0.040730  0.626030  1.0  -0.0994
  C  C1823  1  0.473670  0.057030  0.625530  1.0  -0.0977
  C  C1824  1  0.494670  0.061630  0.580830  1.0  -0.2327
  C  C1825  1  0.471270  0.050230  0.539530  1.0  -0.0852
  C  C1826  1  0.426770  0.032630  0.542430  1.0  -0.1338
  C  C1827  1  0.337970  0.958630  0.583530  1.0  0.0244
  C  C1828  1  0.326270  0.933930  0.623930  1.0  -0.1849
  C  C1829  1  0.306970  0.889730  0.618630  1.0  -0.0732
  C  C1830  1  0.297670  0.870030  0.575030  1.0  -0.1073
  C  C1831  1  0.310470  0.894430  0.534830  1.0  -0.0572
  C  C1832  1  0.329970  0.937930  0.538030  1.0  -0.1388
  C  C1833  1  0.556170  0.035830  0.586130  1.0  -0.2732
  C  C1834  1  0.596570  0.040730  0.586230  1.0  -0.1244
  C  C1835  1  0.601570  0.005630  0.591530  1.0  -0.1022
  C  C1836  1  0.567970  0.966530  0.594430  1.0  -0.105
  C  C1837  1  0.527970  0.960930  0.592830  1.0  -0.0755
  C  C1838  1  0.522070  0.994530  0.589030  1.0  -0.081
  C  C1839  1  0.567670  0.100330  0.520330  1.0  -0.2357
  C  C1840  1  0.574170  0.140830  0.509330  1.0  -0.1194
  C  C1841  1  0.585470  0.154730  0.460430  1.0  -0.0926
  C  C1842  1  0.589970  0.131130  0.425630  1.0  -0.0766
  C  C1843  1  0.584770  0.092330  0.437030  1.0  -0.1485
  C  C1844  1  0.573070  0.076830  0.485230  1.0  -0.0589
  C  C1845  1  0.297470  0.795230  0.607830  1.0  -0.1324
  C  C1846  1  0.296970  0.799030  0.656730  1.0  -0.2118
  C  C1847  1  0.320570  0.786630  0.684630  1.0  -0.1033
  C  C1848  1  0.341770  0.770430  0.666130  1.0  -0.1389
  C  C1849  1  0.342470  0.765530  0.618130  1.0  -0.1305
  C  C1850  1  0.319170  0.777930  0.587330  1.0  -0.1073
  C  C1851  1  0.220570  0.793730  0.597630  1.0  -0.1138
  C  C1852  1  0.205070  0.818430  0.612130  1.0  -0.0697
  C  C1853  1  0.164270  0.800530  0.633430  1.0  -0.1329
  C  C1854  1  0.140070  0.757830  0.637230  1.0  -0.1045
  C  C1855  1  0.157570  0.733130  0.626930  1.0  -0.1186
  C  C1856  1  0.197170  0.751230  0.604830  1.0  -0.0595
  C  C1857  1  0.025830  0.339170  0.922770  1.0  0.0096
  C  C1858  1  0.073130  0.360570  0.916770  1.0  0.065
  C  C1859  1  0.097330  0.374070  0.959370  1.0  -0.0994
  C  C1860  1  0.140330  0.390370  0.958870  1.0  -0.0978
  C  C1861  1  0.161330  0.394970  0.914170  1.0  -0.2328
  C  C1862  1  0.137930  0.383570  0.872870  1.0  -0.0851
  C  C1863  1  0.093430  0.365970  0.875770  1.0  -0.134
  C  C1864  1  0.004630  0.291970  0.916870  1.0  0.0246
  C  C1865  1  0.992930  0.267270  0.957270  1.0  -0.1849
  C  C1866  1  0.973630  0.223070  0.951970  1.0  -0.0732
  C  C1867  1  0.964330  0.203370  0.908370  1.0  -0.1072
  C  C1868  1  0.977130  0.227770  0.868170  1.0  -0.0572
  C  C1869  1  0.996630  0.271270  0.871370  1.0  -0.1389
  C  C1870  1  0.222830  0.369170  0.919470  1.0  -0.2732
  C  C1871  1  0.263230  0.374070  0.919570  1.0  -0.1245
  C  C1872  1  0.268230  0.338970  0.924870  1.0  -0.1022
  C  C1873  1  0.234630  0.299870  0.927770  1.0  -0.105
  C  C1874  1  0.194630  0.294270  0.926170  1.0  -0.0755
  C  C1875  1  0.188730  0.327870  0.922370  1.0  -0.0808
  C  C1876  1  0.234330  0.433670  0.853670  1.0  -0.2357
  C  C1877  1  0.240830  0.474170  0.842670  1.0  -0.1194
  C  C1878  1  0.252130  0.488070  0.793770  1.0  -0.0926
  C  C1879  1  0.256630  0.464470  0.758970  1.0  -0.0765
  C  C1880  1  0.251430  0.425670  0.770370  1.0  -0.1485
  C  C1881  1  0.239730  0.410170  0.818570  1.0  -0.059
  C  C1882  1  0.964130  0.128570  0.941170  1.0  -0.1324
  C  C1883  1  0.963630  0.132370  0.990070  1.0  -0.2118
  C  C1884  1  0.987230  0.119970  0.017970  1.0  -0.1033
  C  C1885  1  0.008430  0.103770  0.999470  1.0  -0.1389
  C  C1886  1  0.009130  0.098870  0.951470  1.0  -0.1305
  C  C1887  1  0.985830  0.111270  0.920670  1.0  -0.1069
  C  C1888  1  0.887230  0.127070  0.930970  1.0  -0.1137
  C  C1889  1  0.871730  0.151770  0.945470  1.0  -0.0697
  C  C1890  1  0.830930  0.133870  0.966770  1.0  -0.1326
  C  C1891  1  0.806730  0.091170  0.970570  1.0  -0.1045
  C  C1892  1  0.824230  0.066470  0.960270  1.0  -0.1186
  C  C1893  1  0.863830  0.084570  0.938170  1.0  -0.0595
  C  C1894  1  0.327500  0.020000  0.256100  1.0  0.0105
  C  C1895  1  0.306100  0.045900  0.250100  1.0  0.0637
  C  C1896  1  0.292600  0.056600  0.292700  1.0  -0.0985
  C  C1897  1  0.276300  0.083300  0.292200  1.0  -0.0947
  C  C1898  1  0.271700  0.099700  0.247500  1.0  -0.23
  C  C1899  1  0.283100  0.087700  0.206200  1.0  -0.0835
  C  C1900  1  0.300700  0.060800  0.209100  1.0  -0.134
  C  C1901  1  0.374700  0.046000  0.250200  1.0  0.0243
  C  C1902  1  0.399400  0.059000  0.290600  1.0  -0.187
  C  C1903  1  0.443600  0.083900  0.285300  1.0  -0.0743
  C  C1904  1  0.463300  0.094300  0.241700  1.0  -0.1082
  C  C1905  1  0.438900  0.082700  0.201500  1.0  -0.0604
  C  C1906  1  0.395400  0.058700  0.204700  1.0  -0.1413
  C  C1907  1  0.297500  0.187000  0.252800  1.0  -0.2735
  C  C1908  1  0.292600  0.222500  0.252900  1.0  -0.1262
  C  C1909  1  0.327700  0.262600  0.258200  1.0  -0.0978
  C  C1910  1  0.366800  0.268100  0.261100  1.0  -0.1047
  C  C1911  1  0.372400  0.233700  0.259500  1.0  -0.0769
  C  C1912  1  0.338800  0.194200  0.255700  1.0  -0.0779
  C  C1913  1  0.233000  0.134000  0.187000  1.0  -0.2338
  C  C1914  1  0.192500  0.100000  0.176000  1.0  -0.1189
  C  C1915  1  0.178600  0.097400  0.127100  1.0  -0.0907
  C  C1916  1  0.202200  0.125500  0.092300  1.0  -0.0764
  C  C1917  1  0.241000  0.159100  0.103700  1.0  -0.1463
  C  C1918  1  0.256500  0.162900  0.151900  1.0  -0.0575
  C  C1919  1  0.538100  0.168900  0.274500  1.0  -0.1308
  C  C1920  1  0.534300  0.164600  0.323400  1.0  -0.2083
  C  C1921  1  0.546700  0.200600  0.351300  1.0  -0.1029
  C  C1922  1  0.562900  0.238000  0.332800  1.0  -0.1357
  C  C1923  1  0.567800  0.243600  0.284800  1.0  -0.1256
  C  C1924  1  0.555400  0.207900  0.254000  1.0  -0.1065
  C  C1925  1  0.539600  0.093500  0.264300  1.0  -0.115
  C  C1926  1  0.514900  0.053300  0.278800  1.0  -0.0726
  C  C1927  1  0.532800  0.030400  0.300100  1.0  -0.1286
  C  C1928  1  0.575500  0.048900  0.303900  1.0  -0.106
  C  C1929  1  0.600200  0.091100  0.293600  1.0  -0.1229
  C  C1930  1  0.582100  0.112600  0.271500  1.0  -0.0574
  C  C1931  1  0.994170  0.353330  0.589430  1.0  0.0105
  C  C1932  1  0.972770  0.379230  0.583430  1.0  0.0637
  C  C1933  1  0.959270  0.389930  0.626030  1.0  -0.0985
  C  C1934  1  0.942970  0.416630  0.625530  1.0  -0.0947
  C  C1935  1  0.938370  0.433030  0.580830  1.0  -0.2299
  C  C1936  1  0.949770  0.421030  0.539530  1.0  -0.0835
  C  C1937  1  0.967370  0.394130  0.542430  1.0  -0.1339
  C  C1938  1  0.041370  0.379330  0.583530  1.0  0.0244
  C  C1939  1  0.066070  0.392330  0.623930  1.0  -0.187
  C  C1940  1  0.110270  0.417230  0.618630  1.0  -0.0743
  C  C1941  1  0.129970  0.427630  0.575030  1.0  -0.1081
  C  C1942  1  0.105570  0.416030  0.534830  1.0  -0.0605
  C  C1943  1  0.062070  0.392030  0.538030  1.0  -0.1413
  C  C1944  1  0.964170  0.520330  0.586130  1.0  -0.2735
  C  C1945  1  0.959270  0.555830  0.586230  1.0  -0.1262
  C  C1946  1  0.994370  0.595930  0.591530  1.0  -0.0978
  C  C1947  1  0.033470  0.601430  0.594430  1.0  -0.1047
  C  C1948  1  0.039070  0.567030  0.592830  1.0  -0.0769
  C  C1949  1  0.005470  0.527530  0.589030  1.0  -0.0781
  C  C1950  1  0.899670  0.467330  0.520330  1.0  -0.2338
  C  C1951  1  0.859170  0.433330  0.509330  1.0  -0.1189
  C  C1952  1  0.845270  0.430730  0.460430  1.0  -0.0908
  C  C1953  1  0.868870  0.458830  0.425630  1.0  -0.077
  C  C1954  1  0.907670  0.492430  0.437030  1.0  -0.1463
  C  C1955  1  0.923170  0.496230  0.485230  1.0  -0.0574
  C  C1956  1  0.204770  0.502230  0.607830  1.0  -0.1307
  C  C1957  1  0.200970  0.497930  0.656730  1.0  -0.2083
  C  C1958  1  0.213370  0.533930  0.684630  1.0  -0.1029
  C  C1959  1  0.229570  0.571330  0.666130  1.0  -0.1358
  C  C1960  1  0.234470  0.576930  0.618130  1.0  -0.1256
  C  C1961  1  0.222070  0.541230  0.587330  1.0  -0.1065
  C  C1962  1  0.206270  0.426830  0.597630  1.0  -0.1149
  C  C1963  1  0.181570  0.386630  0.612130  1.0  -0.0726
  C  C1964  1  0.199470  0.363730  0.633430  1.0  -0.1286
  C  C1965  1  0.242170  0.382230  0.637230  1.0  -0.1059
  C  C1966  1  0.266870  0.424430  0.626930  1.0  -0.1229
  C  C1967  1  0.248770  0.445930  0.604830  1.0  -0.0574
  C  C1968  1  0.660830  0.686670  0.922770  1.0  0.0105
  C  C1969  1  0.639430  0.712570  0.916770  1.0  0.0637
  C  C1970  1  0.625930  0.723270  0.959370  1.0  -0.0985
  C  C1971  1  0.609630  0.749970  0.958870  1.0  -0.0947
  C  C1972  1  0.605030  0.766370  0.914170  1.0  -0.2299
  C  C1973  1  0.616430  0.754370  0.872870  1.0  -0.0835
  C  C1974  1  0.634030  0.727470  0.875770  1.0  -0.134
  C  C1975  1  0.708030  0.712670  0.916870  1.0  0.0243
  C  C1976  1  0.732730  0.725670  0.957270  1.0  -0.187
  C  C1977  1  0.776930  0.750570  0.951970  1.0  -0.0743
  C  C1978  1  0.796630  0.760970  0.908370  1.0  -0.1082
  C  C1979  1  0.772230  0.749370  0.868170  1.0  -0.0604
  C  C1980  1  0.728730  0.725370  0.871370  1.0  -0.1413
  C  C1981  1  0.630830  0.853670  0.919470  1.0  -0.2735
  C  C1982  1  0.625930  0.889170  0.919570  1.0  -0.1262
  C  C1983  1  0.661030  0.929270  0.924870  1.0  -0.0978
  C  C1984  1  0.700130  0.934770  0.927770  1.0  -0.1047
  C  C1985  1  0.705730  0.900370  0.926170  1.0  -0.0769
  C  C1986  1  0.672130  0.860870  0.922370  1.0  -0.078
  C  C1987  1  0.566330  0.800670  0.853670  1.0  -0.2338
  C  C1988  1  0.525830  0.766670  0.842670  1.0  -0.119
  C  C1989  1  0.511930  0.764070  0.793770  1.0  -0.0908
  C  C1990  1  0.535530  0.792170  0.758970  1.0  -0.0764
  C  C1991  1  0.574330  0.825770  0.770370  1.0  -0.1464
  C  C1992  1  0.589830  0.829570  0.818570  1.0  -0.0575
  C  C1993  1  0.871430  0.835570  0.941170  1.0  -0.1308
  C  C1994  1  0.867630  0.831270  0.990070  1.0  -0.2083
  C  C1995  1  0.880030  0.867270  0.017970  1.0  -0.1029
  C  C1996  1  0.896230  0.904670  0.999470  1.0  -0.1357
  C  C1997  1  0.901130  0.910270  0.951470  1.0  -0.1256
  C  C1998  1  0.888730  0.874570  0.920670  1.0  -0.1065
  C  C1999  1  0.872930  0.760170  0.930970  1.0  -0.115
  C  C2000  1  0.848230  0.719970  0.945470  1.0  -0.0726
  C  C2001  1  0.866130  0.697070  0.966770  1.0  -0.1288
  C  C2002  1  0.908830  0.715570  0.970570  1.0  -0.106
  C  C2003  1  0.933530  0.757770  0.960270  1.0  -0.1229
  C  C2004  1  0.915430  0.779270  0.938170  1.0  -0.0574
  C  C2005  1  0.980000  0.307500  0.256100  1.0  0.0095
  C  C2006  1  0.954100  0.260200  0.250100  1.0  0.0636
  C  C2007  1  0.943400  0.236000  0.292700  1.0  -0.1002
  C  C2008  1  0.916700  0.193000  0.292200  1.0  -0.0927
  C  C2009  1  0.900300  0.172000  0.247500  1.0  -0.2259
  C  C2010  1  0.912300  0.195400  0.206200  1.0  -0.0799
  C  C2011  1  0.939200  0.239900  0.209100  1.0  -0.1335
  C  C2012  1  0.954000  0.328700  0.250200  1.0  0.0237
  C  C2013  1  0.941000  0.340400  0.290600  1.0  -0.1865
  C  C2014  1  0.916100  0.359700  0.285300  1.0  -0.0742
  C  C2015  1  0.905700  0.369000  0.241700  1.0  -0.1069
  C  C2016  1  0.917300  0.356200  0.201500  1.0  -0.0601
  C  C2017  1  0.941300  0.336700  0.204700  1.0  -0.1403
  C  C2018  1  0.813000  0.110500  0.252800  1.0  -0.2718
  C  C2019  1  0.777500  0.070100  0.252900  1.0  -0.1242
  C  C2020  1  0.737400  0.065100  0.258200  1.0  -0.1005
  C  C2021  1  0.731900  0.098700  0.261100  1.0  -0.1086
  C  C2022  1  0.766300  0.138700  0.259500  1.0  -0.0761
  C  C2023  1  0.805800  0.144600  0.255700  1.0  -0.0774
  C  C2024  1  0.866000  0.099000  0.187000  1.0  -0.2355
  C  C2025  1  0.900000  0.092500  0.176000  1.0  -0.1171
  C  C2026  1  0.902600  0.081200  0.127100  1.0  -0.0914
  C  C2027  1  0.874500  0.076700  0.092300  1.0  -0.0775
  C  C2028  1  0.840900  0.081900  0.103700  1.0  -0.1491
  C  C2029  1  0.837100  0.093600  0.151900  1.0  -0.0583
  C  C2030  1  0.831100  0.369200  0.274500  1.0  -0.1313
  C  C2031  1  0.835400  0.369700  0.323400  1.0  -0.2106
  C  C2032  1  0.799400  0.346100  0.351300  1.0  -0.1041
  C  C2033  1  0.762000  0.324900  0.332800  1.0  -0.1384
  C  C2034  1  0.756400  0.324200  0.284800  1.0  -0.1272
  C  C2035  1  0.792100  0.347500  0.254000  1.0  -0.1021
  C  C2036  1  0.906500  0.446100  0.264300  1.0  -0.1144
  C  C2037  1  0.946700  0.461600  0.278800  1.0  -0.072
  C  C2038  1  0.969600  0.502400  0.300100  1.0  -0.1321
  C  C2039  1  0.951100  0.526600  0.303900  1.0  -0.1007
  C  C2040  1  0.908900  0.509100  0.293600  1.0  -0.1232
  C  C2041  1  0.887400  0.469500  0.271500  1.0  -0.0561
  C  C2042  1  0.646670  0.640830  0.589430  1.0  0.0095
  C  C2043  1  0.620770  0.593530  0.583430  1.0  0.0637
  C  C2044  1  0.610070  0.569330  0.626030  1.0  -0.1002
  C  C2045  1  0.583370  0.526330  0.625530  1.0  -0.0927
  C  C2046  1  0.566970  0.505330  0.580830  1.0  -0.2259
  C  C2047  1  0.578970  0.528730  0.539530  1.0  -0.0799
  C  C2048  1  0.605870  0.573230  0.542430  1.0  -0.1335
  C  C2049  1  0.620670  0.662030  0.583530  1.0  0.0238
  C  C2050  1  0.607670  0.673730  0.623930  1.0  -0.1865
  C  C2051  1  0.582770  0.693030  0.618630  1.0  -0.0742
  C  C2052  1  0.572370  0.702330  0.575030  1.0  -0.107
  C  C2053  1  0.583970  0.689530  0.534830  1.0  -0.0602
  C  C2054  1  0.607970  0.670030  0.538030  1.0  -0.1402
  C  C2055  1  0.479670  0.443830  0.586130  1.0  -0.2718
  C  C2056  1  0.444170  0.403430  0.586230  1.0  -0.1242
  C  C2057  1  0.404070  0.398430  0.591530  1.0  -0.1005
  C  C2058  1  0.398570  0.432030  0.594430  1.0  -0.1086
  C  C2059  1  0.432970  0.472030  0.592830  1.0  -0.0761
  C  C2060  1  0.472470  0.477930  0.589030  1.0  -0.0775
  C  C2061  1  0.532670  0.432330  0.520330  1.0  -0.2355
  C  C2062  1  0.566670  0.425830  0.509330  1.0  -0.1171
  C  C2063  1  0.569270  0.414530  0.460430  1.0  -0.0915
  C  C2064  1  0.541170  0.410030  0.425630  1.0  -0.0775
  C  C2065  1  0.507570  0.415230  0.437030  1.0  -0.1491
  C  C2066  1  0.503770  0.426930  0.485230  1.0  -0.0584
  C  C2067  1  0.497770  0.702530  0.607830  1.0  -0.1314
  C  C2068  1  0.502070  0.703030  0.656730  1.0  -0.2106
  C  C2069  1  0.466070  0.679430  0.684630  1.0  -0.1041
  C  C2070  1  0.428670  0.658230  0.666130  1.0  -0.1384
  C  C2071  1  0.423070  0.657530  0.618130  1.0  -0.1272
  C  C2072  1  0.458770  0.680830  0.587330  1.0  -0.1025
  C  C2073  1  0.573170  0.779430  0.597630  1.0  -0.1144
  C  C2074  1  0.613370  0.794930  0.612130  1.0  -0.072
  C  C2075  1  0.636270  0.835730  0.633430  1.0  -0.1321
  C  C2076  1  0.617770  0.859930  0.637230  1.0  -0.1007
  C  C2077  1  0.575570  0.842430  0.626930  1.0  -0.1232
  C  C2078  1  0.554070  0.802830  0.604830  1.0  -0.0561
  C  C2079  1  0.313330  0.974170  0.922770  1.0  0.0095
  C  C2080  1  0.287430  0.926870  0.916770  1.0  0.0636
  C  C2081  1  0.276730  0.902670  0.959370  1.0  -0.1002
  C  C2082  1  0.250030  0.859670  0.958870  1.0  -0.092
  C  C2083  1  0.233630  0.838670  0.914170  1.0  -0.2259
  C  C2084  1  0.245630  0.862070  0.872870  1.0  -0.0799
  C  C2085  1  0.272530  0.906570  0.875770  1.0  -0.1334
  C  C2086  1  0.287330  0.995370  0.916870  1.0  0.0237
  C  C2087  1  0.274330  0.007070  0.957270  1.0  -0.1865
  C  C2088  1  0.249430  0.026370  0.951970  1.0  -0.0742
  C  C2089  1  0.239030  0.035670  0.908370  1.0  -0.1069
  C  C2090  1  0.250630  0.022870  0.868170  1.0  -0.0601
  C  C2091  1  0.274630  0.003370  0.871370  1.0  -0.1403
  C  C2092  1  0.146330  0.777170  0.919470  1.0  -0.2718
  C  C2093  1  0.110830  0.736770  0.919570  1.0  -0.1243
  C  C2094  1  0.070730  0.731770  0.924870  1.0  -0.1005
  C  C2095  1  0.065230  0.765370  0.927770  1.0  -0.1086
  C  C2096  1  0.099630  0.805370  0.926170  1.0  -0.0761
  C  C2097  1  0.139130  0.811270  0.922370  1.0  -0.0775
  C  C2098  1  0.199330  0.765670  0.853670  1.0  -0.2355
  C  C2099  1  0.233330  0.759170  0.842670  1.0  -0.1171
  C  C2100  1  0.235930  0.747870  0.793770  1.0  -0.0914
  C  C2101  1  0.207830  0.743370  0.758970  1.0  -0.0775
  C  C2102  1  0.174230  0.748570  0.770370  1.0  -0.1491
  C  C2103  1  0.170430  0.760270  0.818570  1.0  -0.0583
  C  C2104  1  0.164430  0.035870  0.941170  1.0  -0.1314
  C  C2105  1  0.168730  0.036370  0.990070  1.0  -0.2106
  C  C2106  1  0.132730  0.012770  0.017970  1.0  -0.1041
  C  C2107  1  0.095330  0.991570  0.999470  1.0  -0.1384
  C  C2108  1  0.089730  0.990870  0.951470  1.0  -0.1272
  C  C2109  1  0.125430  0.014170  0.920670  1.0  -0.1021
  C  C2110  1  0.239830  0.112770  0.930970  1.0  -0.1144
  C  C2111  1  0.280030  0.128270  0.945470  1.0  -0.0721
  C  C2112  1  0.302930  0.169070  0.966770  1.0  -0.1323
  C  C2113  1  0.284430  0.193270  0.970570  1.0  -0.1007
  C  C2114  1  0.242230  0.175770  0.960270  1.0  -0.1232
  C  C2115  1  0.220730  0.136170  0.938170  1.0  -0.056
  C  C2116  1  0.672500  0.692500  0.243900  1.0  0.0093
  C  C2117  1  0.693900  0.739800  0.249900  1.0  0.064
  C  C2118  1  0.707400  0.764000  0.207300  1.0  -0.0996
  C  C2119  1  0.723700  0.807000  0.207800  1.0  -0.0935
  C  C2120  1  0.728300  0.828000  0.252500  1.0  -0.226
  C  C2121  1  0.716900  0.804600  0.293800  1.0  -0.0792
  C  C2122  1  0.699300  0.760100  0.290900  1.0  -0.1327
  C  C2123  1  0.625300  0.671300  0.249800  1.0  0.0241
  C  C2124  1  0.600600  0.659600  0.209400  1.0  -0.1865
  C  C2125  1  0.556400  0.640300  0.214700  1.0  -0.0739
  C  C2126  1  0.536700  0.631000  0.258300  1.0  -0.1066
  C  C2127  1  0.561100  0.643800  0.298500  1.0  -0.0608
  C  C2128  1  0.604600  0.663300  0.295300  1.0  -0.1408
  C  C2129  1  0.702500  0.889500  0.247200  1.0  -0.2729
  C  C2130  1  0.707400  0.929900  0.247100  1.0  -0.1245
  C  C2131  1  0.672300  0.934900  0.241800  1.0  -0.0984
  C  C2132  1  0.633200  0.901300  0.238900  1.0  -0.1085
  C  C2133  1  0.627600  0.861300  0.240500  1.0  -0.0754
  C  C2134  1  0.661200  0.855400  0.244300  1.0  -0.0787
  C  C2135  1  0.767000  0.901000  0.313000  1.0  -0.2345
  C  C2136  1  0.807500  0.907500  0.324000  1.0  -0.1174
  C  C2137  1  0.821400  0.918800  0.372900  1.0  -0.0915
  C  C2138  1  0.797800  0.923300  0.407700  1.0  -0.0769
  C  C2139  1  0.759000  0.918100  0.396300  1.0  -0.149
  C  C2140  1  0.743500  0.906400  0.348100  1.0  -0.0579
  C  C2141  1  0.461900  0.630800  0.225500  1.0  -0.1324
  C  C2142  1  0.465700  0.630300  0.176600  1.0  -0.2094
  C  C2143  1  0.453300  0.653900  0.148700  1.0  -0.1015
  C  C2144  1  0.437100  0.675100  0.167200  1.0  -0.1385
  C  C2145  1  0.432200  0.675800  0.215200  1.0  -0.1255
  C  C2146  1  0.444600  0.652500  0.246000  1.0  -0.1023
  C  C2147  1  0.460400  0.553900  0.235700  1.0  -0.1142
  C  C2148  1  0.485100  0.538400  0.221200  1.0  -0.0712
  C  C2149  1  0.467200  0.497600  0.199900  1.0  -0.1315
  C  C2150  1  0.424500  0.473400  0.196100  1.0  -0.1006
  C  C2151  1  0.399800  0.490900  0.206400  1.0  -0.1218
  C  C2152  1  0.417900  0.530500  0.228500  1.0  -0.0567
  C  C2153  1  0.339170  0.025830  0.577230  1.0  0.0093
  C  C2154  1  0.360570  0.073130  0.583230  1.0  0.064
  C  C2155  1  0.374070  0.097330  0.540630  1.0  -0.0996
  C  C2156  1  0.390370  0.140330  0.541130  1.0  -0.0936
  C  C2157  1  0.394970  0.161330  0.585830  1.0  -0.226
  C  C2158  1  0.383570  0.137930  0.627130  1.0  -0.0792
  C  C2159  1  0.365970  0.093430  0.624230  1.0  -0.1328
  C  C2160  1  0.291970  0.004630  0.583130  1.0  0.0241
  C  C2161  1  0.267270  0.992930  0.542730  1.0  -0.1865
  C  C2162  1  0.223070  0.973630  0.548030  1.0  -0.0739
  C  C2163  1  0.203370  0.964330  0.591630  1.0  -0.1066
  C  C2164  1  0.227770  0.977130  0.631830  1.0  -0.0608
  C  C2165  1  0.271270  0.996630  0.628630  1.0  -0.1408
  C  C2166  1  0.369170  0.222830  0.580530  1.0  -0.2729
  C  C2167  1  0.374070  0.263230  0.580430  1.0  -0.1245
  C  C2168  1  0.338970  0.268230  0.575130  1.0  -0.0984
  C  C2169  1  0.299870  0.234630  0.572230  1.0  -0.1084
  C  C2170  1  0.294270  0.194630  0.573830  1.0  -0.0754
  C  C2171  1  0.327870  0.188730  0.577630  1.0  -0.0785
  C  C2172  1  0.433670  0.234330  0.646330  1.0  -0.2345
  C  C2173  1  0.474170  0.240830  0.657330  1.0  -0.1174
  C  C2174  1  0.488070  0.252130  0.706230  1.0  -0.0915
  C  C2175  1  0.464470  0.256630  0.741030  1.0  -0.0769
  C  C2176  1  0.425670  0.251430  0.729630  1.0  -0.149
  C  C2177  1  0.410170  0.239730  0.681430  1.0  -0.0579
  C  C2178  1  0.128570  0.964130  0.558830  1.0  -0.1324
  C  C2179  1  0.132370  0.963630  0.509930  1.0  -0.2094
  C  C2180  1  0.119970  0.987230  0.482030  1.0  -0.1015
  C  C2181  1  0.103770  0.008430  0.500530  1.0  -0.1386
  C  C2182  1  0.098870  0.009130  0.548530  1.0  -0.1255
  C  C2183  1  0.111270  0.985830  0.579330  1.0  -0.1023
  C  C2184  1  0.127070  0.887230  0.569030  1.0  -0.1142
  C  C2185  1  0.151770  0.871730  0.554530  1.0  -0.0709
  C  C2186  1  0.133870  0.830930  0.533230  1.0  -0.1312
  C  C2187  1  0.091170  0.806730  0.529430  1.0  -0.1005
  C  C2188  1  0.066470  0.824230  0.539730  1.0  -0.1218
  C  C2189  1  0.084570  0.863830  0.561830  1.0  -0.0567
  C  C2190  1  0.005830  0.359170  0.910570  1.0  0.0093
  C  C2191  1  0.027230  0.406470  0.916570  1.0  0.064
  C  C2192  1  0.040730  0.430670  0.873970  1.0  -0.0996
  C  C2193  1  0.057030  0.473670  0.874470  1.0  -0.0935
  C  C2194  1  0.061630  0.494670  0.919170  1.0  -0.226
  C  C2195  1  0.050230  0.471270  0.960470  1.0  -0.0792
  C  C2196  1  0.032630  0.426770  0.957570  1.0  -0.1327
  C  C2197  1  0.958630  0.337970  0.916470  1.0  0.0241
  C  C2198  1  0.933930  0.326270  0.876070  1.0  -0.1865
  C  C2199  1  0.889730  0.306970  0.881370  1.0  -0.0739
  C  C2200  1  0.870030  0.297670  0.924970  1.0  -0.1066
  C  C2201  1  0.894430  0.310470  0.965170  1.0  -0.0609
  C  C2202  1  0.937930  0.329970  0.961970  1.0  -0.1407
  C  C2203  1  0.035830  0.556170  0.913870  1.0  -0.2729
  C  C2204  1  0.040730  0.596570  0.913770  1.0  -0.1245
  C  C2205  1  0.005630  0.601570  0.908470  1.0  -0.0983
  C  C2206  1  0.966530  0.567970  0.905570  1.0  -0.1085
  C  C2207  1  0.960930  0.527970  0.907170  1.0  -0.0754
  C  C2208  1  0.994530  0.522070  0.910970  1.0  -0.0788
  C  C2209  1  0.100330  0.567670  0.979670  1.0  -0.2345
  C  C2210  1  0.140830  0.574170  0.990670  1.0  -0.1174
  C  C2211  1  0.154730  0.585470  0.039570  1.0  -0.0915
  C  C2212  1  0.131130  0.589970  0.074370  1.0  -0.077
  C  C2213  1  0.092330  0.584770  0.062970  1.0  -0.149
  C  C2214  1  0.076830  0.573070  0.014770  1.0  -0.0579
  C  C2215  1  0.795230  0.297470  0.892170  1.0  -0.1325
  C  C2216  1  0.799030  0.296970  0.843270  1.0  -0.2094
  C  C2217  1  0.786630  0.320570  0.815370  1.0  -0.1015
  C  C2218  1  0.770430  0.341770  0.833870  1.0  -0.1386
  C  C2219  1  0.765530  0.342470  0.881870  1.0  -0.1255
  C  C2220  1  0.777930  0.319170  0.912670  1.0  -0.1027
  C  C2221  1  0.793730  0.220570  0.902370  1.0  -0.1142
  C  C2222  1  0.818430  0.205070  0.887870  1.0  -0.0712
  C  C2223  1  0.800530  0.164270  0.866570  1.0  -0.1315
  C  C2224  1  0.757830  0.140070  0.862770  1.0  -0.1006
  C  C2225  1  0.733130  0.157570  0.873070  1.0  -0.1218
  C  C2226  1  0.751230  0.197170  0.895170  1.0  -0.0568
  C  C2227  1  0.020000  0.327500  0.243900  1.0  0.0095
  C  C2228  1  0.045900  0.306100  0.249900  1.0  0.0644
  C  C2229  1  0.056600  0.292600  0.207300  1.0  -0.0984
  C  C2230  1  0.083300  0.276300  0.207800  1.0  -0.0957
  C  C2231  1  0.099700  0.271700  0.252500  1.0  -0.2313
  C  C2232  1  0.087700  0.283100  0.293800  1.0  -0.0849
  C  C2233  1  0.060800  0.300700  0.290900  1.0  -0.1328
  C  C2234  1  0.046000  0.374700  0.249800  1.0  0.025
  C  C2235  1  0.059000  0.399400  0.209400  1.0  -0.1846
  C  C2236  1  0.083900  0.443600  0.214700  1.0  -0.0728
  C  C2237  1  0.094300  0.463300  0.258300  1.0  -0.1072
  C  C2238  1  0.082700  0.438900  0.298500  1.0  -0.0587
  C  C2239  1  0.058700  0.395400  0.295300  1.0  -0.1392
  C  C2240  1  0.187000  0.297500  0.247200  1.0  -0.2739
  C  C2241  1  0.222500  0.292600  0.247100  1.0  -0.1247
  C  C2242  1  0.262600  0.327700  0.241800  1.0  -0.1022
  C  C2243  1  0.268100  0.366800  0.238900  1.0  -0.1054
  C  C2244  1  0.233700  0.372400  0.240500  1.0  -0.0735
  C  C2245  1  0.194200  0.338800  0.244300  1.0  -0.0815
  C  C2246  1  0.134000  0.233000  0.313000  1.0  -0.2342
  C  C2247  1  0.100000  0.192500  0.324000  1.0  -0.1166
  C  C2248  1  0.097400  0.178600  0.372900  1.0  -0.0946
  C  C2249  1  0.125500  0.202200  0.407700  1.0  -0.0751
  C  C2250  1  0.159100  0.241000  0.396300  1.0  -0.1483
  C  C2251  1  0.162900  0.256500  0.348100  1.0  -0.0589
  C  C2252  1  0.168900  0.538100  0.225500  1.0  -0.1335
  C  C2253  1  0.164600  0.534300  0.176600  1.0  -0.2109
  C  C2254  1  0.200600  0.546700  0.148700  1.0  -0.1017
  C  C2255  1  0.238000  0.562900  0.167200  1.0  -0.1395
  C  C2256  1  0.243600  0.567800  0.215200  1.0  -0.1273
  C  C2257  1  0.207900  0.555400  0.246000  1.0  -0.1074
  C  C2258  1  0.093500  0.539600  0.235700  1.0  -0.1123
  C  C2259  1  0.053300  0.514900  0.221200  1.0  -0.0713
  C  C2260  1  0.030400  0.532800  0.199900  1.0  -0.1324
  C  C2261  1  0.048900  0.575500  0.196100  1.0  -0.1044
  C  C2262  1  0.091100  0.600200  0.206400  1.0  -0.1178
  C  C2263  1  0.112600  0.582100  0.228500  1.0  -0.059
  C  C2264  1  0.686670  0.660830  0.577230  1.0  0.0095
  C  C2265  1  0.712570  0.639430  0.583230  1.0  0.0644
  C  C2266  1  0.723270  0.625930  0.540630  1.0  -0.0984
  C  C2267  1  0.749970  0.609630  0.541130  1.0  -0.0957
  C  C2268  1  0.766370  0.605030  0.585830  1.0  -0.2313
  C  C2269  1  0.754370  0.616430  0.627130  1.0  -0.0849
  C  C2270  1  0.727470  0.634030  0.624230  1.0  -0.1328
  C  C2271  1  0.712670  0.708030  0.583130  1.0  0.0249
  C  C2272  1  0.725670  0.732730  0.542730  1.0  -0.1846
  C  C2273  1  0.750570  0.776930  0.548030  1.0  -0.0728
  C  C2274  1  0.760970  0.796630  0.591630  1.0  -0.1072
  C  C2275  1  0.749370  0.772230  0.631830  1.0  -0.0587
  C  C2276  1  0.725370  0.728730  0.628630  1.0  -0.1392
  C  C2277  1  0.853670  0.630830  0.580530  1.0  -0.2739
  C  C2278  1  0.889170  0.625930  0.580430  1.0  -0.1247
  C  C2279  1  0.929270  0.661030  0.575130  1.0  -0.1022
  C  C2280  1  0.934770  0.700130  0.572230  1.0  -0.1054
  C  C2281  1  0.900370  0.705730  0.573830  1.0  -0.0735
  C  C2282  1  0.860870  0.672130  0.577630  1.0  -0.0816
  C  C2283  1  0.800670  0.566330  0.646330  1.0  -0.2342
  C  C2284  1  0.766670  0.525830  0.657330  1.0  -0.1166
  C  C2285  1  0.764070  0.511930  0.706230  1.0  -0.0947
  C  C2286  1  0.792170  0.535530  0.741030  1.0  -0.0751
  C  C2287  1  0.825770  0.574330  0.729630  1.0  -0.1483
  C  C2288  1  0.829570  0.589830  0.681430  1.0  -0.0589
  C  C2289  1  0.835570  0.871430  0.558830  1.0  -0.1335
  C  C2290  1  0.831270  0.867630  0.509930  1.0  -0.2109
  C  C2291  1  0.867270  0.880030  0.482030  1.0  -0.1017
  C  C2292  1  0.904670  0.896230  0.500530  1.0  -0.1395
  C  C2293  1  0.910270  0.901130  0.548530  1.0  -0.1273
  C  C2294  1  0.874570  0.888730  0.579330  1.0  -0.1074
  C  C2295  1  0.760170  0.872930  0.569030  1.0  -0.1123
  C  C2296  1  0.719970  0.848230  0.554530  1.0  -0.0713
  C  C2297  1  0.697070  0.866130  0.533230  1.0  -0.1326
  C  C2298  1  0.715570  0.908830  0.529430  1.0  -0.1044
  C  C2299  1  0.757770  0.933530  0.539730  1.0  -0.1178
  C  C2300  1  0.779270  0.915430  0.561830  1.0  -0.059
  C  C2301  1  0.353330  0.994170  0.910570  1.0  0.0095
  C  C2302  1  0.379230  0.972770  0.916570  1.0  0.0644
  C  C2303  1  0.389930  0.959270  0.873970  1.0  -0.0984
  C  C2304  1  0.416630  0.942970  0.874470  1.0  -0.0957
  C  C2305  1  0.433030  0.938370  0.919170  1.0  -0.2313
  C  C2306  1  0.421030  0.949770  0.960470  1.0  -0.0849
  C  C2307  1  0.394130  0.967370  0.957570  1.0  -0.1327
  C  C2308  1  0.379330  0.041370  0.916470  1.0  0.0251
  C  C2309  1  0.392330  0.066070  0.876070  1.0  -0.1846
  C  C2310  1  0.417230  0.110270  0.881370  1.0  -0.0728
  C  C2311  1  0.427630  0.129970  0.924970  1.0  -0.1071
  C  C2312  1  0.416030  0.105570  0.965170  1.0  -0.0587
  C  C2313  1  0.392030  0.062070  0.961970  1.0  -0.1392
  C  C2314  1  0.520330  0.964170  0.913870  1.0  -0.2739
  C  C2315  1  0.555830  0.959270  0.913770  1.0  -0.1247
  C  C2316  1  0.595930  0.994370  0.908470  1.0  -0.1022
  C  C2317  1  0.601430  0.033470  0.905570  1.0  -0.1054
  C  C2318  1  0.567030  0.039070  0.907170  1.0  -0.0735
  C  C2319  1  0.527530  0.005470  0.910970  1.0  -0.0817
  C  C2320  1  0.467330  0.899670  0.979670  1.0  -0.2342
  C  C2321  1  0.433330  0.859170  0.990670  1.0  -0.1166
  C  C2322  1  0.430730  0.845270  0.039570  1.0  -0.0947
  C  C2323  1  0.458830  0.868870  0.074370  1.0  -0.0752
  C  C2324  1  0.492430  0.907670  0.062970  1.0  -0.1483
  C  C2325  1  0.496230  0.923170  0.014770  1.0  -0.0588
  C  C2326  1  0.502230  0.204770  0.892170  1.0  -0.1334
  C  C2327  1  0.497930  0.200970  0.843270  1.0  -0.2109
  C  C2328  1  0.533930  0.213370  0.815370  1.0  -0.1017
  C  C2329  1  0.571330  0.229570  0.833870  1.0  -0.1394
  C  C2330  1  0.576930  0.234470  0.881870  1.0  -0.1273
  C  C2331  1  0.541230  0.222070  0.912670  1.0  -0.1074
  C  C2332  1  0.426830  0.206270  0.902370  1.0  -0.1123
  C  C2333  1  0.386630  0.181570  0.887870  1.0  -0.0713
  C  C2334  1  0.363730  0.199470  0.866570  1.0  -0.1324
  C  C2335  1  0.382230  0.242170  0.862770  1.0  -0.1044
  C  C2336  1  0.424430  0.266870  0.873070  1.0  -0.1178
  C  C2337  1  0.445930  0.248770  0.895170  1.0  -0.0591
  C  C2338  1  0.307500  0.980000  0.243900  1.0  0.0093
  C  C2339  1  0.260200  0.954100  0.249900  1.0  0.0638
  C  C2340  1  0.236000  0.943400  0.207300  1.0  -0.0979
  C  C2341  1  0.193000  0.916700  0.207800  1.0  -0.0944
  C  C2342  1  0.172000  0.900300  0.252500  1.0  -0.2305
  C  C2343  1  0.195400  0.912300  0.293800  1.0  -0.0833
  C  C2344  1  0.239900  0.939200  0.290900  1.0  -0.1328
  C  C2345  1  0.328700  0.954000  0.249800  1.0  0.0245
  C  C2346  1  0.340400  0.941000  0.209400  1.0  -0.1865
  C  C2347  1  0.359700  0.916100  0.214700  1.0  -0.0744
  C  C2348  1  0.369000  0.905700  0.258300  1.0  -0.1076
  C  C2349  1  0.356200  0.917300  0.298500  1.0  -0.0614
  C  C2350  1  0.336700  0.941300  0.295300  1.0  -0.1413
  C  C2351  1  0.110500  0.813000  0.247200  1.0  -0.2742
  C  C2352  1  0.070100  0.777500  0.247100  1.0  -0.1265
  C  C2353  1  0.065100  0.737400  0.241800  1.0  -0.0986
  C  C2354  1  0.098700  0.731900  0.238900  1.0  -0.1047
  C  C2355  1  0.138700  0.766300  0.240500  1.0  -0.0765
  C  C2356  1  0.144600  0.805800  0.244300  1.0  -0.077
  C  C2357  1  0.099000  0.866000  0.313000  1.0  -0.235
  C  C2358  1  0.092500  0.900000  0.324000  1.0  -0.1207
  C  C2359  1  0.081200  0.902600  0.372900  1.0  -0.0904
  C  C2360  1  0.076700  0.874500  0.407700  1.0  -0.0762
  C  C2361  1  0.081900  0.840900  0.396300  1.0  -0.1467
  C  C2362  1  0.093600  0.837100  0.348100  1.0  -0.0572
  C  C2363  1  0.369200  0.831100  0.225500  1.0  -0.1324
  C  C2364  1  0.369700  0.835400  0.176600  1.0  -0.2074
  C  C2365  1  0.346100  0.799400  0.148700  1.0  -0.1002
  C  C2366  1  0.324900  0.762000  0.167200  1.0  -0.1378
  C  C2367  1  0.324200  0.756400  0.215200  1.0  -0.1259
  C  C2368  1  0.347500  0.792100  0.246000  1.0  -0.1062
  C  C2369  1  0.446100  0.906500  0.235700  1.0  -0.1137
  C  C2370  1  0.461600  0.946700  0.221200  1.0  -0.0727
  C  C2371  1  0.502400  0.969600  0.199900  1.0  -0.1287
  C  C2372  1  0.526600  0.951100  0.196100  1.0  -0.1053
  C  C2373  1  0.509100  0.908900  0.206400  1.0  -0.1219
  C  C2374  1  0.469500  0.887400  0.228500  1.0  -0.056
  C  C2375  1  0.974170  0.313330  0.577230  1.0  0.0093
  C  C2376  1  0.926870  0.287430  0.583230  1.0  0.0638
  C  C2377  1  0.902670  0.276730  0.540630  1.0  -0.098
  C  C2378  1  0.859670  0.250030  0.541130  1.0  -0.0937
  C  C2379  1  0.838670  0.233630  0.585830  1.0  -0.2305
  C  C2380  1  0.862070  0.245630  0.627130  1.0  -0.0833
  C  C2381  1  0.906570  0.272530  0.624230  1.0  -0.1327
  C  C2382  1  0.995370  0.287330  0.583130  1.0  0.0245
  C  C2383  1  0.007070  0.274330  0.542730  1.0  -0.1865
  C  C2384  1  0.026370  0.249430  0.548030  1.0  -0.0744
  C  C2385  1  0.035670  0.239030  0.591630  1.0  -0.1076
  C  C2386  1  0.022870  0.250630  0.631830  1.0  -0.0614
  C  C2387  1  0.003370  0.274630  0.628630  1.0  -0.1413
  C  C2388  1  0.777170  0.146330  0.580530  1.0  -0.2742
  C  C2389  1  0.736770  0.110830  0.580430  1.0  -0.1265
  C  C2390  1  0.731770  0.070730  0.575130  1.0  -0.0986
  C  C2391  1  0.765370  0.065230  0.572230  1.0  -0.1046
  C  C2392  1  0.805370  0.099630  0.573830  1.0  -0.0765
  C  C2393  1  0.811270  0.139130  0.577630  1.0  -0.0771
  C  C2394  1  0.765670  0.199330  0.646330  1.0  -0.235
  C  C2395  1  0.759170  0.233330  0.657330  1.0  -0.1207
  C  C2396  1  0.747870  0.235930  0.706230  1.0  -0.0904
  C  C2397  1  0.743370  0.207830  0.741030  1.0  -0.0759
  C  C2398  1  0.748570  0.174230  0.729630  1.0  -0.1467
  C  C2399  1  0.760270  0.170430  0.681430  1.0  -0.0572
  C  C2400  1  0.035870  0.164430  0.558830  1.0  -0.1325
  C  C2401  1  0.036370  0.168730  0.509930  1.0  -0.2074
  C  C2402  1  0.012770  0.132730  0.482030  1.0  -0.1002
  C  C2403  1  0.991570  0.095330  0.500530  1.0  -0.1379
  C  C2404  1  0.990870  0.089730  0.548530  1.0  -0.1259
  C  C2405  1  0.014170  0.125430  0.579330  1.0  -0.1062
  C  C2406  1  0.112770  0.239830  0.569030  1.0  -0.1137
  C  C2407  1  0.128270  0.280030  0.554530  1.0  -0.0727
  C  C2408  1  0.169070  0.302930  0.533230  1.0  -0.1288
  C  C2409  1  0.193270  0.284430  0.529430  1.0  -0.1053
  C  C2410  1  0.175770  0.242230  0.539730  1.0  -0.1219
  C  C2411  1  0.136170  0.220730  0.561830  1.0  -0.056
  C  C2412  1  0.640830  0.646670  0.910570  1.0  0.0093
  C  C2413  1  0.593530  0.620770  0.916570  1.0  0.0638
  C  C2414  1  0.569330  0.610070  0.873970  1.0  -0.0979
  C  C2415  1  0.526330  0.583370  0.874470  1.0  -0.0944
  C  C2416  1  0.505330  0.566970  0.919170  1.0  -0.2306
  C  C2417  1  0.528730  0.578970  0.960470  1.0  -0.0833
  C  C2418  1  0.573230  0.605870  0.957570  1.0  -0.1328
  C  C2419  1  0.662030  0.620670  0.916470  1.0  0.0246
  C  C2420  1  0.673730  0.607670  0.876070  1.0  -0.1865
  C  C2421  1  0.693030  0.582770  0.881370  1.0  -0.0744
  C  C2422  1  0.702330  0.572370  0.924970  1.0  -0.1077
  C  C2423  1  0.689530  0.583970  0.965170  1.0  -0.0614
  C  C2424  1  0.670030  0.607970  0.961970  1.0  -0.1413
  C  C2425  1  0.443830  0.479670  0.913870  1.0  -0.2742
  C  C2426  1  0.403430  0.444170  0.913770  1.0  -0.1265
  C  C2427  1  0.398430  0.404070  0.908470  1.0  -0.0986
  C  C2428  1  0.432030  0.398570  0.905570  1.0  -0.1047
  C  C2429  1  0.472030  0.432970  0.907170  1.0  -0.0765
  C  C2430  1  0.477930  0.472470  0.910970  1.0  -0.0772
  C  C2431  1  0.432330  0.532670  0.979670  1.0  -0.235
  C  C2432  1  0.425830  0.566670  0.990670  1.0  -0.1207
  C  C2433  1  0.414530  0.569270  0.039570  1.0  -0.0903
  C  C2434  1  0.410030  0.541170  0.074370  1.0  -0.0758
  C  C2435  1  0.415230  0.507570  0.062970  1.0  -0.1467
  C  C2436  1  0.426930  0.503770  0.014770  1.0  -0.0572
  C  C2437  1  0.702530  0.497770  0.892170  1.0  -0.1325
  C  C2438  1  0.703030  0.502070  0.843270  1.0  -0.2074
  C  C2439  1  0.679430  0.466070  0.815370  1.0  -0.1002
  C  C2440  1  0.658230  0.428670  0.833870  1.0  -0.1379
  C  C2441  1  0.657530  0.423070  0.881870  1.0  -0.1259
  C  C2442  1  0.680830  0.458770  0.912670  1.0  -0.1066
  C  C2443  1  0.779430  0.573170  0.902370  1.0  -0.1137
  C  C2444  1  0.794930  0.613370  0.887870  1.0  -0.0727
  C  C2445  1  0.835730  0.636270  0.866570  1.0  -0.1287
  C  C2446  1  0.859930  0.617770  0.862770  1.0  -0.1053
  C  C2447  1  0.842430  0.575570  0.873070  1.0  -0.1219
  C  C2448  1  0.802830  0.554070  0.895170  1.0  -0.0561
  C  C2449  1  0.000000  0.143500  0.750000  1.0  0.8273
  C  C2450  1  0.666667  0.476830  0.083330  1.0  0.8273
  C  C2451  1  0.333333  0.810170  0.416670  1.0  0.8275
  C  C2452  1  0.856500  0.856500  0.750000  1.0  0.8291
  C  C2453  1  0.523170  0.189830  0.083330  1.0  0.8291
  C  C2454  1  0.189830  0.523170  0.416670  1.0  0.8292
  C  C2455  1  0.143500  0.000000  0.750000  1.0  0.8271
  C  C2456  1  0.810170  0.333333  0.083330  1.0  0.8273
  C  C2457  1  0.476830  0.666667  0.416670  1.0  0.8271
  C  C2458  1  0.000000  0.856500  0.250000  1.0  0.8283
  C  C2459  1  0.666667  0.189830  0.583330  1.0  0.8285
  C  C2460  1  0.333333  0.523170  0.916670  1.0  0.8283
  C  C2461  1  0.143500  0.143500  0.250000  1.0  0.8263
  C  C2462  1  0.810170  0.476830  0.583330  1.0  0.8263
  C  C2463  1  0.476830  0.810170  0.916670  1.0  0.8263
  C  C2464  1  0.856500  0.000000  0.250000  1.0  0.8283
  C  C2465  1  0.523170  0.333333  0.583330  1.0  0.8284
  C  C2466  1  0.189830  0.666667  0.916670  1.0  0.8285
  O  O2467  1  0.024800  0.137100  0.723200  1.0  -0.6894
  O  O2468  1  0.691470  0.470430  0.056530  1.0  -0.6722
  O  O2469  1  0.358130  0.803770  0.389870  1.0  -0.689
  O  O2470  1  0.862900  0.887700  0.723200  1.0  -0.6891
  O  O2471  1  0.529570  0.221030  0.056530  1.0  -0.6726
  O  O2472  1  0.196230  0.554370  0.389870  1.0  -0.6891
  O  O2473  1  0.112300  0.975200  0.723200  1.0  -0.6722
  O  O2474  1  0.778970  0.308530  0.056530  1.0  -0.6887
  O  O2475  1  0.445630  0.641870  0.389870  1.0  -0.6722
  O  O2476  1  0.137100  0.024800  0.776800  1.0  -0.6896
  O  O2477  1  0.803770  0.358130  0.110130  1.0  -0.6892
  O  O2478  1  0.470430  0.691470  0.443470  1.0  -0.672
  O  O2479  1  0.887700  0.862900  0.776800  1.0  -0.6923
  O  O2480  1  0.554370  0.196230  0.110130  1.0  -0.6923
  O  O2481  1  0.221030  0.529570  0.443470  1.0  -0.6763
  O  O2482  1  0.975200  0.112300  0.776800  1.0  -0.6702
  O  O2483  1  0.641870  0.445630  0.110130  1.0  -0.6702
  O  O2484  1  0.308530  0.778970  0.443470  1.0  -0.6859
  O  O2485  1  0.975200  0.862900  0.276800  1.0  -0.6913
  O  O2486  1  0.641870  0.196230  0.610130  1.0  -0.691
  O  O2487  1  0.308530  0.529570  0.943470  1.0  -0.6742
  O  O2488  1  0.137100  0.112300  0.276800  1.0  -0.6861
  O  O2489  1  0.803770  0.445630  0.610130  1.0  -0.6861
  O  O2490  1  0.470430  0.778970  0.943470  1.0  -0.6698
  O  O2491  1  0.887700  0.024800  0.276800  1.0  -0.6745
  O  O2492  1  0.554370  0.358130  0.610130  1.0  -0.6745
  O  O2493  1  0.221030  0.691470  0.943470  1.0  -0.6907
  O  O2494  1  0.862900  0.975200  0.223200  1.0  -0.69
  O  O2495  1  0.529570  0.308530  0.556530  1.0  -0.673
  O  O2496  1  0.196230  0.641870  0.889870  1.0  -0.6896
  O  O2497  1  0.112300  0.137100  0.223200  1.0  -0.6895
  O  O2498  1  0.778970  0.470430  0.556530  1.0  -0.6732
  O  O2499  1  0.445630  0.803770  0.889870  1.0  -0.6895
  O  O2500  1  0.024800  0.887700  0.223200  1.0  -0.6735
  O  O2501  1  0.691470  0.221030  0.556530  1.0  -0.6897
  O  O2502  1  0.358130  0.554370  0.889870  1.0  -0.6735
  O  O2503  1  0.000000  0.176800  0.750000  1.0  -0.5651
  O  O2504  1  0.666667  0.510130  0.083330  1.0  -0.5659
  O  O2505  1  0.333333  0.843470  0.416670  1.0  -0.5651
  O  O2506  1  0.823200  0.823200  0.750000  1.0  -0.5677
  O  O2507  1  0.489870  0.156530  0.083330  1.0  -0.5677
  O  O2508  1  0.156530  0.489870  0.416670  1.0  -0.5678
  O  O2509  1  0.176800  0.000000  0.750000  1.0  -0.5772
  O  O2510  1  0.843470  0.333333  0.083330  1.0  -0.577
  O  O2511  1  0.510130  0.666667  0.416670  1.0  -0.5764
  O  O2512  1  0.000000  0.823200  0.250000  1.0  -0.5688
  O  O2513  1  0.666667  0.156530  0.583330  1.0  -0.5686
  O  O2514  1  0.333333  0.489870  0.916670  1.0  -0.568
  O  O2515  1  0.176800  0.176800  0.250000  1.0  -0.5669
  O  O2516  1  0.843470  0.510130  0.583330  1.0  -0.5669
  O  O2517  1  0.510130  0.843470  0.916670  1.0  -0.567
  O  O2518  1  0.823200  0.000000  0.250000  1.0  -0.5682
  O  O2519  1  0.489870  0.333333  0.583330  1.0  -0.569
  O  O2520  1  0.156530  0.666667  0.916670  1.0  -0.5683
