# generated using pymatgen
data_Cu5H9(C3N4)9
_symmetry_space_group_name_H-M   'P 1'
_cell_length_a   16.18000000
_cell_length_b   43.07700000
_cell_length_c   45.48500000
_cell_angle_alpha   90.00000000
_cell_angle_beta   90.00000000
_cell_angle_gamma   90.00000000
_symmetry_Int_Tables_number   1
_chemical_formula_structural   Cu5H9(C3N4)9
_chemical_formula_sum   'Cu80 H144 C432 N576'
_cell_volume   31702.40184210
_cell_formula_units_Z   16
loop_
 _symmetry_equiv_pos_site_id
 _symmetry_equiv_pos_as_xyz
  1  'x, y, z'
loop_
 _atom_site_type_symbol
 _atom_site_label
 _atom_site_symmetry_multiplicity
 _atom_site_fract_x
 _atom_site_fract_y
 _atom_site_fract_z
 _atom_site_occupancy
 _atom_site_charge
  Cu  Cu1  1  0.501180  0.428790  0.062450  1.0  0.4322
  Cu  Cu2  1  0.431550  0.407960  0.989480  1.0  0.4542
  Cu  Cu3  1  0.501180  0.928790  0.562450  1.0  0.4322
  Cu  Cu4  1  0.431550  0.907960  0.489480  1.0  0.4542
  Cu  Cu5  1  0.001180  0.428790  0.562450  1.0  0.4322
  Cu  Cu6  1  0.931550  0.407960  0.489480  1.0  0.4542
  Cu  Cu7  1  0.001180  0.928790  0.062450  1.0  0.4322
  Cu  Cu8  1  0.931550  0.907960  0.989480  1.0  0.4542
  Cu  Cu9  1  0.248820  0.321210  0.062450  1.0  0.4322
  Cu  Cu10  1  0.318450  0.342040  0.989480  1.0  0.4543
  Cu  Cu11  1  0.248820  0.821210  0.562450  1.0  0.4322
  Cu  Cu12  1  0.318450  0.842040  0.489480  1.0  0.4543
  Cu  Cu13  1  0.748820  0.321210  0.562450  1.0  0.4322
  Cu  Cu14  1  0.818450  0.342040  0.489480  1.0  0.4543
  Cu  Cu15  1  0.748820  0.821210  0.062450  1.0  0.4322
  Cu  Cu16  1  0.818450  0.842040  0.989480  1.0  0.4543
  Cu  Cu17  1  0.248820  0.428790  0.687550  1.0  0.4316
  Cu  Cu18  1  0.318450  0.407960  0.760520  1.0  0.456
  Cu  Cu19  1  0.248820  0.928790  0.187550  1.0  0.4316
  Cu  Cu20  1  0.318450  0.907960  0.260520  1.0  0.456
  Cu  Cu21  1  0.748820  0.428790  0.187550  1.0  0.4316
  Cu  Cu22  1  0.818450  0.407960  0.260520  1.0  0.456
  Cu  Cu23  1  0.748820  0.928790  0.687550  1.0  0.4316
  Cu  Cu24  1  0.818450  0.907960  0.760520  1.0  0.456
  Cu  Cu25  1  0.501180  0.321210  0.687550  1.0  0.4318
  Cu  Cu26  1  0.431550  0.342040  0.760520  1.0  0.4549
  Cu  Cu27  1  0.501180  0.821210  0.187550  1.0  0.4318
  Cu  Cu28  1  0.431550  0.842040  0.260520  1.0  0.4549
  Cu  Cu29  1  0.001180  0.321210  0.187550  1.0  0.4318
  Cu  Cu30  1  0.931550  0.342040  0.260520  1.0  0.4549
  Cu  Cu31  1  0.001180  0.821210  0.687550  1.0  0.4318
  Cu  Cu32  1  0.931550  0.842040  0.760520  1.0  0.4549
  Cu  Cu33  1  0.498820  0.571210  0.937550  1.0  0.4316
  Cu  Cu34  1  0.568450  0.592040  0.010520  1.0  0.4555
  Cu  Cu35  1  0.498820  0.071210  0.437550  1.0  0.4316
  Cu  Cu36  1  0.568450  0.092040  0.510520  1.0  0.4555
  Cu  Cu37  1  0.998820  0.571210  0.437550  1.0  0.4316
  Cu  Cu38  1  0.068450  0.592040  0.510520  1.0  0.4555
  Cu  Cu39  1  0.998820  0.071210  0.937550  1.0  0.4316
  Cu  Cu40  1  0.068450  0.092040  0.010520  1.0  0.4555
  Cu  Cu41  1  0.751180  0.678790  0.937550  1.0  0.4317
  Cu  Cu42  1  0.681550  0.657960  0.010520  1.0  0.4553
  Cu  Cu43  1  0.751180  0.178790  0.437550  1.0  0.4317
  Cu  Cu44  1  0.681550  0.157960  0.510520  1.0  0.4553
  Cu  Cu45  1  0.251180  0.678790  0.437550  1.0  0.4317
  Cu  Cu46  1  0.181550  0.657960  0.510520  1.0  0.4553
  Cu  Cu47  1  0.251180  0.178790  0.937550  1.0  0.4317
  Cu  Cu48  1  0.181550  0.157960  0.010520  1.0  0.4553
  Cu  Cu49  1  0.751180  0.571210  0.312450  1.0  0.4322
  Cu  Cu50  1  0.681550  0.592040  0.239480  1.0  0.4537
  Cu  Cu51  1  0.751180  0.071210  0.812450  1.0  0.4322
  Cu  Cu52  1  0.681550  0.092040  0.739480  1.0  0.4537
  Cu  Cu53  1  0.251180  0.571210  0.812450  1.0  0.4322
  Cu  Cu54  1  0.181550  0.592040  0.739480  1.0  0.4537
  Cu  Cu55  1  0.251180  0.071210  0.312450  1.0  0.4322
  Cu  Cu56  1  0.181550  0.092040  0.239480  1.0  0.4537
  Cu  Cu57  1  0.498820  0.678790  0.312450  1.0  0.4323
  Cu  Cu58  1  0.568450  0.657960  0.239480  1.0  0.4548
  Cu  Cu59  1  0.498820  0.178790  0.812450  1.0  0.4323
  Cu  Cu60  1  0.568450  0.157960  0.739480  1.0  0.4548
  Cu  Cu61  1  0.998820  0.678790  0.812450  1.0  0.4323
  Cu  Cu62  1  0.068450  0.657960  0.739480  1.0  0.4548
  Cu  Cu63  1  0.998820  0.178790  0.312450  1.0  0.4323
  Cu  Cu64  1  0.068450  0.157960  0.239480  1.0  0.4548
  Cu  Cu65  1  0.625000  0.427830  0.125000  1.0  0.4537
  Cu  Cu66  1  0.625000  0.927830  0.625000  1.0  0.4537
  Cu  Cu67  1  0.125000  0.322170  0.125000  1.0  0.4544
  Cu  Cu68  1  0.125000  0.822170  0.625000  1.0  0.4544
  Cu  Cu69  1  0.625000  0.322170  0.625000  1.0  0.4544
  Cu  Cu70  1  0.125000  0.427830  0.625000  1.0  0.4537
  Cu  Cu71  1  0.125000  0.927830  0.125000  1.0  0.4537
  Cu  Cu72  1  0.625000  0.822170  0.125000  1.0  0.4544
  Cu  Cu73  1  0.375000  0.572170  0.875000  1.0  0.4544
  Cu  Cu74  1  0.375000  0.072170  0.375000  1.0  0.4544
  Cu  Cu75  1  0.875000  0.677830  0.875000  1.0  0.4537
  Cu  Cu76  1  0.875000  0.177830  0.375000  1.0  0.4537
  Cu  Cu77  1  0.875000  0.572170  0.375000  1.0  0.4544
  Cu  Cu78  1  0.875000  0.072170  0.875000  1.0  0.4544
  Cu  Cu79  1  0.375000  0.677830  0.375000  1.0  0.4537
  Cu  Cu80  1  0.375000  0.177830  0.875000  1.0  0.4537
  H  H81  1  0.596200  0.458300  0.177800  1.0  0.0908
  H  H82  1  0.610000  0.531300  0.232500  1.0  0.1214
  H  H83  1  0.477000  0.536700  0.158100  1.0  0.1325
  H  H84  1  0.254000  0.365000  0.110900  1.0  0.1226
  H  H85  1  0.596200  0.958300  0.677800  1.0  0.0908
  H  H86  1  0.610000  0.031300  0.732500  1.0  0.1214
  H  H87  1  0.477000  0.036700  0.658100  1.0  0.1346
  H  H88  1  0.254000  0.865000  0.610900  1.0  0.1226
  H  H89  1  0.096200  0.458300  0.677800  1.0  0.0908
  H  H90  1  0.110000  0.531300  0.732500  1.0  0.1229
  H  H91  1  0.977000  0.536700  0.658100  1.0  0.1325
  H  H92  1  0.754000  0.365000  0.610900  1.0  0.1226
  H  H93  1  0.096200  0.958300  0.177800  1.0  0.0908
  H  H94  1  0.110000  0.031300  0.232500  1.0  0.1232
  H  H95  1  0.977000  0.036700  0.158100  1.0  0.1325
  H  H96  1  0.754000  0.865000  0.110900  1.0  0.1226
  H  H97  1  0.153800  0.291700  0.177800  1.0  0.0915
  H  H98  1  0.140000  0.218700  0.232500  1.0  0.1215
  H  H99  1  0.273000  0.213300  0.158100  1.0  0.1328
  H  H100  1  0.496000  0.385000  0.110900  1.0  0.1223
  H  H101  1  0.153800  0.791700  0.677800  1.0  0.0915
  H  H102  1  0.140000  0.718700  0.732500  1.0  0.1215
  H  H103  1  0.273000  0.713300  0.658100  1.0  0.1328
  H  H104  1  0.496000  0.885000  0.610900  1.0  0.1223
  H  H105  1  0.653800  0.291700  0.677800  1.0  0.0915
  H  H106  1  0.640000  0.218700  0.732500  1.0  0.1215
  H  H107  1  0.773000  0.213300  0.658100  1.0  0.1344
  H  H108  1  0.996000  0.385000  0.610900  1.0  0.1223
  H  H109  1  0.653800  0.791700  0.177800  1.0  0.0915
  H  H110  1  0.640000  0.718700  0.232500  1.0  0.1215
  H  H111  1  0.773000  0.713300  0.158100  1.0  0.1348
  H  H112  1  0.996000  0.885000  0.110900  1.0  0.1223
  H  H113  1  0.153800  0.458300  0.572200  1.0  0.0903
  H  H114  1  0.140000  0.531300  0.517500  1.0  0.1212
  H  H115  1  0.273000  0.536700  0.591900  1.0  0.1326
  H  H116  1  0.496000  0.365000  0.639100  1.0  0.1228
  H  H117  1  0.153800  0.958300  0.072200  1.0  0.0903
  H  H118  1  0.140000  0.031300  0.017500  1.0  0.1212
  H  H119  1  0.273000  0.036700  0.091900  1.0  0.1326
  H  H120  1  0.496000  0.865000  0.139100  1.0  0.1228
  H  H121  1  0.653800  0.458300  0.072200  1.0  0.0903
  H  H122  1  0.640000  0.531300  0.017500  1.0  0.1212
  H  H123  1  0.773000  0.536700  0.091900  1.0  0.1345
  H  H124  1  0.996000  0.365000  0.139100  1.0  0.1228
  H  H125  1  0.653800  0.958300  0.572200  1.0  0.0903
  H  H126  1  0.640000  0.031300  0.517500  1.0  0.1212
  H  H127  1  0.773000  0.036700  0.591900  1.0  0.135
  H  H128  1  0.996000  0.865000  0.639100  1.0  0.1228
  H  H129  1  0.596200  0.291700  0.572200  1.0  0.0902
  H  H130  1  0.610000  0.218700  0.517500  1.0  0.1211
  H  H131  1  0.477000  0.213300  0.591900  1.0  0.133
  H  H132  1  0.254000  0.385000  0.639100  1.0  0.122
  H  H133  1  0.596200  0.791700  0.072200  1.0  0.0902
  H  H134  1  0.610000  0.718700  0.017500  1.0  0.1211
  H  H135  1  0.477000  0.713300  0.091900  1.0  0.133
  H  H136  1  0.254000  0.885000  0.139100  1.0  0.122
  H  H137  1  0.096200  0.291700  0.072200  1.0  0.0902
  H  H138  1  0.110000  0.218700  0.017500  1.0  0.123
  H  H139  1  0.977000  0.213300  0.091900  1.0  0.133
  H  H140  1  0.754000  0.385000  0.139100  1.0  0.122
  H  H141  1  0.096200  0.791700  0.572200  1.0  0.0902
  H  H142  1  0.110000  0.718700  0.517500  1.0  0.1224
  H  H143  1  0.977000  0.713300  0.591900  1.0  0.133
  H  H144  1  0.754000  0.885000  0.639100  1.0  0.122
  H  H145  1  0.403800  0.541700  0.822200  1.0  0.0908
  H  H146  1  0.390000  0.468700  0.767500  1.0  0.1214
  H  H147  1  0.523000  0.463300  0.841900  1.0  0.1329
  H  H148  1  0.746000  0.635000  0.889100  1.0  0.1223
  H  H149  1  0.403800  0.041700  0.322200  1.0  0.0908
  H  H150  1  0.390000  0.968700  0.267500  1.0  0.1214
  H  H151  1  0.523000  0.963300  0.341900  1.0  0.1351
  H  H152  1  0.746000  0.135000  0.389100  1.0  0.1223
  H  H153  1  0.903800  0.541700  0.322200  1.0  0.0908
  H  H154  1  0.890000  0.468700  0.267500  1.0  0.1227
  H  H155  1  0.023000  0.463300  0.341900  1.0  0.1329
  H  H156  1  0.246000  0.635000  0.389100  1.0  0.1223
  H  H157  1  0.903800  0.041700  0.822200  1.0  0.0908
  H  H158  1  0.890000  0.968700  0.767500  1.0  0.1232
  H  H159  1  0.023000  0.963300  0.841900  1.0  0.1329
  H  H160  1  0.246000  0.135000  0.889100  1.0  0.1223
  H  H161  1  0.846200  0.708300  0.822200  1.0  0.0898
  H  H162  1  0.860000  0.781300  0.767500  1.0  0.1208
  H  H163  1  0.727000  0.786700  0.841900  1.0  0.1324
  H  H164  1  0.504000  0.615000  0.889100  1.0  0.1224
  H  H165  1  0.846200  0.208300  0.322200  1.0  0.0898
  H  H166  1  0.860000  0.281300  0.267500  1.0  0.1208
  H  H167  1  0.727000  0.286700  0.341900  1.0  0.1324
  H  H168  1  0.504000  0.115000  0.389100  1.0  0.1224
  H  H169  1  0.346200  0.708300  0.322200  1.0  0.0898
  H  H170  1  0.360000  0.781300  0.267500  1.0  0.1208
  H  H171  1  0.227000  0.786700  0.341900  1.0  0.1349
  H  H172  1  0.004000  0.615000  0.389100  1.0  0.1224
  H  H173  1  0.346200  0.208300  0.822200  1.0  0.0898
  H  H174  1  0.360000  0.281300  0.767500  1.0  0.1208
  H  H175  1  0.227000  0.286700  0.841900  1.0  0.1352
  H  H176  1  0.004000  0.115000  0.889100  1.0  0.1224
  H  H177  1  0.846200  0.541700  0.427800  1.0  0.091
  H  H178  1  0.860000  0.468700  0.482500  1.0  0.1216
  H  H179  1  0.727000  0.463300  0.408100  1.0  0.1327
  H  H180  1  0.504000  0.635000  0.360900  1.0  0.122
  H  H181  1  0.846200  0.041700  0.927800  1.0  0.091
  H  H182  1  0.860000  0.968700  0.982500  1.0  0.1216
  H  H183  1  0.727000  0.963300  0.908100  1.0  0.1327
  H  H184  1  0.504000  0.135000  0.860900  1.0  0.122
  H  H185  1  0.346200  0.541700  0.927800  1.0  0.091
  H  H186  1  0.360000  0.468700  0.982500  1.0  0.1216
  H  H187  1  0.227000  0.463300  0.908100  1.0  0.1344
  H  H188  1  0.004000  0.635000  0.860900  1.0  0.122
  H  H189  1  0.346200  0.041700  0.427800  1.0  0.091
  H  H190  1  0.360000  0.968700  0.482500  1.0  0.1216
  H  H191  1  0.227000  0.963300  0.408100  1.0  0.1347
  H  H192  1  0.004000  0.135000  0.360900  1.0  0.122
  H  H193  1  0.403800  0.708300  0.427800  1.0  0.0911
  H  H194  1  0.390000  0.781300  0.482500  1.0  0.1214
  H  H195  1  0.523000  0.786700  0.408100  1.0  0.1327
  H  H196  1  0.746000  0.615000  0.360900  1.0  0.1228
  H  H197  1  0.403800  0.208300  0.927800  1.0  0.0911
  H  H198  1  0.390000  0.281300  0.982500  1.0  0.1214
  H  H199  1  0.523000  0.286700  0.908100  1.0  0.1327
  H  H200  1  0.746000  0.115000  0.860900  1.0  0.1228
  H  H201  1  0.903800  0.708300  0.927800  1.0  0.0911
  H  H202  1  0.890000  0.781300  0.982500  1.0  0.1239
  H  H203  1  0.023000  0.786700  0.908100  1.0  0.1327
  H  H204  1  0.246000  0.615000  0.860900  1.0  0.1228
  H  H205  1  0.903800  0.208300  0.427800  1.0  0.0911
  H  H206  1  0.890000  0.281300  0.482500  1.0  0.1228
  H  H207  1  0.023000  0.286700  0.408100  1.0  0.1327
  H  H208  1  0.246000  0.115000  0.360900  1.0  0.1228
  H  H209  1  0.375000  0.375000  0.186900  1.0  0.1174
  H  H210  1  0.375000  0.875000  0.686900  1.0  0.1174
  H  H211  1  0.875000  0.375000  0.686900  1.0  0.1174
  H  H212  1  0.875000  0.875000  0.186900  1.0  0.1174
  H  H213  1  0.375000  0.375000  0.563100  1.0  0.1162
  H  H214  1  0.375000  0.875000  0.063100  1.0  0.1162
  H  H215  1  0.875000  0.375000  0.063100  1.0  0.1162
  H  H216  1  0.875000  0.875000  0.563100  1.0  0.1162
  H  H217  1  0.625000  0.625000  0.813100  1.0  0.1162
  H  H218  1  0.625000  0.125000  0.313100  1.0  0.1162
  H  H219  1  0.125000  0.625000  0.313100  1.0  0.1162
  H  H220  1  0.125000  0.125000  0.813100  1.0  0.1162
  H  H221  1  0.625000  0.625000  0.436900  1.0  0.1174
  H  H222  1  0.625000  0.125000  0.936900  1.0  0.1174
  H  H223  1  0.125000  0.625000  0.936900  1.0  0.1174
  H  H224  1  0.125000  0.125000  0.436900  1.0  0.1174
  C  C225  1  0.533300  0.495410  0.163480  1.0  -0.0956
  C  C226  1  0.582300  0.478630  0.182510  1.0  -0.0043
  C  C227  1  0.611600  0.491570  0.208580  1.0  -0.059
  C  C228  1  0.590900  0.522260  0.215180  1.0  -0.0958
  C  C229  1  0.542100  0.539260  0.196140  1.0  -0.0436
  C  C230  1  0.511800  0.525530  0.170500  1.0  -0.0368
  C  C231  1  0.302600  0.368990  0.121120  1.0  -0.0306
  C  C232  1  0.302300  0.368910  0.151780  1.0  -0.1292
  C  C233  1  0.499400  0.482550  0.136390  1.0  0.2829
  C  C234  1  0.660620  0.474480  0.230040  1.0  0.2835
  C  C235  1  0.227130  0.363900  0.168800  1.0  0.2939
  C  C236  1  0.520800  0.571750  0.202590  1.0  0.3415
  C  C237  1  0.533300  0.995410  0.663480  1.0  -0.0956
  C  C238  1  0.582300  0.978630  0.682510  1.0  -0.0043
  C  C239  1  0.611600  0.991570  0.708580  1.0  -0.059
  C  C240  1  0.590900  0.022260  0.715180  1.0  -0.0958
  C  C241  1  0.542100  0.039260  0.696140  1.0  -0.0436
  C  C242  1  0.511800  0.025530  0.670500  1.0  -0.0368
  C  C243  1  0.302600  0.868990  0.621120  1.0  -0.0306
  C  C244  1  0.302300  0.868910  0.651780  1.0  -0.1292
  C  C245  1  0.499400  0.982550  0.636390  1.0  0.2829
  C  C246  1  0.660620  0.974480  0.730040  1.0  0.2835
  C  C247  1  0.227130  0.863900  0.668800  1.0  0.2939
  C  C248  1  0.520800  0.071750  0.702590  1.0  0.3415
  C  C249  1  0.033300  0.495410  0.663480  1.0  -0.0956
  C  C250  1  0.082300  0.478630  0.682510  1.0  -0.0043
  C  C251  1  0.111600  0.491570  0.708580  1.0  -0.059
  C  C252  1  0.090900  0.522260  0.715180  1.0  -0.097
  C  C253  1  0.042100  0.539260  0.696140  1.0  -0.0457
  C  C254  1  0.011800  0.525530  0.670500  1.0  -0.033
  C  C255  1  0.802600  0.368990  0.621120  1.0  -0.0306
  C  C256  1  0.802300  0.368910  0.651780  1.0  -0.1292
  C  C257  1  0.999400  0.482550  0.636390  1.0  0.2829
  C  C258  1  0.160620  0.474480  0.730040  1.0  0.2835
  C  C259  1  0.727130  0.363900  0.668800  1.0  0.2939
  C  C260  1  0.020800  0.571750  0.702590  1.0  0.3415
  C  C261  1  0.033300  0.995410  0.163480  1.0  -0.0956
  C  C262  1  0.082300  0.978630  0.182510  1.0  -0.0043
  C  C263  1  0.111600  0.991570  0.208580  1.0  -0.059
  C  C264  1  0.090900  0.022260  0.215180  1.0  -0.0907
  C  C265  1  0.042100  0.039260  0.196140  1.0  -0.043
  C  C266  1  0.011800  0.025530  0.170500  1.0  -0.0343
  C  C267  1  0.802600  0.868990  0.121120  1.0  -0.0306
  C  C268  1  0.802300  0.868910  0.151780  1.0  -0.1292
  C  C269  1  0.999400  0.982550  0.136390  1.0  0.2829
  C  C270  1  0.160620  0.974480  0.230040  1.0  0.2835
  C  C271  1  0.727130  0.863900  0.168800  1.0  0.2939
  C  C272  1  0.020800  0.071750  0.202590  1.0  0.3415
  C  C273  1  0.216700  0.254590  0.163480  1.0  -0.0962
  C  C274  1  0.167700  0.271370  0.182510  1.0  -0.0042
  C  C275  1  0.138400  0.258430  0.208580  1.0  -0.059
  C  C276  1  0.159100  0.227740  0.215180  1.0  -0.0951
  C  C277  1  0.207900  0.210740  0.196140  1.0  -0.0443
  C  C278  1  0.238200  0.224470  0.170500  1.0  -0.0393
  C  C279  1  0.447400  0.381010  0.121120  1.0  -0.0283
  C  C280  1  0.447700  0.381090  0.151780  1.0  -0.1301
  C  C281  1  0.250600  0.267450  0.136390  1.0  0.2818
  C  C282  1  0.089380  0.275520  0.230040  1.0  0.2851
  C  C283  1  0.522870  0.386100  0.168800  1.0  0.2936
  C  C284  1  0.229200  0.178250  0.202590  1.0  0.3422
  C  C285  1  0.216700  0.754590  0.663480  1.0  -0.0962
  C  C286  1  0.167700  0.771370  0.682510  1.0  -0.0042
  C  C287  1  0.138400  0.758430  0.708580  1.0  -0.059
  C  C288  1  0.159100  0.727740  0.715180  1.0  -0.0951
  C  C289  1  0.207900  0.710740  0.696140  1.0  -0.0443
  C  C290  1  0.238200  0.724470  0.670500  1.0  -0.0393
  C  C291  1  0.447400  0.881010  0.621120  1.0  -0.0283
  C  C292  1  0.447700  0.881090  0.651780  1.0  -0.1301
  C  C293  1  0.250600  0.767450  0.636390  1.0  0.2818
  C  C294  1  0.089380  0.775520  0.730040  1.0  0.2851
  C  C295  1  0.522870  0.886100  0.668800  1.0  0.2936
  C  C296  1  0.229200  0.678250  0.702590  1.0  0.3422
  C  C297  1  0.716700  0.254590  0.663480  1.0  -0.0962
  C  C298  1  0.667700  0.271370  0.682510  1.0  -0.0042
  C  C299  1  0.638400  0.258430  0.708580  1.0  -0.059
  C  C300  1  0.659100  0.227740  0.715180  1.0  -0.0951
  C  C301  1  0.707900  0.210740  0.696140  1.0  -0.0443
  C  C302  1  0.738200  0.224470  0.670500  1.0  -0.0393
  C  C303  1  0.947400  0.381010  0.621120  1.0  -0.0283
  C  C304  1  0.947700  0.381090  0.651780  1.0  -0.1301
  C  C305  1  0.750600  0.267450  0.636390  1.0  0.2818
  C  C306  1  0.589380  0.275520  0.730040  1.0  0.2851
  C  C307  1  0.022870  0.386100  0.668800  1.0  0.2936
  C  C308  1  0.729200  0.178250  0.702590  1.0  0.3422
  C  C309  1  0.716700  0.754590  0.163480  1.0  -0.0962
  C  C310  1  0.667700  0.771370  0.182510  1.0  -0.0042
  C  C311  1  0.638400  0.758430  0.208580  1.0  -0.059
  C  C312  1  0.659100  0.727740  0.215180  1.0  -0.0951
  C  C313  1  0.707900  0.710740  0.196140  1.0  -0.0443
  C  C314  1  0.738200  0.724470  0.170500  1.0  -0.0393
  C  C315  1  0.947400  0.881010  0.121120  1.0  -0.0283
  C  C316  1  0.947700  0.881090  0.151780  1.0  -0.1301
  C  C317  1  0.750600  0.767450  0.136390  1.0  0.2818
  C  C318  1  0.589380  0.775520  0.230040  1.0  0.2851
  C  C319  1  0.022870  0.886100  0.168800  1.0  0.2936
  C  C320  1  0.729200  0.678250  0.202590  1.0  0.3422
  C  C321  1  0.216700  0.495410  0.586520  1.0  -0.0966
  C  C322  1  0.167700  0.478630  0.567490  1.0  -0.0037
  C  C323  1  0.138400  0.491570  0.541420  1.0  -0.0591
  C  C324  1  0.159100  0.522260  0.534820  1.0  -0.0949
  C  C325  1  0.207900  0.539260  0.553860  1.0  -0.0439
  C  C326  1  0.238200  0.525530  0.579500  1.0  -0.0398
  C  C327  1  0.447400  0.368990  0.628880  1.0  -0.0297
  C  C328  1  0.447700  0.368910  0.598220  1.0  -0.1297
  C  C329  1  0.250600  0.482550  0.613610  1.0  0.2825
  C  C330  1  0.089380  0.474480  0.519960  1.0  0.2842
  C  C331  1  0.522870  0.363900  0.581200  1.0  0.294
  C  C332  1  0.229200  0.571750  0.547410  1.0  0.3411
  C  C333  1  0.216700  0.995410  0.086520  1.0  -0.0966
  C  C334  1  0.167700  0.978630  0.067490  1.0  -0.0037
  C  C335  1  0.138400  0.991570  0.041420  1.0  -0.0591
  C  C336  1  0.159100  0.022260  0.034820  1.0  -0.0949
  C  C337  1  0.207900  0.039260  0.053860  1.0  -0.0439
  C  C338  1  0.238200  0.025530  0.079500  1.0  -0.0398
  C  C339  1  0.447400  0.868990  0.128880  1.0  -0.0297
  C  C340  1  0.447700  0.868910  0.098220  1.0  -0.1297
  C  C341  1  0.250600  0.982550  0.113610  1.0  0.2825
  C  C342  1  0.089380  0.974480  0.019960  1.0  0.2842
  C  C343  1  0.522870  0.863900  0.081200  1.0  0.294
  C  C344  1  0.229200  0.071750  0.047410  1.0  0.3411
  C  C345  1  0.716700  0.495410  0.086520  1.0  -0.0966
  C  C346  1  0.667700  0.478630  0.067490  1.0  -0.0037
  C  C347  1  0.638400  0.491570  0.041420  1.0  -0.0591
  C  C348  1  0.659100  0.522260  0.034820  1.0  -0.0949
  C  C349  1  0.707900  0.539260  0.053860  1.0  -0.0439
  C  C350  1  0.738200  0.525530  0.079500  1.0  -0.0398
  C  C351  1  0.947400  0.368990  0.128880  1.0  -0.0297
  C  C352  1  0.947700  0.368910  0.098220  1.0  -0.1297
  C  C353  1  0.750600  0.482550  0.113610  1.0  0.2825
  C  C354  1  0.589380  0.474480  0.019960  1.0  0.2842
  C  C355  1  0.022870  0.363900  0.081200  1.0  0.294
  C  C356  1  0.729200  0.571750  0.047410  1.0  0.3411
  C  C357  1  0.716700  0.995410  0.586520  1.0  -0.0966
  C  C358  1  0.667700  0.978630  0.567490  1.0  -0.0037
  C  C359  1  0.638400  0.991570  0.541420  1.0  -0.0591
  C  C360  1  0.659100  0.022260  0.534820  1.0  -0.0949
  C  C361  1  0.707900  0.039260  0.553860  1.0  -0.0439
  C  C362  1  0.738200  0.025530  0.579500  1.0  -0.0398
  C  C363  1  0.947400  0.868990  0.628880  1.0  -0.0297
  C  C364  1  0.947700  0.868910  0.598220  1.0  -0.1297
  C  C365  1  0.750600  0.982550  0.613610  1.0  0.2825
  C  C366  1  0.589380  0.974480  0.519960  1.0  0.2842
  C  C367  1  0.022870  0.863900  0.581200  1.0  0.294
  C  C368  1  0.729200  0.071750  0.547410  1.0  0.3411
  C  C369  1  0.533300  0.254590  0.586520  1.0  -0.0956
  C  C370  1  0.582300  0.271370  0.567490  1.0  -0.0047
  C  C371  1  0.611600  0.258430  0.541420  1.0  -0.0592
  C  C372  1  0.590900  0.227740  0.534820  1.0  -0.0942
  C  C373  1  0.542100  0.210740  0.553860  1.0  -0.0449
  C  C374  1  0.511800  0.224470  0.579500  1.0  -0.0367
  C  C375  1  0.302600  0.381010  0.628880  1.0  -0.0294
  C  C376  1  0.302300  0.381090  0.598220  1.0  -0.1301
  C  C377  1  0.499400  0.267450  0.613610  1.0  0.2825
  C  C378  1  0.660620  0.275520  0.519960  1.0  0.2835
  C  C379  1  0.227130  0.386100  0.581200  1.0  0.2935
  C  C380  1  0.520800  0.178250  0.547410  1.0  0.3426
  C  C381  1  0.533300  0.754590  0.086520  1.0  -0.0956
  C  C382  1  0.582300  0.771370  0.067490  1.0  -0.0047
  C  C383  1  0.611600  0.758430  0.041420  1.0  -0.0592
  C  C384  1  0.590900  0.727740  0.034820  1.0  -0.0942
  C  C385  1  0.542100  0.710740  0.053860  1.0  -0.0449
  C  C386  1  0.511800  0.724470  0.079500  1.0  -0.0367
  C  C387  1  0.302600  0.881010  0.128880  1.0  -0.0294
  C  C388  1  0.302300  0.881090  0.098220  1.0  -0.1301
  C  C389  1  0.499400  0.767450  0.113610  1.0  0.2825
  C  C390  1  0.660620  0.775520  0.019960  1.0  0.2835
  C  C391  1  0.227130  0.886100  0.081200  1.0  0.2935
  C  C392  1  0.520800  0.678250  0.047410  1.0  0.3426
  C  C393  1  0.033300  0.254590  0.086520  1.0  -0.0956
  C  C394  1  0.082300  0.271370  0.067490  1.0  -0.0047
  C  C395  1  0.111600  0.258430  0.041420  1.0  -0.0592
  C  C396  1  0.090900  0.227740  0.034820  1.0  -0.0955
  C  C397  1  0.042100  0.210740  0.053860  1.0  -0.0468
  C  C398  1  0.011800  0.224470  0.079500  1.0  -0.0323
  C  C399  1  0.802600  0.381010  0.128880  1.0  -0.0294
  C  C400  1  0.802300  0.381090  0.098220  1.0  -0.1301
  C  C401  1  0.999400  0.267450  0.113610  1.0  0.2825
  C  C402  1  0.160620  0.275520  0.019960  1.0  0.2835
  C  C403  1  0.727130  0.386100  0.081200  1.0  0.2935
  C  C404  1  0.020800  0.178250  0.047410  1.0  0.3426
  C  C405  1  0.033300  0.754590  0.586520  1.0  -0.0956
  C  C406  1  0.082300  0.771370  0.567490  1.0  -0.0047
  C  C407  1  0.111600  0.758430  0.541420  1.0  -0.0592
  C  C408  1  0.090900  0.727740  0.534820  1.0  -0.0955
  C  C409  1  0.042100  0.710740  0.553860  1.0  -0.0468
  C  C410  1  0.011800  0.724470  0.579500  1.0  -0.0323
  C  C411  1  0.802600  0.881010  0.628880  1.0  -0.0294
  C  C412  1  0.802300  0.881090  0.598220  1.0  -0.1301
  C  C413  1  0.999400  0.767450  0.613610  1.0  0.2825
  C  C414  1  0.160620  0.775520  0.519960  1.0  0.2835
  C  C415  1  0.727130  0.886100  0.581200  1.0  0.2935
  C  C416  1  0.020800  0.678250  0.547410  1.0  0.3426
  C  C417  1  0.466700  0.504590  0.836520  1.0  -0.0971
  C  C418  1  0.417700  0.521370  0.817490  1.0  -0.0044
  C  C419  1  0.388400  0.508430  0.791420  1.0  -0.0592
  C  C420  1  0.409100  0.477740  0.784820  1.0  -0.0948
  C  C421  1  0.457900  0.460740  0.803860  1.0  -0.0443
  C  C422  1  0.488200  0.474470  0.829500  1.0  -0.0395
  C  C423  1  0.697400  0.631010  0.878880  1.0  -0.0298
  C  C424  1  0.697700  0.631090  0.848220  1.0  -0.1298
  C  C425  1  0.500600  0.517450  0.863610  1.0  0.282
  C  C426  1  0.339380  0.525520  0.769960  1.0  0.2844
  C  C427  1  0.772870  0.636100  0.831200  1.0  0.2934
  C  C428  1  0.479200  0.428250  0.797410  1.0  0.342
  C  C429  1  0.466700  0.004590  0.336520  1.0  -0.0971
  C  C430  1  0.417700  0.021370  0.317490  1.0  -0.0044
  C  C431  1  0.388400  0.008430  0.291420  1.0  -0.0592
  C  C432  1  0.409100  0.977740  0.284820  1.0  -0.0948
  C  C433  1  0.457900  0.960740  0.303860  1.0  -0.0443
  C  C434  1  0.488200  0.974470  0.329500  1.0  -0.0395
  C  C435  1  0.697400  0.131010  0.378880  1.0  -0.0298
  C  C436  1  0.697700  0.131090  0.348220  1.0  -0.1298
  C  C437  1  0.500600  0.017450  0.363610  1.0  0.282
  C  C438  1  0.339380  0.025520  0.269960  1.0  0.2844
  C  C439  1  0.772870  0.136100  0.331200  1.0  0.2934
  C  C440  1  0.479200  0.928250  0.297410  1.0  0.342
  C  C441  1  0.966700  0.504590  0.336520  1.0  -0.0971
  C  C442  1  0.917700  0.521370  0.317490  1.0  -0.0044
  C  C443  1  0.888400  0.508430  0.291420  1.0  -0.0592
  C  C444  1  0.909100  0.477740  0.284820  1.0  -0.0966
  C  C445  1  0.957900  0.460740  0.303860  1.0  -0.0466
  C  C446  1  0.988200  0.474470  0.329500  1.0  -0.0355
  C  C447  1  0.197400  0.631010  0.378880  1.0  -0.0298
  C  C448  1  0.197700  0.631090  0.348220  1.0  -0.1298
  C  C449  1  0.000600  0.517450  0.363610  1.0  0.282
  C  C450  1  0.839380  0.525520  0.269960  1.0  0.2844
  C  C451  1  0.272870  0.636100  0.331200  1.0  0.2934
  C  C452  1  0.979200  0.428250  0.297410  1.0  0.342
  C  C453  1  0.966700  0.004590  0.836520  1.0  -0.0971
  C  C454  1  0.917700  0.021370  0.817490  1.0  -0.0044
  C  C455  1  0.888400  0.008430  0.791420  1.0  -0.0592
  C  C456  1  0.909100  0.977740  0.784820  1.0  -0.0901
  C  C457  1  0.957900  0.960740  0.803860  1.0  -0.0439
  C  C458  1  0.988200  0.974470  0.829500  1.0  -0.0358
  C  C459  1  0.197400  0.131010  0.878880  1.0  -0.0298
  C  C460  1  0.197700  0.131090  0.848220  1.0  -0.1298
  C  C461  1  0.000600  0.017450  0.863610  1.0  0.282
  C  C462  1  0.839380  0.025520  0.769960  1.0  0.2844
  C  C463  1  0.272870  0.136100  0.831200  1.0  0.2934
  C  C464  1  0.979200  0.928250  0.797410  1.0  0.342
  C  C465  1  0.783300  0.745410  0.836520  1.0  -0.0952
  C  C466  1  0.832300  0.728630  0.817490  1.0  -0.0041
  C  C467  1  0.861600  0.741570  0.791420  1.0  -0.0596
  C  C468  1  0.840900  0.772260  0.784820  1.0  -0.0944
  C  C469  1  0.792100  0.789260  0.803860  1.0  -0.0435
  C  C470  1  0.761800  0.775530  0.829500  1.0  -0.038
  C  C471  1  0.552600  0.618990  0.878880  1.0  -0.03
  C  C472  1  0.552300  0.618910  0.848220  1.0  -0.1297
  C  C473  1  0.749400  0.732550  0.863610  1.0  0.2827
  C  C474  1  0.910620  0.724480  0.769960  1.0  0.2829
  C  C475  1  0.477130  0.613900  0.831200  1.0  0.2937
  C  C476  1  0.770800  0.821750  0.797410  1.0  0.3415
  C  C477  1  0.783300  0.245410  0.336520  1.0  -0.0952
  C  C478  1  0.832300  0.228630  0.317490  1.0  -0.0041
  C  C479  1  0.861600  0.241570  0.291420  1.0  -0.0596
  C  C480  1  0.840900  0.272260  0.284820  1.0  -0.0944
  C  C481  1  0.792100  0.289260  0.303860  1.0  -0.0435
  C  C482  1  0.761800  0.275530  0.329500  1.0  -0.038
  C  C483  1  0.552600  0.118990  0.378880  1.0  -0.03
  C  C484  1  0.552300  0.118910  0.348220  1.0  -0.1297
  C  C485  1  0.749400  0.232550  0.363610  1.0  0.2827
  C  C486  1  0.910620  0.224480  0.269960  1.0  0.2829
  C  C487  1  0.477130  0.113900  0.331200  1.0  0.2937
  C  C488  1  0.770800  0.321750  0.297410  1.0  0.3415
  C  C489  1  0.283300  0.745410  0.336520  1.0  -0.0952
  C  C490  1  0.332300  0.728630  0.317490  1.0  -0.0041
  C  C491  1  0.361600  0.741570  0.291420  1.0  -0.0596
  C  C492  1  0.340900  0.772260  0.284820  1.0  -0.0944
  C  C493  1  0.292100  0.789260  0.303860  1.0  -0.0435
  C  C494  1  0.261800  0.775530  0.329500  1.0  -0.038
  C  C495  1  0.052600  0.618990  0.378880  1.0  -0.03
  C  C496  1  0.052300  0.618910  0.348220  1.0  -0.1297
  C  C497  1  0.249400  0.732550  0.363610  1.0  0.2827
  C  C498  1  0.410620  0.724480  0.269960  1.0  0.2829
  C  C499  1  0.977130  0.613900  0.331200  1.0  0.2937
  C  C500  1  0.270800  0.821750  0.297410  1.0  0.3415
  C  C501  1  0.283300  0.245410  0.836520  1.0  -0.0952
  C  C502  1  0.332300  0.228630  0.817490  1.0  -0.0041
  C  C503  1  0.361600  0.241570  0.791420  1.0  -0.0596
  C  C504  1  0.340900  0.272260  0.784820  1.0  -0.0944
  C  C505  1  0.292100  0.289260  0.803860  1.0  -0.0435
  C  C506  1  0.261800  0.275530  0.829500  1.0  -0.038
  C  C507  1  0.052600  0.118990  0.878880  1.0  -0.03
  C  C508  1  0.052300  0.118910  0.848220  1.0  -0.1297
  C  C509  1  0.249400  0.232550  0.863610  1.0  0.2827
  C  C510  1  0.410620  0.224480  0.769960  1.0  0.2829
  C  C511  1  0.977130  0.113900  0.831200  1.0  0.2937
  C  C512  1  0.270800  0.321750  0.797410  1.0  0.3415
  C  C513  1  0.783300  0.504590  0.413480  1.0  -0.0958
  C  C514  1  0.832300  0.521370  0.432510  1.0  -0.0043
  C  C515  1  0.861600  0.508430  0.458580  1.0  -0.0591
  C  C516  1  0.840900  0.477740  0.465180  1.0  -0.0956
  C  C517  1  0.792100  0.460740  0.446140  1.0  -0.0449
  C  C518  1  0.761800  0.474470  0.420500  1.0  -0.0364
  C  C519  1  0.552600  0.631010  0.371120  1.0  -0.0301
  C  C520  1  0.552300  0.631090  0.401780  1.0  -0.1302
  C  C521  1  0.749400  0.517450  0.386390  1.0  0.2826
  C  C522  1  0.910620  0.525520  0.480040  1.0  0.2843
  C  C523  1  0.477130  0.636100  0.418800  1.0  0.2935
  C  C524  1  0.770800  0.428250  0.452590  1.0  0.3426
  C  C525  1  0.783300  0.004590  0.913480  1.0  -0.0958
  C  C526  1  0.832300  0.021370  0.932510  1.0  -0.0043
  C  C527  1  0.861600  0.008430  0.958580  1.0  -0.0591
  C  C528  1  0.840900  0.977740  0.965180  1.0  -0.0956
  C  C529  1  0.792100  0.960740  0.946140  1.0  -0.0449
  C  C530  1  0.761800  0.974470  0.920500  1.0  -0.0364
  C  C531  1  0.552600  0.131010  0.871120  1.0  -0.0301
  C  C532  1  0.552300  0.131090  0.901780  1.0  -0.1302
  C  C533  1  0.749400  0.017450  0.886390  1.0  0.2826
  C  C534  1  0.910620  0.025520  0.980040  1.0  0.2843
  C  C535  1  0.477130  0.136100  0.918800  1.0  0.2935
  C  C536  1  0.770800  0.928250  0.952590  1.0  0.3426
  C  C537  1  0.283300  0.504590  0.913480  1.0  -0.0958
  C  C538  1  0.332300  0.521370  0.932510  1.0  -0.0043
  C  C539  1  0.361600  0.508430  0.958580  1.0  -0.0591
  C  C540  1  0.340900  0.477740  0.965180  1.0  -0.0956
  C  C541  1  0.292100  0.460740  0.946140  1.0  -0.0449
  C  C542  1  0.261800  0.474470  0.920500  1.0  -0.0364
  C  C543  1  0.052600  0.631010  0.871120  1.0  -0.0301
  C  C544  1  0.052300  0.631090  0.901780  1.0  -0.1302
  C  C545  1  0.249400  0.517450  0.886390  1.0  0.2826
  C  C546  1  0.410620  0.525520  0.980040  1.0  0.2843
  C  C547  1  0.977130  0.636100  0.918800  1.0  0.2935
  C  C548  1  0.270800  0.428250  0.952590  1.0  0.3426
  C  C549  1  0.283300  0.004590  0.413480  1.0  -0.0958
  C  C550  1  0.332300  0.021370  0.432510  1.0  -0.0043
  C  C551  1  0.361600  0.008430  0.458580  1.0  -0.0591
  C  C552  1  0.340900  0.977740  0.465180  1.0  -0.0956
  C  C553  1  0.292100  0.960740  0.446140  1.0  -0.0449
  C  C554  1  0.261800  0.974470  0.420500  1.0  -0.0364
  C  C555  1  0.052600  0.131010  0.371120  1.0  -0.0301
  C  C556  1  0.052300  0.131090  0.401780  1.0  -0.1302
  C  C557  1  0.249400  0.017450  0.386390  1.0  0.2826
  C  C558  1  0.410620  0.025520  0.480040  1.0  0.2843
  C  C559  1  0.977130  0.136100  0.418800  1.0  0.2935
  C  C560  1  0.270800  0.928250  0.452590  1.0  0.3426
  C  C561  1  0.466700  0.745410  0.413480  1.0  -0.0958
  C  C562  1  0.417700  0.728630  0.432510  1.0  -0.0039
  C  C563  1  0.388400  0.741570  0.458580  1.0  -0.0586
  C  C564  1  0.409100  0.772260  0.465180  1.0  -0.0953
  C  C565  1  0.457900  0.789260  0.446140  1.0  -0.044
  C  C566  1  0.488200  0.775530  0.420500  1.0  -0.0386
  C  C567  1  0.697400  0.618990  0.371120  1.0  -0.0283
  C  C568  1  0.697700  0.618910  0.401780  1.0  -0.1292
  C  C569  1  0.500600  0.732550  0.386390  1.0  0.2821
  C  C570  1  0.339380  0.724480  0.480040  1.0  0.2846
  C  C571  1  0.772870  0.613900  0.418800  1.0  0.2941
  C  C572  1  0.479200  0.821750  0.452590  1.0  0.3415
  C  C573  1  0.466700  0.245410  0.913480  1.0  -0.0958
  C  C574  1  0.417700  0.228630  0.932510  1.0  -0.0039
  C  C575  1  0.388400  0.241570  0.958580  1.0  -0.0586
  C  C576  1  0.409100  0.272260  0.965180  1.0  -0.0953
  C  C577  1  0.457900  0.289260  0.946140  1.0  -0.044
  C  C578  1  0.488200  0.275530  0.920500  1.0  -0.0386
  C  C579  1  0.697400  0.118990  0.871120  1.0  -0.0283
  C  C580  1  0.697700  0.118910  0.901780  1.0  -0.1292
  C  C581  1  0.500600  0.232550  0.886390  1.0  0.2821
  C  C582  1  0.339380  0.224480  0.980040  1.0  0.2846
  C  C583  1  0.772870  0.113900  0.918800  1.0  0.2941
  C  C584  1  0.479200  0.321750  0.952590  1.0  0.3415
  C  C585  1  0.966700  0.745410  0.913480  1.0  -0.0958
  C  C586  1  0.917700  0.728630  0.932510  1.0  -0.0039
  C  C587  1  0.888400  0.741570  0.958580  1.0  -0.0586
  C  C588  1  0.909100  0.772260  0.965180  1.0  -0.0972
  C  C589  1  0.957900  0.789260  0.946140  1.0  -0.0462
  C  C590  1  0.988200  0.775530  0.920500  1.0  -0.0344
  C  C591  1  0.197400  0.618990  0.871120  1.0  -0.0283
  C  C592  1  0.197700  0.618910  0.901780  1.0  -0.1292
  C  C593  1  0.000600  0.732550  0.886390  1.0  0.2821
  C  C594  1  0.839380  0.724480  0.980040  1.0  0.2846
  C  C595  1  0.272870  0.613900  0.918800  1.0  0.2941
  C  C596  1  0.979200  0.821750  0.952590  1.0  0.3415
  C  C597  1  0.966700  0.245410  0.413480  1.0  -0.0958
  C  C598  1  0.917700  0.228630  0.432510  1.0  -0.0039
  C  C599  1  0.888400  0.241570  0.458580  1.0  -0.0586
  C  C600  1  0.909100  0.272260  0.465180  1.0  -0.0972
  C  C601  1  0.957900  0.289260  0.446140  1.0  -0.0462
  C  C602  1  0.988200  0.275530  0.420500  1.0  -0.0344
  C  C603  1  0.197400  0.118990  0.371120  1.0  -0.0283
  C  C604  1  0.197700  0.118910  0.401780  1.0  -0.1292
  C  C605  1  0.000600  0.232550  0.386390  1.0  0.2821
  C  C606  1  0.839380  0.224480  0.480040  1.0  0.2846
  C  C607  1  0.272870  0.113900  0.418800  1.0  0.2941
  C  C608  1  0.979200  0.321750  0.452590  1.0  0.3415
  C  C609  1  0.375000  0.375000  0.105760  1.0  -0.0563
  C  C610  1  0.375000  0.375000  0.166470  1.0  -0.0424
  C  C611  1  0.375000  0.375000  0.073420  1.0  0.3785
  C  C612  1  0.375000  0.875000  0.605760  1.0  -0.0563
  C  C613  1  0.375000  0.875000  0.666470  1.0  -0.0424
  C  C614  1  0.375000  0.875000  0.573420  1.0  0.3785
  C  C615  1  0.875000  0.375000  0.605760  1.0  -0.0563
  C  C616  1  0.875000  0.375000  0.666470  1.0  -0.0424
  C  C617  1  0.875000  0.375000  0.573420  1.0  0.3785
  C  C618  1  0.875000  0.875000  0.105760  1.0  -0.0563
  C  C619  1  0.875000  0.875000  0.166470  1.0  -0.0424
  C  C620  1  0.875000  0.875000  0.073420  1.0  0.3785
  C  C621  1  0.375000  0.375000  0.644240  1.0  -0.0557
  C  C622  1  0.375000  0.375000  0.583530  1.0  -0.0407
  C  C623  1  0.375000  0.375000  0.676580  1.0  0.3783
  C  C624  1  0.375000  0.875000  0.144240  1.0  -0.0557
  C  C625  1  0.375000  0.875000  0.083530  1.0  -0.0407
  C  C626  1  0.375000  0.875000  0.176580  1.0  0.3783
  C  C627  1  0.875000  0.375000  0.144240  1.0  -0.0557
  C  C628  1  0.875000  0.375000  0.083530  1.0  -0.0407
  C  C629  1  0.875000  0.375000  0.176580  1.0  0.3783
  C  C630  1  0.875000  0.875000  0.644240  1.0  -0.0557
  C  C631  1  0.875000  0.875000  0.583530  1.0  -0.0407
  C  C632  1  0.875000  0.875000  0.676580  1.0  0.3783
  C  C633  1  0.625000  0.625000  0.894240  1.0  -0.0557
  C  C634  1  0.625000  0.625000  0.833530  1.0  -0.0407
  C  C635  1  0.625000  0.625000  0.926580  1.0  0.3783
  C  C636  1  0.625000  0.125000  0.394240  1.0  -0.0557
  C  C637  1  0.625000  0.125000  0.333530  1.0  -0.0407
  C  C638  1  0.625000  0.125000  0.426580  1.0  0.3783
  C  C639  1  0.125000  0.625000  0.394240  1.0  -0.0557
  C  C640  1  0.125000  0.625000  0.333530  1.0  -0.0407
  C  C641  1  0.125000  0.625000  0.426580  1.0  0.3783
  C  C642  1  0.125000  0.125000  0.894240  1.0  -0.0557
  C  C643  1  0.125000  0.125000  0.833530  1.0  -0.0407
  C  C644  1  0.125000  0.125000  0.926580  1.0  0.3783
  C  C645  1  0.625000  0.625000  0.355760  1.0  -0.0563
  C  C646  1  0.625000  0.625000  0.416470  1.0  -0.0424
  C  C647  1  0.625000  0.625000  0.323420  1.0  0.3785
  C  C648  1  0.625000  0.125000  0.855760  1.0  -0.0563
  C  C649  1  0.625000  0.125000  0.916470  1.0  -0.0424
  C  C650  1  0.625000  0.125000  0.823420  1.0  0.3785
  C  C651  1  0.125000  0.625000  0.855760  1.0  -0.0563
  C  C652  1  0.125000  0.625000  0.916470  1.0  -0.0424
  C  C653  1  0.125000  0.625000  0.823420  1.0  0.3785
  C  C654  1  0.125000  0.125000  0.355760  1.0  -0.0563
  C  C655  1  0.125000  0.125000  0.416470  1.0  -0.0424
  C  C656  1  0.125000  0.125000  0.323420  1.0  0.3785
  N  N657  1  0.434700  0.494530  0.122220  1.0  -0.1616
  N  N658  1  0.527900  0.458720  0.120620  1.0  -0.2156
  N  N659  1  0.480740  0.456000  0.096710  1.0  -0.0321
  N  N660  1  0.423100  0.478120  0.097690  1.0  -0.072
  N  N661  1  0.714630  0.451630  0.225530  1.0  -0.0847
  N  N662  1  0.742500  0.442240  0.251620  1.0  -0.0044
  N  N663  1  0.705700  0.459300  0.272260  1.0  -0.082
  N  N664  1  0.655100  0.479230  0.258920  1.0  -0.1294
  N  N665  1  0.525100  0.618530  0.218470  1.0  -0.0597
  N  N666  1  0.456900  0.615070  0.203130  1.0  -0.0895
  N  N667  1  0.452900  0.586030  0.192460  1.0  -0.2867
  N  N668  1  0.398600  0.387400  0.028720  1.0  -0.04
  N  N669  1  0.415000  0.395740  0.056760  1.0  -0.292
  N  N670  1  0.218300  0.372300  0.196790  1.0  -0.1387
  N  N671  1  0.143790  0.363210  0.205740  1.0  -0.0953
  N  N672  1  0.106570  0.349190  0.183260  1.0  -0.0806
  N  N673  1  0.158060  0.349610  0.160440  1.0  -0.2589
  N  N674  1  0.567600  0.591270  0.218740  1.0  -0.3512
  N  N675  1  0.434700  0.994530  0.622220  1.0  -0.1616
  N  N676  1  0.527900  0.958720  0.620620  1.0  -0.2156
  N  N677  1  0.480740  0.956000  0.596710  1.0  -0.0321
  N  N678  1  0.423100  0.978120  0.597690  1.0  -0.072
  N  N679  1  0.714630  0.951630  0.725530  1.0  -0.0847
  N  N680  1  0.742500  0.942240  0.751620  1.0  -0.0044
  N  N681  1  0.705700  0.959300  0.772260  1.0  -0.082
  N  N682  1  0.655100  0.979230  0.758920  1.0  -0.1294
  N  N683  1  0.525100  0.118530  0.718470  1.0  -0.0597
  N  N684  1  0.456900  0.115070  0.703130  1.0  -0.0895
  N  N685  1  0.452900  0.086030  0.692460  1.0  -0.2895
  N  N686  1  0.398600  0.887400  0.528720  1.0  -0.04
  N  N687  1  0.415000  0.895740  0.556760  1.0  -0.292
  N  N688  1  0.218300  0.872300  0.696790  1.0  -0.1387
  N  N689  1  0.143790  0.863210  0.705740  1.0  -0.0953
  N  N690  1  0.106570  0.849190  0.683260  1.0  -0.0806
  N  N691  1  0.158060  0.849610  0.660440  1.0  -0.2589
  N  N692  1  0.567600  0.091270  0.718740  1.0  -0.3512
  N  N693  1  0.934700  0.494530  0.622220  1.0  -0.1616
  N  N694  1  0.027900  0.458720  0.620620  1.0  -0.2156
  N  N695  1  0.980740  0.456000  0.596710  1.0  -0.0321
  N  N696  1  0.923100  0.478120  0.597690  1.0  -0.072
  N  N697  1  0.214630  0.451630  0.725530  1.0  -0.0847
  N  N698  1  0.242500  0.442240  0.751620  1.0  -0.0044
  N  N699  1  0.205700  0.459300  0.772260  1.0  -0.082
  N  N700  1  0.155100  0.479230  0.758920  1.0  -0.1293
  N  N701  1  0.025100  0.618530  0.718470  1.0  -0.0597
  N  N702  1  0.956900  0.615070  0.703130  1.0  -0.0895
  N  N703  1  0.952900  0.586030  0.692460  1.0  -0.2867
  N  N704  1  0.898600  0.387400  0.528720  1.0  -0.04
  N  N705  1  0.915000  0.395740  0.556760  1.0  -0.292
  N  N706  1  0.718300  0.372300  0.696790  1.0  -0.1387
  N  N707  1  0.643790  0.363210  0.705740  1.0  -0.0953
  N  N708  1  0.606570  0.349190  0.683260  1.0  -0.0806
  N  N709  1  0.658060  0.349610  0.660440  1.0  -0.2589
  N  N710  1  0.067600  0.591270  0.718740  1.0  -0.3512
  N  N711  1  0.934700  0.994530  0.122220  1.0  -0.1616
  N  N712  1  0.027900  0.958720  0.120620  1.0  -0.2156
  N  N713  1  0.980740  0.956000  0.096710  1.0  -0.0321
  N  N714  1  0.923100  0.978120  0.097690  1.0  -0.072
  N  N715  1  0.214630  0.951630  0.225530  1.0  -0.0847
  N  N716  1  0.242500  0.942240  0.251620  1.0  -0.0044
  N  N717  1  0.205700  0.959300  0.272260  1.0  -0.082
  N  N718  1  0.155100  0.979230  0.258920  1.0  -0.1305
  N  N719  1  0.025100  0.118530  0.218470  1.0  -0.0597
  N  N720  1  0.956900  0.115070  0.203130  1.0  -0.0895
  N  N721  1  0.952900  0.086030  0.192460  1.0  -0.2867
  N  N722  1  0.898600  0.887400  0.028720  1.0  -0.04
  N  N723  1  0.915000  0.895740  0.056760  1.0  -0.292
  N  N724  1  0.718300  0.872300  0.196790  1.0  -0.1387
  N  N725  1  0.643790  0.863210  0.205740  1.0  -0.0953
  N  N726  1  0.606570  0.849190  0.183260  1.0  -0.0806
  N  N727  1  0.658060  0.849610  0.160440  1.0  -0.2589
  N  N728  1  0.067600  0.091270  0.218740  1.0  -0.3512
  N  N729  1  0.315300  0.255470  0.122220  1.0  -0.1675
  N  N730  1  0.222100  0.291280  0.120620  1.0  -0.2194
  N  N731  1  0.269260  0.294000  0.096710  1.0  -0.0315
  N  N732  1  0.326900  0.271880  0.097690  1.0  -0.0767
  N  N733  1  0.035370  0.298370  0.225530  1.0  -0.0852
  N  N734  1  0.007500  0.307760  0.251620  1.0  -0.0053
  N  N735  1  0.044300  0.290700  0.272260  1.0  -0.0811
  N  N736  1  0.094900  0.270770  0.258920  1.0  -0.1288
  N  N737  1  0.224900  0.131470  0.218470  1.0  -0.0608
  N  N738  1  0.293100  0.134930  0.203130  1.0  -0.0915
  N  N739  1  0.297100  0.163970  0.192460  1.0  -0.2903
  N  N740  1  0.351400  0.362600  0.028720  1.0  -0.0402
  N  N741  1  0.335000  0.354260  0.056760  1.0  -0.2912
  N  N742  1  0.531700  0.377700  0.196790  1.0  -0.1435
  N  N743  1  0.606210  0.386790  0.205740  1.0  -0.0957
  N  N744  1  0.643430  0.400810  0.183260  1.0  -0.083
  N  N745  1  0.591940  0.400390  0.160440  1.0  -0.2599
  N  N746  1  0.182400  0.158730  0.218740  1.0  -0.3534
  N  N747  1  0.315300  0.755470  0.622220  1.0  -0.1675
  N  N748  1  0.222100  0.791280  0.620620  1.0  -0.2194
  N  N749  1  0.269260  0.794000  0.596710  1.0  -0.0315
  N  N750  1  0.326900  0.771880  0.597690  1.0  -0.0767
  N  N751  1  0.035370  0.798370  0.725530  1.0  -0.0852
  N  N752  1  0.007500  0.807760  0.751620  1.0  -0.0053
  N  N753  1  0.044300  0.790700  0.772260  1.0  -0.0811
  N  N754  1  0.094900  0.770770  0.758920  1.0  -0.1288
  N  N755  1  0.224900  0.631470  0.718470  1.0  -0.0608
  N  N756  1  0.293100  0.634930  0.703130  1.0  -0.0915
  N  N757  1  0.297100  0.663970  0.692460  1.0  -0.2903
  N  N758  1  0.351400  0.862600  0.528720  1.0  -0.0402
  N  N759  1  0.335000  0.854260  0.556760  1.0  -0.2912
  N  N760  1  0.531700  0.877700  0.696790  1.0  -0.1435
  N  N761  1  0.606210  0.886790  0.705740  1.0  -0.0957
  N  N762  1  0.643430  0.900810  0.683260  1.0  -0.083
  N  N763  1  0.591940  0.900390  0.660440  1.0  -0.2599
  N  N764  1  0.182400  0.658730  0.718740  1.0  -0.3534
  N  N765  1  0.815300  0.255470  0.622220  1.0  -0.1682
  N  N766  1  0.722100  0.291280  0.620620  1.0  -0.2194
  N  N767  1  0.769260  0.294000  0.596710  1.0  -0.0315
  N  N768  1  0.826900  0.271880  0.597690  1.0  -0.0761
  N  N769  1  0.535370  0.298370  0.725530  1.0  -0.0852
  N  N770  1  0.507500  0.307760  0.751620  1.0  -0.0053
  N  N771  1  0.544300  0.290700  0.772260  1.0  -0.0811
  N  N772  1  0.594900  0.270770  0.758920  1.0  -0.1288
  N  N773  1  0.724900  0.131470  0.718470  1.0  -0.0608
  N  N774  1  0.793100  0.134930  0.703130  1.0  -0.0915
  N  N775  1  0.797100  0.163970  0.692460  1.0  -0.2933
  N  N776  1  0.851400  0.362600  0.528720  1.0  -0.0402
  N  N777  1  0.835000  0.354260  0.556760  1.0  -0.2912
  N  N778  1  0.031700  0.377700  0.696790  1.0  -0.1435
  N  N779  1  0.106210  0.386790  0.705740  1.0  -0.0957
  N  N780  1  0.143430  0.400810  0.683260  1.0  -0.083
  N  N781  1  0.091940  0.400390  0.660440  1.0  -0.2599
  N  N782  1  0.682400  0.158730  0.718740  1.0  -0.3534
  N  N783  1  0.815300  0.755470  0.122220  1.0  -0.1689
  N  N784  1  0.722100  0.791280  0.120620  1.0  -0.2194
  N  N785  1  0.769260  0.794000  0.096710  1.0  -0.0315
  N  N786  1  0.826900  0.771880  0.097690  1.0  -0.0778
  N  N787  1  0.535370  0.798370  0.225530  1.0  -0.0852
  N  N788  1  0.507500  0.807760  0.251620  1.0  -0.0053
  N  N789  1  0.544300  0.790700  0.272260  1.0  -0.0811
  N  N790  1  0.594900  0.770770  0.258920  1.0  -0.1288
  N  N791  1  0.724900  0.631470  0.218470  1.0  -0.0608
  N  N792  1  0.793100  0.634930  0.203130  1.0  -0.0915
  N  N793  1  0.797100  0.663970  0.192460  1.0  -0.2939
  N  N794  1  0.851400  0.862600  0.028720  1.0  -0.0402
  N  N795  1  0.835000  0.854260  0.056760  1.0  -0.2912
  N  N796  1  0.031700  0.877700  0.196790  1.0  -0.1435
  N  N797  1  0.106210  0.886790  0.205740  1.0  -0.0957
  N  N798  1  0.143430  0.900810  0.183260  1.0  -0.083
  N  N799  1  0.091940  0.900390  0.160440  1.0  -0.2599
  N  N800  1  0.682400  0.658730  0.218740  1.0  -0.3534
  N  N801  1  0.315300  0.494530  0.627780  1.0  -0.1669
  N  N802  1  0.222100  0.458720  0.629380  1.0  -0.2195
  N  N803  1  0.269260  0.456000  0.653290  1.0  -0.0324
  N  N804  1  0.326900  0.478120  0.652310  1.0  -0.0786
  N  N805  1  0.035370  0.451630  0.524470  1.0  -0.0852
  N  N806  1  0.007500  0.442240  0.498380  1.0  -0.005
  N  N807  1  0.044300  0.459300  0.477740  1.0  -0.0773
  N  N808  1  0.094900  0.479230  0.491080  1.0  -0.1284
  N  N809  1  0.224900  0.618530  0.531530  1.0  -0.0611
  N  N810  1  0.293100  0.615070  0.546870  1.0  -0.093
  N  N811  1  0.297100  0.586030  0.557540  1.0  -0.2891
  N  N812  1  0.351400  0.387400  0.721280  1.0  -0.0393
  N  N813  1  0.335000  0.395740  0.693240  1.0  -0.291
  N  N814  1  0.531700  0.372300  0.553210  1.0  -0.1417
  N  N815  1  0.606210  0.363210  0.544260  1.0  -0.0913
  N  N816  1  0.643430  0.349190  0.566740  1.0  -0.0845
  N  N817  1  0.591940  0.349610  0.589560  1.0  -0.2574
  N  N818  1  0.182400  0.591270  0.531260  1.0  -0.3533
  N  N819  1  0.315300  0.994530  0.127780  1.0  -0.1669
  N  N820  1  0.222100  0.958720  0.129380  1.0  -0.2195
  N  N821  1  0.269260  0.956000  0.153290  1.0  -0.0324
  N  N822  1  0.326900  0.978120  0.152310  1.0  -0.0786
  N  N823  1  0.035370  0.951630  0.024470  1.0  -0.0852
  N  N824  1  0.007500  0.942240  0.998380  1.0  -0.005
  N  N825  1  0.044300  0.959300  0.977740  1.0  -0.0773
  N  N826  1  0.094900  0.979230  0.991080  1.0  -0.1284
  N  N827  1  0.224900  0.118530  0.031530  1.0  -0.0611
  N  N828  1  0.293100  0.115070  0.046870  1.0  -0.093
  N  N829  1  0.297100  0.086030  0.057540  1.0  -0.2891
  N  N830  1  0.351400  0.887400  0.221280  1.0  -0.0393
  N  N831  1  0.335000  0.895740  0.193240  1.0  -0.291
  N  N832  1  0.531700  0.872300  0.053210  1.0  -0.1417
  N  N833  1  0.606210  0.863210  0.044260  1.0  -0.0913
  N  N834  1  0.643430  0.849190  0.066740  1.0  -0.0845
  N  N835  1  0.591940  0.849610  0.089560  1.0  -0.2574
  N  N836  1  0.182400  0.091270  0.031260  1.0  -0.3533
  N  N837  1  0.815300  0.494530  0.127780  1.0  -0.1679
  N  N838  1  0.722100  0.458720  0.129380  1.0  -0.2195
  N  N839  1  0.769260  0.456000  0.153290  1.0  -0.0324
  N  N840  1  0.826900  0.478120  0.152310  1.0  -0.0781
  N  N841  1  0.535370  0.451630  0.024470  1.0  -0.0852
  N  N842  1  0.507500  0.442240  0.998380  1.0  -0.005
  N  N843  1  0.544300  0.459300  0.977740  1.0  -0.0773
  N  N844  1  0.594900  0.479230  0.991080  1.0  -0.1284
  N  N845  1  0.724900  0.618530  0.031530  1.0  -0.0611
  N  N846  1  0.793100  0.615070  0.046870  1.0  -0.093
  N  N847  1  0.797100  0.586030  0.057540  1.0  -0.2886
  N  N848  1  0.851400  0.387400  0.221280  1.0  -0.0393
  N  N849  1  0.835000  0.395740  0.193240  1.0  -0.291
  N  N850  1  0.031700  0.372300  0.053210  1.0  -0.1417
  N  N851  1  0.106210  0.363210  0.044260  1.0  -0.0913
  N  N852  1  0.143430  0.349190  0.066740  1.0  -0.0845
  N  N853  1  0.091940  0.349610  0.089560  1.0  -0.2574
  N  N854  1  0.682400  0.591270  0.031260  1.0  -0.3533
  N  N855  1  0.815300  0.994530  0.627780  1.0  -0.169
  N  N856  1  0.722100  0.958720  0.629380  1.0  -0.2195
  N  N857  1  0.769260  0.956000  0.653290  1.0  -0.0324
  N  N858  1  0.826900  0.978120  0.652310  1.0  -0.0794
  N  N859  1  0.535370  0.951630  0.524470  1.0  -0.0852
  N  N860  1  0.507500  0.942240  0.498380  1.0  -0.005
  N  N861  1  0.544300  0.959300  0.477740  1.0  -0.0773
  N  N862  1  0.594900  0.979230  0.491080  1.0  -0.1273
  N  N863  1  0.724900  0.118530  0.531530  1.0  -0.0611
  N  N864  1  0.793100  0.115070  0.546870  1.0  -0.093
  N  N865  1  0.797100  0.086030  0.557540  1.0  -0.291
  N  N866  1  0.851400  0.887400  0.721280  1.0  -0.0393
  N  N867  1  0.835000  0.895740  0.693240  1.0  -0.291
  N  N868  1  0.031700  0.872300  0.553210  1.0  -0.1417
  N  N869  1  0.106210  0.863210  0.544260  1.0  -0.0913
  N  N870  1  0.143430  0.849190  0.566740  1.0  -0.0845
  N  N871  1  0.091940  0.849610  0.589560  1.0  -0.2574
  N  N872  1  0.682400  0.091270  0.531260  1.0  -0.3533
  N  N873  1  0.434700  0.255470  0.627780  1.0  -0.162
  N  N874  1  0.527900  0.291280  0.629380  1.0  -0.2149
  N  N875  1  0.480740  0.294000  0.653290  1.0  -0.0321
  N  N876  1  0.423100  0.271880  0.652310  1.0  -0.0724
  N  N877  1  0.714630  0.298370  0.524470  1.0  -0.0839
  N  N878  1  0.742500  0.307760  0.498380  1.0  -0.0049
  N  N879  1  0.705700  0.290700  0.477740  1.0  -0.0786
  N  N880  1  0.655100  0.270770  0.491080  1.0  -0.1295
  N  N881  1  0.525100  0.131470  0.531530  1.0  -0.0577
  N  N882  1  0.456900  0.134930  0.546870  1.0  -0.089
  N  N883  1  0.452900  0.163970  0.557540  1.0  -0.2875
  N  N884  1  0.398600  0.362600  0.721280  1.0  -0.0388
  N  N885  1  0.415000  0.354260  0.693240  1.0  -0.2914
  N  N886  1  0.218300  0.377700  0.553210  1.0  -0.1389
  N  N887  1  0.143790  0.386790  0.544260  1.0  -0.0913
  N  N888  1  0.106570  0.400810  0.566740  1.0  -0.082
  N  N889  1  0.158060  0.400390  0.589560  1.0  -0.2587
  N  N890  1  0.567600  0.158730  0.531260  1.0  -0.3514
  N  N891  1  0.434700  0.755470  0.127780  1.0  -0.162
  N  N892  1  0.527900  0.791280  0.129380  1.0  -0.2149
  N  N893  1  0.480740  0.794000  0.153290  1.0  -0.0321
  N  N894  1  0.423100  0.771880  0.152310  1.0  -0.0724
  N  N895  1  0.714630  0.798370  0.024470  1.0  -0.0839
  N  N896  1  0.742500  0.807760  0.998380  1.0  -0.0049
  N  N897  1  0.705700  0.790700  0.977740  1.0  -0.0786
  N  N898  1  0.655100  0.770770  0.991080  1.0  -0.1295
  N  N899  1  0.525100  0.631470  0.031530  1.0  -0.0577
  N  N900  1  0.456900  0.634930  0.046870  1.0  -0.0925
  N  N901  1  0.452900  0.663970  0.057540  1.0  -0.2975
  N  N902  1  0.398600  0.862600  0.221280  1.0  -0.0388
  N  N903  1  0.415000  0.854260  0.193240  1.0  -0.2914
  N  N904  1  0.218300  0.877700  0.053210  1.0  -0.1389
  N  N905  1  0.143790  0.886790  0.044260  1.0  -0.0913
  N  N906  1  0.106570  0.900810  0.066740  1.0  -0.082
  N  N907  1  0.158060  0.900390  0.089560  1.0  -0.2587
  N  N908  1  0.567600  0.658730  0.031260  1.0  -0.3514
  N  N909  1  0.934700  0.255470  0.127780  1.0  -0.162
  N  N910  1  0.027900  0.291280  0.129380  1.0  -0.2149
  N  N911  1  0.980740  0.294000  0.153290  1.0  -0.0321
  N  N912  1  0.923100  0.271880  0.152310  1.0  -0.0724
  N  N913  1  0.214630  0.298370  0.024470  1.0  -0.0839
  N  N914  1  0.242500  0.307760  0.998380  1.0  -0.0049
  N  N915  1  0.205700  0.290700  0.977740  1.0  -0.0786
  N  N916  1  0.155100  0.270770  0.991080  1.0  -0.1326
  N  N917  1  0.025100  0.131470  0.031530  1.0  -0.0577
  N  N918  1  0.956900  0.134930  0.046870  1.0  -0.089
  N  N919  1  0.952900  0.163970  0.057540  1.0  -0.2875
  N  N920  1  0.898600  0.362600  0.221280  1.0  -0.0388
  N  N921  1  0.915000  0.354260  0.193240  1.0  -0.2914
  N  N922  1  0.718300  0.377700  0.053210  1.0  -0.1389
  N  N923  1  0.643790  0.386790  0.044260  1.0  -0.0913
  N  N924  1  0.606570  0.400810  0.066740  1.0  -0.082
  N  N925  1  0.658060  0.400390  0.089560  1.0  -0.2587
  N  N926  1  0.067600  0.158730  0.031260  1.0  -0.3514
  N  N927  1  0.934700  0.755470  0.627780  1.0  -0.162
  N  N928  1  0.027900  0.791280  0.629380  1.0  -0.2149
  N  N929  1  0.980740  0.794000  0.653290  1.0  -0.0321
  N  N930  1  0.923100  0.771880  0.652310  1.0  -0.0724
  N  N931  1  0.214630  0.798370  0.524470  1.0  -0.0839
  N  N932  1  0.242500  0.807760  0.498380  1.0  -0.0049
  N  N933  1  0.205700  0.790700  0.477740  1.0  -0.0786
  N  N934  1  0.155100  0.770770  0.491080  1.0  -0.1286
  N  N935  1  0.025100  0.631470  0.531530  1.0  -0.0577
  N  N936  1  0.956900  0.634930  0.546870  1.0  -0.089
  N  N937  1  0.952900  0.663970  0.557540  1.0  -0.2875
  N  N938  1  0.898600  0.862600  0.721280  1.0  -0.0388
  N  N939  1  0.915000  0.854260  0.693240  1.0  -0.2914
  N  N940  1  0.718300  0.877700  0.553210  1.0  -0.1389
  N  N941  1  0.643790  0.886790  0.544260  1.0  -0.0913
  N  N942  1  0.606570  0.900810  0.566740  1.0  -0.082
  N  N943  1  0.658060  0.900390  0.589560  1.0  -0.2587
  N  N944  1  0.067600  0.658730  0.531260  1.0  -0.3514
  N  N945  1  0.565300  0.505470  0.877780  1.0  -0.1672
  N  N946  1  0.472100  0.541280  0.879380  1.0  -0.2191
  N  N947  1  0.519260  0.544000  0.903290  1.0  -0.0324
  N  N948  1  0.576900  0.521880  0.902310  1.0  -0.0774
  N  N949  1  0.285370  0.548370  0.774470  1.0  -0.0848
  N  N950  1  0.257500  0.557760  0.748380  1.0  -0.0047
  N  N951  1  0.294300  0.540700  0.727740  1.0  -0.0768
  N  N952  1  0.344900  0.520770  0.741080  1.0  -0.1295
  N  N953  1  0.474900  0.381470  0.781530  1.0  -0.0595
  N  N954  1  0.543100  0.384930  0.796870  1.0  -0.0923
  N  N955  1  0.547100  0.413970  0.807540  1.0  -0.2905
  N  N956  1  0.601400  0.612600  0.971280  1.0  -0.039
  N  N957  1  0.585000  0.604260  0.943240  1.0  -0.291
  N  N958  1  0.781700  0.627700  0.803210  1.0  -0.1406
  N  N959  1  0.856210  0.636790  0.794260  1.0  -0.0904
  N  N960  1  0.893430  0.650810  0.816740  1.0  -0.0846
  N  N961  1  0.841940  0.650390  0.839560  1.0  -0.2587
  N  N962  1  0.432400  0.408730  0.781260  1.0  -0.3533
  N  N963  1  0.565300  0.005470  0.377780  1.0  -0.1672
  N  N964  1  0.472100  0.041280  0.379380  1.0  -0.2191
  N  N965  1  0.519260  0.044000  0.403290  1.0  -0.0324
  N  N966  1  0.576900  0.021880  0.402310  1.0  -0.0774
  N  N967  1  0.285370  0.048370  0.274470  1.0  -0.0848
  N  N968  1  0.257500  0.057760  0.248380  1.0  -0.0047
  N  N969  1  0.294300  0.040700  0.227740  1.0  -0.0768
  N  N970  1  0.344900  0.020770  0.241080  1.0  -0.1295
  N  N971  1  0.474900  0.881470  0.281530  1.0  -0.0595
  N  N972  1  0.543100  0.884930  0.296870  1.0  -0.0923
  N  N973  1  0.547100  0.913970  0.307540  1.0  -0.2926
  N  N974  1  0.601400  0.112600  0.471280  1.0  -0.039
  N  N975  1  0.585000  0.104260  0.443240  1.0  -0.291
  N  N976  1  0.781700  0.127700  0.303210  1.0  -0.1406
  N  N977  1  0.856210  0.136790  0.294260  1.0  -0.0904
  N  N978  1  0.893430  0.150810  0.316740  1.0  -0.0846
  N  N979  1  0.841940  0.150390  0.339560  1.0  -0.2587
  N  N980  1  0.432400  0.908730  0.281260  1.0  -0.3533
  N  N981  1  0.065300  0.505470  0.377780  1.0  -0.1672
  N  N982  1  0.972100  0.541280  0.379380  1.0  -0.2191
  N  N983  1  0.019260  0.544000  0.403290  1.0  -0.0324
  N  N984  1  0.076900  0.521880  0.402310  1.0  -0.0774
  N  N985  1  0.785370  0.548370  0.274470  1.0  -0.0848
  N  N986  1  0.757500  0.557760  0.248380  1.0  -0.0047
  N  N987  1  0.794300  0.540700  0.227740  1.0  -0.0768
  N  N988  1  0.844900  0.520770  0.241080  1.0  -0.1284
  N  N989  1  0.974900  0.381470  0.281530  1.0  -0.0595
  N  N990  1  0.043100  0.384930  0.296870  1.0  -0.0923
  N  N991  1  0.047100  0.413970  0.307540  1.0  -0.2905
  N  N992  1  0.101400  0.612600  0.471280  1.0  -0.039
  N  N993  1  0.085000  0.604260  0.443240  1.0  -0.291
  N  N994  1  0.281700  0.627700  0.303210  1.0  -0.1406
  N  N995  1  0.356210  0.636790  0.294260  1.0  -0.0904
  N  N996  1  0.393430  0.650810  0.316740  1.0  -0.0846
  N  N997  1  0.341940  0.650390  0.339560  1.0  -0.2587
  N  N998  1  0.932400  0.408730  0.281260  1.0  -0.3533
  N  N999  1  0.065300  0.005470  0.877780  1.0  -0.1672
  N  N1000  1  0.972100  0.041280  0.879380  1.0  -0.2191
  N  N1001  1  0.019260  0.044000  0.903290  1.0  -0.0324
  N  N1002  1  0.076900  0.021880  0.902310  1.0  -0.0774
  N  N1003  1  0.785370  0.048370  0.774470  1.0  -0.0848
  N  N1004  1  0.757500  0.057760  0.748380  1.0  -0.0047
  N  N1005  1  0.794300  0.040700  0.727740  1.0  -0.0768
  N  N1006  1  0.844900  0.020770  0.741080  1.0  -0.1305
  N  N1007  1  0.974900  0.881470  0.781530  1.0  -0.0595
  N  N1008  1  0.043100  0.884930  0.796870  1.0  -0.0923
  N  N1009  1  0.047100  0.913970  0.807540  1.0  -0.2905
  N  N1010  1  0.101400  0.112600  0.971280  1.0  -0.039
  N  N1011  1  0.085000  0.104260  0.943240  1.0  -0.291
  N  N1012  1  0.281700  0.127700  0.803210  1.0  -0.1406
  N  N1013  1  0.356210  0.136790  0.794260  1.0  -0.0904
  N  N1014  1  0.393430  0.150810  0.816740  1.0  -0.0846
  N  N1015  1  0.341940  0.150390  0.839560  1.0  -0.2587
  N  N1016  1  0.932400  0.908730  0.781260  1.0  -0.3533
  N  N1017  1  0.684700  0.744530  0.877780  1.0  -0.1606
  N  N1018  1  0.777900  0.708720  0.879380  1.0  -0.2155
  N  N1019  1  0.730740  0.706000  0.903290  1.0  -0.0326
  N  N1020  1  0.673100  0.728120  0.902310  1.0  -0.0731
  N  N1021  1  0.964630  0.701630  0.774470  1.0  -0.0844
  N  N1022  1  0.992500  0.692240  0.748380  1.0  -0.0051
  N  N1023  1  0.955700  0.709300  0.727740  1.0  -0.079
  N  N1024  1  0.905100  0.729230  0.741080  1.0  -0.1286
  N  N1025  1  0.775100  0.868530  0.781530  1.0  -0.0601
  N  N1026  1  0.706900  0.865070  0.796870  1.0  -0.0903
  N  N1027  1  0.702900  0.836030  0.807540  1.0  -0.2872
  N  N1028  1  0.648600  0.637400  0.971280  1.0  -0.0392
  N  N1029  1  0.665000  0.645740  0.943240  1.0  -0.292
  N  N1030  1  0.468300  0.622300  0.803210  1.0  -0.1403
  N  N1031  1  0.393790  0.613210  0.794260  1.0  -0.0921
  N  N1032  1  0.356570  0.599190  0.816740  1.0  -0.0812
  N  N1033  1  0.408060  0.599610  0.839560  1.0  -0.2567
  N  N1034  1  0.817600  0.841270  0.781260  1.0  -0.3512
  N  N1035  1  0.684700  0.244530  0.377780  1.0  -0.1606
  N  N1036  1  0.777900  0.208720  0.379380  1.0  -0.2155
  N  N1037  1  0.730740  0.206000  0.403290  1.0  -0.0326
  N  N1038  1  0.673100  0.228120  0.402310  1.0  -0.0731
  N  N1039  1  0.964630  0.201630  0.274470  1.0  -0.0844
  N  N1040  1  0.992500  0.192240  0.248380  1.0  -0.0051
  N  N1041  1  0.955700  0.209300  0.227740  1.0  -0.079
  N  N1042  1  0.905100  0.229230  0.241080  1.0  -0.1286
  N  N1043  1  0.775100  0.368530  0.281530  1.0  -0.0601
  N  N1044  1  0.706900  0.365070  0.296870  1.0  -0.0903
  N  N1045  1  0.702900  0.336030  0.307540  1.0  -0.2872
  N  N1046  1  0.648600  0.137400  0.471280  1.0  -0.0392
  N  N1047  1  0.665000  0.145740  0.443240  1.0  -0.292
  N  N1048  1  0.468300  0.122300  0.303210  1.0  -0.1403
  N  N1049  1  0.393790  0.113210  0.294260  1.0  -0.0921
  N  N1050  1  0.356570  0.099190  0.316740  1.0  -0.0812
  N  N1051  1  0.408060  0.099610  0.339560  1.0  -0.2567
  N  N1052  1  0.817600  0.341270  0.281260  1.0  -0.3512
  N  N1053  1  0.184700  0.744530  0.377780  1.0  -0.1615
  N  N1054  1  0.277900  0.708720  0.379380  1.0  -0.2155
  N  N1055  1  0.230740  0.706000  0.403290  1.0  -0.0326
  N  N1056  1  0.173100  0.728120  0.402310  1.0  -0.0725
  N  N1057  1  0.464630  0.701630  0.274470  1.0  -0.0844
  N  N1058  1  0.492500  0.692240  0.248380  1.0  -0.0051
  N  N1059  1  0.455700  0.709300  0.227740  1.0  -0.079
  N  N1060  1  0.405100  0.729230  0.241080  1.0  -0.1286
  N  N1061  1  0.275100  0.868530  0.281530  1.0  -0.0601
  N  N1062  1  0.206900  0.865070  0.296870  1.0  -0.0903
  N  N1063  1  0.202900  0.836030  0.307540  1.0  -0.2911
  N  N1064  1  0.148600  0.637400  0.471280  1.0  -0.0392
  N  N1065  1  0.165000  0.645740  0.443240  1.0  -0.292
  N  N1066  1  0.968300  0.622300  0.303210  1.0  -0.1403
  N  N1067  1  0.893790  0.613210  0.294260  1.0  -0.0921
  N  N1068  1  0.856570  0.599190  0.316740  1.0  -0.0812
  N  N1069  1  0.908060  0.599610  0.339560  1.0  -0.2567
  N  N1070  1  0.317600  0.841270  0.281260  1.0  -0.3512
  N  N1071  1  0.184700  0.244530  0.877780  1.0  -0.163
  N  N1072  1  0.277900  0.208720  0.879380  1.0  -0.2155
  N  N1073  1  0.230740  0.206000  0.903290  1.0  -0.0326
  N  N1074  1  0.173100  0.228120  0.902310  1.0  -0.0744
  N  N1075  1  0.464630  0.201630  0.774470  1.0  -0.0844
  N  N1076  1  0.492500  0.192240  0.748380  1.0  -0.0051
  N  N1077  1  0.455700  0.209300  0.727740  1.0  -0.079
  N  N1078  1  0.405100  0.229230  0.741080  1.0  -0.1286
  N  N1079  1  0.275100  0.368530  0.781530  1.0  -0.0601
  N  N1080  1  0.206900  0.365070  0.796870  1.0  -0.0903
  N  N1081  1  0.202900  0.336030  0.807540  1.0  -0.2928
  N  N1082  1  0.148600  0.137400  0.971280  1.0  -0.0392
  N  N1083  1  0.165000  0.145740  0.943240  1.0  -0.292
  N  N1084  1  0.968300  0.122300  0.803210  1.0  -0.1403
  N  N1085  1  0.893790  0.113210  0.794260  1.0  -0.0921
  N  N1086  1  0.856570  0.099190  0.816740  1.0  -0.0812
  N  N1087  1  0.908060  0.099610  0.839560  1.0  -0.2567
  N  N1088  1  0.317600  0.341270  0.781260  1.0  -0.3512
  N  N1089  1  0.684700  0.505470  0.372220  1.0  -0.1632
  N  N1090  1  0.777900  0.541280  0.370620  1.0  -0.215
  N  N1091  1  0.730740  0.544000  0.346710  1.0  -0.032
  N  N1092  1  0.673100  0.521880  0.347690  1.0  -0.072
  N  N1093  1  0.964630  0.548370  0.475530  1.0  -0.0846
  N  N1094  1  0.992500  0.557760  0.501620  1.0  -0.0051
  N  N1095  1  0.955700  0.540700  0.522260  1.0  -0.0823
  N  N1096  1  0.905100  0.520770  0.508920  1.0  -0.1286
  N  N1097  1  0.775100  0.381470  0.468470  1.0  -0.0577
  N  N1098  1  0.706900  0.384930  0.453130  1.0  -0.09
  N  N1099  1  0.702900  0.413970  0.442460  1.0  -0.2864
  N  N1100  1  0.648600  0.612600  0.278720  1.0  -0.0399
  N  N1101  1  0.665000  0.604260  0.306760  1.0  -0.2917
  N  N1102  1  0.468300  0.627700  0.446790  1.0  -0.1398
  N  N1103  1  0.393790  0.636790  0.455740  1.0  -0.097
  N  N1104  1  0.356570  0.650810  0.433260  1.0  -0.081
  N  N1105  1  0.408060  0.650390  0.410440  1.0  -0.2604
  N  N1106  1  0.817600  0.408730  0.468740  1.0  -0.3511
  N  N1107  1  0.684700  0.005470  0.872220  1.0  -0.1632
  N  N1108  1  0.777900  0.041280  0.870620  1.0  -0.215
  N  N1109  1  0.730740  0.044000  0.846710  1.0  -0.032
  N  N1110  1  0.673100  0.021880  0.847690  1.0  -0.072
  N  N1111  1  0.964630  0.048370  0.975530  1.0  -0.0846
  N  N1112  1  0.992500  0.057760  0.001620  1.0  -0.0051
  N  N1113  1  0.955700  0.040700  0.022260  1.0  -0.0823
  N  N1114  1  0.905100  0.020770  0.008920  1.0  -0.1286
  N  N1115  1  0.775100  0.881470  0.968470  1.0  -0.0577
  N  N1116  1  0.706900  0.884930  0.953130  1.0  -0.09
  N  N1117  1  0.702900  0.913970  0.942460  1.0  -0.2864
  N  N1118  1  0.648600  0.112600  0.778720  1.0  -0.0399
  N  N1119  1  0.665000  0.104260  0.806760  1.0  -0.2917
  N  N1120  1  0.468300  0.127700  0.946790  1.0  -0.1398
  N  N1121  1  0.393790  0.136790  0.955740  1.0  -0.097
  N  N1122  1  0.356570  0.150810  0.933260  1.0  -0.081
  N  N1123  1  0.408060  0.150390  0.910440  1.0  -0.2604
  N  N1124  1  0.817600  0.908730  0.968740  1.0  -0.3511
  N  N1125  1  0.184700  0.505470  0.872220  1.0  -0.1637
  N  N1126  1  0.277900  0.541280  0.870620  1.0  -0.215
  N  N1127  1  0.230740  0.544000  0.846710  1.0  -0.032
  N  N1128  1  0.173100  0.521880  0.847690  1.0  -0.0712
  N  N1129  1  0.464630  0.548370  0.975530  1.0  -0.0846
  N  N1130  1  0.492500  0.557760  0.001620  1.0  -0.0051
  N  N1131  1  0.455700  0.540700  0.022260  1.0  -0.0823
  N  N1132  1  0.405100  0.520770  0.008920  1.0  -0.1286
  N  N1133  1  0.275100  0.381470  0.968470  1.0  -0.0577
  N  N1134  1  0.206900  0.384930  0.953130  1.0  -0.0897
  N  N1135  1  0.202900  0.413970  0.942460  1.0  -0.2869
  N  N1136  1  0.148600  0.612600  0.778720  1.0  -0.0399
  N  N1137  1  0.165000  0.604260  0.806760  1.0  -0.2917
  N  N1138  1  0.968300  0.627700  0.946790  1.0  -0.1398
  N  N1139  1  0.893790  0.636790  0.955740  1.0  -0.097
  N  N1140  1  0.856570  0.650810  0.933260  1.0  -0.081
  N  N1141  1  0.908060  0.650390  0.910440  1.0  -0.2604
  N  N1142  1  0.317600  0.408730  0.968740  1.0  -0.3511
  N  N1143  1  0.184700  0.005470  0.372220  1.0  -0.1651
  N  N1144  1  0.277900  0.041280  0.370620  1.0  -0.215
  N  N1145  1  0.230740  0.044000  0.346710  1.0  -0.032
  N  N1146  1  0.173100  0.021880  0.347690  1.0  -0.0734
  N  N1147  1  0.464630  0.048370  0.475530  1.0  -0.0846
  N  N1148  1  0.492500  0.057760  0.501620  1.0  -0.0051
  N  N1149  1  0.455700  0.040700  0.522260  1.0  -0.0823
  N  N1150  1  0.405100  0.020770  0.508920  1.0  -0.1283
  N  N1151  1  0.275100  0.881470  0.468470  1.0  -0.0577
  N  N1152  1  0.206900  0.884930  0.453130  1.0  -0.09
  N  N1153  1  0.202900  0.913970  0.442460  1.0  -0.2892
  N  N1154  1  0.148600  0.112600  0.278720  1.0  -0.0399
  N  N1155  1  0.165000  0.104260  0.306760  1.0  -0.2917
  N  N1156  1  0.968300  0.127700  0.446790  1.0  -0.1398
  N  N1157  1  0.893790  0.136790  0.455740  1.0  -0.097
  N  N1158  1  0.856570  0.150810  0.433260  1.0  -0.081
  N  N1159  1  0.908060  0.150390  0.410440  1.0  -0.2604
  N  N1160  1  0.317600  0.908730  0.468740  1.0  -0.3511
  N  N1161  1  0.565300  0.744530  0.372220  1.0  -0.1676
  N  N1162  1  0.472100  0.708720  0.370620  1.0  -0.2198
  N  N1163  1  0.519260  0.706000  0.346710  1.0  -0.0316
  N  N1164  1  0.576900  0.728120  0.347690  1.0  -0.077
  N  N1165  1  0.285370  0.701630  0.475530  1.0  -0.0854
  N  N1166  1  0.257500  0.692240  0.501620  1.0  -0.005
  N  N1167  1  0.294300  0.709300  0.522260  1.0  -0.0817
  N  N1168  1  0.344900  0.729230  0.508920  1.0  -0.1289
  N  N1169  1  0.474900  0.868530  0.468470  1.0  -0.0619
  N  N1170  1  0.543100  0.865070  0.453130  1.0  -0.0926
  N  N1171  1  0.547100  0.836030  0.442460  1.0  -0.2894
  N  N1172  1  0.601400  0.637400  0.278720  1.0  -0.04
  N  N1173  1  0.585000  0.645740  0.306760  1.0  -0.2909
  N  N1174  1  0.781700  0.622300  0.446790  1.0  -0.1425
  N  N1175  1  0.856210  0.613210  0.455740  1.0  -0.0941
  N  N1176  1  0.893430  0.599190  0.433260  1.0  -0.0837
  N  N1177  1  0.841940  0.599610  0.410440  1.0  -0.2596
  N  N1178  1  0.432400  0.841270  0.468740  1.0  -0.3535
  N  N1179  1  0.565300  0.244530  0.872220  1.0  -0.1676
  N  N1180  1  0.472100  0.208720  0.870620  1.0  -0.2198
  N  N1181  1  0.519260  0.206000  0.846710  1.0  -0.0316
  N  N1182  1  0.576900  0.228120  0.847690  1.0  -0.077
  N  N1183  1  0.285370  0.201630  0.975530  1.0  -0.0854
  N  N1184  1  0.257500  0.192240  0.001620  1.0  -0.005
  N  N1185  1  0.294300  0.209300  0.022260  1.0  -0.0817
  N  N1186  1  0.344900  0.229230  0.008920  1.0  -0.1289
  N  N1187  1  0.474900  0.368530  0.968470  1.0  -0.0619
  N  N1188  1  0.543100  0.365070  0.953130  1.0  -0.0958
  N  N1189  1  0.547100  0.336030  0.942460  1.0  -0.2983
  N  N1190  1  0.601400  0.137400  0.778720  1.0  -0.04
  N  N1191  1  0.585000  0.145740  0.806760  1.0  -0.2909
  N  N1192  1  0.781700  0.122300  0.946790  1.0  -0.1425
  N  N1193  1  0.856210  0.113210  0.955740  1.0  -0.0941
  N  N1194  1  0.893430  0.099190  0.933260  1.0  -0.0837
  N  N1195  1  0.841940  0.099610  0.910440  1.0  -0.2596
  N  N1196  1  0.432400  0.341270  0.968740  1.0  -0.3535
  N  N1197  1  0.065300  0.744530  0.872220  1.0  -0.1676
  N  N1198  1  0.972100  0.708720  0.870620  1.0  -0.2198
  N  N1199  1  0.019260  0.706000  0.846710  1.0  -0.0316
  N  N1200  1  0.076900  0.728120  0.847690  1.0  -0.077
  N  N1201  1  0.785370  0.701630  0.975530  1.0  -0.0854
  N  N1202  1  0.757500  0.692240  0.001620  1.0  -0.005
  N  N1203  1  0.794300  0.709300  0.022260  1.0  -0.0817
  N  N1204  1  0.844900  0.729230  0.008920  1.0  -0.133
  N  N1205  1  0.974900  0.868530  0.968470  1.0  -0.0619
  N  N1206  1  0.043100  0.865070  0.953130  1.0  -0.0926
  N  N1207  1  0.047100  0.836030  0.942460  1.0  -0.2894
  N  N1208  1  0.101400  0.637400  0.778720  1.0  -0.04
  N  N1209  1  0.085000  0.645740  0.806760  1.0  -0.2909
  N  N1210  1  0.281700  0.622300  0.946790  1.0  -0.1425
  N  N1211  1  0.356210  0.613210  0.955740  1.0  -0.0941
  N  N1212  1  0.393430  0.599190  0.933260  1.0  -0.0837
  N  N1213  1  0.341940  0.599610  0.910440  1.0  -0.2596
  N  N1214  1  0.932400  0.841270  0.968740  1.0  -0.3535
  N  N1215  1  0.065300  0.244530  0.372220  1.0  -0.1676
  N  N1216  1  0.972100  0.208720  0.370620  1.0  -0.2198
  N  N1217  1  0.019260  0.206000  0.346710  1.0  -0.0316
  N  N1218  1  0.076900  0.228120  0.347690  1.0  -0.077
  N  N1219  1  0.785370  0.201630  0.475530  1.0  -0.0854
  N  N1220  1  0.757500  0.192240  0.501620  1.0  -0.005
  N  N1221  1  0.794300  0.209300  0.522260  1.0  -0.0817
  N  N1222  1  0.844900  0.229230  0.508920  1.0  -0.1286
  N  N1223  1  0.974900  0.368530  0.468470  1.0  -0.0619
  N  N1224  1  0.043100  0.365070  0.453130  1.0  -0.0926
  N  N1225  1  0.047100  0.336030  0.442460  1.0  -0.2894
  N  N1226  1  0.101400  0.137400  0.278720  1.0  -0.04
  N  N1227  1  0.085000  0.145740  0.306760  1.0  -0.2909
  N  N1228  1  0.281700  0.122300  0.446790  1.0  -0.1425
  N  N1229  1  0.356210  0.113210  0.455740  1.0  -0.0941
  N  N1230  1  0.393430  0.099190  0.433260  1.0  -0.0837
  N  N1231  1  0.341940  0.099610  0.410440  1.0  -0.2596
  N  N1232  1  0.932400  0.341270  0.468740  1.0  -0.3535
