# generated using pymatgen
data_Co3H32C54(NO3)4
_symmetry_space_group_name_H-M   'P 1'
_cell_length_a   38.01200000
_cell_length_b   38.01200000
_cell_length_c   29.60300000
_cell_angle_alpha   90.00000000
_cell_angle_beta   90.00000000
_cell_angle_gamma   120.00000000
_symmetry_Int_Tables_number   1
_chemical_formula_structural   Co3H32C54(NO3)4
_chemical_formula_sum   'Co54 H576 C972 N72 O216'
_cell_volume   37043.14043091
_cell_formula_units_Z   18
loop_
 _symmetry_equiv_pos_site_id
 _symmetry_equiv_pos_as_xyz
  1  'x, y, z'
loop_
 _atom_site_type_symbol
 _atom_site_label
 _atom_site_symmetry_multiplicity
 _atom_site_fract_x
 _atom_site_fract_y
 _atom_site_fract_z
 _atom_site_occupancy
 _atom_site_charge
  Co  Co1  1  0.233290  0.107420  0.952550  1.0  0.9677
  Co  Co2  1  0.899950  0.440750  0.285890  1.0  0.9672
  Co  Co3  1  0.566620  0.774080  0.619220  1.0  0.9678
  Co  Co4  1  0.892580  0.125870  0.952550  1.0  0.9682
  Co  Co5  1  0.559250  0.459200  0.285890  1.0  0.9682
  Co  Co6  1  0.225920  0.792540  0.619220  1.0  0.9679
  Co  Co7  1  0.874130  0.766710  0.952550  1.0  0.9669
  Co  Co8  1  0.540800  0.100050  0.285890  1.0  0.9667
  Co  Co9  1  0.207460  0.433380  0.619220  1.0  0.9669
  Co  Co10  1  0.107420  0.233290  0.547450  1.0  0.9679
  Co  Co11  1  0.774080  0.566620  0.880780  1.0  0.968
  Co  Co12  1  0.440750  0.899950  0.214110  1.0  0.9675
  Co  Co13  1  0.125870  0.892580  0.547450  1.0  0.9685
  Co  Co14  1  0.792540  0.225920  0.880780  1.0  0.9682
  Co  Co15  1  0.459200  0.559250  0.214110  1.0  0.9685
  Co  Co16  1  0.766710  0.874130  0.547450  1.0  0.9705
  Co  Co17  1  0.433380  0.207460  0.880780  1.0  0.9705
  Co  Co18  1  0.100050  0.540800  0.214110  1.0  0.9702
  Co  Co19  1  0.333333  0.149910  0.916670  1.0  1.1319
  Co  Co20  1  0.000000  0.483240  0.250000  1.0  1.123
  Co  Co21  1  0.850090  0.183430  0.916670  1.0  1.1324
  Co  Co22  1  0.516760  0.516760  0.250000  1.0  1.1336
  Co  Co23  1  0.816570  0.666667  0.916670  1.0  1.1289
  Co  Co24  1  0.483240  0.000000  0.250000  1.0  1.1225
  Co  Co25  1  0.149910  0.333333  0.583330  1.0  1.1318
  Co  Co26  1  0.183430  0.850090  0.583330  1.0  1.1332
  Co  Co27  1  0.666667  0.816570  0.583330  1.0  1.1309
  Co  Co28  1  0.766710  0.892580  0.047450  1.0  0.9681
  Co  Co29  1  0.433380  0.225920  0.380780  1.0  0.9682
  Co  Co30  1  0.100050  0.559250  0.714110  1.0  0.9677
  Co  Co31  1  0.107420  0.874130  0.047450  1.0  0.9701
  Co  Co32  1  0.774080  0.207460  0.380780  1.0  0.9698
  Co  Co33  1  0.440750  0.540800  0.714110  1.0  0.9701
  Co  Co34  1  0.125870  0.233290  0.047450  1.0  0.969
  Co  Co35  1  0.792540  0.566620  0.380780  1.0  0.969
  Co  Co36  1  0.459200  0.899950  0.714110  1.0  0.9689
  Co  Co37  1  0.892580  0.766710  0.452550  1.0  0.9678
  Co  Co38  1  0.559250  0.100050  0.785890  1.0  0.9674
  Co  Co39  1  0.225920  0.433380  0.119220  1.0  0.9679
  Co  Co40  1  0.874130  0.107420  0.452550  1.0  0.9669
  Co  Co41  1  0.540800  0.440750  0.785890  1.0  0.9669
  Co  Co42  1  0.207460  0.774080  0.119220  1.0  0.9666
  Co  Co43  1  0.233290  0.125870  0.452550  1.0  0.9688
  Co  Co44  1  0.899950  0.459200  0.785890  1.0  0.9685
  Co  Co45  1  0.566620  0.792540  0.119220  1.0  0.9688
  Co  Co46  1  0.666667  0.850090  0.083330  1.0  1.1318
  Co  Co47  1  0.333333  0.183430  0.416670  1.0  1.1288
  Co  Co48  1  0.149910  0.816570  0.083330  1.0  1.1281
  Co  Co49  1  0.483240  0.483240  0.750000  1.0  1.1285
  Co  Co50  1  0.183430  0.333333  0.083330  1.0  1.1332
  Co  Co51  1  0.850090  0.666667  0.416670  1.0  1.1342
  Co  Co52  1  0.516760  0.000000  0.750000  1.0  1.1253
  Co  Co53  1  0.816570  0.149910  0.416670  1.0  1.1273
  Co  Co54  1  0.000000  0.516760  0.750000  1.0  1.1224
  H  H55  1  0.402100  0.146300  0.076900  1.0  0.1139
  H  H56  1  0.360200  0.151600  0.024000  1.0  0.0972
  H  H57  1  0.090400  0.989200  0.948000  1.0  0.1243
  H  H58  1  0.096200  0.097300  0.942800  1.0  0.1279
  H  H59  1  0.474000  0.139700  0.191000  1.0  0.1162
  H  H60  1  0.165300  0.127400  0.948200  1.0  0.0842
  H  H61  1  0.397200  0.019600  0.190800  1.0  0.1042
  H  H62  1  0.264600  0.052100  0.075600  1.0  0.1142
  H  H63  1  0.380300  0.271100  0.094100  1.0  0.1124
  H  H64  1  0.353300  0.028600  0.145200  1.0  0.1123
  H  H65  1  0.306800  0.046500  0.127400  1.0  0.1099
  H  H66  1  0.430700  0.148500  0.144300  1.0  0.1225
  H  H67  1  0.159700  0.022700  0.952300  1.0  0.0854
  H  H68  1  0.364400  0.225400  0.034600  1.0  0.1098
  H  H69  1  0.465600  0.358400  0.018200  1.0  0.1122
  H  H70  1  0.451000  0.312600  0.960400  1.0  0.1101
  H  H71  1  0.068770  0.479630  0.410230  1.0  0.1139
  H  H72  1  0.026870  0.484930  0.357330  1.0  0.0972
  H  H73  1  0.757070  0.322530  0.281330  1.0  0.1243
  H  H74  1  0.762870  0.430630  0.276130  1.0  0.1279
  H  H75  1  0.140670  0.473030  0.524330  1.0  0.1161
  H  H76  1  0.831970  0.460730  0.281530  1.0  0.0843
  H  H77  1  0.063870  0.352930  0.524130  1.0  0.1042
  H  H78  1  0.931270  0.385430  0.408930  1.0  0.1142
  H  H79  1  0.046970  0.604430  0.427430  1.0  0.1124
  H  H80  1  0.019970  0.361930  0.478530  1.0  0.1123
  H  H81  1  0.973470  0.379830  0.460730  1.0  0.1099
  H  H82  1  0.097370  0.481830  0.477630  1.0  0.1225
  H  H83  1  0.826370  0.356030  0.285630  1.0  0.0854
  H  H84  1  0.031070  0.558730  0.367930  1.0  0.1098
  H  H85  1  0.132270  0.691730  0.351530  1.0  0.1122
  H  H86  1  0.117670  0.645930  0.293730  1.0  0.1101
  H  H87  1  0.735430  0.812970  0.743570  1.0  0.1139
  H  H88  1  0.693530  0.818270  0.690670  1.0  0.0971
  H  H89  1  0.423730  0.655870  0.614670  1.0  0.1243
  H  H90  1  0.429530  0.763970  0.609470  1.0  0.1279
  H  H91  1  0.807330  0.806370  0.857670  1.0  0.1161
  H  H92  1  0.498630  0.794070  0.614870  1.0  0.0842
  H  H93  1  0.730530  0.686270  0.857470  1.0  0.1031
  H  H94  1  0.597930  0.718770  0.742270  1.0  0.1142
  H  H95  1  0.713630  0.937770  0.760770  1.0  0.1124
  H  H96  1  0.686630  0.695270  0.811870  1.0  0.1123
  H  H97  1  0.640130  0.713170  0.794070  1.0  0.1099
  H  H98  1  0.764030  0.815170  0.810970  1.0  0.1225
  H  H99  1  0.493030  0.689370  0.618970  1.0  0.0853
  H  H100  1  0.697730  0.892070  0.701270  1.0  0.1098
  H  H101  1  0.798930  0.025070  0.684870  1.0  0.1123
  H  H102  1  0.784330  0.979270  0.627070  1.0  0.1101
  H  H103  1  0.853700  0.255800  0.076900  1.0  0.1107
  H  H104  1  0.848400  0.208600  0.024000  1.0  0.097
  H  H105  1  0.010800  0.101200  0.948000  1.0  0.1258
  H  H106  1  0.902700  0.998900  0.942800  1.0  0.1264
  H  H107  1  0.860300  0.334300  0.191000  1.0  0.1153
  H  H108  1  0.872600  0.037900  0.948200  1.0  0.0849
  H  H109  1  0.980400  0.377600  0.190800  1.0  0.1037
  H  H110  1  0.947900  0.212500  0.075600  1.0  0.1144
  H  H111  1  0.728900  0.109200  0.094100  1.0  0.1125
  H  H112  1  0.971400  0.324700  0.145200  1.0  0.113
  H  H113  1  0.953500  0.260300  0.127400  1.0  0.1088
  H  H114  1  0.851500  0.282200  0.144300  1.0  0.1241
  H  H115  1  0.977300  0.137000  0.952300  1.0  0.0861
  H  H116  1  0.774600  0.139000  0.034600  1.0  0.1115
  H  H117  1  0.641600  0.107200  0.018200  1.0  0.1139
  H  H118  1  0.687400  0.138400  0.960400  1.0  0.1102
  H  H119  1  0.520370  0.589130  0.410230  1.0  0.1107
  H  H120  1  0.515070  0.541930  0.357330  1.0  0.097
  H  H121  1  0.677470  0.434530  0.281330  1.0  0.1258
  H  H122  1  0.569370  0.332230  0.276130  1.0  0.1264
  H  H123  1  0.526970  0.667630  0.524330  1.0  0.1153
  H  H124  1  0.539270  0.371230  0.281530  1.0  0.0848
  H  H125  1  0.647070  0.710930  0.524130  1.0  0.1037
  H  H126  1  0.614570  0.545830  0.408930  1.0  0.1144
  H  H127  1  0.395570  0.442530  0.427430  1.0  0.1125
  H  H128  1  0.638070  0.658030  0.478530  1.0  0.113
  H  H129  1  0.620170  0.593630  0.460730  1.0  0.1088
  H  H130  1  0.518170  0.615530  0.477630  1.0  0.1241
  H  H131  1  0.643970  0.470330  0.285630  1.0  0.0861
  H  H132  1  0.441270  0.472330  0.367930  1.0  0.1115
  H  H133  1  0.308270  0.440530  0.351530  1.0  0.1139
  H  H134  1  0.354070  0.471730  0.293730  1.0  0.1102
  H  H135  1  0.187030  0.922470  0.743570  1.0  0.1107
  H  H136  1  0.181730  0.875270  0.690670  1.0  0.097
  H  H137  1  0.344130  0.767870  0.614670  1.0  0.1258
  H  H138  1  0.236030  0.665570  0.609470  1.0  0.1264
  H  H139  1  0.193630  0.000970  0.857670  1.0  0.1153
  H  H140  1  0.205930  0.704570  0.614870  1.0  0.0849
  H  H141  1  0.313730  0.044270  0.857470  1.0  0.1047
  H  H142  1  0.281230  0.879170  0.742270  1.0  0.1143
  H  H143  1  0.062230  0.775870  0.760770  1.0  0.1126
  H  H144  1  0.304730  0.991370  0.811870  1.0  0.113
  H  H145  1  0.286830  0.926970  0.794070  1.0  0.1088
  H  H146  1  0.184830  0.948870  0.810970  1.0  0.1241
  H  H147  1  0.310630  0.803670  0.618970  1.0  0.0861
  H  H148  1  0.107930  0.805670  0.701270  1.0  0.1114
  H  H149  1  0.974930  0.773870  0.684870  1.0  0.1139
  H  H150  1  0.020730  0.805070  0.627070  1.0  0.1102
  H  H151  1  0.744200  0.597900  0.076900  1.0  0.1151
  H  H152  1  0.791400  0.639800  0.024000  1.0  0.0974
  H  H153  1  0.898800  0.909600  0.948000  1.0  0.1243
  H  H154  1  0.001100  0.903800  0.942800  1.0  0.1266
  H  H155  1  0.665700  0.526000  0.191000  1.0  0.1154
  H  H156  1  0.962100  0.834700  0.948200  1.0  0.0839
  H  H157  1  0.622400  0.602800  0.190800  1.0  0.1043
  H  H158  1  0.787500  0.735400  0.075600  1.0  0.1145
  H  H159  1  0.890800  0.619700  0.094100  1.0  0.1125
  H  H160  1  0.675300  0.646700  0.145200  1.0  0.1128
  H  H161  1  0.739700  0.693200  0.127400  1.0  0.1096
  H  H162  1  0.717800  0.569300  0.144300  1.0  0.1231
  H  H163  1  0.863000  0.840300  0.952300  1.0  0.0861
  H  H164  1  0.861000  0.635600  0.034600  1.0  0.1107
  H  H165  1  0.892800  0.534400  0.018200  1.0  0.1129
  H  H166  1  0.861600  0.549000  0.960400  1.0  0.1097
  H  H167  1  0.410870  0.931230  0.410230  1.0  0.1151
  H  H168  1  0.458070  0.973130  0.357330  1.0  0.0974
  H  H169  1  0.565470  0.242930  0.281330  1.0  0.1243
  H  H170  1  0.667770  0.237130  0.276130  1.0  0.1265
  H  H171  1  0.332370  0.859330  0.524330  1.0  0.1154
  H  H172  1  0.628770  0.168030  0.281530  1.0  0.0839
  H  H173  1  0.289070  0.936130  0.524130  1.0  0.1043
  H  H174  1  0.454170  0.068730  0.408930  1.0  0.1145
  H  H175  1  0.557470  0.953030  0.427430  1.0  0.1125
  H  H176  1  0.341970  0.980030  0.478530  1.0  0.1128
  H  H177  1  0.406370  0.026530  0.460730  1.0  0.1096
  H  H178  1  0.384470  0.902630  0.477630  1.0  0.1231
  H  H179  1  0.529670  0.173630  0.285630  1.0  0.0861
  H  H180  1  0.527670  0.968930  0.367930  1.0  0.1107
  H  H181  1  0.559470  0.867730  0.351530  1.0  0.1128
  H  H182  1  0.528270  0.882330  0.293730  1.0  0.1097
  H  H183  1  0.077530  0.264570  0.743570  1.0  0.1151
  H  H184  1  0.124730  0.306470  0.690670  1.0  0.0975
  H  H185  1  0.232130  0.576270  0.614670  1.0  0.1243
  H  H186  1  0.334430  0.570470  0.609470  1.0  0.1266
  H  H187  1  0.999030  0.192670  0.857670  1.0  0.1154
  H  H188  1  0.295430  0.501370  0.614870  1.0  0.0839
  H  H189  1  0.955730  0.269470  0.857470  1.0  0.1034
  H  H190  1  0.120830  0.402070  0.742270  1.0  0.1145
  H  H191  1  0.224130  0.286370  0.760770  1.0  0.1125
  H  H192  1  0.008630  0.313370  0.811870  1.0  0.1128
  H  H193  1  0.073030  0.359870  0.794070  1.0  0.1096
  H  H194  1  0.051130  0.235970  0.810970  1.0  0.1231
  H  H195  1  0.196330  0.506970  0.618970  1.0  0.0861
  H  H196  1  0.194330  0.302270  0.701270  1.0  0.1107
  H  H197  1  0.226130  0.201070  0.684870  1.0  0.1129
  H  H198  1  0.194930  0.215670  0.627070  1.0  0.1097
  H  H199  1  0.146300  0.402100  0.423100  1.0  0.1135
  H  H200  1  0.151600  0.360200  0.476000  1.0  0.0974
  H  H201  1  0.989200  0.090400  0.552000  1.0  0.1247
  H  H202  1  0.097300  0.096200  0.557200  1.0  0.1266
  H  H203  1  0.139700  0.474000  0.309000  1.0  0.1157
  H  H204  1  0.127400  0.165300  0.551800  1.0  0.0836
  H  H205  1  0.019600  0.397200  0.309200  1.0  0.1042
  H  H206  1  0.052100  0.264600  0.424400  1.0  0.1146
  H  H207  1  0.271100  0.380300  0.405900  1.0  0.1129
  H  H208  1  0.028600  0.353300  0.354800  1.0  0.1111
  H  H209  1  0.046500  0.306800  0.372600  1.0  0.1096
  H  H210  1  0.148500  0.430700  0.355700  1.0  0.1226
  H  H211  1  0.022700  0.159700  0.547700  1.0  0.0861
  H  H212  1  0.225400  0.364400  0.465400  1.0  0.11
  H  H213  1  0.358400  0.465600  0.481800  1.0  0.1123
  H  H214  1  0.312600  0.451000  0.539600  1.0  0.1099
  H  H215  1  0.812970  0.735430  0.756430  1.0  0.1135
  H  H216  1  0.818270  0.693530  0.809330  1.0  0.0974
  H  H217  1  0.655870  0.423730  0.885330  1.0  0.1247
  H  H218  1  0.763970  0.429530  0.890530  1.0  0.127
  H  H219  1  0.806370  0.807330  0.642330  1.0  0.1157
  H  H220  1  0.794070  0.498630  0.885130  1.0  0.0836
  H  H221  1  0.686270  0.730530  0.642530  1.0  0.1032
  H  H222  1  0.718770  0.597930  0.757730  1.0  0.1147
  H  H223  1  0.937770  0.713630  0.739230  1.0  0.1129
  H  H224  1  0.695270  0.686630  0.688130  1.0  0.1111
  H  H225  1  0.713170  0.640130  0.705930  1.0  0.1096
  H  H226  1  0.815170  0.764030  0.689030  1.0  0.1226
  H  H227  1  0.689370  0.493030  0.881030  1.0  0.086
  H  H228  1  0.892070  0.697730  0.798730  1.0  0.1101
  H  H229  1  0.025070  0.798930  0.815130  1.0  0.1124
  H  H230  1  0.979270  0.784330  0.872930  1.0  0.1099
  H  H231  1  0.479630  0.068770  0.089770  1.0  0.1135
  H  H232  1  0.484930  0.026870  0.142670  1.0  0.0974
  H  H233  1  0.322530  0.757070  0.218670  1.0  0.1247
  H  H234  1  0.430630  0.762870  0.223870  1.0  0.1266
  H  H235  1  0.473030  0.140670  0.975670  1.0  0.1157
  H  H236  1  0.460730  0.831970  0.218470  1.0  0.0837
  H  H237  1  0.352930  0.063870  0.975870  1.0  0.1042
  H  H238  1  0.385430  0.931270  0.091070  1.0  0.1146
  H  H239  1  0.604430  0.046970  0.072570  1.0  0.1129
  H  H240  1  0.361930  0.019970  0.021470  1.0  0.1111
  H  H241  1  0.379830  0.973470  0.039270  1.0  0.1096
  H  H242  1  0.481830  0.097370  0.022370  1.0  0.1226
  H  H243  1  0.356030  0.826370  0.214370  1.0  0.0861
  H  H244  1  0.558730  0.031070  0.132070  1.0  0.11
  H  H245  1  0.691730  0.132270  0.148470  1.0  0.1123
  H  H246  1  0.645930  0.117670  0.206270  1.0  0.11
  H  H247  1  0.255800  0.853700  0.423100  1.0  0.1138
  H  H248  1  0.208600  0.848400  0.476000  1.0  0.0972
  H  H249  1  0.101200  0.010800  0.552000  1.0  0.1225
  H  H250  1  0.998900  0.902700  0.557200  1.0  0.1275
  H  H251  1  0.334300  0.860300  0.309000  1.0  0.1161
  H  H252  1  0.037900  0.872600  0.551800  1.0  0.0834
  H  H253  1  0.377600  0.980400  0.309200  1.0  0.1034
  H  H254  1  0.212500  0.947900  0.424400  1.0  0.1145
  H  H255  1  0.109200  0.728900  0.405900  1.0  0.1124
  H  H256  1  0.324700  0.971400  0.354800  1.0  0.1124
  H  H257  1  0.260300  0.953500  0.372600  1.0  0.1099
  H  H258  1  0.282200  0.851500  0.355700  1.0  0.1211
  H  H259  1  0.137000  0.977300  0.547700  1.0  0.0861
  H  H260  1  0.139000  0.774600  0.465400  1.0  0.1102
  H  H261  1  0.107200  0.641600  0.481800  1.0  0.1122
  H  H262  1  0.138400  0.687400  0.539600  1.0  0.11
  H  H263  1  0.922470  0.187030  0.756430  1.0  0.1138
  H  H264  1  0.875270  0.181730  0.809330  1.0  0.0972
  H  H265  1  0.767870  0.344130  0.885330  1.0  0.1225
  H  H266  1  0.665570  0.236030  0.890530  1.0  0.1279
  H  H267  1  0.000970  0.193630  0.642330  1.0  0.1161
  H  H268  1  0.704570  0.205930  0.885130  1.0  0.0834
  H  H269  1  0.044270  0.313730  0.642530  1.0  0.1045
  H  H270  1  0.879170  0.281230  0.757730  1.0  0.1145
  H  H271  1  0.775870  0.062230  0.739230  1.0  0.1124
  H  H272  1  0.991370  0.304730  0.688130  1.0  0.1124
  H  H273  1  0.926970  0.286830  0.705930  1.0  0.1099
  H  H274  1  0.948870  0.184830  0.689030  1.0  0.1211
  H  H275  1  0.803670  0.310630  0.881030  1.0  0.0861
  H  H276  1  0.805670  0.107930  0.798730  1.0  0.1101
  H  H277  1  0.773870  0.974930  0.815130  1.0  0.1122
  H  H278  1  0.805070  0.020730  0.872930  1.0  0.11
  H  H279  1  0.589130  0.520370  0.089770  1.0  0.1138
  H  H280  1  0.541930  0.515070  0.142670  1.0  0.0972
  H  H281  1  0.434530  0.677470  0.218670  1.0  0.1225
  H  H282  1  0.332230  0.569370  0.223870  1.0  0.1275
  H  H283  1  0.667630  0.526970  0.975670  1.0  0.1158
  H  H284  1  0.371230  0.539270  0.218470  1.0  0.0834
  H  H285  1  0.710930  0.647070  0.975870  1.0  0.1034
  H  H286  1  0.545830  0.614570  0.091070  1.0  0.1145
  H  H287  1  0.442530  0.395570  0.072570  1.0  0.1124
  H  H288  1  0.658030  0.638070  0.021470  1.0  0.1124
  H  H289  1  0.593630  0.620170  0.039270  1.0  0.1099
  H  H290  1  0.615530  0.518170  0.022370  1.0  0.1211
  H  H291  1  0.470330  0.643970  0.214370  1.0  0.0861
  H  H292  1  0.472330  0.441270  0.132070  1.0  0.1102
  H  H293  1  0.440530  0.308270  0.148470  1.0  0.1121
  H  H294  1  0.471730  0.354070  0.206270  1.0  0.11
  H  H295  1  0.597900  0.744200  0.423100  1.0  0.1112
  H  H296  1  0.639800  0.791400  0.476000  1.0  0.0972
  H  H297  1  0.909600  0.898800  0.552000  1.0  0.1258
  H  H298  1  0.903800  0.001100  0.557200  1.0  0.127
  H  H299  1  0.526000  0.665700  0.309000  1.0  0.1153
  H  H300  1  0.834700  0.962100  0.551800  1.0  0.0844
  H  H301  1  0.602800  0.622400  0.309200  1.0  0.1056
  H  H302  1  0.735400  0.787500  0.424400  1.0  0.1148
  H  H303  1  0.619700  0.890800  0.405900  1.0  0.1131
  H  H304  1  0.646700  0.675300  0.354800  1.0  0.1124
  H  H305  1  0.693200  0.739700  0.372600  1.0  0.1091
  H  H306  1  0.569300  0.717800  0.355700  1.0  0.1238
  H  H307  1  0.840300  0.863000  0.547700  1.0  0.0854
  H  H308  1  0.635600  0.861000  0.465400  1.0  0.1112
  H  H309  1  0.534400  0.892800  0.481800  1.0  0.1133
  H  H310  1  0.549000  0.861600  0.539600  1.0  0.1105
  H  H311  1  0.264570  0.077530  0.756430  1.0  0.1112
  H  H312  1  0.306470  0.124730  0.809330  1.0  0.0973
  H  H313  1  0.576270  0.232130  0.885330  1.0  0.1258
  H  H314  1  0.570470  0.334430  0.890530  1.0  0.1273
  H  H315  1  0.192670  0.999030  0.642330  1.0  0.1153
  H  H316  1  0.501370  0.295430  0.885130  1.0  0.0844
  H  H317  1  0.269470  0.955730  0.642530  1.0  0.1045
  H  H318  1  0.402070  0.120830  0.757730  1.0  0.1148
  H  H319  1  0.286370  0.224130  0.739230  1.0  0.1131
  H  H320  1  0.313370  0.008630  0.688130  1.0  0.1124
  H  H321  1  0.359870  0.073030  0.705930  1.0  0.1091
  H  H322  1  0.235970  0.051130  0.689030  1.0  0.1238
  H  H323  1  0.506970  0.196330  0.881030  1.0  0.0854
  H  H324  1  0.302270  0.194330  0.798730  1.0  0.1112
  H  H325  1  0.201070  0.226130  0.815130  1.0  0.1133
  H  H326  1  0.215670  0.194930  0.872930  1.0  0.1105
  H  H327  1  0.931230  0.410870  0.089770  1.0  0.1112
  H  H328  1  0.973130  0.458070  0.142670  1.0  0.0972
  H  H329  1  0.242930  0.565470  0.218670  1.0  0.1258
  H  H330  1  0.237130  0.667770  0.223870  1.0  0.127
  H  H331  1  0.859330  0.332370  0.975670  1.0  0.1153
  H  H332  1  0.168030  0.628770  0.218470  1.0  0.0845
  H  H333  1  0.936130  0.289070  0.975870  1.0  0.1056
  H  H334  1  0.068730  0.454170  0.091070  1.0  0.1148
  H  H335  1  0.953030  0.557470  0.072570  1.0  0.1131
  H  H336  1  0.980030  0.341970  0.021470  1.0  0.1124
  H  H337  1  0.026530  0.406370  0.039270  1.0  0.1091
  H  H338  1  0.902630  0.384470  0.022370  1.0  0.1238
  H  H339  1  0.173630  0.529670  0.214370  1.0  0.0854
  H  H340  1  0.968930  0.527670  0.132070  1.0  0.1112
  H  H341  1  0.867730  0.559470  0.148470  1.0  0.1132
  H  H342  1  0.882330  0.528270  0.206270  1.0  0.1105
  H  H343  1  0.597900  0.853700  0.923100  1.0  0.1135
  H  H344  1  0.639800  0.848400  0.976000  1.0  0.0974
  H  H345  1  0.909600  0.010800  0.052000  1.0  0.1229
  H  H346  1  0.903800  0.902700  0.057200  1.0  0.127
  H  H347  1  0.526000  0.860300  0.809000  1.0  0.1162
  H  H348  1  0.834700  0.872600  0.051800  1.0  0.0834
  H  H349  1  0.602800  0.980400  0.809200  1.0  0.1048
  H  H350  1  0.735400  0.947900  0.924400  1.0  0.1142
  H  H351  1  0.619700  0.728900  0.905900  1.0  0.1127
  H  H352  1  0.646700  0.971400  0.854800  1.0  0.1124
  H  H353  1  0.693200  0.953500  0.872600  1.0  0.1099
  H  H354  1  0.569300  0.851500  0.855700  1.0  0.1215
  H  H355  1  0.840300  0.977300  0.047700  1.0  0.086
  H  H356  1  0.635600  0.774600  0.965400  1.0  0.1098
  H  H357  1  0.534400  0.641600  0.981800  1.0  0.1121
  H  H358  1  0.549000  0.687400  0.039600  1.0  0.1104
  H  H359  1  0.264570  0.187030  0.256430  1.0  0.1135
  H  H360  1  0.306470  0.181730  0.309330  1.0  0.0974
  H  H361  1  0.576270  0.344130  0.385330  1.0  0.123
  H  H362  1  0.570470  0.236030  0.390530  1.0  0.127
  H  H363  1  0.192670  0.193630  0.142330  1.0  0.1162
  H  H364  1  0.501370  0.205930  0.385130  1.0  0.0834
  H  H365  1  0.269470  0.313730  0.142530  1.0  0.1038
  H  H366  1  0.402070  0.281230  0.257730  1.0  0.1143
  H  H367  1  0.286370  0.062230  0.239230  1.0  0.1127
  H  H368  1  0.313370  0.304730  0.188130  1.0  0.1124
  H  H369  1  0.359870  0.286830  0.205930  1.0  0.1099
  H  H370  1  0.235970  0.184830  0.189030  1.0  0.1215
  H  H371  1  0.506970  0.310630  0.381030  1.0  0.086
  H  H372  1  0.302270  0.107930  0.298730  1.0  0.1099
  H  H373  1  0.201070  0.974930  0.315130  1.0  0.1122
  H  H374  1  0.215670  0.020730  0.372930  1.0  0.1104
  H  H375  1  0.931230  0.520370  0.589770  1.0  0.1135
  H  H376  1  0.973130  0.515070  0.642670  1.0  0.0974
  H  H377  1  0.242930  0.677470  0.718670  1.0  0.1229
  H  H378  1  0.237130  0.569370  0.723870  1.0  0.127
  H  H379  1  0.859330  0.526970  0.475670  1.0  0.1162
  H  H380  1  0.168030  0.539270  0.718470  1.0  0.0835
  H  H381  1  0.936130  0.647070  0.475870  1.0  0.1048
  H  H382  1  0.068730  0.614570  0.591070  1.0  0.1142
  H  H383  1  0.953030  0.395570  0.572570  1.0  0.1126
  H  H384  1  0.980030  0.638070  0.521470  1.0  0.1124
  H  H385  1  0.026530  0.620170  0.539270  1.0  0.1099
  H  H386  1  0.902630  0.518170  0.522370  1.0  0.1215
  H  H387  1  0.173630  0.643970  0.714370  1.0  0.086
  H  H388  1  0.968930  0.441270  0.632070  1.0  0.1098
  H  H389  1  0.867730  0.308270  0.648470  1.0  0.1121
  H  H390  1  0.882330  0.354070  0.706270  1.0  0.1104
  H  H391  1  0.146300  0.744200  0.923100  1.0  0.1118
  H  H392  1  0.151600  0.791400  0.976000  1.0  0.0975
  H  H393  1  0.989200  0.898800  0.052000  1.0  0.1256
  H  H394  1  0.097300  0.001100  0.057200  1.0  0.1263
  H  H395  1  0.139700  0.665700  0.809000  1.0  0.1151
  H  H396  1  0.127400  0.962100  0.051800  1.0  0.0839
  H  H397  1  0.019600  0.622400  0.809200  1.0  0.1043
  H  H398  1  0.052100  0.787500  0.924400  1.0  0.1145
  H  H399  1  0.271100  0.890800  0.905900  1.0  0.1125
  H  H400  1  0.028600  0.675300  0.854800  1.0  0.1116
  H  H401  1  0.046500  0.739700  0.872600  1.0  0.109
  H  H402  1  0.148500  0.717800  0.855700  1.0  0.1226
  H  H403  1  0.022700  0.863000  0.047700  1.0  0.0856
  H  H404  1  0.225400  0.861000  0.965400  1.0  0.1136
  H  H405  1  0.358400  0.892800  0.981800  1.0  0.1126
  H  H406  1  0.312600  0.861600  0.039600  1.0  0.1101
  H  H407  1  0.812970  0.077530  0.256430  1.0  0.1118
  H  H408  1  0.818270  0.124730  0.309330  1.0  0.0975
  H  H409  1  0.655870  0.232130  0.385330  1.0  0.1256
  H  H410  1  0.763970  0.334430  0.390530  1.0  0.1263
  H  H411  1  0.806370  0.999030  0.142330  1.0  0.1151
  H  H412  1  0.794070  0.295430  0.385130  1.0  0.0839
  H  H413  1  0.686270  0.955730  0.142530  1.0  0.1053
  H  H414  1  0.718770  0.120830  0.257730  1.0  0.1144
  H  H415  1  0.937770  0.224130  0.239230  1.0  0.1126
  H  H416  1  0.695270  0.008630  0.188130  1.0  0.1115
  H  H417  1  0.713170  0.073030  0.205930  1.0  0.109
  H  H418  1  0.815170  0.051130  0.189030  1.0  0.1226
  H  H419  1  0.689370  0.196330  0.381030  1.0  0.0856
  H  H420  1  0.892070  0.194330  0.298730  1.0  0.1136
  H  H421  1  0.025070  0.226130  0.315130  1.0  0.1126
  H  H422  1  0.979270  0.194930  0.372930  1.0  0.11
  H  H423  1  0.479630  0.410870  0.589770  1.0  0.1118
  H  H424  1  0.484930  0.458070  0.642670  1.0  0.0975
  H  H425  1  0.322530  0.565470  0.718670  1.0  0.1256
  H  H426  1  0.430630  0.667770  0.723870  1.0  0.1264
  H  H427  1  0.473030  0.332370  0.475670  1.0  0.1151
  H  H428  1  0.460730  0.628770  0.718470  1.0  0.0839
  H  H429  1  0.352930  0.289070  0.475870  1.0  0.1043
  H  H430  1  0.385430  0.454170  0.591070  1.0  0.1145
  H  H431  1  0.604430  0.557470  0.572570  1.0  0.1125
  H  H432  1  0.361930  0.341970  0.521470  1.0  0.1116
  H  H433  1  0.379830  0.406370  0.539270  1.0  0.109
  H  H434  1  0.481830  0.384470  0.522370  1.0  0.1226
  H  H435  1  0.356030  0.529670  0.714370  1.0  0.0856
  H  H436  1  0.558730  0.527670  0.632070  1.0  0.1136
  H  H437  1  0.691730  0.559470  0.648470  1.0  0.1126
  H  H438  1  0.645930  0.528270  0.706270  1.0  0.11
  H  H439  1  0.255800  0.402100  0.923100  1.0  0.1136
  H  H440  1  0.208600  0.360200  0.976000  1.0  0.0976
  H  H441  1  0.101200  0.090400  0.052000  1.0  0.1244
  H  H442  1  0.998900  0.096200  0.057200  1.0  0.1278
  H  H443  1  0.334300  0.474000  0.809000  1.0  0.1159
  H  H444  1  0.037900  0.165300  0.051800  1.0  0.0841
  H  H445  1  0.377600  0.397200  0.809200  1.0  0.1045
  H  H446  1  0.212500  0.264600  0.924400  1.0  0.1148
  H  H447  1  0.109200  0.380300  0.905900  1.0  0.1129
  H  H448  1  0.324700  0.353300  0.854800  1.0  0.1116
  H  H449  1  0.260300  0.306800  0.872600  1.0  0.1097
  H  H450  1  0.282200  0.430700  0.855700  1.0  0.1237
  H  H451  1  0.137000  0.159700  0.047700  1.0  0.0862
  H  H452  1  0.139000  0.364400  0.965400  1.0  0.1104
  H  H453  1  0.107200  0.465600  0.981800  1.0  0.1126
  H  H454  1  0.138400  0.451000  0.039600  1.0  0.1098
  H  H455  1  0.922470  0.735430  0.256430  1.0  0.1136
  H  H456  1  0.875270  0.693530  0.309330  1.0  0.0976
  H  H457  1  0.767870  0.423730  0.385330  1.0  0.1244
  H  H458  1  0.665570  0.429530  0.390530  1.0  0.1278
  H  H459  1  0.000970  0.807330  0.142330  1.0  0.1158
  H  H460  1  0.704570  0.498630  0.385130  1.0  0.0841
  H  H461  1  0.044270  0.730530  0.142530  1.0  0.1034
  H  H462  1  0.879170  0.597930  0.257730  1.0  0.1148
  H  H463  1  0.775870  0.713630  0.239230  1.0  0.1129
  H  H464  1  0.991370  0.686630  0.188130  1.0  0.1117
  H  H465  1  0.926970  0.640130  0.205930  1.0  0.1097
  H  H466  1  0.948870  0.764030  0.189030  1.0  0.1237
  H  H467  1  0.803670  0.493030  0.381030  1.0  0.0861
  H  H468  1  0.805670  0.697730  0.298730  1.0  0.1105
  H  H469  1  0.773870  0.798930  0.315130  1.0  0.1126
  H  H470  1  0.805070  0.784330  0.372930  1.0  0.1098
  H  H471  1  0.589130  0.068770  0.589770  1.0  0.1136
  H  H472  1  0.541930  0.026870  0.642670  1.0  0.0976
  H  H473  1  0.434530  0.757070  0.718670  1.0  0.1244
  H  H474  1  0.332230  0.762870  0.723870  1.0  0.1278
  H  H475  1  0.667630  0.140670  0.475670  1.0  0.1159
  H  H476  1  0.371230  0.831970  0.718470  1.0  0.0841
  H  H477  1  0.710930  0.063870  0.475870  1.0  0.1045
  H  H478  1  0.545830  0.931270  0.591070  1.0  0.1148
  H  H479  1  0.442530  0.046970  0.572570  1.0  0.1129
  H  H480  1  0.658030  0.019970  0.521470  1.0  0.1116
  H  H481  1  0.593630  0.973470  0.539270  1.0  0.1097
  H  H482  1  0.615530  0.097370  0.522370  1.0  0.1237
  H  H483  1  0.470330  0.826370  0.714370  1.0  0.0862
  H  H484  1  0.472330  0.031070  0.632070  1.0  0.1104
  H  H485  1  0.440530  0.132270  0.648470  1.0  0.1125
  H  H486  1  0.471730  0.117670  0.706270  1.0  0.1098
  H  H487  1  0.853700  0.597900  0.576900  1.0  0.1143
  H  H488  1  0.848400  0.639800  0.524000  1.0  0.0974
  H  H489  1  0.010800  0.909600  0.448000  1.0  0.1248
  H  H490  1  0.902700  0.903800  0.442800  1.0  0.1272
  H  H491  1  0.860300  0.526000  0.691000  1.0  0.1155
  H  H492  1  0.872600  0.834700  0.448200  1.0  0.0843
  H  H493  1  0.980400  0.602800  0.690800  1.0  0.1046
  H  H494  1  0.947900  0.735400  0.575600  1.0  0.1146
  H  H495  1  0.728900  0.619700  0.594100  1.0  0.1119
  H  H496  1  0.971400  0.646700  0.645200  1.0  0.1127
  H  H497  1  0.953500  0.693200  0.627400  1.0  0.1094
  H  H498  1  0.851500  0.569300  0.644300  1.0  0.1245
  H  H499  1  0.977300  0.840300  0.452300  1.0  0.086
  H  H500  1  0.774600  0.635600  0.534600  1.0  0.1106
  H  H501  1  0.641600  0.534400  0.518200  1.0  0.1128
  H  H502  1  0.687400  0.549000  0.460400  1.0  0.1097
  H  H503  1  0.520370  0.931230  0.910230  1.0  0.1143
  H  H504  1  0.515070  0.973130  0.857330  1.0  0.0974
  H  H505  1  0.677470  0.242930  0.781330  1.0  0.1248
  H  H506  1  0.569370  0.237130  0.776130  1.0  0.1272
  H  H507  1  0.526970  0.859330  0.024330  1.0  0.1153
  H  H508  1  0.539270  0.168030  0.781530  1.0  0.0843
  H  H509  1  0.647070  0.936130  0.024130  1.0  0.1046
  H  H510  1  0.614570  0.068730  0.908930  1.0  0.1146
  H  H511  1  0.395570  0.953030  0.927430  1.0  0.1119
  H  H512  1  0.638070  0.980030  0.978530  1.0  0.1127
  H  H513  1  0.620170  0.026530  0.960730  1.0  0.1094
  H  H514  1  0.518170  0.902630  0.977630  1.0  0.1245
  H  H515  1  0.643970  0.173630  0.785630  1.0  0.086
  H  H516  1  0.441270  0.968930  0.867930  1.0  0.1106
  H  H517  1  0.308270  0.867730  0.851530  1.0  0.1128
  H  H518  1  0.354070  0.882330  0.793730  1.0  0.1097
  H  H519  1  0.187030  0.264570  0.243570  1.0  0.1143
  H  H520  1  0.181730  0.306470  0.190670  1.0  0.0973
  H  H521  1  0.344130  0.576270  0.114670  1.0  0.1248
  H  H522  1  0.236030  0.570470  0.109470  1.0  0.1272
  H  H523  1  0.193630  0.192670  0.357670  1.0  0.1155
  H  H524  1  0.205930  0.501370  0.114870  1.0  0.0843
  H  H525  1  0.313730  0.269470  0.357470  1.0  0.1035
  H  H526  1  0.281230  0.402070  0.242270  1.0  0.1146
  H  H527  1  0.062230  0.286370  0.260770  1.0  0.1119
  H  H528  1  0.304730  0.313370  0.311870  1.0  0.1127
  H  H529  1  0.286830  0.359870  0.294070  1.0  0.1094
  H  H530  1  0.184830  0.235970  0.310970  1.0  0.1245
  H  H531  1  0.310630  0.506970  0.118970  1.0  0.0859
  H  H532  1  0.107930  0.302270  0.201270  1.0  0.1106
  H  H533  1  0.974930  0.201070  0.184870  1.0  0.1129
  H  H534  1  0.020730  0.215670  0.127070  1.0  0.1097
  H  H535  1  0.744200  0.146300  0.576900  1.0  0.1141
  H  H536  1  0.791400  0.151600  0.524000  1.0  0.0973
  H  H537  1  0.898800  0.989200  0.448000  1.0  0.1238
  H  H538  1  0.001100  0.097300  0.442800  1.0  0.1273
  H  H539  1  0.665700  0.139700  0.691000  1.0  0.1166
  H  H540  1  0.962100  0.127400  0.448200  1.0  0.0842
  H  H541  1  0.622400  0.019600  0.690800  1.0  0.1032
  H  H542  1  0.787500  0.052100  0.575600  1.0  0.1144
  H  H543  1  0.890800  0.271100  0.594100  1.0  0.1118
  H  H544  1  0.675300  0.028600  0.645200  1.0  0.113
  H  H545  1  0.739700  0.046500  0.627400  1.0  0.1097
  H  H546  1  0.717800  0.148500  0.644300  1.0  0.1226
  H  H547  1  0.863000  0.022700  0.452300  1.0  0.0859
  H  H548  1  0.861000  0.225400  0.534600  1.0  0.1096
  H  H549  1  0.892800  0.358400  0.518200  1.0  0.1123
  H  H550  1  0.861600  0.312600  0.460400  1.0  0.1102
  H  H551  1  0.410870  0.479630  0.910230  1.0  0.1141
  H  H552  1  0.458070  0.484930  0.857330  1.0  0.0973
  H  H553  1  0.565470  0.322530  0.781330  1.0  0.1238
  H  H554  1  0.667770  0.430630  0.776130  1.0  0.1273
  H  H555  1  0.332370  0.473030  0.024330  1.0  0.1163
  H  H556  1  0.628770  0.460730  0.781530  1.0  0.0842
  H  H557  1  0.289070  0.352930  0.024130  1.0  0.1032
  H  H558  1  0.454170  0.385430  0.908930  1.0  0.1144
  H  H559  1  0.557470  0.604430  0.927430  1.0  0.1118
  H  H560  1  0.341970  0.361930  0.978530  1.0  0.113
  H  H561  1  0.406370  0.379830  0.960730  1.0  0.1097
  H  H562  1  0.384470  0.481830  0.977630  1.0  0.1226
  H  H563  1  0.529670  0.356030  0.785630  1.0  0.0859
  H  H564  1  0.527670  0.558730  0.867930  1.0  0.1096
  H  H565  1  0.559470  0.691730  0.851530  1.0  0.1122
  H  H566  1  0.528270  0.645930  0.793730  1.0  0.1102
  H  H567  1  0.077530  0.812970  0.243570  1.0  0.1141
  H  H568  1  0.124730  0.818270  0.190670  1.0  0.0973
  H  H569  1  0.232130  0.655870  0.114670  1.0  0.1238
  H  H570  1  0.334430  0.763970  0.109470  1.0  0.1276
  H  H571  1  0.999030  0.806370  0.357670  1.0  0.1166
  H  H572  1  0.295430  0.794070  0.114870  1.0  0.0842
  H  H573  1  0.955730  0.686270  0.357470  1.0  0.1043
  H  H574  1  0.120830  0.718770  0.242270  1.0  0.1144
  H  H575  1  0.224130  0.937770  0.260770  1.0  0.1118
  H  H576  1  0.008630  0.695270  0.311870  1.0  0.113
  H  H577  1  0.073030  0.713170  0.294070  1.0  0.1097
  H  H578  1  0.051130  0.815170  0.310970  1.0  0.1226
  H  H579  1  0.196330  0.689370  0.118970  1.0  0.0859
  H  H580  1  0.194330  0.892070  0.201270  1.0  0.1095
  H  H581  1  0.226130  0.025070  0.184870  1.0  0.1123
  H  H582  1  0.194930  0.979270  0.127070  1.0  0.1102
  H  H583  1  0.402100  0.255800  0.576900  1.0  0.1121
  H  H584  1  0.360200  0.208600  0.524000  1.0  0.097
  H  H585  1  0.090400  0.101200  0.448000  1.0  0.1258
  H  H586  1  0.096200  0.998900  0.442800  1.0  0.1264
  H  H587  1  0.474000  0.334300  0.691000  1.0  0.1148
  H  H588  1  0.165300  0.037900  0.448200  1.0  0.0839
  H  H589  1  0.397200  0.377600  0.690800  1.0  0.1053
  H  H590  1  0.264600  0.212500  0.575600  1.0  0.1146
  H  H591  1  0.380300  0.109200  0.594100  1.0  0.112
  H  H592  1  0.353300  0.324700  0.645200  1.0  0.1123
  H  H593  1  0.306800  0.260300  0.627400  1.0  0.1088
  H  H594  1  0.430700  0.282200  0.644300  1.0  0.1233
  H  H595  1  0.159700  0.137000  0.452300  1.0  0.0858
  H  H596  1  0.364400  0.139000  0.534600  1.0  0.1134
  H  H597  1  0.465600  0.107200  0.518200  1.0  0.1132
  H  H598  1  0.451000  0.138400  0.460400  1.0  0.1101
  H  H599  1  0.068770  0.589130  0.910230  1.0  0.1121
  H  H600  1  0.026870  0.541930  0.857330  1.0  0.097
  H  H601  1  0.757070  0.434530  0.781330  1.0  0.1258
  H  H602  1  0.762870  0.332230  0.776130  1.0  0.1263
  H  H603  1  0.140670  0.667630  0.024330  1.0  0.1147
  H  H604  1  0.831970  0.371230  0.781530  1.0  0.0839
  H  H605  1  0.063870  0.710930  0.024130  1.0  0.1053
  H  H606  1  0.931270  0.545830  0.908930  1.0  0.1146
  H  H607  1  0.046970  0.442530  0.927430  1.0  0.112
  H  H608  1  0.019970  0.658030  0.978530  1.0  0.1123
  H  H609  1  0.973470  0.593630  0.960730  1.0  0.1088
  H  H610  1  0.097370  0.615530  0.977630  1.0  0.1233
  H  H611  1  0.826370  0.470330  0.785630  1.0  0.0858
  H  H612  1  0.031070  0.472330  0.867930  1.0  0.1134
  H  H613  1  0.132270  0.440530  0.851530  1.0  0.1131
  H  H614  1  0.117670  0.471730  0.793730  1.0  0.1101
  H  H615  1  0.735430  0.922470  0.243570  1.0  0.1121
  H  H616  1  0.693530  0.875270  0.190670  1.0  0.0971
  H  H617  1  0.423730  0.767870  0.114670  1.0  0.1258
  H  H618  1  0.429530  0.665570  0.109470  1.0  0.126
  H  H619  1  0.807330  0.000970  0.357670  1.0  0.1148
  H  H620  1  0.498630  0.704570  0.114870  1.0  0.0839
  H  H621  1  0.730530  0.044270  0.357470  1.0  0.1043
  H  H622  1  0.597930  0.879170  0.242270  1.0  0.1146
  H  H623  1  0.713630  0.775870  0.260770  1.0  0.112
  H  H624  1  0.686630  0.991370  0.311870  1.0  0.1124
  H  H625  1  0.640130  0.926970  0.294070  1.0  0.1088
  H  H626  1  0.764030  0.948870  0.310970  1.0  0.1233
  H  H627  1  0.493030  0.803670  0.118970  1.0  0.0859
  H  H628  1  0.697730  0.805670  0.201270  1.0  0.1135
  H  H629  1  0.798930  0.773870  0.184870  1.0  0.1132
  H  H630  1  0.784330  0.805070  0.127070  1.0  0.1101
  C  C631  1  0.374670  0.126880  0.076300  1.0  -0.1038
  C  C632  1  0.039510  0.018350  0.942930  1.0  0.3548
  C  C633  1  0.084760  0.039030  0.944780  1.0  -0.0348
  C  C634  1  0.387090  0.089730  0.138820  1.0  0.07
  C  C635  1  0.349390  0.130330  0.044620  1.0  -0.0245
  C  C636  1  0.406630  0.264100  0.992450  1.0  -0.0709
  C  C637  1  0.440080  0.078590  0.195820  1.0  -0.1442
  C  C638  1  0.308050  0.102080  0.043790  1.0  -0.1452
  C  C639  1  0.469270  0.071260  0.223900  1.0  0.6901
  C  C640  1  0.104910  0.017420  0.947830  1.0  -0.1525
  C  C641  1  0.280710  0.104610  0.008990  1.0  0.6696
  C  C642  1  0.108430  0.081370  0.944880  1.0  -0.1289
  C  C643  1  0.359370  0.094750  0.107220  1.0  0.031
  C  C644  1  0.449840  0.117220  0.181630  1.0  -0.0739
  C  C645  1  0.398840  0.233670  0.955680  1.0  0.7382
  C  C646  1  0.149930  0.099210  0.948090  1.0  0.1675
  C  C647  1  0.403980  0.045670  0.181650  1.0  -0.0365
  C  C648  1  0.292300  0.070860  0.075330  1.0  -0.0668
  C  C649  1  0.395040  0.279570  0.067390  1.0  -0.1344
  C  C650  1  0.377700  0.051110  0.153930  1.0  -0.1129
  C  C651  1  0.317850  0.067570  0.106430  1.0  -0.1376
  C  C652  1  0.423690  0.122430  0.153580  1.0  -0.1362
  C  C653  1  0.146630  0.037880  0.950630  1.0  0.1702
  C  C654  1  0.385430  0.252050  0.031470  1.0  -0.0521
  C  C655  1  0.445900  0.331350  0.022320  1.0  -0.1263
  C  C656  1  0.426200  0.319000  0.063100  1.0  0.0566
  C  C657  1  0.436750  0.304000  0.987450  1.0  -0.0848
  C  C658  1  0.041340  0.460210  0.409630  1.0  -0.1038
  C  C659  1  0.706180  0.351680  0.276260  1.0  0.3544
  C  C660  1  0.751430  0.372360  0.278110  1.0  -0.0349
  C  C661  1  0.053760  0.423060  0.472150  1.0  0.0699
  C  C662  1  0.016060  0.463660  0.377950  1.0  -0.0245
  C  C663  1  0.073300  0.597430  0.325780  1.0  -0.0707
  C  C664  1  0.106750  0.411920  0.529150  1.0  -0.1442
  C  C665  1  0.974720  0.435410  0.377120  1.0  -0.1452
  C  C666  1  0.135940  0.404590  0.557230  1.0  0.6902
  C  C667  1  0.771580  0.350750  0.281160  1.0  -0.1525
  C  C668  1  0.947380  0.437940  0.342320  1.0  0.6696
  C  C669  1  0.775100  0.414700  0.278210  1.0  -0.1288
  C  C670  1  0.026040  0.428080  0.440550  1.0  0.031
  C  C671  1  0.116510  0.450550  0.514960  1.0  -0.0739
  C  C672  1  0.065510  0.567000  0.289010  1.0  0.7382
  C  C673  1  0.816600  0.432540  0.281420  1.0  0.1676
  C  C674  1  0.070650  0.379000  0.514980  1.0  -0.0365
  C  C675  1  0.958970  0.404190  0.408660  1.0  -0.0668
  C  C676  1  0.061710  0.612900  0.400720  1.0  -0.1342
  C  C677  1  0.044370  0.384440  0.487260  1.0  -0.113
  C  C678  1  0.984520  0.400900  0.439760  1.0  -0.1377
  C  C679  1  0.090360  0.455760  0.486910  1.0  -0.1362
  C  C680  1  0.813300  0.371210  0.283960  1.0  0.1702
  C  C681  1  0.052100  0.585380  0.364800  1.0  -0.0521
  C  C682  1  0.112570  0.664680  0.355650  1.0  -0.1263
  C  C683  1  0.092870  0.652330  0.396430  1.0  0.0566
  C  C684  1  0.103420  0.637330  0.320780  1.0  -0.0848
  C  C685  1  0.708000  0.793550  0.742970  1.0  -0.104
  C  C686  1  0.372840  0.685020  0.609600  1.0  0.3546
  C  C687  1  0.418090  0.705700  0.611450  1.0  -0.0348
  C  C688  1  0.720420  0.756400  0.805490  1.0  0.0698
  C  C689  1  0.682720  0.797000  0.711290  1.0  -0.0245
  C  C690  1  0.739960  0.930770  0.659120  1.0  -0.0709
  C  C691  1  0.773410  0.745260  0.862490  1.0  -0.1438
  C  C692  1  0.641380  0.768750  0.710460  1.0  -0.1453
  C  C693  1  0.802600  0.737930  0.890570  1.0  0.6899
  C  C694  1  0.438240  0.684090  0.614500  1.0  -0.1524
  C  C695  1  0.614040  0.771280  0.675660  1.0  0.6696
  C  C696  1  0.441760  0.748040  0.611550  1.0  -0.1289
  C  C697  1  0.692700  0.761420  0.773890  1.0  0.031
  C  C698  1  0.783170  0.783890  0.848300  1.0  -0.0739
  C  C699  1  0.732170  0.900340  0.622350  1.0  0.7383
  C  C700  1  0.483260  0.765880  0.614760  1.0  0.1675
  C  C701  1  0.737310  0.712340  0.848320  1.0  -0.0367
  C  C702  1  0.625630  0.737530  0.742000  1.0  -0.0668
  C  C703  1  0.728370  0.946240  0.734060  1.0  -0.1344
  C  C704  1  0.711030  0.717780  0.820600  1.0  -0.1129
  C  C705  1  0.651180  0.734240  0.773100  1.0  -0.1376
  C  C706  1  0.757020  0.789100  0.820250  1.0  -0.1362
  C  C707  1  0.479960  0.704550  0.617300  1.0  0.1702
  C  C708  1  0.718760  0.918720  0.698140  1.0  -0.0521
  C  C709  1  0.779230  0.998020  0.688990  1.0  -0.1263
  C  C710  1  0.759530  0.985670  0.729770  1.0  0.0567
  C  C711  1  0.770080  0.970670  0.654120  1.0  -0.0848
  C  C712  1  0.873120  0.247790  0.076300  1.0  -0.1033
  C  C713  1  0.981650  0.021160  0.942930  1.0  0.3552
  C  C714  1  0.960970  0.045730  0.944780  1.0  -0.0317
  C  C715  1  0.910270  0.297360  0.138820  1.0  0.0712
  C  C716  1  0.869670  0.219060  0.044620  1.0  -0.0231
  C  C717  1  0.735900  0.142530  0.992450  1.0  -0.0714
  C  C718  1  0.921410  0.361490  0.195820  1.0  -0.1452
  C  C719  1  0.897920  0.205970  0.043790  1.0  -0.1464
  C  C720  1  0.928740  0.398010  0.223900  1.0  0.6932
  C  C721  1  0.982580  0.087490  0.947830  1.0  -0.1509
  C  C722  1  0.895390  0.176100  0.008990  1.0  0.6705
  C  C723  1  0.918630  0.027060  0.944880  1.0  -0.1263
  C  C724  1  0.905250  0.264620  0.107220  1.0  0.0343
  C  C725  1  0.882780  0.332620  0.181630  1.0  -0.0677
  C  C726  1  0.766330  0.165170  0.955680  1.0  0.7387
  C  C727  1  0.900790  0.050720  0.948090  1.0  0.1677
  C  C728  1  0.954330  0.358310  0.181650  1.0  -0.0337
  C  C729  1  0.929140  0.221440  0.075330  1.0  -0.0676
  C  C730  1  0.720430  0.115470  0.067390  1.0  -0.1355
  C  C731  1  0.948890  0.326590  0.153930  1.0  -0.1097
  C  C732  1  0.932430  0.250280  0.106430  1.0  -0.1394
  C  C733  1  0.877570  0.301260  0.153580  1.0  -0.1372
  C  C734  1  0.962120  0.108750  0.950630  1.0  0.1695
  C  C735  1  0.747950  0.133380  0.031470  1.0  -0.0546
  C  C736  1  0.668650  0.114550  0.022320  1.0  -0.1277
  C  C737  1  0.681000  0.107200  0.063100  1.0  0.0574
  C  C738  1  0.696000  0.132750  0.987450  1.0  -0.0835
  C  C739  1  0.539790  0.581120  0.409630  1.0  -0.1033
  C  C740  1  0.648320  0.354490  0.276260  1.0  0.3553
  C  C741  1  0.627640  0.379060  0.278110  1.0  -0.0317
  C  C742  1  0.576940  0.630690  0.472150  1.0  0.0712
  C  C743  1  0.536340  0.552390  0.377950  1.0  -0.0231
  C  C744  1  0.402570  0.475860  0.325780  1.0  -0.0714
  C  C745  1  0.588080  0.694820  0.529150  1.0  -0.1453
  C  C746  1  0.564590  0.539300  0.377120  1.0  -0.1464
  C  C747  1  0.595410  0.731340  0.557230  1.0  0.6929
  C  C748  1  0.649250  0.420820  0.281160  1.0  -0.1509
  C  C749  1  0.562060  0.509430  0.342320  1.0  0.6706
  C  C750  1  0.585300  0.360390  0.278210  1.0  -0.1263
  C  C751  1  0.571920  0.597950  0.440550  1.0  0.0341
  C  C752  1  0.549450  0.665950  0.514960  1.0  -0.0677
  C  C753  1  0.433000  0.498500  0.289010  1.0  0.7387
  C  C754  1  0.567460  0.384050  0.281420  1.0  0.1677
  C  C755  1  0.621000  0.691640  0.514980  1.0  -0.0337
  C  C756  1  0.595810  0.554770  0.408660  1.0  -0.0676
  C  C757  1  0.387100  0.448800  0.400720  1.0  -0.1357
  C  C758  1  0.615560  0.659920  0.487260  1.0  -0.1096
  C  C759  1  0.599100  0.583610  0.439760  1.0  -0.1393
  C  C760  1  0.544240  0.634590  0.486910  1.0  -0.1372
  C  C761  1  0.628790  0.442080  0.283960  1.0  0.1695
  C  C762  1  0.414620  0.466710  0.364800  1.0  -0.0546
  C  C763  1  0.335320  0.447880  0.355650  1.0  -0.1277
  C  C764  1  0.347670  0.440530  0.396430  1.0  0.0574
  C  C765  1  0.362670  0.466080  0.320780  1.0  -0.0836
  C  C766  1  0.206450  0.914460  0.742970  1.0  -0.1033
  C  C767  1  0.314980  0.687830  0.609600  1.0  0.3556
  C  C768  1  0.294300  0.712400  0.611450  1.0  -0.0318
  C  C769  1  0.243600  0.964030  0.805490  1.0  0.0712
  C  C770  1  0.203000  0.885730  0.711290  1.0  -0.0231
  C  C771  1  0.069230  0.809200  0.659120  1.0  -0.0714
  C  C772  1  0.254740  0.028160  0.862490  1.0  -0.1452
  C  C773  1  0.231250  0.872640  0.710460  1.0  -0.1464
  C  C774  1  0.262070  0.064680  0.890570  1.0  0.6932
  C  C775  1  0.315910  0.754160  0.614500  1.0  -0.151
  C  C776  1  0.228720  0.842770  0.675660  1.0  0.6705
  C  C777  1  0.251960  0.693730  0.611550  1.0  -0.1264
  C  C778  1  0.238580  0.931290  0.773890  1.0  0.0343
  C  C779  1  0.216110  0.999290  0.848300  1.0  -0.0677
  C  C780  1  0.099660  0.831840  0.622350  1.0  0.7387
  C  C781  1  0.234120  0.717390  0.614760  1.0  0.1678
  C  C782  1  0.287660  0.024980  0.848320  1.0  -0.0337
  C  C783  1  0.262470  0.888110  0.742000  1.0  -0.0676
  C  C784  1  0.053760  0.782140  0.734060  1.0  -0.1357
  C  C785  1  0.282220  0.993260  0.820600  1.0  -0.1097
  C  C786  1  0.265760  0.916950  0.773100  1.0  -0.1394
  C  C787  1  0.210900  0.967930  0.820250  1.0  -0.1372
  C  C788  1  0.295450  0.775420  0.617300  1.0  0.1694
  C  C789  1  0.081280  0.800050  0.698140  1.0  -0.0546
  C  C790  1  0.001980  0.781220  0.688990  1.0  -0.1277
  C  C791  1  0.014330  0.773870  0.729770  1.0  0.0577
  C  C792  1  0.029330  0.799420  0.654120  1.0  -0.0835
  C  C793  1  0.752210  0.625330  0.076300  1.0  -0.1033
  C  C794  1  0.978840  0.960490  0.942930  1.0  0.3543
  C  C795  1  0.954270  0.915240  0.944780  1.0  -0.0259
  C  C796  1  0.702640  0.612910  0.138820  1.0  0.0695
  C  C797  1  0.780940  0.650610  0.044620  1.0  -0.0233
  C  C798  1  0.857470  0.593370  0.992450  1.0  -0.0717
  C  C799  1  0.638510  0.559920  0.195820  1.0  -0.1416
  C  C800  1  0.794030  0.691950  0.043790  1.0  -0.1462
  C  C801  1  0.601990  0.530730  0.223900  1.0  0.6942
  C  C802  1  0.912510  0.895090  0.947830  1.0  -0.1485
  C  C803  1  0.823900  0.719290  0.008990  1.0  0.669
  C  C804  1  0.972940  0.891570  0.944880  1.0  -0.1279
  C  C805  1  0.735380  0.640630  0.107220  1.0  0.0328
  C  C806  1  0.667380  0.550160  0.181630  1.0  -0.0702
  C  C807  1  0.834830  0.601160  0.955680  1.0  0.7411
  C  C808  1  0.949280  0.850070  0.948090  1.0  0.1666
  C  C809  1  0.641690  0.596020  0.181650  1.0  -0.0351
  C  C810  1  0.778560  0.707700  0.075330  1.0  -0.0688
  C  C811  1  0.884530  0.604960  0.067390  1.0  -0.135
  C  C812  1  0.673410  0.622300  0.153930  1.0  -0.1115
  C  C813  1  0.749720  0.682150  0.106430  1.0  -0.1412
  C  C814  1  0.698740  0.576310  0.153580  1.0  -0.1322
  C  C815  1  0.891250  0.853370  0.950630  1.0  0.1694
  C  C816  1  0.866620  0.614570  0.031470  1.0  -0.0537
  C  C817  1  0.885450  0.554100  0.022320  1.0  -0.129
  C  C818  1  0.892800  0.573800  0.063100  1.0  0.0573
  C  C819  1  0.867250  0.563250  0.987450  1.0  -0.0835
  C  C820  1  0.418880  0.958660  0.409630  1.0  -0.1033
  C  C821  1  0.645510  0.293820  0.276260  1.0  0.3544
  C  C822  1  0.620940  0.248570  0.278110  1.0  -0.026
  C  C823  1  0.369310  0.946240  0.472150  1.0  0.0695
  C  C824  1  0.447610  0.983940  0.377950  1.0  -0.0233
  C  C825  1  0.524140  0.926700  0.325780  1.0  -0.0718
  C  C826  1  0.305180  0.893250  0.529150  1.0  -0.1416
  C  C827  1  0.460700  0.025280  0.377120  1.0  -0.1462
  C  C828  1  0.268660  0.864060  0.557230  1.0  0.6939
  C  C829  1  0.579180  0.228420  0.281160  1.0  -0.1485
  C  C830  1  0.490570  0.052620  0.342320  1.0  0.669
  C  C831  1  0.639610  0.224900  0.278210  1.0  -0.1278
  C  C832  1  0.402050  0.973960  0.440550  1.0  0.0329
  C  C833  1  0.334050  0.883490  0.514960  1.0  -0.0702
  C  C834  1  0.501500  0.934490  0.289010  1.0  0.7411
  C  C835  1  0.615950  0.183400  0.281420  1.0  0.1667
  C  C836  1  0.308360  0.929350  0.514980  1.0  -0.0351
  C  C837  1  0.445230  0.041030  0.408660  1.0  -0.0688
  C  C838  1  0.551200  0.938290  0.400720  1.0  -0.135
  C  C839  1  0.340080  0.955630  0.487260  1.0  -0.1115
  C  C840  1  0.416390  0.015480  0.439760  1.0  -0.1412
  C  C841  1  0.365410  0.909640  0.486910  1.0  -0.1322
  C  C842  1  0.557920  0.186700  0.283960  1.0  0.1694
  C  C843  1  0.533290  0.947900  0.364800  1.0  -0.0537
  C  C844  1  0.552120  0.887430  0.355650  1.0  -0.129
  C  C845  1  0.559470  0.907130  0.396430  1.0  0.0573
  C  C846  1  0.533920  0.896580  0.320780  1.0  -0.0834
  C  C847  1  0.085540  0.292000  0.742970  1.0  -0.1032
  C  C848  1  0.312170  0.627160  0.609600  1.0  0.3545
  C  C849  1  0.287600  0.581910  0.611450  1.0  -0.0259
  C  C850  1  0.035970  0.279580  0.805490  1.0  0.0695
  C  C851  1  0.114270  0.317280  0.711290  1.0  -0.0233
  C  C852  1  0.190800  0.260040  0.659120  1.0  -0.0717
  C  C853  1  0.971840  0.226590  0.862490  1.0  -0.1416
  C  C854  1  0.127360  0.358620  0.710460  1.0  -0.1462
  C  C855  1  0.935320  0.197400  0.890570  1.0  0.6942
  C  C856  1  0.245840  0.561760  0.614500  1.0  -0.1486
  C  C857  1  0.157230  0.385960  0.675660  1.0  0.6689
  C  C858  1  0.306270  0.558240  0.611550  1.0  -0.1277
  C  C859  1  0.068710  0.307300  0.773890  1.0  0.0328
  C  C860  1  0.000710  0.216830  0.848300  1.0  -0.0702
  C  C861  1  0.168160  0.267830  0.622350  1.0  0.7411
  C  C862  1  0.282610  0.516740  0.614760  1.0  0.1666
  C  C863  1  0.975020  0.262690  0.848320  1.0  -0.0351
  C  C864  1  0.111890  0.374370  0.742000  1.0  -0.0688
  C  C865  1  0.217860  0.271630  0.734060  1.0  -0.1348
  C  C866  1  0.006740  0.288970  0.820600  1.0  -0.1114
  C  C867  1  0.083050  0.348820  0.773100  1.0  -0.1412
  C  C868  1  0.032070  0.242980  0.820250  1.0  -0.1322
  C  C869  1  0.224580  0.520040  0.617300  1.0  0.1694
  C  C870  1  0.199950  0.281240  0.698140  1.0  -0.0537
  C  C871  1  0.218780  0.220770  0.688990  1.0  -0.1289
  C  C872  1  0.226130  0.240470  0.729770  1.0  0.0572
  C  C873  1  0.200580  0.229920  0.654120  1.0  -0.0835
  C  C874  1  0.126880  0.374670  0.423700  1.0  -0.1049
  C  C875  1  0.018350  0.039510  0.557070  1.0  0.3596
  C  C876  1  0.039030  0.084760  0.555220  1.0  -0.0247
  C  C877  1  0.089730  0.387090  0.361180  1.0  0.0697
  C  C878  1  0.130330  0.349390  0.455380  1.0  -0.0236
  C  C879  1  0.264100  0.406630  0.507550  1.0  -0.072
  C  C880  1  0.078590  0.440080  0.304180  1.0  -0.142
  C  C881  1  0.102080  0.308050  0.456210  1.0  -0.1474
  C  C882  1  0.071260  0.469270  0.276100  1.0  0.6931
  C  C883  1  0.017420  0.104910  0.552170  1.0  -0.1496
  C  C884  1  0.104610  0.280710  0.491010  1.0  0.671
  C  C885  1  0.081370  0.108430  0.555120  1.0  -0.1269
  C  C886  1  0.094750  0.359370  0.392780  1.0  0.0316
  C  C887  1  0.117220  0.449840  0.318370  1.0  -0.0694
  C  C888  1  0.233670  0.398840  0.544320  1.0  0.74
  C  C889  1  0.099210  0.149930  0.551910  1.0  0.1666
  C  C890  1  0.045670  0.403980  0.318350  1.0  -0.0348
  C  C891  1  0.070860  0.292300  0.424670  1.0  -0.0688
  C  C892  1  0.279570  0.395040  0.432610  1.0  -0.1352
  C  C893  1  0.051110  0.377700  0.346070  1.0  -0.1113
  C  C894  1  0.067570  0.317850  0.393570  1.0  -0.1414
  C  C895  1  0.122430  0.423690  0.346420  1.0  -0.1311
  C  C896  1  0.037880  0.146630  0.549370  1.0  0.1687
  C  C897  1  0.252050  0.385430  0.468530  1.0  -0.0534
  C  C898  1  0.331350  0.445900  0.477680  1.0  -0.1277
  C  C899  1  0.319000  0.426200  0.436900  1.0  0.0578
  C  C900  1  0.304000  0.436750  0.512550  1.0  -0.0839
  C  C901  1  0.793550  0.708000  0.757030  1.0  -0.1052
  C  C902  1  0.685020  0.372840  0.890400  1.0  0.3544
  C  C903  1  0.705700  0.418090  0.888550  1.0  -0.0303
  C  C904  1  0.756400  0.720420  0.694510  1.0  0.0696
  C  C905  1  0.797000  0.682720  0.788710  1.0  -0.0236
  C  C906  1  0.930770  0.739960  0.840880  1.0  -0.072
  C  C907  1  0.745260  0.773410  0.637510  1.0  -0.1414
  C  C908  1  0.768750  0.641380  0.789540  1.0  -0.1475
  C  C909  1  0.737930  0.802600  0.609430  1.0  0.6929
  C  C910  1  0.684090  0.438240  0.885500  1.0  -0.1495
  C  C911  1  0.771280  0.614040  0.824340  1.0  0.671
  C  C912  1  0.748040  0.441760  0.888450  1.0  -0.1269
  C  C913  1  0.761420  0.692700  0.726110  1.0  0.0316
  C  C914  1  0.783890  0.783170  0.651700  1.0  -0.0694
  C  C915  1  0.900340  0.732170  0.877650  1.0  0.7401
  C  C916  1  0.765880  0.483260  0.885240  1.0  0.1666
  C  C917  1  0.712340  0.737310  0.651680  1.0  -0.035
  C  C918  1  0.737530  0.625630  0.758000  1.0  -0.0688
  C  C919  1  0.946240  0.728370  0.765940  1.0  -0.1352
  C  C920  1  0.717780  0.711030  0.679400  1.0  -0.1113
  C  C921  1  0.734240  0.651180  0.726900  1.0  -0.1415
  C  C922  1  0.789100  0.757020  0.679750  1.0  -0.1311
  C  C923  1  0.704550  0.479960  0.882700  1.0  0.1688
  C  C924  1  0.918720  0.718760  0.801860  1.0  -0.0534
  C  C925  1  0.998020  0.779230  0.811010  1.0  -0.1278
  C  C926  1  0.985670  0.759530  0.770230  1.0  0.058
  C  C927  1  0.970670  0.770080  0.845880  1.0  -0.0839
  C  C928  1  0.460210  0.041340  0.090370  1.0  -0.1049
  C  C929  1  0.351680  0.706180  0.223740  1.0  0.3594
  C  C930  1  0.372360  0.751430  0.221890  1.0  -0.0248
  C  C931  1  0.423060  0.053760  0.027850  1.0  0.0696
  C  C932  1  0.463660  0.016060  0.122050  1.0  -0.0236
  C  C933  1  0.597430  0.073300  0.174220  1.0  -0.0718
  C  C934  1  0.411920  0.106750  0.970850  1.0  -0.142
  C  C935  1  0.435410  0.974720  0.122880  1.0  -0.1474
  C  C936  1  0.404590  0.135940  0.942770  1.0  0.6932
  C  C937  1  0.350750  0.771580  0.218840  1.0  -0.1496
  C  C938  1  0.437940  0.947380  0.157680  1.0  0.671
  C  C939  1  0.414700  0.775100  0.221790  1.0  -0.1268
  C  C940  1  0.428080  0.026040  0.059450  1.0  0.0316
  C  C941  1  0.450550  0.116510  0.985040  1.0  -0.0694
  C  C942  1  0.567000  0.065510  0.210990  1.0  0.7401
  C  C943  1  0.432540  0.816600  0.218580  1.0  0.1667
  C  C944  1  0.379000  0.070650  0.985020  1.0  -0.0348
  C  C945  1  0.404190  0.958970  0.091340  1.0  -0.0688
  C  C946  1  0.612900  0.061710  0.099280  1.0  -0.1349
  C  C947  1  0.384440  0.044370  0.012740  1.0  -0.1113
  C  C948  1  0.400900  0.984520  0.060240  1.0  -0.1414
  C  C949  1  0.455760  0.090360  0.013090  1.0  -0.1311
  C  C950  1  0.371210  0.813300  0.216040  1.0  0.1687
  C  C951  1  0.585380  0.052100  0.135200  1.0  -0.0534
  C  C952  1  0.664680  0.112570  0.144350  1.0  -0.1277
  C  C953  1  0.652330  0.092870  0.103570  1.0  0.0579
  C  C954  1  0.637330  0.103420  0.179220  1.0  -0.0838
  C  C955  1  0.247790  0.873120  0.423700  1.0  -0.1038
  C  C956  1  0.021160  0.981650  0.557070  1.0  0.3591
  C  C957  1  0.045730  0.960970  0.555220  1.0  -0.0327
  C  C958  1  0.297360  0.910270  0.361180  1.0  0.0695
  C  C959  1  0.219060  0.869670  0.455380  1.0  -0.0241
  C  C960  1  0.142530  0.735900  0.507550  1.0  -0.0708
  C  C961  1  0.361490  0.921410  0.304180  1.0  -0.143
  C  C962  1  0.205970  0.897920  0.456210  1.0  -0.1447
  C  C963  1  0.398010  0.928740  0.276100  1.0  0.6895
  C  C964  1  0.087490  0.982580  0.552170  1.0  -0.1522
  C  C965  1  0.176100  0.895390  0.491010  1.0  0.6704
  C  C966  1  0.027060  0.918630  0.555120  1.0  -0.127
  C  C967  1  0.264620  0.905250  0.392780  1.0  0.0309
  C  C968  1  0.332620  0.882780  0.318370  1.0  -0.0734
  C  C969  1  0.165170  0.766330  0.544320  1.0  0.7363
  C  C970  1  0.050720  0.900790  0.551910  1.0  0.1659
  C  C971  1  0.358310  0.954330  0.318350  1.0  -0.0367
  C  C972  1  0.221440  0.929140  0.424670  1.0  -0.0685
  C  C973  1  0.115470  0.720430  0.432610  1.0  -0.1345
  C  C974  1  0.326590  0.948890  0.346070  1.0  -0.1133
  C  C975  1  0.250280  0.932430  0.393570  1.0  -0.139
  C  C976  1  0.301260  0.877570  0.346420  1.0  -0.138
  C  C977  1  0.108750  0.962120  0.549370  1.0  0.1696
  C  C978  1  0.133380  0.747950  0.468530  1.0  -0.0541
  C  C979  1  0.114550  0.668650  0.477680  1.0  -0.1263
  C  C980  1  0.107200  0.681000  0.436900  1.0  0.0568
  C  C981  1  0.132750  0.696000  0.512550  1.0  -0.0848
  C  C982  1  0.914460  0.206450  0.757030  1.0  -0.1038
  C  C983  1  0.687830  0.314980  0.890400  1.0  0.354
  C  C984  1  0.712400  0.294300  0.888550  1.0  -0.0375
  C  C985  1  0.964030  0.243600  0.694510  1.0  0.0695
  C  C986  1  0.885730  0.203000  0.788710  1.0  -0.0241
  C  C987  1  0.809200  0.069230  0.840880  1.0  -0.0708
  C  C988  1  0.028160  0.254740  0.637510  1.0  -0.143
  C  C989  1  0.872640  0.231250  0.789540  1.0  -0.1447
  C  C990  1  0.064680  0.262070  0.609430  1.0  0.6895
  C  C991  1  0.754160  0.315910  0.885500  1.0  -0.1523
  C  C992  1  0.842770  0.228720  0.824340  1.0  0.6704
  C  C993  1  0.693730  0.251960  0.888450  1.0  -0.127
  C  C994  1  0.931290  0.238580  0.726110  1.0  0.0309
  C  C995  1  0.999290  0.216110  0.651700  1.0  -0.0734
  C  C996  1  0.831840  0.099660  0.877650  1.0  0.7363
  C  C997  1  0.717390  0.234120  0.885240  1.0  0.166
  C  C998  1  0.024980  0.287660  0.651680  1.0  -0.0368
  C  C999  1  0.888110  0.262470  0.758000  1.0  -0.0685
  C  C1000  1  0.782140  0.053760  0.765940  1.0  -0.1347
  C  C1001  1  0.993260  0.282220  0.679400  1.0  -0.1134
  C  C1002  1  0.916950  0.265760  0.726900  1.0  -0.139
  C  C1003  1  0.967930  0.210900  0.679750  1.0  -0.1381
  C  C1004  1  0.775420  0.295450  0.882700  1.0  0.1695
  C  C1005  1  0.800050  0.081280  0.801860  1.0  -0.0541
  C  C1006  1  0.781220  0.001980  0.811010  1.0  -0.1263
  C  C1007  1  0.773870  0.014330  0.770230  1.0  0.057
  C  C1008  1  0.799420  0.029330  0.845880  1.0  -0.0848
  C  C1009  1  0.581120  0.539790  0.090370  1.0  -0.1038
  C  C1010  1  0.354490  0.648320  0.223740  1.0  0.3592
  C  C1011  1  0.379060  0.627640  0.221890  1.0  -0.0327
  C  C1012  1  0.630690  0.576940  0.027850  1.0  0.0695
  C  C1013  1  0.552390  0.536340  0.122050  1.0  -0.0241
  C  C1014  1  0.475860  0.402570  0.174220  1.0  -0.0708
  C  C1015  1  0.694820  0.588080  0.970850  1.0  -0.143
  C  C1016  1  0.539300  0.564590  0.122880  1.0  -0.1447
  C  C1017  1  0.731340  0.595410  0.942770  1.0  0.6891
  C  C1018  1  0.420820  0.649250  0.218840  1.0  -0.1522
  C  C1019  1  0.509430  0.562060  0.157680  1.0  0.6705
  C  C1020  1  0.360390  0.585300  0.221790  1.0  -0.127
  C  C1021  1  0.597950  0.571920  0.059450  1.0  0.0307
  C  C1022  1  0.665950  0.549450  0.985040  1.0  -0.0734
  C  C1023  1  0.498500  0.433000  0.210990  1.0  0.7364
  C  C1024  1  0.384050  0.567460  0.218580  1.0  0.1659
  C  C1025  1  0.691640  0.621000  0.985020  1.0  -0.0367
  C  C1026  1  0.554770  0.595810  0.091340  1.0  -0.0685
  C  C1027  1  0.448800  0.387100  0.099280  1.0  -0.1347
  C  C1028  1  0.659920  0.615560  0.012740  1.0  -0.1133
  C  C1029  1  0.583610  0.599100  0.060240  1.0  -0.1389
  C  C1030  1  0.634590  0.544240  0.013090  1.0  -0.138
  C  C1031  1  0.442080  0.628790  0.216040  1.0  0.1695
  C  C1032  1  0.466710  0.414620  0.135200  1.0  -0.0541
  C  C1033  1  0.447880  0.335320  0.144350  1.0  -0.1262
  C  C1034  1  0.440530  0.347670  0.103570  1.0  0.0568
  C  C1035  1  0.466080  0.362670  0.179220  1.0  -0.0848
  C  C1036  1  0.625330  0.752210  0.423700  1.0  -0.1033
  C  C1037  1  0.960490  0.978840  0.557070  1.0  0.3596
  C  C1038  1  0.915240  0.954270  0.555220  1.0  -0.0309
  C  C1039  1  0.612910  0.702640  0.361180  1.0  0.0714
  C  C1040  1  0.650610  0.780940  0.455380  1.0  -0.0234
  C  C1041  1  0.593370  0.857470  0.507550  1.0  -0.0719
  C  C1042  1  0.559920  0.638510  0.304180  1.0  -0.1449
  C  C1043  1  0.691950  0.794030  0.456210  1.0  -0.1462
  C  C1044  1  0.530730  0.601990  0.276100  1.0  0.6926
  C  C1045  1  0.895090  0.912510  0.552170  1.0  -0.1505
  C  C1046  1  0.719290  0.823900  0.491010  1.0  0.6688
  C  C1047  1  0.891570  0.972940  0.555120  1.0  -0.1283
  C  C1048  1  0.640630  0.735380  0.392780  1.0  0.0338
  C  C1049  1  0.550160  0.667380  0.318370  1.0  -0.0698
  C  C1050  1  0.601160  0.834830  0.544320  1.0  0.7376
  C  C1051  1  0.850070  0.949280  0.551910  1.0  0.1676
  C  C1052  1  0.596020  0.641690  0.318350  1.0  -0.035
  C  C1053  1  0.707700  0.778560  0.424670  1.0  -0.0682
  C  C1054  1  0.604960  0.884530  0.432610  1.0  -0.1358
  C  C1055  1  0.622300  0.673410  0.346070  1.0  -0.1102
  C  C1056  1  0.682150  0.749720  0.393570  1.0  -0.1399
  C  C1057  1  0.576310  0.698740  0.346420  1.0  -0.1383
  C  C1058  1  0.853370  0.891250  0.549370  1.0  0.1683
  C  C1059  1  0.614570  0.866620  0.468530  1.0  -0.0546
  C  C1060  1  0.554100  0.885450  0.477680  1.0  -0.1287
  C  C1061  1  0.573800  0.892800  0.436900  1.0  0.0576
  C  C1062  1  0.563250  0.867250  0.512550  1.0  -0.0832
  C  C1063  1  0.292000  0.085540  0.757030  1.0  -0.1031
  C  C1064  1  0.627160  0.312170  0.890400  1.0  0.3543
  C  C1065  1  0.581910  0.287600  0.888550  1.0  -0.0361
  C  C1066  1  0.279580  0.035970  0.694510  1.0  0.0715
  C  C1067  1  0.317280  0.114270  0.788710  1.0  -0.0233
  C  C1068  1  0.260040  0.190800  0.840880  1.0  -0.0719
  C  C1069  1  0.226590  0.971840  0.637510  1.0  -0.1449
  C  C1070  1  0.358620  0.127360  0.789540  1.0  -0.1462
  C  C1071  1  0.197400  0.935320  0.609430  1.0  0.6926
  C  C1072  1  0.561760  0.245840  0.885500  1.0  -0.1506
  C  C1073  1  0.385960  0.157230  0.824340  1.0  0.6688
  C  C1074  1  0.558240  0.306270  0.888450  1.0  -0.1282
  C  C1075  1  0.307300  0.068710  0.726110  1.0  0.0338
  C  C1076  1  0.216830  0.000710  0.651700  1.0  -0.0698
  C  C1077  1  0.267830  0.168160  0.877650  1.0  0.7376
  C  C1078  1  0.516740  0.282610  0.885240  1.0  0.1676
  C  C1079  1  0.262690  0.975020  0.651680  1.0  -0.035
  C  C1080  1  0.374370  0.111890  0.758000  1.0  -0.0682
  C  C1081  1  0.271630  0.217860  0.765940  1.0  -0.1355
  C  C1082  1  0.288970  0.006740  0.679400  1.0  -0.1101
  C  C1083  1  0.348820  0.083050  0.726900  1.0  -0.1399
  C  C1084  1  0.242980  0.032070  0.679750  1.0  -0.1383
  C  C1085  1  0.520040  0.224580  0.882700  1.0  0.1683
  C  C1086  1  0.281240  0.199950  0.801860  1.0  -0.0546
  C  C1087  1  0.220770  0.218780  0.811010  1.0  -0.1287
  C  C1088  1  0.240470  0.226130  0.770230  1.0  0.0574
  C  C1089  1  0.229920  0.200580  0.845880  1.0  -0.0832
  C  C1090  1  0.958660  0.418880  0.090370  1.0  -0.1033
  C  C1091  1  0.293820  0.645510  0.223740  1.0  0.3598
  C  C1092  1  0.248570  0.620940  0.221890  1.0  -0.031
  C  C1093  1  0.946240  0.369310  0.027850  1.0  0.0714
  C  C1094  1  0.983940  0.447610  0.122050  1.0  -0.0234
  C  C1095  1  0.926700  0.524140  0.174220  1.0  -0.0721
  C  C1096  1  0.893250  0.305180  0.970850  1.0  -0.1449
  C  C1097  1  0.025280  0.460700  0.122880  1.0  -0.1462
  C  C1098  1  0.864060  0.268660  0.942770  1.0  0.6924
  C  C1099  1  0.228420  0.579180  0.218840  1.0  -0.1505
  C  C1100  1  0.052620  0.490570  0.157680  1.0  0.6688
  C  C1101  1  0.224900  0.639610  0.221790  1.0  -0.1283
  C  C1102  1  0.973960  0.402050  0.059450  1.0  0.0339
  C  C1103  1  0.883490  0.334050  0.985040  1.0  -0.0698
  C  C1104  1  0.934490  0.501500  0.210990  1.0  0.7376
  C  C1105  1  0.183400  0.615950  0.218580  1.0  0.1677
  C  C1106  1  0.929350  0.308360  0.985020  1.0  -0.035
  C  C1107  1  0.041030  0.445230  0.091340  1.0  -0.0682
  C  C1108  1  0.938290  0.551200  0.099280  1.0  -0.1358
  C  C1109  1  0.955630  0.340080  0.012740  1.0  -0.1102
  C  C1110  1  0.015480  0.416390  0.060240  1.0  -0.1399
  C  C1111  1  0.909640  0.365410  0.013090  1.0  -0.1383
  C  C1112  1  0.186700  0.557920  0.216040  1.0  0.1683
  C  C1113  1  0.947900  0.533290  0.135200  1.0  -0.0546
  C  C1114  1  0.887430  0.552120  0.144350  1.0  -0.1287
  C  C1115  1  0.907130  0.559470  0.103570  1.0  0.0576
  C  C1116  1  0.896580  0.533920  0.179220  1.0  -0.0831
  C  C1117  1  0.625330  0.873120  0.923700  1.0  -0.1031
  C  C1118  1  0.960490  0.981650  0.057070  1.0  0.3596
  C  C1119  1  0.915240  0.960970  0.055220  1.0  -0.0333
  C  C1120  1  0.612910  0.910270  0.861180  1.0  0.0704
  C  C1121  1  0.650610  0.869670  0.955380  1.0  -0.0236
  C  C1122  1  0.593370  0.735900  0.007550  1.0  -0.0709
  C  C1123  1  0.559920  0.921410  0.804180  1.0  -0.1438
  C  C1124  1  0.691950  0.897920  0.956210  1.0  -0.1456
  C  C1125  1  0.530730  0.928740  0.776100  1.0  0.6902
  C  C1126  1  0.895090  0.982580  0.052170  1.0  -0.153
  C  C1127  1  0.719290  0.895390  0.991010  1.0  0.6691
  C  C1128  1  0.891570  0.918630  0.055120  1.0  -0.1256
  C  C1129  1  0.640630  0.905250  0.892780  1.0  0.0311
  C  C1130  1  0.550160  0.882780  0.818370  1.0  -0.0734
  C  C1131  1  0.601160  0.766330  0.044320  1.0  0.7374
  C  C1132  1  0.850070  0.900790  0.051910  1.0  0.1662
  C  C1133  1  0.596020  0.954330  0.818350  1.0  -0.0375
  C  C1134  1  0.707700  0.929140  0.924670  1.0  -0.0669
  C  C1135  1  0.604960  0.720430  0.932610  1.0  -0.1351
  C  C1136  1  0.622300  0.948890  0.846070  1.0  -0.1137
  C  C1137  1  0.682150  0.932430  0.893570  1.0  -0.1401
  C  C1138  1  0.576310  0.877570  0.846420  1.0  -0.1386
  C  C1139  1  0.853370  0.962120  0.049370  1.0  0.169
  C  C1140  1  0.614570  0.747950  0.968530  1.0  -0.0549
  C  C1141  1  0.554100  0.668650  0.977680  1.0  -0.1249
  C  C1142  1  0.573800  0.681000  0.936900  1.0  0.0556
  C  C1143  1  0.563250  0.696000  0.012550  1.0  -0.0845
  C  C1144  1  0.292000  0.206450  0.257030  1.0  -0.1032
  C  C1145  1  0.627160  0.314980  0.390400  1.0  0.3595
  C  C1146  1  0.581910  0.294300  0.388550  1.0  -0.0333
  C  C1147  1  0.279580  0.243600  0.194510  1.0  0.0703
  C  C1148  1  0.317280  0.203000  0.288710  1.0  -0.0236
  C  C1149  1  0.260040  0.069230  0.340880  1.0  -0.0709
  C  C1150  1  0.226590  0.254740  0.137510  1.0  -0.1434
  C  C1151  1  0.358620  0.231250  0.289540  1.0  -0.1457
  C  C1152  1  0.197400  0.262070  0.109430  1.0  0.6901
  C  C1153  1  0.561760  0.315910  0.385500  1.0  -0.1528
  C  C1154  1  0.385960  0.228720  0.324340  1.0  0.6691
  C  C1155  1  0.558240  0.251960  0.388450  1.0  -0.1256
  C  C1156  1  0.307300  0.238580  0.226110  1.0  0.0311
  C  C1157  1  0.216830  0.216110  0.151700  1.0  -0.0734
  C  C1158  1  0.267830  0.099660  0.377650  1.0  0.7374
  C  C1159  1  0.516740  0.234120  0.385240  1.0  0.1662
  C  C1160  1  0.262690  0.287660  0.151680  1.0  -0.0376
  C  C1161  1  0.374370  0.262470  0.258000  1.0  -0.0669
  C  C1162  1  0.271630  0.053760  0.265940  1.0  -0.1351
  C  C1163  1  0.288970  0.282220  0.179400  1.0  -0.1137
  C  C1164  1  0.348820  0.265760  0.226900  1.0  -0.1401
  C  C1165  1  0.242980  0.210900  0.179750  1.0  -0.1386
  C  C1166  1  0.520040  0.295450  0.382700  1.0  0.169
  C  C1167  1  0.281240  0.081280  0.301860  1.0  -0.0549
  C  C1168  1  0.220770  0.001980  0.311010  1.0  -0.125
  C  C1169  1  0.240470  0.014330  0.270230  1.0  0.0557
  C  C1170  1  0.229920  0.029330  0.345880  1.0  -0.0845
  C  C1171  1  0.958660  0.539790  0.590370  1.0  -0.1031
  C  C1172  1  0.293820  0.648320  0.723740  1.0  0.3593
  C  C1173  1  0.248570  0.627640  0.721890  1.0  -0.0333
  C  C1174  1  0.946240  0.576940  0.527850  1.0  0.0703
  C  C1175  1  0.983940  0.536340  0.622050  1.0  -0.0236
  C  C1176  1  0.926700  0.402570  0.674220  1.0  -0.0707
  C  C1177  1  0.893250  0.588080  0.470850  1.0  -0.1438
  C  C1178  1  0.025280  0.564590  0.622880  1.0  -0.1456
  C  C1179  1  0.864060  0.595410  0.442770  1.0  0.6903
  C  C1180  1  0.228420  0.649250  0.718840  1.0  -0.153
  C  C1181  1  0.052620  0.562060  0.657680  1.0  0.6691
  C  C1182  1  0.224900  0.585300  0.721790  1.0  -0.1256
  C  C1183  1  0.973960  0.571920  0.559450  1.0  0.0311
  C  C1184  1  0.883490  0.549450  0.485040  1.0  -0.0734
  C  C1185  1  0.934490  0.433000  0.710990  1.0  0.7373
  C  C1186  1  0.183400  0.567460  0.718580  1.0  0.1663
  C  C1187  1  0.929350  0.621000  0.485020  1.0  -0.0374
  C  C1188  1  0.041030  0.595810  0.591340  1.0  -0.0669
  C  C1189  1  0.938290  0.387100  0.599280  1.0  -0.1349
  C  C1190  1  0.955630  0.615560  0.512740  1.0  -0.1137
  C  C1191  1  0.015480  0.599100  0.560240  1.0  -0.1402
  C  C1192  1  0.909640  0.544240  0.513090  1.0  -0.1386
  C  C1193  1  0.186700  0.628790  0.716040  1.0  0.169
  C  C1194  1  0.947900  0.414620  0.635200  1.0  -0.0549
  C  C1195  1  0.887430  0.335320  0.644350  1.0  -0.1249
  C  C1196  1  0.907130  0.347670  0.603570  1.0  0.0556
  C  C1197  1  0.896580  0.362670  0.679220  1.0  -0.0845
  C  C1198  1  0.126880  0.752210  0.923700  1.0  -0.1038
  C  C1199  1  0.018350  0.978840  0.057070  1.0  0.359
  C  C1200  1  0.039030  0.954270  0.055220  1.0  -0.0303
  C  C1201  1  0.089730  0.702640  0.861180  1.0  0.0718
  C  C1202  1  0.130330  0.780940  0.955380  1.0  -0.0235
  C  C1203  1  0.264100  0.857470  0.007550  1.0  -0.0713
  C  C1204  1  0.078590  0.638510  0.804180  1.0  -0.144
  C  C1205  1  0.102080  0.794030  0.956210  1.0  -0.1464
  C  C1206  1  0.071260  0.601990  0.776100  1.0  0.6926
  C  C1207  1  0.017420  0.912510  0.052170  1.0  -0.1505
  C  C1208  1  0.104610  0.823900  0.991010  1.0  0.6687
  C  C1209  1  0.081370  0.972940  0.055120  1.0  -0.1279
  C  C1210  1  0.094750  0.735380  0.892780  1.0  0.0342
  C  C1211  1  0.117220  0.667380  0.818370  1.0  -0.0689
  C  C1212  1  0.233670  0.834830  0.044320  1.0  0.7379
  C  C1213  1  0.099210  0.949280  0.051910  1.0  0.1681
  C  C1214  1  0.045670  0.641690  0.818350  1.0  -0.0349
  C  C1215  1  0.070860  0.778560  0.924670  1.0  -0.0696
  C  C1216  1  0.279570  0.884530  0.932610  1.0  -0.1355
  C  C1217  1  0.051110  0.673410  0.846070  1.0  -0.1097
  C  C1218  1  0.067570  0.749720  0.893570  1.0  -0.1397
  C  C1219  1  0.122430  0.698740  0.846420  1.0  -0.1373
  C  C1220  1  0.037880  0.891250  0.049370  1.0  0.1684
  C  C1221  1  0.252050  0.866620  0.968530  1.0  -0.0547
  C  C1222  1  0.331350  0.885450  0.977680  1.0  -0.1267
  C  C1223  1  0.319000  0.892800  0.936900  1.0  0.058
  C  C1224  1  0.304000  0.867250  0.012550  1.0  -0.0843
  C  C1225  1  0.793550  0.085540  0.257030  1.0  -0.1038
  C  C1226  1  0.685020  0.312170  0.390400  1.0  0.3592
  C  C1227  1  0.705700  0.287600  0.388550  1.0  -0.0304
  C  C1228  1  0.756400  0.035970  0.194510  1.0  0.0718
  C  C1229  1  0.797000  0.114270  0.288710  1.0  -0.0235
  C  C1230  1  0.930770  0.190800  0.340880  1.0  -0.0713
  C  C1231  1  0.745260  0.971840  0.137510  1.0  -0.1439
  C  C1232  1  0.768750  0.127360  0.289540  1.0  -0.1464
  C  C1233  1  0.737930  0.935320  0.109430  1.0  0.6926
  C  C1234  1  0.684090  0.245840  0.385500  1.0  -0.1506
  C  C1235  1  0.771280  0.157230  0.324340  1.0  0.6687
  C  C1236  1  0.748040  0.306270  0.388450  1.0  -0.128
  C  C1237  1  0.761420  0.068710  0.226110  1.0  0.0342
  C  C1238  1  0.783890  0.000710  0.151700  1.0  -0.0689
  C  C1239  1  0.900340  0.168160  0.377650  1.0  0.7379
  C  C1240  1  0.765880  0.282610  0.385240  1.0  0.1682
  C  C1241  1  0.712340  0.975020  0.151680  1.0  -0.0349
  C  C1242  1  0.737530  0.111890  0.258000  1.0  -0.0696
  C  C1243  1  0.946240  0.217860  0.265940  1.0  -0.1357
  C  C1244  1  0.717780  0.006740  0.179400  1.0  -0.1098
  C  C1245  1  0.734240  0.083050  0.226900  1.0  -0.1397
  C  C1246  1  0.789100  0.032070  0.179750  1.0  -0.1373
  C  C1247  1  0.704550  0.224580  0.382700  1.0  0.1682
  C  C1248  1  0.918720  0.199950  0.301860  1.0  -0.0547
  C  C1249  1  0.998020  0.218780  0.311010  1.0  -0.1267
  C  C1250  1  0.985670  0.226130  0.270230  1.0  0.0582
  C  C1251  1  0.970670  0.200580  0.345880  1.0  -0.0843
  C  C1252  1  0.460210  0.418880  0.590370  1.0  -0.1038
  C  C1253  1  0.351680  0.645510  0.723740  1.0  0.3591
  C  C1254  1  0.372360  0.620940  0.721890  1.0  -0.0303
  C  C1255  1  0.423060  0.369310  0.527850  1.0  0.0718
  C  C1256  1  0.463660  0.447610  0.622050  1.0  -0.0235
  C  C1257  1  0.597430  0.524140  0.674220  1.0  -0.0713
  C  C1258  1  0.411920  0.305180  0.470850  1.0  -0.144
  C  C1259  1  0.435410  0.460700  0.622880  1.0  -0.1464
  C  C1260  1  0.404590  0.268660  0.442770  1.0  0.6924
  C  C1261  1  0.350750  0.579180  0.718840  1.0  -0.1505
  C  C1262  1  0.437940  0.490570  0.657680  1.0  0.6687
  C  C1263  1  0.414700  0.639610  0.721790  1.0  -0.1279
  C  C1264  1  0.428080  0.402050  0.559450  1.0  0.0341
  C  C1265  1  0.450550  0.334050  0.485040  1.0  -0.0689
  C  C1266  1  0.567000  0.501500  0.710990  1.0  0.7379
  C  C1267  1  0.432540  0.615950  0.718580  1.0  0.1681
  C  C1268  1  0.379000  0.308360  0.485020  1.0  -0.0349
  C  C1269  1  0.404190  0.445230  0.591340  1.0  -0.0696
  C  C1270  1  0.612900  0.551200  0.599280  1.0  -0.1357
  C  C1271  1  0.384440  0.340080  0.512740  1.0  -0.1097
  C  C1272  1  0.400900  0.416390  0.560240  1.0  -0.1397
  C  C1273  1  0.455760  0.365410  0.513090  1.0  -0.1373
  C  C1274  1  0.371210  0.557920  0.716040  1.0  0.1683
  C  C1275  1  0.585380  0.533290  0.635200  1.0  -0.0547
  C  C1276  1  0.664680  0.552120  0.644350  1.0  -0.1267
  C  C1277  1  0.652330  0.559470  0.603570  1.0  0.0579
  C  C1278  1  0.637330  0.533920  0.679220  1.0  -0.0843
  C  C1279  1  0.247790  0.374670  0.923700  1.0  -0.1044
  C  C1280  1  0.021160  0.039510  0.057070  1.0  0.3595
  C  C1281  1  0.045730  0.084760  0.055220  1.0  -0.0252
  C  C1282  1  0.297360  0.387090  0.861180  1.0  0.0693
  C  C1283  1  0.219060  0.349390  0.955380  1.0  -0.024
  C  C1284  1  0.142530  0.406630  0.007550  1.0  -0.0711
  C  C1285  1  0.361490  0.440080  0.804180  1.0  -0.1417
  C  C1286  1  0.205970  0.308050  0.956210  1.0  -0.1474
  C  C1287  1  0.398010  0.469270  0.776100  1.0  0.693
  C  C1288  1  0.087490  0.104910  0.052170  1.0  -0.1497
  C  C1289  1  0.176100  0.280710  0.991010  1.0  0.671
  C  C1290  1  0.027060  0.108430  0.055120  1.0  -0.1281
  C  C1291  1  0.264620  0.359370  0.892780  1.0  0.0315
  C  C1292  1  0.332620  0.449840  0.818370  1.0  -0.0705
  C  C1293  1  0.165170  0.398840  0.044320  1.0  0.7382
  C  C1294  1  0.050720  0.149930  0.051910  1.0  0.1666
  C  C1295  1  0.358310  0.403980  0.818350  1.0  -0.036
  C  C1296  1  0.221440  0.292300  0.924670  1.0  -0.0679
  C  C1297  1  0.115470  0.395040  0.932610  1.0  -0.1352
  C  C1298  1  0.326590  0.377700  0.846070  1.0  -0.1127
  C  C1299  1  0.250280  0.317850  0.893570  1.0  -0.1415
  C  C1300  1  0.301260  0.423690  0.846420  1.0  -0.1329
  C  C1301  1  0.108750  0.146630  0.049370  1.0  0.169
  C  C1302  1  0.133380  0.385430  0.968530  1.0  -0.0546
  C  C1303  1  0.114550  0.445900  0.977680  1.0  -0.1267
  C  C1304  1  0.107200  0.426200  0.936900  1.0  0.0577
  C  C1305  1  0.132750  0.436750  0.012550  1.0  -0.0838
  C  C1306  1  0.914460  0.708000  0.257030  1.0  -0.1042
  C  C1307  1  0.687830  0.372840  0.390400  1.0  0.3596
  C  C1308  1  0.712400  0.418090  0.388550  1.0  -0.0252
  C  C1309  1  0.964030  0.720420  0.194510  1.0  0.0693
  C  C1310  1  0.885730  0.682720  0.288710  1.0  -0.024
  C  C1311  1  0.809200  0.739960  0.340880  1.0  -0.0711
  C  C1312  1  0.028160  0.773410  0.137510  1.0  -0.1417
  C  C1313  1  0.872640  0.641380  0.289540  1.0  -0.1474
  C  C1314  1  0.064680  0.802600  0.109430  1.0  0.693
  C  C1315  1  0.754160  0.438240  0.385500  1.0  -0.1498
  C  C1316  1  0.842770  0.614040  0.324340  1.0  0.671
  C  C1317  1  0.693730  0.441760  0.388450  1.0  -0.128
  C  C1318  1  0.931290  0.692700  0.226110  1.0  0.0315
  C  C1319  1  0.999290  0.783170  0.151700  1.0  -0.0705
  C  C1320  1  0.831840  0.732170  0.377650  1.0  0.7382
  C  C1321  1  0.717390  0.483260  0.385240  1.0  0.1666
  C  C1322  1  0.024980  0.737310  0.151680  1.0  -0.036
  C  C1323  1  0.888110  0.625630  0.258000  1.0  -0.0679
  C  C1324  1  0.782140  0.728370  0.265940  1.0  -0.1349
  C  C1325  1  0.993260  0.711030  0.179400  1.0  -0.1127
  C  C1326  1  0.916950  0.651180  0.226900  1.0  -0.1415
  C  C1327  1  0.967930  0.757020  0.179750  1.0  -0.1329
  C  C1328  1  0.775420  0.479960  0.382700  1.0  0.169
  C  C1329  1  0.800050  0.718760  0.301860  1.0  -0.0546
  C  C1330  1  0.781220  0.779230  0.311010  1.0  -0.1266
  C  C1331  1  0.773870  0.759530  0.270230  1.0  0.0575
  C  C1332  1  0.799420  0.770080  0.345880  1.0  -0.0838
  C  C1333  1  0.581120  0.041340  0.590370  1.0  -0.1044
  C  C1334  1  0.354490  0.706180  0.723740  1.0  0.3597
  C  C1335  1  0.379060  0.751430  0.721890  1.0  -0.0253
  C  C1336  1  0.630690  0.053760  0.527850  1.0  0.0693
  C  C1337  1  0.552390  0.016060  0.622050  1.0  -0.024
  C  C1338  1  0.475860  0.073300  0.674220  1.0  -0.0713
  C  C1339  1  0.694820  0.106750  0.470850  1.0  -0.1417
  C  C1340  1  0.539300  0.974720  0.622880  1.0  -0.1474
  C  C1341  1  0.731340  0.135940  0.442770  1.0  0.6927
  C  C1342  1  0.420820  0.771580  0.718840  1.0  -0.1497
  C  C1343  1  0.509430  0.947380  0.657680  1.0  0.671
  C  C1344  1  0.360390  0.775100  0.721790  1.0  -0.1281
  C  C1345  1  0.597950  0.026040  0.559450  1.0  0.0316
  C  C1346  1  0.665950  0.116510  0.485040  1.0  -0.0705
  C  C1347  1  0.498500  0.065510  0.710990  1.0  0.7382
  C  C1348  1  0.384050  0.816600  0.718580  1.0  0.1667
  C  C1349  1  0.691640  0.070650  0.485020  1.0  -0.036
  C  C1350  1  0.554770  0.958970  0.591340  1.0  -0.0679
  C  C1351  1  0.448800  0.061710  0.599280  1.0  -0.1352
  C  C1352  1  0.659920  0.044370  0.512740  1.0  -0.1128
  C  C1353  1  0.583610  0.984520  0.560240  1.0  -0.1415
  C  C1354  1  0.634590  0.090360  0.513090  1.0  -0.1329
  C  C1355  1  0.442080  0.813300  0.716040  1.0  0.1691
  C  C1356  1  0.466710  0.052100  0.635200  1.0  -0.0546
  C  C1357  1  0.447880  0.112570  0.644350  1.0  -0.1267
  C  C1358  1  0.440530  0.092870  0.603570  1.0  0.0576
  C  C1359  1  0.466080  0.103420  0.679220  1.0  -0.0837
  C  C1360  1  0.873120  0.625330  0.576300  1.0  -0.104
  C  C1361  1  0.981650  0.960490  0.442930  1.0  0.3545
  C  C1362  1  0.960970  0.915240  0.444780  1.0  -0.0263
  C  C1363  1  0.910270  0.612910  0.638820  1.0  0.0705
  C  C1364  1  0.869670  0.650610  0.544620  1.0  -0.024
  C  C1365  1  0.735900  0.593370  0.492450  1.0  -0.0707
  C  C1366  1  0.921410  0.559920  0.695820  1.0  -0.1416
  C  C1367  1  0.897920  0.691950  0.543790  1.0  -0.1471
  C  C1368  1  0.928740  0.530730  0.723900  1.0  0.6933
  C  C1369  1  0.982580  0.895090  0.447830  1.0  -0.1494
  C  C1370  1  0.895390  0.719290  0.508990  1.0  0.6691
  C  C1371  1  0.918630  0.891570  0.444880  1.0  -0.1277
  C  C1372  1  0.905250  0.640630  0.607220  1.0  0.0326
  C  C1373  1  0.882780  0.550160  0.681630  1.0  -0.07
  C  C1374  1  0.766330  0.601160  0.455680  1.0  0.7398
  C  C1375  1  0.900790  0.850070  0.448090  1.0  0.1666
  C  C1376  1  0.954330  0.596020  0.681650  1.0  -0.0351
  C  C1377  1  0.929140  0.707700  0.575330  1.0  -0.0682
  C  C1378  1  0.720430  0.604960  0.567390  1.0  -0.1358
  C  C1379  1  0.948890  0.622300  0.653930  1.0  -0.1118
  C  C1380  1  0.932430  0.682150  0.606430  1.0  -0.1418
  C  C1381  1  0.877570  0.576310  0.653580  1.0  -0.1327
  C  C1382  1  0.962120  0.853370  0.450630  1.0  0.1694
  C  C1383  1  0.747950  0.614570  0.531470  1.0  -0.0537
  C  C1384  1  0.668650  0.554100  0.522320  1.0  -0.1289
  C  C1385  1  0.681000  0.573800  0.563100  1.0  0.0574
  C  C1386  1  0.696000  0.563250  0.487450  1.0  -0.0832
  C  C1387  1  0.539790  0.958660  0.909630  1.0  -0.104
  C  C1388  1  0.648320  0.293820  0.776260  1.0  0.3541
  C  C1389  1  0.627640  0.248570  0.778110  1.0  -0.0263
  C  C1390  1  0.576940  0.946240  0.972150  1.0  0.0704
  C  C1391  1  0.536340  0.983940  0.877950  1.0  -0.024
  C  C1392  1  0.402570  0.926700  0.825780  1.0  -0.0705
  C  C1393  1  0.588080  0.893250  0.029150  1.0  -0.1416
  C  C1394  1  0.564590  0.025280  0.877120  1.0  -0.1471
  C  C1395  1  0.595410  0.864060  0.057230  1.0  0.6934
  C  C1396  1  0.649250  0.228420  0.781160  1.0  -0.1494
  C  C1397  1  0.562060  0.052620  0.842320  1.0  0.6691
  C  C1398  1  0.585300  0.224900  0.778210  1.0  -0.1277
  C  C1399  1  0.571920  0.973960  0.940550  1.0  0.0326
  C  C1400  1  0.549450  0.883490  0.014960  1.0  -0.07
  C  C1401  1  0.433000  0.934490  0.789010  1.0  0.7398
  C  C1402  1  0.567460  0.183400  0.781420  1.0  0.1667
  C  C1403  1  0.621000  0.929350  0.014980  1.0  -0.0352
  C  C1404  1  0.595810  0.041030  0.908660  1.0  -0.0682
  C  C1405  1  0.387100  0.938290  0.900720  1.0  -0.1355
  C  C1406  1  0.615560  0.955630  0.987260  1.0  -0.1118
  C  C1407  1  0.599100  0.015480  0.939760  1.0  -0.1419
  C  C1408  1  0.544240  0.909640  0.986910  1.0  -0.1327
  C  C1409  1  0.628790  0.186700  0.783960  1.0  0.1694
  C  C1410  1  0.414620  0.947900  0.864800  1.0  -0.0537
  C  C1411  1  0.335320  0.887430  0.855650  1.0  -0.1289
  C  C1412  1  0.347670  0.907130  0.896430  1.0  0.0574
  C  C1413  1  0.362670  0.896580  0.820780  1.0  -0.0831
  C  C1414  1  0.206450  0.292000  0.242970  1.0  -0.1042
  C  C1415  1  0.314980  0.627160  0.109600  1.0  0.3493
  C  C1416  1  0.294300  0.581910  0.111450  1.0  -0.0316
  C  C1417  1  0.243600  0.279580  0.305490  1.0  0.0704
  C  C1418  1  0.203000  0.317280  0.211290  1.0  -0.024
  C  C1419  1  0.069230  0.260040  0.159120  1.0  -0.0707
  C  C1420  1  0.254740  0.226590  0.362490  1.0  -0.1412
  C  C1421  1  0.231250  0.358620  0.210460  1.0  -0.1471
  C  C1422  1  0.262070  0.197400  0.390570  1.0  0.6931
  C  C1423  1  0.315910  0.561760  0.114500  1.0  -0.1493
  C  C1424  1  0.228720  0.385960  0.175660  1.0  0.6692
  C  C1425  1  0.251960  0.558240  0.111550  1.0  -0.1277
  C  C1426  1  0.238580  0.307300  0.273890  1.0  0.0326
  C  C1427  1  0.216110  0.216830  0.348300  1.0  -0.07
  C  C1428  1  0.099660  0.267830  0.122350  1.0  0.7398
  C  C1429  1  0.234120  0.516740  0.114760  1.0  0.1666
  C  C1430  1  0.287660  0.262690  0.348320  1.0  -0.0352
  C  C1431  1  0.262470  0.374370  0.242000  1.0  -0.0682
  C  C1432  1  0.053760  0.271630  0.234060  1.0  -0.1358
  C  C1433  1  0.282220  0.288970  0.320600  1.0  -0.1118
  C  C1434  1  0.265760  0.348820  0.273100  1.0  -0.1418
  C  C1435  1  0.210900  0.242980  0.320250  1.0  -0.1327
  C  C1436  1  0.295450  0.520040  0.117300  1.0  0.1694
  C  C1437  1  0.081280  0.281240  0.198140  1.0  -0.0537
  C  C1438  1  0.001980  0.220770  0.188990  1.0  -0.1289
  C  C1439  1  0.014330  0.240470  0.229770  1.0  0.0575
  C  C1440  1  0.029330  0.229920  0.154120  1.0  -0.0832
  C  C1441  1  0.752210  0.126880  0.576300  1.0  -0.1029
  C  C1442  1  0.978840  0.018350  0.442930  1.0  0.3553
  C  C1443  1  0.954270  0.039030  0.444780  1.0  -0.0333
  C  C1444  1  0.702640  0.089730  0.638820  1.0  0.0697
  C  C1445  1  0.780940  0.130330  0.544620  1.0  -0.024
  C  C1446  1  0.857470  0.264100  0.492450  1.0  -0.0708
  C  C1447  1  0.638510  0.078590  0.695820  1.0  -0.1433
  C  C1448  1  0.794030  0.102080  0.543790  1.0  -0.1446
  C  C1449  1  0.601990  0.071260  0.723900  1.0  0.6908
  C  C1450  1  0.912510  0.017420  0.447830  1.0  -0.1517
  C  C1451  1  0.823900  0.104610  0.508990  1.0  0.6679
  C  C1452  1  0.972940  0.081370  0.444880  1.0  -0.1283
  C  C1453  1  0.735380  0.094750  0.607220  1.0  0.0313
  C  C1454  1  0.667380  0.117220  0.681630  1.0  -0.0737
  C  C1455  1  0.834830  0.233670  0.455680  1.0  0.7387
  C  C1456  1  0.949280  0.099210  0.448090  1.0  0.1679
  C  C1457  1  0.641690  0.045670  0.681650  1.0  -0.037
  C  C1458  1  0.778560  0.070860  0.575330  1.0  -0.0666
  C  C1459  1  0.884530  0.279570  0.567390  1.0  -0.1352
  C  C1460  1  0.673410  0.051110  0.653930  1.0  -0.1131
  C  C1461  1  0.749720  0.067570  0.606430  1.0  -0.1384
  C  C1462  1  0.698740  0.122430  0.653580  1.0  -0.1358
  C  C1463  1  0.891250  0.037880  0.450630  1.0  0.1699
  C  C1464  1  0.866620  0.252050  0.531470  1.0  -0.0528
  C  C1465  1  0.885450  0.331350  0.522320  1.0  -0.125
  C  C1466  1  0.892800  0.319000  0.563100  1.0  0.0551
  C  C1467  1  0.867250  0.304000  0.487450  1.0  -0.0844
  C  C1468  1  0.418880  0.460210  0.909630  1.0  -0.1029
  C  C1469  1  0.645510  0.351680  0.776260  1.0  0.3554
  C  C1470  1  0.620940  0.372360  0.778110  1.0  -0.0333
  C  C1471  1  0.369310  0.423060  0.972150  1.0  0.0697
  C  C1472  1  0.447610  0.463660  0.877950  1.0  -0.024
  C  C1473  1  0.524140  0.597430  0.825780  1.0  -0.0708
  C  C1474  1  0.305180  0.411920  0.029150  1.0  -0.1434
  C  C1475  1  0.460700  0.435410  0.877120  1.0  -0.1446
  C  C1476  1  0.268660  0.404590  0.057230  1.0  0.6906
  C  C1477  1  0.579180  0.350750  0.781160  1.0  -0.1517
  C  C1478  1  0.490570  0.437940  0.842320  1.0  0.6679
  C  C1479  1  0.639610  0.414700  0.778210  1.0  -0.1283
  C  C1480  1  0.402050  0.428080  0.940550  1.0  0.0312
  C  C1481  1  0.334050  0.450550  0.014960  1.0  -0.0737
  C  C1482  1  0.501500  0.567000  0.789010  1.0  0.7388
  C  C1483  1  0.615950  0.432540  0.781420  1.0  0.1679
  C  C1484  1  0.308360  0.379000  0.014980  1.0  -0.037
  C  C1485  1  0.445230  0.404190  0.908660  1.0  -0.0666
  C  C1486  1  0.551200  0.612900  0.900720  1.0  -0.1355
  C  C1487  1  0.340080  0.384440  0.987260  1.0  -0.113
  C  C1488  1  0.416390  0.400900  0.939760  1.0  -0.1384
  C  C1489  1  0.365410  0.455760  0.986910  1.0  -0.1358
  C  C1490  1  0.557920  0.371210  0.783960  1.0  0.1699
  C  C1491  1  0.533290  0.585380  0.864800  1.0  -0.0528
  C  C1492  1  0.552120  0.664680  0.855650  1.0  -0.125
  C  C1493  1  0.559470  0.652330  0.896430  1.0  0.0551
  C  C1494  1  0.533920  0.637330  0.820780  1.0  -0.0845
  C  C1495  1  0.085540  0.793550  0.242970  1.0  -0.1029
  C  C1496  1  0.312170  0.685020  0.109600  1.0  0.3507
  C  C1497  1  0.287600  0.705700  0.111450  1.0  -0.0386
  C  C1498  1  0.035970  0.756400  0.305490  1.0  0.0697
  C  C1499  1  0.114270  0.797000  0.211290  1.0  -0.024
  C  C1500  1  0.190800  0.930770  0.159120  1.0  -0.0708
  C  C1501  1  0.971840  0.745260  0.362490  1.0  -0.1433
  C  C1502  1  0.127360  0.768750  0.210460  1.0  -0.1446
  C  C1503  1  0.935320  0.737930  0.390570  1.0  0.6908
  C  C1504  1  0.245840  0.684090  0.114500  1.0  -0.1518
  C  C1505  1  0.157230  0.771280  0.175660  1.0  0.6679
  C  C1506  1  0.306270  0.748040  0.111550  1.0  -0.1284
  C  C1507  1  0.068710  0.761420  0.273890  1.0  0.0313
  C  C1508  1  0.000710  0.783890  0.348300  1.0  -0.0737
  C  C1509  1  0.168160  0.900340  0.122350  1.0  0.7388
  C  C1510  1  0.282610  0.765880  0.114760  1.0  0.168
  C  C1511  1  0.975020  0.712340  0.348320  1.0  -0.037
  C  C1512  1  0.111890  0.737530  0.242000  1.0  -0.0666
  C  C1513  1  0.217860  0.946240  0.234060  1.0  -0.1354
  C  C1514  1  0.006740  0.717780  0.320600  1.0  -0.1132
  C  C1515  1  0.083050  0.734240  0.273100  1.0  -0.1384
  C  C1516  1  0.032070  0.789100  0.320250  1.0  -0.1358
  C  C1517  1  0.224580  0.704550  0.117300  1.0  0.1698
  C  C1518  1  0.199950  0.918720  0.198140  1.0  -0.0528
  C  C1519  1  0.218780  0.998020  0.188990  1.0  -0.125
  C  C1520  1  0.226130  0.985670  0.229770  1.0  0.0554
  C  C1521  1  0.200580  0.970670  0.154120  1.0  -0.0844
  C  C1522  1  0.374670  0.247790  0.576300  1.0  -0.1045
  C  C1523  1  0.039510  0.021160  0.442930  1.0  0.3544
  C  C1524  1  0.084760  0.045730  0.444780  1.0  -0.0332
  C  C1525  1  0.387090  0.297360  0.638820  1.0  0.0719
  C  C1526  1  0.349390  0.219060  0.544620  1.0  -0.0236
  C  C1527  1  0.406630  0.142530  0.492450  1.0  -0.0709
  C  C1528  1  0.440080  0.361490  0.695820  1.0  -0.1451
  C  C1529  1  0.308050  0.205970  0.543790  1.0  -0.1469
  C  C1530  1  0.469270  0.398010  0.723900  1.0  0.6933
  C  C1531  1  0.104910  0.087490  0.447830  1.0  -0.1501
  C  C1532  1  0.280710  0.176100  0.508990  1.0  0.671
  C  C1533  1  0.108430  0.027060  0.444880  1.0  -0.1276
  C  C1534  1  0.359370  0.264620  0.607220  1.0  0.0345
  C  C1535  1  0.449840  0.332620  0.681630  1.0  -0.0691
  C  C1536  1  0.398840  0.165170  0.455680  1.0  0.7391
  C  C1537  1  0.149930  0.050720  0.448090  1.0  0.1686
  C  C1538  1  0.403980  0.358310  0.681650  1.0  -0.0349
  C  C1539  1  0.292300  0.221440  0.575330  1.0  -0.0689
  C  C1540  1  0.395040  0.115470  0.567390  1.0  -0.1359
  C  C1541  1  0.377700  0.326590  0.653930  1.0  -0.1097
  C  C1542  1  0.317850  0.250280  0.606430  1.0  -0.1388
  C  C1543  1  0.423690  0.301260  0.653580  1.0  -0.1385
  C  C1544  1  0.146630  0.108750  0.450630  1.0  0.1695
  C  C1545  1  0.385430  0.133380  0.531470  1.0  -0.055
  C  C1546  1  0.445900  0.114550  0.522320  1.0  -0.1266
  C  C1547  1  0.426200  0.107200  0.563100  1.0  0.0581
  C  C1548  1  0.436750  0.132750  0.487450  1.0  -0.0843
  C  C1549  1  0.041340  0.581120  0.909630  1.0  -0.1045
  C  C1550  1  0.706180  0.354490  0.776260  1.0  0.3545
  C  C1551  1  0.751430  0.379060  0.778110  1.0  -0.0332
  C  C1552  1  0.053760  0.630690  0.972150  1.0  0.0719
  C  C1553  1  0.016060  0.552390  0.877950  1.0  -0.0236
  C  C1554  1  0.073300  0.475860  0.825780  1.0  -0.071
  C  C1555  1  0.106750  0.694820  0.029150  1.0  -0.1451
  C  C1556  1  0.974720  0.539300  0.877120  1.0  -0.1469
  C  C1557  1  0.135940  0.731340  0.057230  1.0  0.6931
  C  C1558  1  0.771580  0.420820  0.781160  1.0  -0.1501
  C  C1559  1  0.947380  0.509430  0.842320  1.0  0.671
  C  C1560  1  0.775100  0.360390  0.778210  1.0  -0.1276
  C  C1561  1  0.026040  0.597950  0.940550  1.0  0.0346
  C  C1562  1  0.116510  0.665950  0.014960  1.0  -0.0691
  C  C1563  1  0.065510  0.498500  0.789010  1.0  0.7391
  C  C1564  1  0.816600  0.384050  0.781420  1.0  0.1687
  C  C1565  1  0.070650  0.691640  0.014980  1.0  -0.0349
  C  C1566  1  0.958970  0.554770  0.908660  1.0  -0.0689
  C  C1567  1  0.061710  0.448800  0.900720  1.0  -0.1359
  C  C1568  1  0.044370  0.659920  0.987260  1.0  -0.1097
  C  C1569  1  0.984520  0.583610  0.939760  1.0  -0.1389
  C  C1570  1  0.090360  0.634590  0.986910  1.0  -0.1385
  C  C1571  1  0.813300  0.442080  0.783960  1.0  0.1695
  C  C1572  1  0.052100  0.466710  0.864800  1.0  -0.055
  C  C1573  1  0.112570  0.447880  0.855650  1.0  -0.1266
  C  C1574  1  0.092870  0.440530  0.896430  1.0  0.0581
  C  C1575  1  0.103420  0.466080  0.820780  1.0  -0.0842
  C  C1576  1  0.708000  0.914460  0.242970  1.0  -0.1043
  C  C1577  1  0.372840  0.687830  0.109600  1.0  0.3496
  C  C1578  1  0.418090  0.712400  0.111450  1.0  -0.0375
  C  C1579  1  0.720420  0.964030  0.305490  1.0  0.0719
  C  C1580  1  0.682720  0.885730  0.211290  1.0  -0.0236
  C  C1581  1  0.739960  0.809200  0.159120  1.0  -0.0709
  C  C1582  1  0.773410  0.028160  0.362490  1.0  -0.1451
  C  C1583  1  0.641380  0.872640  0.210460  1.0  -0.1469
  C  C1584  1  0.802600  0.064680  0.390570  1.0  0.6933
  C  C1585  1  0.438240  0.754160  0.114500  1.0  -0.1502
  C  C1586  1  0.614040  0.842770  0.175660  1.0  0.671
  C  C1587  1  0.441760  0.693730  0.111550  1.0  -0.1275
  C  C1588  1  0.692700  0.931290  0.273890  1.0  0.0345
  C  C1589  1  0.783170  0.999290  0.348300  1.0  -0.0691
  C  C1590  1  0.732170  0.831840  0.122350  1.0  0.7391
  C  C1591  1  0.483260  0.717390  0.114760  1.0  0.1686
  C  C1592  1  0.737310  0.024980  0.348320  1.0  -0.0349
  C  C1593  1  0.625630  0.888110  0.242000  1.0  -0.0689
  C  C1594  1  0.728370  0.782140  0.234060  1.0  -0.1357
  C  C1595  1  0.711030  0.993260  0.320600  1.0  -0.1097
  C  C1596  1  0.651180  0.916950  0.273100  1.0  -0.1388
  C  C1597  1  0.757020  0.967930  0.320250  1.0  -0.1385
  C  C1598  1  0.479960  0.775420  0.117300  1.0  0.1695
  C  C1599  1  0.718760  0.800050  0.198140  1.0  -0.055
  C  C1600  1  0.779230  0.781220  0.188990  1.0  -0.1266
  C  C1601  1  0.759530  0.773870  0.229770  1.0  0.058
  C  C1602  1  0.770080  0.799420  0.154120  1.0  -0.0842
  N  N1603  1  0.022440  0.041670  0.942850  1.0  -0.502
  N  N1604  1  0.169310  0.078120  0.951110  1.0  -0.3218
  N  N1605  1  0.689110  0.375000  0.276180  1.0  -0.502
  N  N1606  1  0.835980  0.411450  0.284440  1.0  -0.3218
  N  N1607  1  0.355770  0.708340  0.609520  1.0  -0.502
  N  N1608  1  0.502640  0.744790  0.617780  1.0  -0.3218
  N  N1609  1  0.958330  0.980770  0.942850  1.0  -0.5017
  N  N1610  1  0.921880  0.091190  0.951110  1.0  -0.3229
  N  N1611  1  0.625000  0.314100  0.276180  1.0  -0.5017
  N  N1612  1  0.588550  0.424520  0.284440  1.0  -0.323
  N  N1613  1  0.291660  0.647440  0.609520  1.0  -0.5017
  N  N1614  1  0.255210  0.757860  0.617780  1.0  -0.323
  N  N1615  1  0.019230  0.977560  0.942850  1.0  -0.5032
  N  N1616  1  0.908810  0.830690  0.951110  1.0  -0.3252
  N  N1617  1  0.685900  0.310890  0.276180  1.0  -0.5032
  N  N1618  1  0.575480  0.164020  0.284440  1.0  -0.3252
  N  N1619  1  0.352560  0.644230  0.609520  1.0  -0.5032
  N  N1620  1  0.242140  0.497360  0.617780  1.0  -0.3252
  N  N1621  1  0.041670  0.022440  0.557150  1.0  -0.5016
  N  N1622  1  0.078120  0.169310  0.548890  1.0  -0.3245
  N  N1623  1  0.708340  0.355770  0.890480  1.0  -0.4999
  N  N1624  1  0.744790  0.502640  0.882220  1.0  -0.3245
  N  N1625  1  0.375000  0.689110  0.223820  1.0  -0.5016
  N  N1626  1  0.411450  0.835980  0.215560  1.0  -0.3245
  N  N1627  1  0.980770  0.958330  0.557150  1.0  -0.5002
  N  N1628  1  0.091190  0.921880  0.548890  1.0  -0.3206
  N  N1629  1  0.647440  0.291660  0.890480  1.0  -0.4988
  N  N1630  1  0.757860  0.255210  0.882220  1.0  -0.3208
  N  N1631  1  0.314100  0.625000  0.223820  1.0  -0.5002
  N  N1632  1  0.424520  0.588550  0.215560  1.0  -0.3207
  N  N1633  1  0.977560  0.019230  0.557150  1.0  -0.5011
  N  N1634  1  0.830690  0.908810  0.548890  1.0  -0.3237
  N  N1635  1  0.644230  0.352560  0.890480  1.0  -0.4989
  N  N1636  1  0.497360  0.242140  0.882220  1.0  -0.3237
  N  N1637  1  0.310890  0.685900  0.223820  1.0  -0.5011
  N  N1638  1  0.164020  0.575480  0.215560  1.0  -0.3237
  N  N1639  1  0.977560  0.958330  0.057150  1.0  -0.5004
  N  N1640  1  0.830690  0.921880  0.048890  1.0  -0.3227
  N  N1641  1  0.644230  0.291660  0.390480  1.0  -0.5004
  N  N1642  1  0.497360  0.255210  0.382220  1.0  -0.3227
  N  N1643  1  0.310890  0.625000  0.723820  1.0  -0.5004
  N  N1644  1  0.164020  0.588550  0.715560  1.0  -0.3227
  N  N1645  1  0.041670  0.019230  0.057150  1.0  -0.5011
  N  N1646  1  0.078120  0.908810  0.048890  1.0  -0.3223
  N  N1647  1  0.708340  0.352560  0.390480  1.0  -0.5011
  N  N1648  1  0.744790  0.242140  0.382220  1.0  -0.3225
  N  N1649  1  0.375000  0.685900  0.723820  1.0  -0.5011
  N  N1650  1  0.411450  0.575480  0.715560  1.0  -0.3225
  N  N1651  1  0.980770  0.022440  0.057150  1.0  -0.5017
  N  N1652  1  0.091190  0.169310  0.048890  1.0  -0.3244
  N  N1653  1  0.647440  0.355770  0.390480  1.0  -0.5017
  N  N1654  1  0.757860  0.502640  0.382220  1.0  -0.3244
  N  N1655  1  0.314100  0.689110  0.723820  1.0  -0.5017
  N  N1656  1  0.424520  0.835980  0.715560  1.0  -0.3243
  N  N1657  1  0.958330  0.977560  0.442850  1.0  -0.5025
  N  N1658  1  0.921880  0.830690  0.451110  1.0  -0.3252
  N  N1659  1  0.625000  0.310890  0.776180  1.0  -0.5025
  N  N1660  1  0.588550  0.164020  0.784440  1.0  -0.3252
  N  N1661  1  0.291660  0.644230  0.109520  1.0  -0.5014
  N  N1662  1  0.255210  0.497360  0.117780  1.0  -0.3251
  N  N1663  1  0.019230  0.041670  0.442850  1.0  -0.5019
  N  N1664  1  0.908810  0.078120  0.451110  1.0  -0.3222
  N  N1665  1  0.685900  0.375000  0.776180  1.0  -0.5019
  N  N1666  1  0.575480  0.411450  0.784440  1.0  -0.3224
  N  N1667  1  0.352560  0.708340  0.109520  1.0  -0.5004
  N  N1668  1  0.242140  0.744790  0.117780  1.0  -0.3224
  N  N1669  1  0.022440  0.980770  0.442850  1.0  -0.5029
  N  N1670  1  0.169310  0.091190  0.451110  1.0  -0.3226
  N  N1671  1  0.689110  0.314100  0.776180  1.0  -0.5029
  N  N1672  1  0.835980  0.424520  0.784440  1.0  -0.3225
  N  N1673  1  0.355770  0.647440  0.109520  1.0  -0.5016
  N  N1674  1  0.502640  0.757860  0.117780  1.0  -0.3226
  O  O1675  1  0.242850  0.081480  0.011650  1.0  -0.5645
  O  O1676  1  0.295700  0.130400  0.977150  1.0  -0.6679
  O  O1677  1  0.497710  0.101140  0.244730  1.0  -0.5946
  O  O1678  1  0.428900  0.240020  0.932200  1.0  -0.6076
  O  O1679  1  0.363670  0.204590  0.950990  1.0  -0.6219
  O  O1680  1  0.461990  0.035550  0.225080  1.0  -0.6035
  O  O1681  1  0.909520  0.414810  0.344980  1.0  -0.5645
  O  O1682  1  0.962370  0.463730  0.310480  1.0  -0.6677
  O  O1683  1  0.164380  0.434470  0.578060  1.0  -0.5946
  O  O1684  1  0.095570  0.573350  0.265530  1.0  -0.6076
  O  O1685  1  0.030340  0.537920  0.284320  1.0  -0.6228
  O  O1686  1  0.128660  0.368880  0.558410  1.0  -0.6035
  O  O1687  1  0.576180  0.748150  0.678320  1.0  -0.564
  O  O1688  1  0.629030  0.797070  0.643820  1.0  -0.6656
  O  O1689  1  0.831040  0.767810  0.911400  1.0  -0.5949
  O  O1690  1  0.762230  0.906690  0.598870  1.0  -0.6078
  O  O1691  1  0.697000  0.871260  0.617660  1.0  -0.622
  O  O1692  1  0.795320  0.702220  0.891750  1.0  -0.604
  O  O1693  1  0.918520  0.161370  0.011650  1.0  -0.5634
  O  O1694  1  0.869600  0.165300  0.977150  1.0  -0.6639
  O  O1695  1  0.898860  0.396570  0.244730  1.0  -0.5951
  O  O1696  1  0.759980  0.188880  0.932200  1.0  -0.6077
  O  O1697  1  0.795410  0.159080  0.950990  1.0  -0.623
  O  O1698  1  0.964450  0.426440  0.225080  1.0  -0.6001
  O  O1699  1  0.585190  0.494700  0.344980  1.0  -0.5634
  O  O1700  1  0.536270  0.498630  0.310480  1.0  -0.6642
  O  O1701  1  0.565530  0.729900  0.578060  1.0  -0.5954
  O  O1702  1  0.426650  0.522210  0.265530  1.0  -0.6075
  O  O1703  1  0.462080  0.492410  0.284320  1.0  -0.6242
  O  O1704  1  0.631120  0.759770  0.558410  1.0  -0.6003
  O  O1705  1  0.251850  0.828040  0.678320  1.0  -0.5627
  O  O1706  1  0.202930  0.831970  0.643820  1.0  -0.6646
  O  O1707  1  0.232190  0.063240  0.911400  1.0  -0.5955
  O  O1708  1  0.093310  0.855550  0.598870  1.0  -0.6077
  O  O1709  1  0.128740  0.825750  0.617660  1.0  -0.6233
  O  O1710  1  0.297780  0.093110  0.891750  1.0  -0.6
  O  O1711  1  0.838630  0.757150  0.011650  1.0  -0.5609
  O  O1712  1  0.834700  0.704300  0.977150  1.0  -0.6648
  O  O1713  1  0.603430  0.502290  0.244730  1.0  -0.5955
  O  O1714  1  0.811120  0.571100  0.932200  1.0  -0.6093
  O  O1715  1  0.840920  0.636330  0.950990  1.0  -0.6279
  O  O1716  1  0.573560  0.538010  0.225080  1.0  -0.5995
  O  O1717  1  0.505300  0.090480  0.344980  1.0  -0.5609
  O  O1718  1  0.501370  0.037630  0.310480  1.0  -0.6654
  O  O1719  1  0.270100  0.835620  0.578060  1.0  -0.5953
  O  O1720  1  0.477790  0.904430  0.265530  1.0  -0.6093
  O  O1721  1  0.507590  0.969660  0.284320  1.0  -0.6282
  O  O1722  1  0.240230  0.871340  0.558410  1.0  -0.5996
  O  O1723  1  0.171960  0.423820  0.678320  1.0  -0.5609
  O  O1724  1  0.168030  0.370970  0.643820  1.0  -0.6625
  O  O1725  1  0.936760  0.168960  0.911400  1.0  -0.5953
  O  O1726  1  0.144450  0.237770  0.598870  1.0  -0.6092
  O  O1727  1  0.174250  0.303000  0.617660  1.0  -0.6279
  O  O1728  1  0.906890  0.204680  0.891750  1.0  -0.5995
  O  O1729  1  0.081480  0.242850  0.488350  1.0  -0.5634
  O  O1730  1  0.130400  0.295700  0.522850  1.0  -0.666
  O  O1731  1  0.101140  0.497710  0.255270  1.0  -0.5938
  O  O1732  1  0.240020  0.428900  0.567800  1.0  -0.6098
  O  O1733  1  0.204590  0.363670  0.549010  1.0  -0.6288
  O  O1734  1  0.035550  0.461990  0.274920  1.0  -0.6001
  O  O1735  1  0.748150  0.576180  0.821680  1.0  -0.563
  O  O1736  1  0.797070  0.629030  0.856180  1.0  -0.6635
  O  O1737  1  0.767810  0.831040  0.588600  1.0  -0.594
  O  O1738  1  0.906690  0.762230  0.901130  1.0  -0.6099
  O  O1739  1  0.871260  0.697000  0.882340  1.0  -0.6289
  O  O1740  1  0.702220  0.795320  0.608250  1.0  -0.6006
  O  O1741  1  0.414810  0.909520  0.155020  1.0  -0.5633
  O  O1742  1  0.463730  0.962370  0.189520  1.0  -0.6657
  O  O1743  1  0.434470  0.164380  0.921940  1.0  -0.5938
  O  O1744  1  0.573350  0.095570  0.234470  1.0  -0.6097
  O  O1745  1  0.537920  0.030340  0.215680  1.0  -0.6298
  O  O1746  1  0.368880  0.128660  0.941590  1.0  -0.6001
  O  O1747  1  0.161370  0.918520  0.488350  1.0  -0.5648
  O  O1748  1  0.165300  0.869600  0.522850  1.0  -0.6661
  O  O1749  1  0.396570  0.898860  0.255270  1.0  -0.5951
  O  O1750  1  0.188880  0.759980  0.567800  1.0  -0.6066
  O  O1751  1  0.159080  0.795410  0.549010  1.0  -0.6213
  O  O1752  1  0.426440  0.964450  0.274920  1.0  -0.6021
  O  O1753  1  0.828040  0.251850  0.821680  1.0  -0.5641
  O  O1754  1  0.831970  0.202930  0.856180  1.0  -0.667
  O  O1755  1  0.063240  0.232190  0.588600  1.0  -0.5955
  O  O1756  1  0.855550  0.093310  0.901130  1.0  -0.6067
  O  O1757  1  0.825750  0.128740  0.882340  1.0  -0.6215
  O  O1758  1  0.093110  0.297780  0.608250  1.0  -0.602
  O  O1759  1  0.494700  0.585190  0.155020  1.0  -0.5647
  O  O1760  1  0.498630  0.536270  0.189520  1.0  -0.6665
  O  O1761  1  0.729900  0.565530  0.921940  1.0  -0.5953
  O  O1762  1  0.522210  0.426650  0.234470  1.0  -0.6064
  O  O1763  1  0.492410  0.462080  0.215680  1.0  -0.6224
  O  O1764  1  0.759770  0.631120  0.941590  1.0  -0.6023
  O  O1765  1  0.757150  0.838630  0.488350  1.0  -0.5652
  O  O1766  1  0.704300  0.834700  0.522850  1.0  -0.6668
  O  O1767  1  0.502290  0.603430  0.255270  1.0  -0.5943
  O  O1768  1  0.571100  0.811120  0.567800  1.0  -0.6076
  O  O1769  1  0.636330  0.840920  0.549010  1.0  -0.6233
  O  O1770  1  0.538010  0.573560  0.274920  1.0  -0.6002
  O  O1771  1  0.423820  0.171960  0.821680  1.0  -0.5652
  O  O1772  1  0.370970  0.168030  0.856180  1.0  -0.6649
  O  O1773  1  0.168960  0.936760  0.588600  1.0  -0.5942
  O  O1774  1  0.237770  0.144450  0.901130  1.0  -0.6074
  O  O1775  1  0.303000  0.174250  0.882340  1.0  -0.6233
  O  O1776  1  0.204680  0.906890  0.608250  1.0  -0.6003
  O  O1777  1  0.090480  0.505300  0.155020  1.0  -0.5652
  O  O1778  1  0.037630  0.501370  0.189520  1.0  -0.6674
  O  O1779  1  0.835620  0.270100  0.921940  1.0  -0.5942
  O  O1780  1  0.904430  0.477790  0.234470  1.0  -0.6076
  O  O1781  1  0.969660  0.507590  0.215680  1.0  -0.6235
  O  O1782  1  0.871340  0.240230  0.941590  1.0  -0.6003
  O  O1783  1  0.757150  0.918520  0.988350  1.0  -0.5667
  O  O1784  1  0.704300  0.869600  0.022850  1.0  -0.6698
  O  O1785  1  0.502290  0.898860  0.755270  1.0  -0.5944
  O  O1786  1  0.571100  0.759980  0.067800  1.0  -0.6071
  O  O1787  1  0.636330  0.795410  0.049010  1.0  -0.6214
  O  O1788  1  0.538010  0.964450  0.774920  1.0  -0.6022
  O  O1789  1  0.423820  0.251850  0.321680  1.0  -0.5661
  O  O1790  1  0.370970  0.202930  0.356180  1.0  -0.6676
  O  O1791  1  0.168960  0.232190  0.088600  1.0  -0.5947
  O  O1792  1  0.237770  0.093310  0.401130  1.0  -0.6073
  O  O1793  1  0.303000  0.128740  0.382340  1.0  -0.6215
  O  O1794  1  0.204680  0.297780  0.108250  1.0  -0.6027
  O  O1795  1  0.090480  0.585190  0.655020  1.0  -0.5666
  O  O1796  1  0.037630  0.536270  0.689520  1.0  -0.6695
  O  O1797  1  0.835620  0.565530  0.421940  1.0  -0.5945
  O  O1798  1  0.904430  0.426650  0.734470  1.0  -0.607
  O  O1799  1  0.969660  0.462080  0.715680  1.0  -0.6224
  O  O1800  1  0.871340  0.631120  0.441590  1.0  -0.6022
  O  O1801  1  0.081480  0.838630  0.988350  1.0  -0.5637
  O  O1802  1  0.130400  0.834700  0.022850  1.0  -0.6661
  O  O1803  1  0.101140  0.603430  0.755270  1.0  -0.5935
  O  O1804  1  0.240020  0.811120  0.067800  1.0  -0.6078
  O  O1805  1  0.204590  0.840920  0.049010  1.0  -0.6222
  O  O1806  1  0.035550  0.573560  0.774920  1.0  -0.6024
  O  O1807  1  0.748150  0.171960  0.321680  1.0  -0.563
  O  O1808  1  0.797070  0.168030  0.356180  1.0  -0.6673
  O  O1809  1  0.767810  0.936760  0.088600  1.0  -0.594
  O  O1810  1  0.906690  0.144450  0.401130  1.0  -0.6079
  O  O1811  1  0.871260  0.174250  0.382340  1.0  -0.6224
  O  O1812  1  0.702220  0.906890  0.108250  1.0  -0.6024
  O  O1813  1  0.414810  0.505300  0.655020  1.0  -0.5636
  O  O1814  1  0.463730  0.501370  0.689520  1.0  -0.6664
  O  O1815  1  0.434470  0.270100  0.421940  1.0  -0.5937
  O  O1816  1  0.573350  0.477790  0.734470  1.0  -0.6077
  O  O1817  1  0.537920  0.507590  0.715680  1.0  -0.6233
  O  O1818  1  0.368880  0.240230  0.441590  1.0  -0.6026
  O  O1819  1  0.161370  0.242850  0.988350  1.0  -0.5637
  O  O1820  1  0.165300  0.295700  0.022850  1.0  -0.6654
  O  O1821  1  0.396570  0.497710  0.755270  1.0  -0.5952
  O  O1822  1  0.188880  0.428900  0.067800  1.0  -0.6111
  O  O1823  1  0.159080  0.363670  0.049010  1.0  -0.6284
  O  O1824  1  0.426440  0.461990  0.774920  1.0  -0.5996
  O  O1825  1  0.828040  0.576180  0.321680  1.0  -0.5637
  O  O1826  1  0.831970  0.629030  0.356180  1.0  -0.6635
  O  O1827  1  0.063240  0.831040  0.088600  1.0  -0.595
  O  O1828  1  0.855550  0.762230  0.401130  1.0  -0.6109
  O  O1829  1  0.825750  0.697000  0.382340  1.0  -0.6284
  O  O1830  1  0.093110  0.795320  0.108250  1.0  -0.5997
  O  O1831  1  0.494700  0.909520  0.655020  1.0  -0.5637
  O  O1832  1  0.498630  0.962370  0.689520  1.0  -0.666
  O  O1833  1  0.729900  0.164380  0.421940  1.0  -0.595
  O  O1834  1  0.522210  0.095570  0.734470  1.0  -0.6111
  O  O1835  1  0.492410  0.030340  0.715680  1.0  -0.6286
  O  O1836  1  0.759770  0.128660  0.441590  1.0  -0.5998
  O  O1837  1  0.918520  0.757150  0.511650  1.0  -0.5616
  O  O1838  1  0.869600  0.704300  0.477150  1.0  -0.6655
  O  O1839  1  0.898860  0.502290  0.744730  1.0  -0.5963
  O  O1840  1  0.759980  0.571100  0.432200  1.0  -0.6104
  O  O1841  1  0.795410  0.636330  0.450990  1.0  -0.6306
  O  O1842  1  0.964450  0.538010  0.725080  1.0  -0.5993
  O  O1843  1  0.585190  0.090480  0.844980  1.0  -0.5616
  O  O1844  1  0.536270  0.037630  0.810480  1.0  -0.6653
  O  O1845  1  0.565530  0.835620  0.078060  1.0  -0.5963
  O  O1846  1  0.426650  0.904430  0.765530  1.0  -0.6103
  O  O1847  1  0.462080  0.969660  0.784320  1.0  -0.6316
  O  O1848  1  0.631120  0.871340  0.058410  1.0  -0.5993
  O  O1849  1  0.251850  0.423820  0.178320  1.0  -0.5612
  O  O1850  1  0.202930  0.370970  0.143820  1.0  -0.6636
  O  O1851  1  0.232190  0.168960  0.411400  1.0  -0.5965
  O  O1852  1  0.093310  0.237770  0.098870  1.0  -0.6105
  O  O1853  1  0.128740  0.303000  0.117660  1.0  -0.6307
  O  O1854  1  0.297780  0.204680  0.391750  1.0  -0.5998
  O  O1855  1  0.838630  0.081480  0.511650  1.0  -0.5658
  O  O1856  1  0.834700  0.130400  0.477150  1.0  -0.6667
  O  O1857  1  0.603430  0.101140  0.744730  1.0  -0.5942
  O  O1858  1  0.811120  0.240020  0.432200  1.0  -0.6073
  O  O1859  1  0.840920  0.204590  0.450990  1.0  -0.6215
  O  O1860  1  0.573560  0.035550  0.725080  1.0  -0.6031
  O  O1861  1  0.505300  0.414810  0.844980  1.0  -0.5657
  O  O1862  1  0.501370  0.463730  0.810480  1.0  -0.6671
  O  O1863  1  0.270100  0.434470  0.078060  1.0  -0.5943
  O  O1864  1  0.477790  0.573350  0.765530  1.0  -0.6071
  O  O1865  1  0.507590  0.537920  0.784320  1.0  -0.6227
  O  O1866  1  0.240230  0.368880  0.058410  1.0  -0.6033
  O  O1867  1  0.171960  0.748150  0.178320  1.0  -0.5651
  O  O1868  1  0.168030  0.797070  0.143820  1.0  -0.6679
  O  O1869  1  0.936760  0.767810  0.411400  1.0  -0.5947
  O  O1870  1  0.144450  0.906690  0.098870  1.0  -0.6073
  O  O1871  1  0.174250  0.871260  0.117660  1.0  -0.6218
  O  O1872  1  0.906890  0.702220  0.391750  1.0  -0.6031
  O  O1873  1  0.242850  0.161370  0.511650  1.0  -0.5622
  O  O1874  1  0.295700  0.165300  0.477150  1.0  -0.6654
  O  O1875  1  0.497710  0.396570  0.744730  1.0  -0.5944
  O  O1876  1  0.428900  0.188880  0.432200  1.0  -0.6074
  O  O1877  1  0.363670  0.159080  0.450990  1.0  -0.624
  O  O1878  1  0.461990  0.426440  0.725080  1.0  -0.6022
  O  O1879  1  0.909520  0.494700  0.844980  1.0  -0.5622
  O  O1880  1  0.962370  0.498630  0.810480  1.0  -0.6661
  O  O1881  1  0.164380  0.729900  0.078060  1.0  -0.5942
  O  O1882  1  0.095570  0.522210  0.765530  1.0  -0.6074
  O  O1883  1  0.030340  0.492410  0.784320  1.0  -0.6242
  O  O1884  1  0.128660  0.759770  0.058410  1.0  -0.6023
  O  O1885  1  0.576180  0.828040  0.178320  1.0  -0.5622
  O  O1886  1  0.629030  0.831970  0.143820  1.0  -0.6632
  O  O1887  1  0.831040  0.063240  0.411400  1.0  -0.5942
  O  O1888  1  0.762230  0.855550  0.098870  1.0  -0.6073
  O  O1889  1  0.697000  0.825750  0.117660  1.0  -0.624
  O  O1890  1  0.795320  0.093110  0.391750  1.0  -0.6022
