# generated using pymatgen
data_Cu11H198C264(N5O9)6
_symmetry_space_group_name_H-M   'P 1'
_cell_length_a   29.59940000
_cell_length_b   29.59940000
_cell_length_c   52.25500000
_cell_angle_alpha   90.00000000
_cell_angle_beta   90.00000000
_cell_angle_gamma   120.00000000
_symmetry_Int_Tables_number   1
_chemical_formula_structural   Cu11H198C264(N5O9)6
_chemical_formula_sum   'Cu33 H594 C792 N90 O162'
_cell_volume   39648.27520170
_cell_formula_units_Z   3
loop_
 _symmetry_equiv_pos_site_id
 _symmetry_equiv_pos_as_xyz
  1  'x, y, z'
loop_
 _atom_site_type_symbol
 _atom_site_label
 _atom_site_symmetry_multiplicity
 _atom_site_fract_x
 _atom_site_fract_y
 _atom_site_fract_z
 _atom_site_occupancy
 _atom_site_charge
  Cu  Cu1  1  0.288710  0.485340  0.382080  1.0  0.8212
  Cu  Cu2  1  0.955380  0.818670  0.715410  1.0  0.8212
  Cu  Cu3  1  0.622040  0.152010  0.048750  1.0  0.8212
  Cu  Cu4  1  0.514660  0.803370  0.382080  1.0  0.8224
  Cu  Cu5  1  0.181330  0.136700  0.715410  1.0  0.8224
  Cu  Cu6  1  0.847990  0.470040  0.048750  1.0  0.8224
  Cu  Cu7  1  0.196630  0.711290  0.382080  1.0  0.8202
  Cu  Cu8  1  0.863300  0.044620  0.715410  1.0  0.8202
  Cu  Cu9  1  0.529960  0.377960  0.048750  1.0  0.8202
  Cu  Cu10  1  0.711290  0.514660  0.617920  1.0  0.8192
  Cu  Cu11  1  0.377960  0.847990  0.951250  1.0  0.8192
  Cu  Cu12  1  0.044620  0.181330  0.284590  1.0  0.8192
  Cu  Cu13  1  0.485340  0.196630  0.617920  1.0  0.8203
  Cu  Cu14  1  0.152010  0.529960  0.951250  1.0  0.8203
  Cu  Cu15  1  0.818670  0.863300  0.284590  1.0  0.8203
  Cu  Cu16  1  0.803370  0.288710  0.617920  1.0  0.82
  Cu  Cu17  1  0.470040  0.622040  0.951250  1.0  0.82
  Cu  Cu18  1  0.136700  0.955380  0.284590  1.0  0.82
  Cu  Cu19  1  0.333333  0.166670  0.666667  1.0  0.8181
  Cu  Cu20  1  0.000000  0.500000  0.000000  1.0  0.8256
  Cu  Cu21  1  0.833330  0.166670  0.666667  1.0  0.8181
  Cu  Cu22  1  0.500000  0.500000  0.000000  1.0  0.824
  Cu  Cu23  1  0.833330  0.666667  0.666667  1.0  0.8181
  Cu  Cu24  1  0.500000  0.000000  0.000000  1.0  0.824
  Cu  Cu25  1  0.666667  0.833330  0.333333  1.0  0.8181
  Cu  Cu26  1  0.166670  0.833330  0.333333  1.0  0.8181
  Cu  Cu27  1  0.166670  0.333333  0.333333  1.0  0.8181
  Cu  Cu28  1  0.333333  0.666667  0.373240  1.0  0.4537
  Cu  Cu29  1  0.000000  0.000000  0.706570  1.0  0.4535
  Cu  Cu30  1  0.666667  0.333333  0.039910  1.0  0.4537
  Cu  Cu31  1  0.666667  0.333333  0.626760  1.0  0.454
  Cu  Cu32  1  0.333333  0.666667  0.960090  1.0  0.4539
  Cu  Cu33  1  0.000000  0.000000  0.293430  1.0  0.4541
  H  H34  1  0.152000  0.487700  0.641600  1.0  0.1088
  H  H35  1  0.206300  0.552300  0.558800  1.0  0.1025
  H  H36  1  0.306500  0.606300  0.604100  1.0  0.0964
  H  H37  1  0.289500  0.614400  0.576200  1.0  0.0762
  H  H38  1  0.292100  0.566400  0.540000  1.0  0.1243
  H  H39  1  0.386500  0.508900  0.589700  1.0  0.1204
  H  H40  1  0.344700  0.581300  0.625800  1.0  0.0863
  H  H41  1  0.383600  0.558600  0.623800  1.0  0.0805
  H  H42  1  0.349400  0.465500  0.630700  1.0  0.0716
  H  H43  1  0.189600  0.442400  0.655900  1.0  0.1063
  H  H44  1  0.226000  0.533200  0.655900  1.0  0.0728
  H  H45  1  0.277400  0.570800  0.640100  1.0  0.079
  H  H46  1  0.144700  0.549000  0.533900  1.0  0.0737
  H  H47  1  0.089200  0.502300  0.524900  1.0  0.0917
  H  H48  1  0.137600  0.492800  0.527800  1.0  0.0857
  H  H49  1  0.001700  0.373000  0.609500  1.0  0.1052
  H  H50  1  0.915500  0.305200  0.614200  1.0  0.0928
  H  H51  1  0.867000  0.411100  0.619100  1.0  0.0966
  H  H52  1  0.953200  0.478800  0.614400  1.0  0.1108
  H  H53  1  0.141800  0.368000  0.678000  1.0  0.1097
  H  H54  1  0.124500  0.307800  0.674400  1.0  0.1327
  H  H55  1  0.127900  0.342200  0.650100  1.0  0.1022
  H  H56  1  0.384800  0.348800  0.687400  1.0  0.0925
  H  H57  1  0.393500  0.274500  0.688200  1.0  0.0962
  H  H58  1  0.278800  0.205900  0.635200  1.0  0.0919
  H  H59  1  0.270100  0.280200  0.634400  1.0  0.0993
  H  H60  1  0.437800  0.502100  0.561000  1.0  0.0986
  H  H61  1  0.426400  0.457200  0.540600  1.0  0.1255
  H  H62  1  0.389300  0.444500  0.565000  1.0  0.1099
  H  H63  1  0.227900  0.398600  0.468300  1.0  0.1054
  H  H64  1  0.234300  0.409300  0.425300  1.0  0.0435
  H  H65  1  0.334500  0.559600  0.421700  1.0  0.1084
  H  H66  1  0.345400  0.559200  0.468400  1.0  0.1148
  H  H67  1  0.818670  0.821030  0.974930  1.0  0.1086
  H  H68  1  0.872970  0.885630  0.892130  1.0  0.1025
  H  H69  1  0.973170  0.939630  0.937430  1.0  0.0964
  H  H70  1  0.956170  0.947730  0.909530  1.0  0.0762
  H  H71  1  0.958770  0.899730  0.873330  1.0  0.1243
  H  H72  1  0.053170  0.842230  0.923030  1.0  0.1204
  H  H73  1  0.011370  0.914630  0.959130  1.0  0.0863
  H  H74  1  0.050270  0.891930  0.957130  1.0  0.0805
  H  H75  1  0.016070  0.798830  0.964030  1.0  0.0716
  H  H76  1  0.856270  0.775730  0.989230  1.0  0.1063
  H  H77  1  0.892670  0.866530  0.989230  1.0  0.0728
  H  H78  1  0.944070  0.904130  0.973430  1.0  0.079
  H  H79  1  0.811370  0.882330  0.867230  1.0  0.0737
  H  H80  1  0.755870  0.835630  0.858230  1.0  0.0917
  H  H81  1  0.804270  0.826130  0.861130  1.0  0.0857
  H  H82  1  0.668370  0.706330  0.942830  1.0  0.1052
  H  H83  1  0.582170  0.638530  0.947530  1.0  0.0928
  H  H84  1  0.533670  0.744430  0.952430  1.0  0.0966
  H  H85  1  0.619870  0.812130  0.947730  1.0  0.1108
  H  H86  1  0.808470  0.701330  0.011330  1.0  0.1094
  H  H87  1  0.791170  0.641130  0.007730  1.0  0.1334
  H  H88  1  0.794570  0.675530  0.983430  1.0  0.1053
  H  H89  1  0.051470  0.682130  0.020730  1.0  0.0925
  H  H90  1  0.060170  0.607830  0.021530  1.0  0.0962
  H  H91  1  0.945470  0.539230  0.968530  1.0  0.0919
  H  H92  1  0.936770  0.613530  0.967730  1.0  0.0993
  H  H93  1  0.104470  0.835430  0.894330  1.0  0.0986
  H  H94  1  0.093070  0.790530  0.873930  1.0  0.1255
  H  H95  1  0.055970  0.777830  0.898330  1.0  0.1099
  H  H96  1  0.894570  0.731930  0.801630  1.0  0.1054
  H  H97  1  0.900970  0.742630  0.758630  1.0  0.0435
  H  H98  1  0.001170  0.892930  0.755030  1.0  0.1084
  H  H99  1  0.012070  0.892530  0.801730  1.0  0.1148
  H  H100  1  0.485330  0.154370  0.308270  1.0  0.1088
  H  H101  1  0.539630  0.218970  0.225470  1.0  0.1025
  H  H102  1  0.639830  0.272970  0.270770  1.0  0.0964
  H  H103  1  0.622830  0.281070  0.242870  1.0  0.0762
  H  H104  1  0.625430  0.233070  0.206670  1.0  0.1243
  H  H105  1  0.719830  0.175570  0.256370  1.0  0.1204
  H  H106  1  0.678030  0.247970  0.292470  1.0  0.0863
  H  H107  1  0.716930  0.225270  0.290470  1.0  0.0805
  H  H108  1  0.682730  0.132170  0.297370  1.0  0.0716
  H  H109  1  0.522930  0.109070  0.322570  1.0  0.1064
  H  H110  1  0.559330  0.199870  0.322570  1.0  0.0728
  H  H111  1  0.610730  0.237470  0.306770  1.0  0.079
  H  H112  1  0.478030  0.215670  0.200570  1.0  0.0737
  H  H113  1  0.422530  0.168970  0.191570  1.0  0.0917
  H  H114  1  0.470930  0.159470  0.194470  1.0  0.0857
  H  H115  1  0.335030  0.039670  0.276170  1.0  0.1052
  H  H116  1  0.248830  0.971870  0.280870  1.0  0.0928
  H  H117  1  0.200330  0.077770  0.285770  1.0  0.0966
  H  H118  1  0.286530  0.145470  0.281070  1.0  0.1108
  H  H119  1  0.475130  0.034670  0.344670  1.0  0.1095
  H  H120  1  0.457830  0.974470  0.341070  1.0  0.1335
  H  H121  1  0.461230  0.008870  0.316770  1.0  0.1053
  H  H122  1  0.718130  0.015470  0.354070  1.0  0.0925
  H  H123  1  0.726830  0.941170  0.354870  1.0  0.0962
  H  H124  1  0.612130  0.872570  0.301870  1.0  0.0919
  H  H125  1  0.603430  0.946870  0.301070  1.0  0.0993
  H  H126  1  0.771130  0.168770  0.227670  1.0  0.0986
  H  H127  1  0.759730  0.123870  0.207270  1.0  0.1255
  H  H128  1  0.722630  0.111170  0.231670  1.0  0.1099
  H  H129  1  0.561230  0.065270  0.134970  1.0  0.1054
  H  H130  1  0.567630  0.075970  0.091970  1.0  0.0435
  H  H131  1  0.667830  0.226270  0.088370  1.0  0.1084
  H  H132  1  0.678730  0.225870  0.135070  1.0  0.1148
  H  H133  1  0.512300  0.664300  0.641600  1.0  0.1104
  H  H134  1  0.447700  0.654000  0.558800  1.0  0.1046
  H  H135  1  0.393700  0.700200  0.604100  1.0  0.0968
  H  H136  1  0.385600  0.675100  0.576200  1.0  0.0762
  H  H137  1  0.433600  0.725700  0.540000  1.0  0.1236
  H  H138  1  0.491100  0.877600  0.589700  1.0  0.1174
  H  H139  1  0.418700  0.763400  0.625800  1.0  0.088
  H  H140  1  0.441400  0.825000  0.623800  1.0  0.084
  H  H141  1  0.534500  0.883900  0.630700  1.0  0.0717
  H  H142  1  0.557600  0.747200  0.655900  1.0  0.1054
  H  H143  1  0.466800  0.692800  0.655900  1.0  0.0737
  H  H144  1  0.429200  0.706600  0.640100  1.0  0.085
  H  H145  1  0.451000  0.595700  0.533900  1.0  0.0729
  H  H146  1  0.497700  0.586900  0.524900  1.0  0.0953
  H  H147  1  0.507200  0.644800  0.527800  1.0  0.0872
  H  H148  1  0.627000  0.628700  0.609500  1.0  0.1063
  H  H149  1  0.694800  0.610300  0.614200  1.0  0.0912
  H  H150  1  0.588900  0.455900  0.619100  1.0  0.0983
  H  H151  1  0.521200  0.474400  0.614400  1.0  0.1086
  H  H152  1  0.632000  0.773800  0.678000  1.0  0.1112
  H  H153  1  0.692200  0.816700  0.674400  1.0  0.1312
  H  H154  1  0.657800  0.785700  0.650100  1.0  0.1054
  H  H155  1  0.651200  0.036000  0.687400  1.0  0.0935
  H  H156  1  0.725500  0.119000  0.688200  1.0  0.0971
  H  H157  1  0.794100  0.072900  0.635200  1.0  0.0932
  H  H158  1  0.719800  0.989900  0.634400  1.0  0.1001
  H  H159  1  0.497900  0.935700  0.561000  1.0  0.0932
  H  H160  1  0.542800  0.969200  0.540600  1.0  0.125
  H  H161  1  0.555500  0.944800  0.565000  1.0  0.111
  H  H162  1  0.601400  0.829300  0.468300  1.0  0.1045
  H  H163  1  0.590700  0.825000  0.425300  1.0  0.0471
  H  H164  1  0.440400  0.774900  0.421700  1.0  0.1044
  H  H165  1  0.440800  0.786200  0.468400  1.0  0.1132
  H  H166  1  0.178970  0.997630  0.974930  1.0  0.1103
  H  H167  1  0.114370  0.987330  0.892130  1.0  0.1046
  H  H168  1  0.060370  0.033530  0.937430  1.0  0.0968
  H  H169  1  0.052270  0.008430  0.909530  1.0  0.0762
  H  H170  1  0.100270  0.059030  0.873330  1.0  0.1236
  H  H171  1  0.157770  0.210930  0.923030  1.0  0.1174
  H  H172  1  0.085370  0.096730  0.959130  1.0  0.088
  H  H173  1  0.108070  0.158330  0.957130  1.0  0.084
  H  H174  1  0.201170  0.217230  0.964030  1.0  0.0716
  H  H175  1  0.224270  0.080530  0.989230  1.0  0.1054
  H  H176  1  0.133470  0.026130  0.989230  1.0  0.0736
  H  H177  1  0.095870  0.039930  0.973430  1.0  0.0776
  H  H178  1  0.117670  0.929030  0.867230  1.0  0.0729
  H  H179  1  0.164370  0.920230  0.858230  1.0  0.0953
  H  H180  1  0.173870  0.978130  0.861130  1.0  0.0872
  H  H181  1  0.293670  0.962030  0.942830  1.0  0.1063
  H  H182  1  0.361470  0.943630  0.947530  1.0  0.0912
  H  H183  1  0.255570  0.789230  0.952430  1.0  0.0983
  H  H184  1  0.187870  0.807730  0.947730  1.0  0.1086
  H  H185  1  0.298670  0.107130  0.011330  1.0  0.1112
  H  H186  1  0.358870  0.150030  0.007730  1.0  0.1315
  H  H187  1  0.324470  0.119030  0.983430  1.0  0.108
  H  H188  1  0.317870  0.369330  0.020730  1.0  0.0935
  H  H189  1  0.392170  0.452330  0.021530  1.0  0.097
  H  H190  1  0.460770  0.406230  0.968530  1.0  0.0932
  H  H191  1  0.386470  0.323230  0.967730  1.0  0.1001
  H  H192  1  0.164570  0.269030  0.894330  1.0  0.0932
  H  H193  1  0.209470  0.302530  0.873930  1.0  0.125
  H  H194  1  0.222170  0.278130  0.898330  1.0  0.1111
  H  H195  1  0.268070  0.162630  0.801630  1.0  0.1045
  H  H196  1  0.257370  0.158330  0.758630  1.0  0.0471
  H  H197  1  0.107070  0.108230  0.755030  1.0  0.1044
  H  H198  1  0.107470  0.119530  0.801730  1.0  0.1132
  H  H199  1  0.845630  0.330970  0.308270  1.0  0.1104
  H  H200  1  0.781030  0.320670  0.225470  1.0  0.1046
  H  H201  1  0.727030  0.366870  0.270770  1.0  0.0968
  H  H202  1  0.718930  0.341770  0.242870  1.0  0.0762
  H  H203  1  0.766930  0.392370  0.206670  1.0  0.1236
  H  H204  1  0.824430  0.544270  0.256370  1.0  0.1174
  H  H205  1  0.752030  0.430070  0.292470  1.0  0.088
  H  H206  1  0.774730  0.491670  0.290470  1.0  0.084
  H  H207  1  0.867830  0.550570  0.297370  1.0  0.0717
  H  H208  1  0.890930  0.413870  0.322570  1.0  0.1054
  H  H209  1  0.800130  0.359470  0.322570  1.0  0.0737
  H  H210  1  0.762530  0.373270  0.306770  1.0  0.085
  H  H211  1  0.784330  0.262370  0.200570  1.0  0.0729
  H  H212  1  0.831030  0.253570  0.191570  1.0  0.0953
  H  H213  1  0.840530  0.311470  0.194470  1.0  0.0872
  H  H214  1  0.960330  0.295370  0.276170  1.0  0.1063
  H  H215  1  0.028130  0.276970  0.280870  1.0  0.0912
  H  H216  1  0.922230  0.122570  0.285770  1.0  0.0983
  H  H217  1  0.854530  0.141070  0.281070  1.0  0.1085
  H  H218  1  0.965330  0.440470  0.344670  1.0  0.1112
  H  H219  1  0.025530  0.483370  0.341070  1.0  0.1319
  H  H220  1  0.991130  0.452370  0.316770  1.0  0.1083
  H  H221  1  0.984530  0.702670  0.354070  1.0  0.0935
  H  H222  1  0.058830  0.785670  0.354870  1.0  0.0971
  H  H223  1  0.127430  0.739570  0.301870  1.0  0.0932
  H  H224  1  0.053130  0.656570  0.301070  1.0  0.1001
  H  H225  1  0.831230  0.602370  0.227670  1.0  0.0932
  H  H226  1  0.876130  0.635870  0.207270  1.0  0.125
  H  H227  1  0.888830  0.611470  0.231670  1.0  0.111
  H  H228  1  0.934730  0.495970  0.134970  1.0  0.1045
  H  H229  1  0.924030  0.491670  0.091970  1.0  0.0471
  H  H230  1  0.773730  0.441570  0.088370  1.0  0.1044
  H  H231  1  0.774130  0.452870  0.135070  1.0  0.1132
  H  H232  1  0.335700  0.848000  0.641600  1.0  0.1102
  H  H233  1  0.346000  0.793700  0.558800  1.0  0.1034
  H  H234  1  0.299800  0.693500  0.604100  1.0  0.0958
  H  H235  1  0.324900  0.710500  0.576200  1.0  0.0763
  H  H236  1  0.274300  0.707900  0.540000  1.0  0.1248
  H  H237  1  0.122400  0.613500  0.589700  1.0  0.1189
  H  H238  1  0.236600  0.655300  0.625800  1.0  0.0869
  H  H239  1  0.175000  0.616400  0.623800  1.0  0.0826
  H  H240  1  0.116100  0.650600  0.630700  1.0  0.0709
  H  H241  1  0.252800  0.810400  0.655900  1.0  0.1051
  H  H242  1  0.307200  0.774000  0.655900  1.0  0.0723
  H  H243  1  0.293400  0.722600  0.640100  1.0  0.0801
  H  H244  1  0.404300  0.855300  0.533900  1.0  0.0718
  H  H245  1  0.413100  0.910800  0.524900  1.0  0.0929
  H  H246  1  0.355200  0.862400  0.527800  1.0  0.0817
  H  H247  1  0.371300  0.998300  0.609500  1.0  0.1053
  H  H248  1  0.389700  0.084500  0.614200  1.0  0.0921
  H  H249  1  0.544100  0.133000  0.619100  1.0  0.0976
  H  H250  1  0.525600  0.046800  0.614400  1.0  0.1106
  H  H251  1  0.226200  0.858200  0.678000  1.0  0.11
  H  H252  1  0.183300  0.875500  0.674400  1.0  0.1299
  H  H253  1  0.214300  0.872100  0.650100  1.0  0.1024
  H  H254  1  0.964000  0.615200  0.687400  1.0  0.0933
  H  H255  1  0.881000  0.606500  0.688200  1.0  0.0973
  H  H256  1  0.927100  0.721200  0.635200  1.0  0.0922
  H  H257  1  0.010100  0.729900  0.634400  1.0  0.1003
  H  H258  1  0.064300  0.562200  0.561000  1.0  0.0973
  H  H259  1  0.030800  0.573600  0.540600  1.0  0.1253
  H  H260  1  0.055200  0.610700  0.565000  1.0  0.1104
  H  H261  1  0.170700  0.772100  0.468300  1.0  0.1055
  H  H262  1  0.175000  0.765700  0.425300  1.0  0.0444
  H  H263  1  0.225100  0.665500  0.421700  1.0  0.105
  H  H264  1  0.213800  0.654600  0.468400  1.0  0.1144
  H  H265  1  0.002370  0.181330  0.974930  1.0  0.1099
  H  H266  1  0.012670  0.127030  0.892130  1.0  0.1034
  H  H267  1  0.966470  0.026830  0.937430  1.0  0.0958
  H  H268  1  0.991570  0.043830  0.909530  1.0  0.0763
  H  H269  1  0.940970  0.041230  0.873330  1.0  0.1248
  H  H270  1  0.789070  0.946830  0.923030  1.0  0.1189
  H  H271  1  0.903270  0.988630  0.959130  1.0  0.0869
  H  H272  1  0.841670  0.949730  0.957130  1.0  0.0826
  H  H273  1  0.782770  0.983930  0.964030  1.0  0.0708
  H  H274  1  0.919470  0.143730  0.989230  1.0  0.1051
  H  H275  1  0.973870  0.107330  0.989230  1.0  0.0723
  H  H276  1  0.960070  0.055930  0.973430  1.0  0.0869
  H  H277  1  0.070970  0.188630  0.867230  1.0  0.0718
  H  H278  1  0.079770  0.244130  0.858230  1.0  0.0929
  H  H279  1  0.021870  0.195730  0.861130  1.0  0.0817
  H  H280  1  0.037970  0.331630  0.942830  1.0  0.1053
  H  H281  1  0.056370  0.417830  0.947530  1.0  0.0921
  H  H282  1  0.210770  0.466330  0.952430  1.0  0.0976
  H  H283  1  0.192270  0.380130  0.947730  1.0  0.1106
  H  H284  1  0.892870  0.191530  0.011330  1.0  0.1099
  H  H285  1  0.849970  0.208830  0.007730  1.0  0.1307
  H  H286  1  0.880970  0.205430  0.983430  1.0  0.1053
  H  H287  1  0.630670  0.948530  0.020730  1.0  0.0933
  H  H288  1  0.547670  0.939830  0.021530  1.0  0.0972
  H  H289  1  0.593770  0.054530  0.968530  1.0  0.0922
  H  H290  1  0.676770  0.063230  0.967730  1.0  0.1004
  H  H291  1  0.730970  0.895530  0.894330  1.0  0.0973
  H  H292  1  0.697470  0.906930  0.873930  1.0  0.1253
  H  H293  1  0.721870  0.944030  0.898330  1.0  0.1104
  H  H294  1  0.837370  0.105430  0.801630  1.0  0.1055
  H  H295  1  0.841670  0.099030  0.758630  1.0  0.0444
  H  H296  1  0.891770  0.998830  0.755030  1.0  0.105
  H  H297  1  0.880470  0.987930  0.801730  1.0  0.1144
  H  H298  1  0.669030  0.514670  0.308270  1.0  0.1102
  H  H299  1  0.679330  0.460370  0.225470  1.0  0.1034
  H  H300  1  0.633130  0.360170  0.270770  1.0  0.0958
  H  H301  1  0.658230  0.377170  0.242870  1.0  0.0763
  H  H302  1  0.607630  0.374570  0.206670  1.0  0.1248
  H  H303  1  0.455730  0.280170  0.256370  1.0  0.1189
  H  H304  1  0.569930  0.321970  0.292470  1.0  0.0869
  H  H305  1  0.508330  0.283070  0.290470  1.0  0.0826
  H  H306  1  0.449430  0.317270  0.297370  1.0  0.0709
  H  H307  1  0.586130  0.477070  0.322570  1.0  0.1051
  H  H308  1  0.640530  0.440670  0.322570  1.0  0.0723
  H  H309  1  0.626730  0.389270  0.306770  1.0  0.0801
  H  H310  1  0.737630  0.521970  0.200570  1.0  0.0718
  H  H311  1  0.746430  0.577470  0.191570  1.0  0.0929
  H  H312  1  0.688530  0.529070  0.194470  1.0  0.0817
  H  H313  1  0.704630  0.664970  0.276170  1.0  0.1053
  H  H314  1  0.723030  0.751170  0.280870  1.0  0.0921
  H  H315  1  0.877430  0.799670  0.285770  1.0  0.0976
  H  H316  1  0.858930  0.713470  0.281070  1.0  0.1106
  H  H317  1  0.559530  0.524870  0.344670  1.0  0.11
  H  H318  1  0.516630  0.542170  0.341070  1.0  0.1307
  H  H319  1  0.547630  0.538770  0.316770  1.0  0.1053
  H  H320  1  0.297330  0.281870  0.354070  1.0  0.0933
  H  H321  1  0.214330  0.273170  0.354870  1.0  0.0973
  H  H322  1  0.260430  0.387870  0.301870  1.0  0.0922
  H  H323  1  0.343430  0.396570  0.301070  1.0  0.1003
  H  H324  1  0.397630  0.228870  0.227670  1.0  0.0973
  H  H325  1  0.364130  0.240270  0.207270  1.0  0.1253
  H  H326  1  0.388530  0.277370  0.231670  1.0  0.1104
  H  H327  1  0.504030  0.438770  0.134970  1.0  0.1055
  H  H328  1  0.508330  0.432370  0.091970  1.0  0.0444
  H  H329  1  0.558430  0.332170  0.088370  1.0  0.105
  H  H330  1  0.547130  0.321270  0.135070  1.0  0.1144
  H  H331  1  0.848000  0.512300  0.358400  1.0  0.1089
  H  H332  1  0.793700  0.447700  0.441200  1.0  0.1027
  H  H333  1  0.693500  0.393700  0.395900  1.0  0.0961
  H  H334  1  0.710500  0.385600  0.423800  1.0  0.0768
  H  H335  1  0.707900  0.433600  0.460000  1.0  0.1233
  H  H336  1  0.613500  0.491100  0.410300  1.0  0.1191
  H  H337  1  0.655300  0.418700  0.374200  1.0  0.0867
  H  H338  1  0.616400  0.441400  0.376200  1.0  0.0802
  H  H339  1  0.650600  0.534500  0.369300  1.0  0.0727
  H  H340  1  0.810400  0.557600  0.344100  1.0  0.1057
  H  H341  1  0.774000  0.466800  0.344100  1.0  0.0733
  H  H342  1  0.722600  0.429200  0.359900  1.0  0.079
  H  H343  1  0.855300  0.451000  0.466100  1.0  0.0746
  H  H344  1  0.910800  0.497700  0.475100  1.0  0.0923
  H  H345  1  0.862400  0.507200  0.472200  1.0  0.0857
  H  H346  1  0.998300  0.627000  0.390500  1.0  0.1059
  H  H347  1  0.084500  0.694800  0.385800  1.0  0.0925
  H  H348  1  0.133000  0.588900  0.380900  1.0  0.0975
  H  H349  1  0.046800  0.521200  0.385600  1.0  0.1105
  H  H350  1  0.858200  0.632000  0.322000  1.0  0.1082
  H  H351  1  0.875500  0.692200  0.325600  1.0  0.1337
  H  H352  1  0.872100  0.657800  0.349900  1.0  0.1068
  H  H353  1  0.615200  0.651200  0.312600  1.0  0.0917
  H  H354  1  0.606500  0.725500  0.311800  1.0  0.0962
  H  H355  1  0.721200  0.794100  0.364800  1.0  0.0927
  H  H356  1  0.729900  0.719800  0.365600  1.0  0.1004
  H  H357  1  0.562200  0.497900  0.439000  1.0  0.0977
  H  H358  1  0.573600  0.542800  0.459400  1.0  0.1266
  H  H359  1  0.610700  0.555500  0.435000  1.0  0.1124
  H  H360  1  0.772100  0.601400  0.531700  1.0  0.1055
  H  H361  1  0.765700  0.590700  0.574700  1.0  0.0442
  H  H362  1  0.665500  0.440400  0.578300  1.0  0.1068
  H  H363  1  0.654600  0.440800  0.531600  1.0  0.1152
  H  H364  1  0.514670  0.845630  0.691730  1.0  0.1089
  H  H365  1  0.460370  0.781030  0.774530  1.0  0.1027
  H  H366  1  0.360170  0.727030  0.729230  1.0  0.0961
  H  H367  1  0.377170  0.718930  0.757130  1.0  0.0768
  H  H368  1  0.374570  0.766930  0.793330  1.0  0.1233
  H  H369  1  0.280170  0.824430  0.743630  1.0  0.1191
  H  H370  1  0.321970  0.752030  0.707530  1.0  0.0867
  H  H371  1  0.283070  0.774730  0.709530  1.0  0.0802
  H  H372  1  0.317270  0.867830  0.702630  1.0  0.0727
  H  H373  1  0.477070  0.890930  0.677430  1.0  0.1057
  H  H374  1  0.440670  0.800130  0.677430  1.0  0.0733
  H  H375  1  0.389270  0.762530  0.693230  1.0  0.079
  H  H376  1  0.521970  0.784330  0.799430  1.0  0.0746
  H  H377  1  0.577470  0.831030  0.808430  1.0  0.0923
  H  H378  1  0.529070  0.840530  0.805530  1.0  0.0857
  H  H379  1  0.664970  0.960330  0.723830  1.0  0.1059
  H  H380  1  0.751170  0.028130  0.719130  1.0  0.0925
  H  H381  1  0.799670  0.922230  0.714230  1.0  0.0975
  H  H382  1  0.713470  0.854530  0.718930  1.0  0.1105
  H  H383  1  0.524870  0.965330  0.655330  1.0  0.108
  H  H384  1  0.542170  0.025530  0.658930  1.0  0.1332
  H  H385  1  0.538770  0.991130  0.683230  1.0  0.1039
  H  H386  1  0.281870  0.984530  0.645930  1.0  0.0917
  H  H387  1  0.273170  0.058830  0.645130  1.0  0.0962
  H  H388  1  0.387870  0.127430  0.698130  1.0  0.0927
  H  H389  1  0.396570  0.053130  0.698930  1.0  0.1004
  H  H390  1  0.228870  0.831230  0.772330  1.0  0.0977
  H  H391  1  0.240270  0.876130  0.792730  1.0  0.1266
  H  H392  1  0.277370  0.888830  0.768330  1.0  0.1124
  H  H393  1  0.438770  0.934730  0.865030  1.0  0.1055
  H  H394  1  0.432370  0.924030  0.908030  1.0  0.0442
  H  H395  1  0.332170  0.773730  0.911630  1.0  0.1068
  H  H396  1  0.321270  0.774130  0.864930  1.0  0.1152
  H  H397  1  0.181330  0.178970  0.025070  1.0  0.1087
  H  H398  1  0.127030  0.114370  0.107870  1.0  0.1027
  H  H399  1  0.026830  0.060370  0.062570  1.0  0.0961
  H  H400  1  0.043830  0.052270  0.090470  1.0  0.0767
  H  H401  1  0.041230  0.100270  0.126670  1.0  0.1233
  H  H402  1  0.946830  0.157770  0.076970  1.0  0.1191
  H  H403  1  0.988630  0.085370  0.040870  1.0  0.0867
  H  H404  1  0.949730  0.108070  0.042870  1.0  0.0803
  H  H405  1  0.983930  0.201170  0.035970  1.0  0.0726
  H  H406  1  0.143730  0.224270  0.010770  1.0  0.1057
  H  H407  1  0.107330  0.133470  0.010770  1.0  0.0732
  H  H408  1  0.055930  0.095870  0.026570  1.0  0.079
  H  H409  1  0.188630  0.117670  0.132770  1.0  0.0746
  H  H410  1  0.244130  0.164370  0.141770  1.0  0.0923
  H  H411  1  0.195730  0.173870  0.138870  1.0  0.0857
  H  H412  1  0.331630  0.293670  0.057170  1.0  0.106
  H  H413  1  0.417830  0.361470  0.052470  1.0  0.0925
  H  H414  1  0.466330  0.255570  0.047570  1.0  0.0975
  H  H415  1  0.380130  0.187870  0.052270  1.0  0.1106
  H  H416  1  0.191530  0.298670  0.988670  1.0  0.1081
  H  H417  1  0.208830  0.358870  0.992270  1.0  0.1337
  H  H418  1  0.205430  0.324470  0.016570  1.0  0.1068
  H  H419  1  0.948530  0.317870  0.979270  1.0  0.0917
  H  H420  1  0.939830  0.392170  0.978470  1.0  0.0962
  H  H421  1  0.054530  0.460770  0.031470  1.0  0.0927
  H  H422  1  0.063230  0.386470  0.032270  1.0  0.1005
  H  H423  1  0.895530  0.164570  0.105670  1.0  0.0977
  H  H424  1  0.906930  0.209470  0.126070  1.0  0.1266
  H  H425  1  0.944030  0.222170  0.101670  1.0  0.1124
  H  H426  1  0.105430  0.268070  0.198370  1.0  0.1055
  H  H427  1  0.099030  0.257370  0.241370  1.0  0.0442
  H  H428  1  0.998830  0.107070  0.244970  1.0  0.1068
  H  H429  1  0.987930  0.107470  0.198270  1.0  0.1152
  H  H430  1  0.487700  0.335700  0.358400  1.0  0.1101
  H  H431  1  0.552300  0.346000  0.441200  1.0  0.1046
  H  H432  1  0.606300  0.299800  0.395900  1.0  0.0959
  H  H433  1  0.614400  0.324900  0.423800  1.0  0.0761
  H  H434  1  0.566400  0.274300  0.460000  1.0  0.1226
  H  H435  1  0.508900  0.122400  0.410300  1.0  0.118
  H  H436  1  0.581300  0.236600  0.374200  1.0  0.0856
  H  H437  1  0.558600  0.175000  0.376200  1.0  0.0842
  H  H438  1  0.465500  0.116100  0.369300  1.0  0.0714
  H  H439  1  0.442400  0.252800  0.344100  1.0  0.1072
  H  H440  1  0.533200  0.307200  0.344100  1.0  0.0732
  H  H441  1  0.570800  0.293400  0.359900  1.0  0.089
  H  H442  1  0.549000  0.404300  0.466100  1.0  0.0717
  H  H443  1  0.502300  0.413100  0.475100  1.0  0.096
  H  H444  1  0.492800  0.355200  0.472200  1.0  0.0855
  H  H445  1  0.373000  0.371300  0.390500  1.0  0.1056
  H  H446  1  0.305200  0.389700  0.385800  1.0  0.0918
  H  H447  1  0.411100  0.544100  0.380900  1.0  0.0996
  H  H448  1  0.478800  0.525600  0.385600  1.0  0.1092
  H  H449  1  0.368000  0.226200  0.322000  1.0  0.1103
  H  H450  1  0.307800  0.183300  0.325600  1.0  0.1304
  H  H451  1  0.342200  0.214300  0.349900  1.0  0.108
  H  H452  1  0.348800  0.964000  0.312600  1.0  0.0932
  H  H453  1  0.274500  0.881000  0.311800  1.0  0.0958
  H  H454  1  0.205900  0.927100  0.364800  1.0  0.0938
  H  H455  1  0.280200  0.010100  0.365600  1.0  0.0999
  H  H456  1  0.502100  0.064300  0.439000  1.0  0.0939
  H  H457  1  0.457200  0.030800  0.459400  1.0  0.1262
  H  H458  1  0.444500  0.055200  0.435000  1.0  0.1085
  H  H459  1  0.398600  0.170700  0.531700  1.0  0.1038
  H  H460  1  0.409300  0.175000  0.574700  1.0  0.0482
  H  H461  1  0.559600  0.225100  0.578300  1.0  0.105
  H  H462  1  0.559200  0.213800  0.531600  1.0  0.1133
  H  H463  1  0.154370  0.669030  0.691730  1.0  0.1101
  H  H464  1  0.218970  0.679330  0.774530  1.0  0.1046
  H  H465  1  0.272970  0.633130  0.729230  1.0  0.0959
  H  H466  1  0.281070  0.658230  0.757130  1.0  0.0761
  H  H467  1  0.233070  0.607630  0.793330  1.0  0.1226
  H  H468  1  0.175570  0.455730  0.743630  1.0  0.118
  H  H469  1  0.247970  0.569930  0.707530  1.0  0.0856
  H  H470  1  0.225270  0.508330  0.709530  1.0  0.0842
  H  H471  1  0.132170  0.449430  0.702630  1.0  0.0714
  H  H472  1  0.109070  0.586130  0.677430  1.0  0.1072
  H  H473  1  0.199870  0.640530  0.677430  1.0  0.0732
  H  H474  1  0.237470  0.626730  0.693230  1.0  0.089
  H  H475  1  0.215670  0.737630  0.799430  1.0  0.0717
  H  H476  1  0.168970  0.746430  0.808430  1.0  0.096
  H  H477  1  0.159470  0.688530  0.805530  1.0  0.0855
  H  H478  1  0.039670  0.704630  0.723830  1.0  0.1056
  H  H479  1  0.971870  0.723030  0.719130  1.0  0.0918
  H  H480  1  0.077770  0.877430  0.714230  1.0  0.0996
  H  H481  1  0.145470  0.858930  0.718930  1.0  0.1092
  H  H482  1  0.034670  0.559530  0.655330  1.0  0.11
  H  H483  1  0.974470  0.516630  0.658930  1.0  0.1302
  H  H484  1  0.008870  0.547630  0.683230  1.0  0.105
  H  H485  1  0.015470  0.297330  0.645930  1.0  0.0932
  H  H486  1  0.941170  0.214330  0.645130  1.0  0.0958
  H  H487  1  0.872570  0.260430  0.698130  1.0  0.0938
  H  H488  1  0.946870  0.343430  0.698930  1.0  0.0999
  H  H489  1  0.168770  0.397630  0.772330  1.0  0.0939
  H  H490  1  0.123870  0.364130  0.792730  1.0  0.1262
  H  H491  1  0.111170  0.388530  0.768330  1.0  0.1085
  H  H492  1  0.065270  0.504030  0.865030  1.0  0.1038
  H  H493  1  0.075970  0.508330  0.908030  1.0  0.0482
  H  H494  1  0.226270  0.558430  0.911630  1.0  0.105
  H  H495  1  0.225870  0.547130  0.864930  1.0  0.1133
  H  H496  1  0.821030  0.002370  0.025070  1.0  0.11
  H  H497  1  0.885630  0.012670  0.107870  1.0  0.1046
  H  H498  1  0.939630  0.966470  0.062570  1.0  0.0959
  H  H499  1  0.947730  0.991570  0.090470  1.0  0.076
  H  H500  1  0.899730  0.940970  0.126670  1.0  0.1226
  H  H501  1  0.842230  0.789070  0.076970  1.0  0.118
  H  H502  1  0.914630  0.903270  0.040870  1.0  0.0856
  H  H503  1  0.891930  0.841670  0.042870  1.0  0.0842
  H  H504  1  0.798830  0.782770  0.035970  1.0  0.0713
  H  H505  1  0.775730  0.919470  0.010770  1.0  0.1072
  H  H506  1  0.866530  0.973870  0.010770  1.0  0.0732
  H  H507  1  0.904130  0.960070  0.026570  1.0  0.0802
  H  H508  1  0.882330  0.070970  0.132770  1.0  0.0717
  H  H509  1  0.835630  0.079770  0.141770  1.0  0.096
  H  H510  1  0.826130  0.021870  0.138870  1.0  0.0855
  H  H511  1  0.706330  0.037970  0.057170  1.0  0.1056
  H  H512  1  0.638530  0.056370  0.052470  1.0  0.0918
  H  H513  1  0.744430  0.210770  0.047570  1.0  0.0996
  H  H514  1  0.812130  0.192270  0.052270  1.0  0.1092
  H  H515  1  0.701330  0.892870  0.988670  1.0  0.1102
  H  H516  1  0.641130  0.849970  0.992270  1.0  0.1302
  H  H517  1  0.675530  0.880970  0.016570  1.0  0.1078
  H  H518  1  0.682130  0.630670  0.979270  1.0  0.0929
  H  H519  1  0.607830  0.547670  0.978470  1.0  0.0957
  H  H520  1  0.539230  0.593770  0.031470  1.0  0.0938
  H  H521  1  0.613530  0.676770  0.032270  1.0  0.0999
  H  H522  1  0.835430  0.730970  0.105670  1.0  0.0939
  H  H523  1  0.790530  0.697470  0.126070  1.0  0.1262
  H  H524  1  0.777830  0.721870  0.101670  1.0  0.1085
  H  H525  1  0.731930  0.837370  0.198370  1.0  0.1038
  H  H526  1  0.742630  0.841670  0.241370  1.0  0.0482
  H  H527  1  0.892930  0.891770  0.244970  1.0  0.105
  H  H528  1  0.892530  0.880470  0.198270  1.0  0.1133
  H  H529  1  0.664300  0.152000  0.358400  1.0  0.1096
  H  H530  1  0.654000  0.206300  0.441200  1.0  0.1034
  H  H531  1  0.700200  0.306500  0.395900  1.0  0.0961
  H  H532  1  0.675100  0.289500  0.423800  1.0  0.0783
  H  H533  1  0.725700  0.292100  0.460000  1.0  0.124
  H  H534  1  0.877600  0.386500  0.410300  1.0  0.1181
  H  H535  1  0.763400  0.344700  0.374200  1.0  0.0862
  H  H536  1  0.825000  0.383600  0.376200  1.0  0.0828
  H  H537  1  0.883900  0.349400  0.369300  1.0  0.0704
  H  H538  1  0.747200  0.189600  0.344100  1.0  0.1059
  H  H539  1  0.692800  0.226000  0.344100  1.0  0.0732
  H  H540  1  0.706600  0.277400  0.359900  1.0  0.0793
  H  H541  1  0.595700  0.144700  0.466100  1.0  0.0734
  H  H542  1  0.586900  0.089200  0.475100  1.0  0.0949
  H  H543  1  0.644800  0.137600  0.472200  1.0  0.0837
  H  H544  1  0.628700  0.001700  0.390500  1.0  0.1048
  H  H545  1  0.610300  0.915500  0.385800  1.0  0.092
  H  H546  1  0.455900  0.867000  0.380900  1.0  0.0975
  H  H547  1  0.474400  0.953200  0.385600  1.0  0.1108
  H  H548  1  0.773800  0.141800  0.322000  1.0  0.111
  H  H549  1  0.816700  0.124500  0.325600  1.0  0.1299
  H  H550  1  0.785700  0.127900  0.349900  1.0  0.1061
  H  H551  1  0.036000  0.384800  0.312600  1.0  0.0928
  H  H552  1  0.119000  0.393500  0.311800  1.0  0.0963
  H  H553  1  0.072900  0.278800  0.364800  1.0  0.093
  H  H554  1  0.989900  0.270100  0.365600  1.0  0.1003
  H  H555  1  0.935700  0.437800  0.439000  1.0  0.0997
  H  H556  1  0.969200  0.426400  0.459400  1.0  0.129
  H  H557  1  0.944800  0.389300  0.435000  1.0  0.1101
  H  H558  1  0.829300  0.227900  0.531700  1.0  0.1041
  H  H559  1  0.825000  0.234300  0.574700  1.0  0.0448
  H  H560  1  0.774900  0.334500  0.578300  1.0  0.1055
  H  H561  1  0.786200  0.345400  0.531600  1.0  0.113
  H  H562  1  0.330970  0.485330  0.691730  1.0  0.1096
  H  H563  1  0.320670  0.539630  0.774530  1.0  0.1034
  H  H564  1  0.366870  0.639830  0.729230  1.0  0.0961
  H  H565  1  0.341770  0.622830  0.757130  1.0  0.0783
  H  H566  1  0.392370  0.625430  0.793330  1.0  0.124
  H  H567  1  0.544270  0.719830  0.743630  1.0  0.1181
  H  H568  1  0.430070  0.678030  0.707530  1.0  0.0862
  H  H569  1  0.491670  0.716930  0.709530  1.0  0.0828
  H  H570  1  0.550570  0.682730  0.702630  1.0  0.0704
  H  H571  1  0.413870  0.522930  0.677430  1.0  0.1058
  H  H572  1  0.359470  0.559330  0.677430  1.0  0.0732
  H  H573  1  0.373270  0.610730  0.693230  1.0  0.0793
  H  H574  1  0.262370  0.478030  0.799430  1.0  0.0734
  H  H575  1  0.253570  0.422530  0.808430  1.0  0.0949
  H  H576  1  0.311470  0.470930  0.805530  1.0  0.0837
  H  H577  1  0.295370  0.335030  0.723830  1.0  0.1048
  H  H578  1  0.276970  0.248830  0.719130  1.0  0.092
  H  H579  1  0.122570  0.200330  0.714230  1.0  0.0975
  H  H580  1  0.141070  0.286530  0.718930  1.0  0.1108
  H  H581  1  0.440470  0.475130  0.655330  1.0  0.111
  H  H582  1  0.483370  0.457830  0.658930  1.0  0.1295
  H  H583  1  0.452370  0.461230  0.683230  1.0  0.1031
  H  H584  1  0.702670  0.718130  0.645930  1.0  0.0928
  H  H585  1  0.785670  0.726830  0.645130  1.0  0.0963
  H  H586  1  0.739570  0.612130  0.698130  1.0  0.093
  H  H587  1  0.656570  0.603430  0.698930  1.0  0.1003
  H  H588  1  0.602370  0.771130  0.772330  1.0  0.0997
  H  H589  1  0.635870  0.759730  0.792730  1.0  0.129
  H  H590  1  0.611470  0.722630  0.768330  1.0  0.1101
  H  H591  1  0.495970  0.561230  0.865030  1.0  0.1041
  H  H592  1  0.491670  0.567630  0.908030  1.0  0.0448
  H  H593  1  0.441570  0.667830  0.911630  1.0  0.1055
  H  H594  1  0.452870  0.678730  0.864930  1.0  0.113
  H  H595  1  0.997630  0.818670  0.025070  1.0  0.1093
  H  H596  1  0.987330  0.872970  0.107870  1.0  0.1034
  H  H597  1  0.033530  0.973170  0.062570  1.0  0.0961
  H  H598  1  0.008430  0.956170  0.090470  1.0  0.0782
  H  H599  1  0.059030  0.958770  0.126670  1.0  0.124
  H  H600  1  0.210930  0.053170  0.076970  1.0  0.1181
  H  H601  1  0.096730  0.011370  0.040870  1.0  0.0862
  H  H602  1  0.158330  0.050270  0.042870  1.0  0.0829
  H  H603  1  0.217230  0.016070  0.035970  1.0  0.0704
  H  H604  1  0.080530  0.856270  0.010770  1.0  0.1059
  H  H605  1  0.026130  0.892670  0.010770  1.0  0.0732
  H  H606  1  0.039930  0.944070  0.026570  1.0  0.0861
  H  H607  1  0.929030  0.811370  0.132770  1.0  0.0734
  H  H608  1  0.920230  0.755870  0.141770  1.0  0.0949
  H  H609  1  0.978130  0.804270  0.138870  1.0  0.0837
  H  H610  1  0.962030  0.668370  0.057170  1.0  0.1048
  H  H611  1  0.943630  0.582170  0.052470  1.0  0.092
  H  H612  1  0.789230  0.533670  0.047570  1.0  0.0975
  H  H613  1  0.807730  0.619870  0.052270  1.0  0.1108
  H  H614  1  0.107130  0.808470  0.988670  1.0  0.1109
  H  H615  1  0.150030  0.791170  0.992270  1.0  0.13
  H  H616  1  0.119030  0.794570  0.016570  1.0  0.1061
  H  H617  1  0.369330  0.051470  0.979270  1.0  0.0927
  H  H618  1  0.452330  0.060170  0.978470  1.0  0.0962
  H  H619  1  0.406230  0.945470  0.031470  1.0  0.093
  H  H620  1  0.323230  0.936770  0.032270  1.0  0.1003
  H  H621  1  0.269030  0.104470  0.105670  1.0  0.0997
  H  H622  1  0.302530  0.093070  0.126070  1.0  0.129
  H  H623  1  0.278130  0.055970  0.101670  1.0  0.1101
  H  H624  1  0.162630  0.894570  0.198370  1.0  0.1041
  H  H625  1  0.158330  0.900970  0.241370  1.0  0.0448
  H  H626  1  0.108230  0.001170  0.244970  1.0  0.1055
  H  H627  1  0.119530  0.012070  0.198270  1.0  0.113
  C  C628  1  0.215800  0.532230  0.619490  1.0  0.1787
  C  C629  1  0.162980  0.500850  0.624820  1.0  -0.1904
  C  C630  1  0.126290  0.488650  0.605540  1.0  0.0308
  C  C631  1  0.142420  0.507840  0.580940  1.0  0.2224
  C  C632  1  0.195240  0.539210  0.575610  1.0  -0.1991
  C  C633  1  0.231930  0.551410  0.594890  1.0  0.0312
  C  C634  1  0.287800  0.587870  0.588340  1.0  -0.2711
  C  C635  1  0.316280  0.561640  0.576490  1.0  0.1817
  C  C636  1  0.309650  0.553090  0.550020  1.0  -0.1108
  C  C637  1  0.332410  0.520770  0.537830  1.0  0.2163
  C  C638  1  0.357220  0.509040  0.552930  1.0  0.1938
  C  C639  1  0.365760  0.518790  0.579920  1.0  -0.133
  C  C640  1  0.339460  0.545620  0.591180  1.0  0.1001
  C  C641  1  0.347990  0.551460  0.619700  1.0  -0.3029
  C  C642  1  0.308360  0.502150  0.633180  1.0  0.0937
  C  C643  1  0.316920  0.461430  0.636140  1.0  -0.1521
  C  C644  1  0.281890  0.416270  0.646300  1.0  0.2057
  C  C645  1  0.236250  0.407210  0.653910  1.0  0.2461
  C  C646  1  0.223160  0.447950  0.651440  1.0  -0.1483
  C  C647  1  0.263000  0.496510  0.642050  1.0  0.1042
  C  C648  1  0.245880  0.535730  0.640230  1.0  -0.2094
  C  C649  1  0.120630  0.511280  0.534820  1.0  -0.0548
  C  C650  1  0.032240  0.472310  0.605160  1.0  0.5297
  C  C651  1  0.985520  0.432270  0.611490  1.0  0.0243
  C  C652  1  0.974320  0.380720  0.611450  1.0  -0.1662
  C  C653  1  0.923120  0.340480  0.614270  1.0  0.1452
  C  C654  1  0.894320  0.403330  0.617180  1.0  0.1366
  C  C655  1  0.945520  0.443570  0.614360  1.0  -0.1172
  C  C656  1  0.143620  0.342500  0.666667  1.0  -0.0519
  C  C657  1  0.311300  0.371400  0.656900  1.0  0.1794
  C  C658  1  0.326600  0.321530  0.660850  1.0  -0.1627
  C  C659  1  0.363200  0.319820  0.676840  1.0  -0.0422
  C  C660  1  0.368420  0.275680  0.677320  1.0  0.1259
  C  C661  1  0.300290  0.234930  0.645830  1.0  0.1265
  C  C662  1  0.295110  0.279080  0.645350  1.0  -0.0911
  C  C663  1  0.410420  0.471130  0.552280  1.0  -0.0113
  C  C664  1  0.291700  0.465550  0.504950  1.0  0.4799
  C  C665  1  0.294350  0.479210  0.474720  1.0  -0.1715
  C  C666  1  0.252440  0.430390  0.460400  1.0  -0.1602
  C  C667  1  0.255840  0.439560  0.435150  1.0  0.1116
  C  C668  1  0.316530  0.528820  0.431680  1.0  0.078
  C  C669  1  0.322540  0.527610  0.459770  1.0  -0.0588
  C  C670  1  0.321300  0.551490  0.375030  1.0  -0.018
  C  C671  1  0.428000  0.198600  0.634710  1.0  0.0709
  C  C672  1  0.882470  0.865560  0.952820  1.0  0.1787
  C  C673  1  0.829650  0.834180  0.958150  1.0  -0.1904
  C  C674  1  0.792960  0.821980  0.938870  1.0  0.0311
  C  C675  1  0.809090  0.841170  0.914270  1.0  0.2224
  C  C676  1  0.861910  0.872540  0.908940  1.0  -0.1991
  C  C677  1  0.898600  0.884740  0.928220  1.0  0.0312
  C  C678  1  0.954470  0.921200  0.921670  1.0  -0.2711
  C  C679  1  0.982950  0.894970  0.909820  1.0  0.1817
  C  C680  1  0.976320  0.886420  0.883350  1.0  -0.1108
  C  C681  1  0.999080  0.854100  0.871160  1.0  0.2163
  C  C682  1  0.023890  0.842370  0.886260  1.0  0.1938
  C  C683  1  0.032430  0.852120  0.913250  1.0  -0.133
  C  C684  1  0.006130  0.878950  0.924510  1.0  0.1001
  C  C685  1  0.014660  0.884790  0.953030  1.0  -0.3029
  C  C686  1  0.975030  0.835480  0.966510  1.0  0.0937
  C  C687  1  0.983590  0.794760  0.969470  1.0  -0.1523
  C  C688  1  0.948560  0.749600  0.979630  1.0  0.2058
  C  C689  1  0.902920  0.740540  0.987240  1.0  0.2463
  C  C690  1  0.889830  0.781280  0.984770  1.0  -0.1483
  C  C691  1  0.929670  0.829840  0.975380  1.0  0.1042
  C  C692  1  0.912550  0.869060  0.973560  1.0  -0.2094
  C  C693  1  0.787300  0.844610  0.868150  1.0  -0.0548
  C  C694  1  0.698910  0.805640  0.938490  1.0  0.53
  C  C695  1  0.652190  0.765600  0.944820  1.0  0.0243
  C  C696  1  0.640990  0.714050  0.944780  1.0  -0.1662
  C  C697  1  0.589790  0.673810  0.947600  1.0  0.1449
  C  C698  1  0.560990  0.736660  0.950510  1.0  0.1365
  C  C699  1  0.612190  0.776900  0.947690  1.0  -0.1177
  C  C700  1  0.810290  0.675830  0.999950  1.0  -0.0494
  C  C701  1  0.977970  0.704730  0.990230  1.0  0.18
  C  C702  1  0.993270  0.654860  0.994180  1.0  -0.1626
  C  C703  1  0.029870  0.653150  0.010170  1.0  -0.0423
  C  C704  1  0.035090  0.609010  0.010650  1.0  0.126
  C  C705  1  0.966960  0.568260  0.979160  1.0  0.1265
  C  C706  1  0.961780  0.612410  0.978680  1.0  -0.0912
  C  C707  1  0.077090  0.804460  0.885610  1.0  -0.0113
  C  C708  1  0.958370  0.798880  0.838280  1.0  0.4799
  C  C709  1  0.961020  0.812540  0.808050  1.0  -0.1715
  C  C710  1  0.919110  0.763720  0.793730  1.0  -0.1602
  C  C711  1  0.922510  0.772890  0.768480  1.0  0.1116
  C  C712  1  0.983200  0.862150  0.765010  1.0  0.078
  C  C713  1  0.989210  0.860940  0.793100  1.0  -0.0588
  C  C714  1  0.987970  0.884820  0.708360  1.0  -0.018
  C  C715  1  0.094670  0.531930  0.968040  1.0  0.0709
  C  C716  1  0.549130  0.198900  0.286160  1.0  0.1787
  C  C717  1  0.496310  0.167520  0.291490  1.0  -0.1904
  C  C718  1  0.459620  0.155320  0.272210  1.0  0.0308
  C  C719  1  0.475750  0.174510  0.247610  1.0  0.2224
  C  C720  1  0.528570  0.205880  0.242280  1.0  -0.1991
  C  C721  1  0.565260  0.218080  0.261560  1.0  0.0312
  C  C722  1  0.621130  0.254540  0.255010  1.0  -0.2711
  C  C723  1  0.649610  0.228310  0.243160  1.0  0.1817
  C  C724  1  0.642980  0.219760  0.216690  1.0  -0.1108
  C  C725  1  0.665740  0.187440  0.204500  1.0  0.2163
  C  C726  1  0.690550  0.175710  0.219600  1.0  0.1938
  C  C727  1  0.699090  0.185460  0.246590  1.0  -0.133
  C  C728  1  0.672790  0.212290  0.257850  1.0  0.1001
  C  C729  1  0.681320  0.218130  0.286370  1.0  -0.3029
  C  C730  1  0.641690  0.168820  0.299850  1.0  0.0937
  C  C731  1  0.650250  0.128100  0.302810  1.0  -0.1521
  C  C732  1  0.615220  0.082940  0.312970  1.0  0.2057
  C  C733  1  0.569580  0.073880  0.320580  1.0  0.2463
  C  C734  1  0.556490  0.114620  0.318110  1.0  -0.1483
  C  C735  1  0.596330  0.163180  0.308720  1.0  0.1042
  C  C736  1  0.579210  0.202400  0.306900  1.0  -0.2094
  C  C737  1  0.453960  0.177950  0.201490  1.0  -0.0548
  C  C738  1  0.365570  0.138980  0.271830  1.0  0.5297
  C  C739  1  0.318850  0.098940  0.278160  1.0  0.0243
  C  C740  1  0.307650  0.047390  0.278120  1.0  -0.1662
  C  C741  1  0.256450  0.007150  0.280940  1.0  0.1452
  C  C742  1  0.227650  0.070000  0.283850  1.0  0.1365
  C  C743  1  0.278850  0.110240  0.281030  1.0  -0.1175
  C  C744  1  0.476950  0.009170  0.333290  1.0  -0.0493
  C  C745  1  0.644630  0.038070  0.323570  1.0  0.1794
  C  C746  1  0.659930  0.988200  0.327520  1.0  -0.1627
  C  C747  1  0.696530  0.986490  0.343510  1.0  -0.0422
  C  C748  1  0.701750  0.942350  0.343990  1.0  0.1259
  C  C749  1  0.633620  0.901600  0.312500  1.0  0.1265
  C  C750  1  0.628440  0.945750  0.312020  1.0  -0.0911
  C  C751  1  0.743750  0.137800  0.218950  1.0  -0.0113
  C  C752  1  0.625030  0.132220  0.171620  1.0  0.4799
  C  C753  1  0.627680  0.145880  0.141390  1.0  -0.1715
  C  C754  1  0.585770  0.097060  0.127070  1.0  -0.1602
  C  C755  1  0.589170  0.106230  0.101820  1.0  0.1116
  C  C756  1  0.649860  0.195490  0.098350  1.0  0.078
  C  C757  1  0.655870  0.194280  0.126440  1.0  -0.0588
  C  C758  1  0.654630  0.218160  0.041700  1.0  -0.018
  C  C759  1  0.761330  0.865270  0.301380  1.0  0.0709
  C  C760  1  0.467770  0.683570  0.619490  1.0  0.1795
  C  C761  1  0.499150  0.662130  0.624820  1.0  -0.1957
  C  C762  1  0.511350  0.637640  0.605540  1.0  0.0281
  C  C763  1  0.492160  0.634580  0.580940  1.0  0.2244
  C  C764  1  0.460790  0.656030  0.575610  1.0  -0.1975
  C  C765  1  0.448590  0.680520  0.594890  1.0  0.0319
  C  C766  1  0.412130  0.699930  0.588340  1.0  -0.269
  C  C767  1  0.438360  0.754640  0.576490  1.0  0.1845
  C  C768  1  0.446910  0.756560  0.550020  1.0  -0.1104
  C  C769  1  0.479230  0.811640  0.537830  1.0  0.2176
  C  C770  1  0.490960  0.848180  0.552930  1.0  0.1957
  C  C771  1  0.481210  0.846970  0.579920  1.0  -0.1331
  C  C772  1  0.454380  0.793840  0.591180  1.0  0.1007
  C  C773  1  0.448540  0.796530  0.619700  1.0  -0.3037
  C  C774  1  0.497850  0.806210  0.633180  1.0  0.0917
  C  C775  1  0.538570  0.855490  0.636140  1.0  -0.1523
  C  C776  1  0.583730  0.865620  0.646300  1.0  0.2075
  C  C777  1  0.592790  0.829040  0.653910  1.0  0.2482
  C  C778  1  0.552050  0.775210  0.651440  1.0  -0.1479
  C  C779  1  0.503490  0.766490  0.642050  1.0  0.1042
  C  C780  1  0.464270  0.710150  0.640230  1.0  -0.2091
  C  C781  1  0.488720  0.609350  0.534820  1.0  -0.0556
  C  C782  1  0.527690  0.559930  0.605160  1.0  0.5295
  C  C783  1  0.567730  0.553250  0.611490  1.0  0.0247
  C  C784  1  0.619280  0.593600  0.611450  1.0  -0.1693
  C  C785  1  0.659520  0.582640  0.614270  1.0  0.1478
  C  C786  1  0.596670  0.490990  0.617180  1.0  0.137
  C  C787  1  0.556430  0.501950  0.614360  1.0  -0.1172
  C  C788  1  0.657500  0.801120  0.666667  1.0  -0.0563
  C  C789  1  0.628600  0.939900  0.656900  1.0  0.1777
  C  C790  1  0.678470  0.005070  0.660850  1.0  -0.1637
  C  C791  1  0.680180  0.043380  0.676840  1.0  -0.0432
  C  C792  1  0.724320  0.092740  0.677320  1.0  0.1238
  C  C793  1  0.765070  0.065360  0.645830  1.0  0.1272
  C  C794  1  0.720920  0.016030  0.645350  1.0  -0.0941
  C  C795  1  0.528870  0.939290  0.552280  1.0  -0.0084
  C  C796  1  0.534450  0.826150  0.504950  1.0  0.48
  C  C797  1  0.520790  0.815140  0.474720  1.0  -0.171
  C  C798  1  0.569610  0.822050  0.460400  1.0  -0.1581
  C  C799  1  0.560440  0.816280  0.435150  1.0  0.1129
  C  C800  1  0.471180  0.787710  0.431680  1.0  0.078
  C  C801  1  0.472390  0.794930  0.459770  1.0  -0.0588
  C  C802  1  0.448510  0.769810  0.375030  1.0  -0.0198
  C  C803  1  0.801400  0.229400  0.634710  1.0  0.0739
  C  C804  1  0.134440  0.016900  0.952820  1.0  0.1795
  C  C805  1  0.165820  0.995460  0.958150  1.0  -0.1957
  C  C806  1  0.178020  0.970970  0.938870  1.0  0.0284
  C  C807  1  0.158830  0.967910  0.914270  1.0  0.2244
  C  C808  1  0.127460  0.989360  0.908940  1.0  -0.1975
  C  C809  1  0.115260  0.013850  0.928220  1.0  0.0319
  C  C810  1  0.078800  0.033260  0.921670  1.0  -0.269
  C  C811  1  0.105030  0.087970  0.909820  1.0  0.1845
  C  C812  1  0.113580  0.089890  0.883350  1.0  -0.1104
  C  C813  1  0.145900  0.144970  0.871160  1.0  0.2176
  C  C814  1  0.157630  0.181510  0.886260  1.0  0.1957
  C  C815  1  0.147880  0.180300  0.913250  1.0  -0.1331
  C  C816  1  0.121050  0.127170  0.924510  1.0  0.1008
  C  C817  1  0.115210  0.129860  0.953030  1.0  -0.3037
  C  C818  1  0.164520  0.139540  0.966510  1.0  0.0917
  C  C819  1  0.205240  0.188820  0.969470  1.0  -0.1524
  C  C820  1  0.250400  0.198950  0.979630  1.0  0.2076
  C  C821  1  0.259460  0.162370  0.987240  1.0  0.2483
  C  C822  1  0.218720  0.108540  0.984770  1.0  -0.1476
  C  C823  1  0.170160  0.099820  0.975380  1.0  0.1038
  C  C824  1  0.130940  0.043480  0.973560  1.0  -0.2091
  C  C825  1  0.155390  0.942680  0.868150  1.0  -0.0556
  C  C826  1  0.194360  0.893260  0.938490  1.0  0.5296
  C  C827  1  0.234400  0.886580  0.944820  1.0  0.0247
  C  C828  1  0.285950  0.926930  0.944780  1.0  -0.1692
  C  C829  1  0.326190  0.915970  0.947600  1.0  0.1475
  C  C830  1  0.263340  0.824320  0.950510  1.0  0.1369
  C  C831  1  0.223100  0.835280  0.947690  1.0  -0.1173
  C  C832  1  0.324170  0.134450  0.999950  1.0  -0.0534
  C  C833  1  0.295270  0.273230  0.990230  1.0  0.1783
  C  C834  1  0.345140  0.338400  0.994180  1.0  -0.1637
  C  C835  1  0.346850  0.376710  0.010170  1.0  -0.0432
  C  C836  1  0.390990  0.426070  0.010650  1.0  0.1238
  C  C837  1  0.431740  0.398690  0.979160  1.0  0.1272
  C  C838  1  0.387590  0.349360  0.978680  1.0  -0.0941
  C  C839  1  0.195540  0.272620  0.885610  1.0  -0.0084
  C  C840  1  0.201120  0.159480  0.838280  1.0  0.48
  C  C841  1  0.187460  0.148470  0.808050  1.0  -0.171
  C  C842  1  0.236280  0.155380  0.793730  1.0  -0.1581
  C  C843  1  0.227110  0.149610  0.768480  1.0  0.1129
  C  C844  1  0.137850  0.121040  0.765010  1.0  0.078
  C  C845  1  0.139060  0.128260  0.793100  1.0  -0.0588
  C  C846  1  0.115180  0.103140  0.708360  1.0  -0.0198
  C  C847  1  0.468070  0.562730  0.968040  1.0  0.0739
  C  C848  1  0.801100  0.350240  0.286160  1.0  0.1795
  C  C849  1  0.832480  0.328800  0.291490  1.0  -0.1957
  C  C850  1  0.844680  0.304310  0.272210  1.0  0.0281
  C  C851  1  0.825490  0.301250  0.247610  1.0  0.2244
  C  C852  1  0.794120  0.322700  0.242280  1.0  -0.1975
  C  C853  1  0.781920  0.347190  0.261560  1.0  0.0319
  C  C854  1  0.745460  0.366600  0.255010  1.0  -0.269
  C  C855  1  0.771690  0.421310  0.243160  1.0  0.1845
  C  C856  1  0.780240  0.423230  0.216690  1.0  -0.1104
  C  C857  1  0.812560  0.478310  0.204500  1.0  0.2176
  C  C858  1  0.824290  0.514850  0.219600  1.0  0.1957
  C  C859  1  0.814540  0.513640  0.246590  1.0  -0.1331
  C  C860  1  0.787710  0.460510  0.257850  1.0  0.1007
  C  C861  1  0.781870  0.463200  0.286370  1.0  -0.3037
  C  C862  1  0.831180  0.472880  0.299850  1.0  0.0917
  C  C863  1  0.871900  0.522160  0.302810  1.0  -0.1523
  C  C864  1  0.917060  0.532290  0.312970  1.0  0.2075
  C  C865  1  0.926120  0.495710  0.320580  1.0  0.2484
  C  C866  1  0.885380  0.441880  0.318110  1.0  -0.1476
  C  C867  1  0.836820  0.433160  0.308720  1.0  0.1042
  C  C868  1  0.797600  0.376820  0.306900  1.0  -0.2091
  C  C869  1  0.822050  0.276020  0.201490  1.0  -0.0556
  C  C870  1  0.861020  0.226600  0.271830  1.0  0.5295
  C  C871  1  0.901060  0.219920  0.278160  1.0  0.0247
  C  C872  1  0.952610  0.260270  0.278120  1.0  -0.1693
  C  C873  1  0.992850  0.249310  0.280940  1.0  0.1478
  C  C874  1  0.930000  0.157660  0.283850  1.0  0.1369
  C  C875  1  0.889760  0.168620  0.281030  1.0  -0.1172
  C  C876  1  0.990830  0.467790  0.333290  1.0  -0.0535
  C  C877  1  0.961930  0.606570  0.323570  1.0  0.1777
  C  C878  1  0.011800  0.671740  0.327520  1.0  -0.1637
  C  C879  1  0.013510  0.710050  0.343510  1.0  -0.0432
  C  C880  1  0.057650  0.759410  0.343990  1.0  0.1239
  C  C881  1  0.098400  0.732030  0.312500  1.0  0.1272
  C  C882  1  0.054250  0.682700  0.312020  1.0  -0.0941
  C  C883  1  0.862200  0.605960  0.218950  1.0  -0.0084
  C  C884  1  0.867780  0.492820  0.171620  1.0  0.48
  C  C885  1  0.854120  0.481810  0.141390  1.0  -0.171
  C  C886  1  0.902940  0.488720  0.127070  1.0  -0.1581
  C  C887  1  0.893770  0.482950  0.101820  1.0  0.1129
  C  C888  1  0.804510  0.454380  0.098350  1.0  0.078
  C  C889  1  0.805720  0.461600  0.126440  1.0  -0.0588
  C  C890  1  0.781840  0.436480  0.041700  1.0  -0.0197
  C  C891  1  0.134730  0.896070  0.301380  1.0  0.0739
  C  C892  1  0.316430  0.784200  0.619490  1.0  0.1802
  C  C893  1  0.337870  0.837020  0.624820  1.0  -0.1947
  C  C894  1  0.362360  0.873710  0.605540  1.0  0.0267
  C  C895  1  0.365420  0.857580  0.580940  1.0  0.2227
  C  C896  1  0.343970  0.804760  0.575610  1.0  -0.1974
  C  C897  1  0.319480  0.768070  0.594890  1.0  0.0298
  C  C898  1  0.300070  0.712200  0.588340  1.0  -0.2721
  C  C899  1  0.245360  0.683720  0.576490  1.0  0.1837
  C  C900  1  0.243440  0.690350  0.550020  1.0  -0.1118
  C  C901  1  0.188360  0.667590  0.537830  1.0  0.2182
  C  C902  1  0.151820  0.642780  0.552930  1.0  0.1947
  C  C903  1  0.153030  0.634240  0.579920  1.0  -0.1345
  C  C904  1  0.206160  0.660540  0.591180  1.0  0.1013
  C  C905  1  0.203470  0.652010  0.619700  1.0  -0.3038
  C  C906  1  0.193790  0.691640  0.633180  1.0  0.09
  C  C907  1  0.144510  0.683080  0.636140  1.0  -0.1531
  C  C908  1  0.134380  0.718110  0.646300  1.0  0.2036
  C  C909  1  0.170960  0.763750  0.653910  1.0  0.247
  C  C910  1  0.224790  0.776840  0.651440  1.0  -0.1474
  C  C911  1  0.233510  0.737000  0.642050  1.0  0.1038
  C  C912  1  0.289850  0.754120  0.640230  1.0  -0.2103
  C  C913  1  0.390650  0.879370  0.534820  1.0  -0.0531
  C  C914  1  0.440070  0.967760  0.605160  1.0  0.5271
  C  C915  1  0.446750  0.014480  0.611490  1.0  0.0259
  C  C916  1  0.406400  0.025680  0.611450  1.0  -0.1661
  C  C917  1  0.417360  0.076880  0.614270  1.0  0.1463
  C  C918  1  0.509010  0.105680  0.617180  1.0  0.1382
  C  C919  1  0.498050  0.054480  0.614360  1.0  -0.1147
  C  C920  1  0.198880  0.856380  0.666667  1.0  -0.0542
  C  C921  1  0.060100  0.688700  0.656900  1.0  0.1801
  C  C922  1  0.994930  0.673400  0.660850  1.0  -0.1686
  C  C923  1  0.956620  0.636800  0.676840  1.0  -0.0436
  C  C924  1  0.907260  0.631580  0.677320  1.0  0.1272
  C  C925  1  0.934640  0.699710  0.645830  1.0  0.1281
  C  C926  1  0.983970  0.704890  0.645350  1.0  -0.0938
  C  C927  1  0.060710  0.589580  0.552280  1.0  -0.0148
  C  C928  1  0.173850  0.708300  0.504950  1.0  0.4785
  C  C929  1  0.184860  0.705650  0.474720  1.0  -0.1719
  C  C930  1  0.177950  0.747560  0.460400  1.0  -0.1601
  C  C931  1  0.183720  0.744160  0.435150  1.0  0.1099
  C  C932  1  0.212290  0.683470  0.431680  1.0  0.0774
  C  C933  1  0.205070  0.677460  0.459770  1.0  -0.0565
  C  C934  1  0.230190  0.678700  0.375030  1.0  -0.0185
  C  C935  1  0.770600  0.572000  0.634710  1.0  0.0718
  C  C936  1  0.983100  0.117530  0.952820  1.0  0.1802
  C  C937  1  0.004540  0.170350  0.958150  1.0  -0.1947
  C  C938  1  0.029030  0.207040  0.938870  1.0  0.0271
  C  C939  1  0.032090  0.190910  0.914270  1.0  0.2227
  C  C940  1  0.010640  0.138090  0.908940  1.0  -0.1974
  C  C941  1  0.986150  0.101400  0.928220  1.0  0.0298
  C  C942  1  0.966740  0.045530  0.921670  1.0  -0.2721
  C  C943  1  0.912030  0.017050  0.909820  1.0  0.1837
  C  C944  1  0.910110  0.023680  0.883350  1.0  -0.1118
  C  C945  1  0.855030  0.000920  0.871160  1.0  0.2182
  C  C946  1  0.818490  0.976110  0.886260  1.0  0.1947
  C  C947  1  0.819700  0.967570  0.913250  1.0  -0.1345
  C  C948  1  0.872830  0.993870  0.924510  1.0  0.1013
  C  C949  1  0.870140  0.985340  0.953030  1.0  -0.3037
  C  C950  1  0.860460  0.024970  0.966510  1.0  0.09
  C  C951  1  0.811180  0.016410  0.969470  1.0  -0.1531
  C  C952  1  0.801050  0.051440  0.979630  1.0  0.2037
  C  C953  1  0.837630  0.097080  0.987240  1.0  0.2476
  C  C954  1  0.891460  0.110170  0.984770  1.0  -0.1474
  C  C955  1  0.900180  0.070330  0.975380  1.0  0.1038
  C  C956  1  0.956520  0.087450  0.973560  1.0  -0.2103
  C  C957  1  0.057320  0.212700  0.868150  1.0  -0.0531
  C  C958  1  0.106740  0.301090  0.938490  1.0  0.5272
  C  C959  1  0.113420  0.347810  0.944820  1.0  0.0259
  C  C960  1  0.073070  0.359010  0.944780  1.0  -0.1661
  C  C961  1  0.084030  0.410210  0.947600  1.0  0.1461
  C  C962  1  0.175680  0.439010  0.950510  1.0  0.1381
  C  C963  1  0.164720  0.387810  0.947690  1.0  -0.1149
  C  C964  1  0.865550  0.189710  0.999950  1.0  -0.0514
  C  C965  1  0.726770  0.022030  0.990230  1.0  0.18
  C  C966  1  0.661600  0.006730  0.994180  1.0  -0.1686
  C  C967  1  0.623290  0.970130  0.010170  1.0  -0.0436
  C  C968  1  0.573930  0.964910  0.010650  1.0  0.1272
  C  C969  1  0.601310  0.033040  0.979160  1.0  0.1281
  C  C970  1  0.650640  0.038220  0.978680  1.0  -0.0938
  C  C971  1  0.727380  0.922910  0.885610  1.0  -0.0148
  C  C972  1  0.840520  0.041630  0.838280  1.0  0.4785
  C  C973  1  0.851530  0.038980  0.808050  1.0  -0.1719
  C  C974  1  0.844620  0.080890  0.793730  1.0  -0.1601
  C  C975  1  0.850390  0.077490  0.768480  1.0  0.1099
  C  C976  1  0.878960  0.016800  0.765010  1.0  0.0774
  C  C977  1  0.871740  0.010790  0.793100  1.0  -0.0565
  C  C978  1  0.896860  0.012030  0.708360  1.0  -0.0185
  C  C979  1  0.437270  0.905330  0.968040  1.0  0.0718
  C  C980  1  0.649760  0.450870  0.286160  1.0  0.1802
  C  C981  1  0.671200  0.503690  0.291490  1.0  -0.1947
  C  C982  1  0.695690  0.540380  0.272210  1.0  0.0267
  C  C983  1  0.698750  0.524250  0.247610  1.0  0.2227
  C  C984  1  0.677300  0.471430  0.242280  1.0  -0.1974
  C  C985  1  0.652810  0.434740  0.261560  1.0  0.0298
  C  C986  1  0.633400  0.378870  0.255010  1.0  -0.2721
  C  C987  1  0.578690  0.350390  0.243160  1.0  0.1837
  C  C988  1  0.576770  0.357020  0.216690  1.0  -0.1118
  C  C989  1  0.521690  0.334260  0.204500  1.0  0.2182
  C  C990  1  0.485150  0.309450  0.219600  1.0  0.1947
  C  C991  1  0.486360  0.300910  0.246590  1.0  -0.1345
  C  C992  1  0.539490  0.327210  0.257850  1.0  0.1013
  C  C993  1  0.536800  0.318680  0.286370  1.0  -0.3038
  C  C994  1  0.527120  0.358310  0.299850  1.0  0.09
  C  C995  1  0.477840  0.349750  0.302810  1.0  -0.1531
  C  C996  1  0.467710  0.384780  0.312970  1.0  0.2036
  C  C997  1  0.504290  0.430420  0.320580  1.0  0.2471
  C  C998  1  0.558120  0.443510  0.318110  1.0  -0.1474
  C  C999  1  0.566840  0.403670  0.308720  1.0  0.1038
  C  C1000  1  0.623180  0.420790  0.306900  1.0  -0.2103
  C  C1001  1  0.723980  0.546040  0.201490  1.0  -0.0531
  C  C1002  1  0.773400  0.634430  0.271830  1.0  0.5271
  C  C1003  1  0.780080  0.681150  0.278160  1.0  0.0259
  C  C1004  1  0.739730  0.692350  0.278120  1.0  -0.1661
  C  C1005  1  0.750690  0.743550  0.280940  1.0  0.1463
  C  C1006  1  0.842340  0.772350  0.283850  1.0  0.1382
  C  C1007  1  0.831380  0.721150  0.281030  1.0  -0.1147
  C  C1008  1  0.532210  0.523050  0.333290  1.0  -0.0515
  C  C1009  1  0.393430  0.355370  0.323570  1.0  0.1801
  C  C1010  1  0.328260  0.340070  0.327520  1.0  -0.1686
  C  C1011  1  0.289950  0.303470  0.343510  1.0  -0.0436
  C  C1012  1  0.240590  0.298250  0.343990  1.0  0.1272
  C  C1013  1  0.267970  0.366380  0.312500  1.0  0.1281
  C  C1014  1  0.317300  0.371560  0.312020  1.0  -0.0938
  C  C1015  1  0.394040  0.256250  0.218950  1.0  -0.0148
  C  C1016  1  0.507180  0.374970  0.171620  1.0  0.4785
  C  C1017  1  0.518190  0.372320  0.141390  1.0  -0.1719
  C  C1018  1  0.511280  0.414230  0.127070  1.0  -0.1601
  C  C1019  1  0.517050  0.410830  0.101820  1.0  0.1099
  C  C1020  1  0.545620  0.350140  0.098350  1.0  0.0774
  C  C1021  1  0.538400  0.344130  0.126440  1.0  -0.0565
  C  C1022  1  0.563520  0.345370  0.041700  1.0  -0.0184
  C  C1023  1  0.103930  0.238670  0.301380  1.0  0.0718
  C  C1024  1  0.784200  0.467770  0.380510  1.0  0.182
  C  C1025  1  0.837020  0.499150  0.375180  1.0  -0.1921
  C  C1026  1  0.873710  0.511350  0.394460  1.0  0.0302
  C  C1027  1  0.857580  0.492160  0.419060  1.0  0.2234
  C  C1028  1  0.804760  0.460790  0.424390  1.0  -0.1979
  C  C1029  1  0.768070  0.448590  0.405110  1.0  0.0316
  C  C1030  1  0.712200  0.412130  0.411660  1.0  -0.2723
  C  C1031  1  0.683720  0.438360  0.423510  1.0  0.1845
  C  C1032  1  0.690350  0.446910  0.449980  1.0  -0.1157
  C  C1033  1  0.667590  0.479230  0.462170  1.0  0.2143
  C  C1034  1  0.642780  0.490960  0.447070  1.0  0.1911
  C  C1035  1  0.634240  0.481210  0.420080  1.0  -0.1341
  C  C1036  1  0.660540  0.454380  0.408820  1.0  0.0999
  C  C1037  1  0.652010  0.448540  0.380300  1.0  -0.3024
  C  C1038  1  0.691640  0.497850  0.366820  1.0  0.0936
  C  C1039  1  0.683080  0.538570  0.363860  1.0  -0.1554
  C  C1040  1  0.718110  0.583730  0.353700  1.0  0.2078
  C  C1041  1  0.763750  0.592790  0.346090  1.0  0.2477
  C  C1042  1  0.776840  0.552050  0.348560  1.0  -0.1454
  C  C1043  1  0.737000  0.503490  0.357950  1.0  0.1037
  C  C1044  1  0.754120  0.464270  0.359770  1.0  -0.209
  C  C1045  1  0.879370  0.488720  0.465180  1.0  -0.0579
  C  C1046  1  0.967760  0.527690  0.394840  1.0  0.5271
  C  C1047  1  0.014480  0.567730  0.388510  1.0  0.0239
  C  C1048  1  0.025680  0.619280  0.388550  1.0  -0.1671
  C  C1049  1  0.076880  0.659520  0.385730  1.0  0.1452
  C  C1050  1  0.105680  0.596670  0.382820  1.0  0.1375
  C  C1051  1  0.054480  0.556430  0.385640  1.0  -0.1177
  C  C1052  1  0.856380  0.657500  0.333380  1.0  -0.0533
  C  C1053  1  0.688700  0.628600  0.343100  1.0  0.1776
  C  C1054  1  0.673400  0.678470  0.339150  1.0  -0.1627
  C  C1055  1  0.636800  0.680180  0.323160  1.0  -0.0431
  C  C1056  1  0.631580  0.724320  0.322680  1.0  0.127
  C  C1057  1  0.699710  0.765070  0.354170  1.0  0.1246
  C  C1058  1  0.704890  0.720920  0.354650  1.0  -0.0913
  C  C1059  1  0.589580  0.528870  0.447720  1.0  -0.0109
  C  C1060  1  0.708300  0.534450  0.495050  1.0  0.4793
  C  C1061  1  0.705650  0.520790  0.525280  1.0  -0.1717
  C  C1062  1  0.747560  0.569610  0.539600  1.0  -0.1591
  C  C1063  1  0.744160  0.560440  0.564850  1.0  0.1105
  C  C1064  1  0.683470  0.471180  0.568320  1.0  0.0772
  C  C1065  1  0.677460  0.472390  0.540230  1.0  -0.0579
  C  C1066  1  0.678700  0.448510  0.624970  1.0  -0.023
  C  C1067  1  0.572000  0.801400  0.365290  1.0  0.0719
  C  C1068  1  0.450870  0.801100  0.713840  1.0  0.182
  C  C1069  1  0.503690  0.832480  0.708510  1.0  -0.1921
  C  C1070  1  0.540380  0.844680  0.727790  1.0  0.0302
  C  C1071  1  0.524250  0.825490  0.752390  1.0  0.2234
  C  C1072  1  0.471430  0.794120  0.757720  1.0  -0.1979
  C  C1073  1  0.434740  0.781920  0.738440  1.0  0.0316
  C  C1074  1  0.378870  0.745460  0.744990  1.0  -0.2723
  C  C1075  1  0.350390  0.771690  0.756840  1.0  0.1845
  C  C1076  1  0.357020  0.780240  0.783310  1.0  -0.1157
  C  C1077  1  0.334260  0.812560  0.795500  1.0  0.2143
  C  C1078  1  0.309450  0.824290  0.780400  1.0  0.1911
  C  C1079  1  0.300910  0.814540  0.753410  1.0  -0.1341
  C  C1080  1  0.327210  0.787710  0.742150  1.0  0.0999
  C  C1081  1  0.318680  0.781870  0.713630  1.0  -0.3024
  C  C1082  1  0.358310  0.831180  0.700150  1.0  0.0937
  C  C1083  1  0.349750  0.871900  0.697190  1.0  -0.1554
  C  C1084  1  0.384780  0.917060  0.687030  1.0  0.2078
  C  C1085  1  0.430420  0.926120  0.679420  1.0  0.2475
  C  C1086  1  0.443510  0.885380  0.681890  1.0  -0.1454
  C  C1087  1  0.403670  0.836820  0.691280  1.0  0.1037
  C  C1088  1  0.420790  0.797600  0.693100  1.0  -0.209
  C  C1089  1  0.546040  0.822050  0.798510  1.0  -0.0579
  C  C1090  1  0.634430  0.861020  0.728170  1.0  0.5271
  C  C1091  1  0.681150  0.901060  0.721840  1.0  0.0239
  C  C1092  1  0.692350  0.952610  0.721880  1.0  -0.1671
  C  C1093  1  0.743550  0.992850  0.719060  1.0  0.1452
  C  C1094  1  0.772350  0.930000  0.716150  1.0  0.1376
  C  C1095  1  0.721150  0.889760  0.718970  1.0  -0.1177
  C  C1096  1  0.523050  0.990830  0.666667  1.0  -0.0563
  C  C1097  1  0.355370  0.961930  0.676430  1.0  0.1776
  C  C1098  1  0.340070  0.011800  0.672480  1.0  -0.1627
  C  C1099  1  0.303470  0.013510  0.656490  1.0  -0.0431
  C  C1100  1  0.298250  0.057650  0.656010  1.0  0.127
  C  C1101  1  0.366380  0.098400  0.687500  1.0  0.1246
  C  C1102  1  0.371560  0.054250  0.687980  1.0  -0.0913
  C  C1103  1  0.256250  0.862200  0.781050  1.0  -0.0109
  C  C1104  1  0.374970  0.867780  0.828380  1.0  0.4793
  C  C1105  1  0.372320  0.854120  0.858610  1.0  -0.1717
  C  C1106  1  0.414230  0.902940  0.872930  1.0  -0.1591
  C  C1107  1  0.410830  0.893770  0.898180  1.0  0.1105
  C  C1108  1  0.350140  0.804510  0.901650  1.0  0.0772
  C  C1109  1  0.344130  0.805720  0.873560  1.0  -0.0579
  C  C1110  1  0.345370  0.781840  0.958300  1.0  -0.023
  C  C1111  1  0.238670  0.134730  0.698620  1.0  0.0719
  C  C1112  1  0.117530  0.134440  0.047180  1.0  0.182
  C  C1113  1  0.170350  0.165820  0.041850  1.0  -0.1921
  C  C1114  1  0.207040  0.178020  0.061130  1.0  0.0302
  C  C1115  1  0.190910  0.158830  0.085730  1.0  0.2234
  C  C1116  1  0.138090  0.127460  0.091060  1.0  -0.1979
  C  C1117  1  0.101400  0.115260  0.071780  1.0  0.0316
  C  C1118  1  0.045530  0.078800  0.078330  1.0  -0.2723
  C  C1119  1  0.017050  0.105030  0.090180  1.0  0.1845
  C  C1120  1  0.023680  0.113580  0.116650  1.0  -0.1157
  C  C1121  1  0.000920  0.145900  0.128840  1.0  0.2143
  C  C1122  1  0.976110  0.157630  0.113740  1.0  0.1911
  C  C1123  1  0.967570  0.147880  0.086750  1.0  -0.1341
  C  C1124  1  0.993870  0.121050  0.075490  1.0  0.0999
  C  C1125  1  0.985340  0.115210  0.046970  1.0  -0.3024
  C  C1126  1  0.024970  0.164520  0.033490  1.0  0.0936
  C  C1127  1  0.016410  0.205240  0.030530  1.0  -0.1554
  C  C1128  1  0.051440  0.250400  0.020370  1.0  0.2078
  C  C1129  1  0.097080  0.259460  0.012760  1.0  0.2477
  C  C1130  1  0.110170  0.218720  0.015230  1.0  -0.1455
  C  C1131  1  0.070330  0.170160  0.024620  1.0  0.1037
  C  C1132  1  0.087450  0.130940  0.026440  1.0  -0.209
  C  C1133  1  0.212700  0.155390  0.131850  1.0  -0.0579
  C  C1134  1  0.301090  0.194360  0.061510  1.0  0.5276
  C  C1135  1  0.347810  0.234400  0.055180  1.0  0.0239
  C  C1136  1  0.359010  0.285950  0.055220  1.0  -0.1671
  C  C1137  1  0.410210  0.326190  0.052400  1.0  0.1449
  C  C1138  1  0.439010  0.263340  0.049490  1.0  0.1375
  C  C1139  1  0.387810  0.223100  0.052310  1.0  -0.1179
  C  C1140  1  0.189710  0.324170  0.000050  1.0  -0.0533
  C  C1141  1  0.022030  0.295270  0.009770  1.0  0.1781
  C  C1142  1  0.006730  0.345140  0.005820  1.0  -0.1626
  C  C1143  1  0.970130  0.346850  0.989830  1.0  -0.0432
  C  C1144  1  0.964910  0.390990  0.989350  1.0  0.127
  C  C1145  1  0.033040  0.431740  0.020840  1.0  0.1246
  C  C1146  1  0.038220  0.387590  0.021320  1.0  -0.0913
  C  C1147  1  0.922910  0.195540  0.114390  1.0  -0.0109
  C  C1148  1  0.041630  0.201120  0.161720  1.0  0.4793
  C  C1149  1  0.038980  0.187460  0.191950  1.0  -0.1717
  C  C1150  1  0.080890  0.236280  0.206270  1.0  -0.1591
  C  C1151  1  0.077490  0.227110  0.231520  1.0  0.1105
  C  C1152  1  0.016800  0.137850  0.234990  1.0  0.0772
  C  C1153  1  0.010790  0.139060  0.206900  1.0  -0.0579
  C  C1154  1  0.012030  0.115180  0.291640  1.0  -0.023
  C  C1155  1  0.905330  0.468070  0.031960  1.0  0.0719
  C  C1156  1  0.532230  0.316430  0.380510  1.0  0.1818
  C  C1157  1  0.500850  0.337870  0.375180  1.0  -0.1963
  C  C1158  1  0.488650  0.362360  0.394460  1.0  0.0273
  C  C1159  1  0.507840  0.365420  0.419060  1.0  0.2241
  C  C1160  1  0.539210  0.343970  0.424390  1.0  -0.1964
  C  C1161  1  0.551410  0.319480  0.405110  1.0  0.0293
  C  C1162  1  0.587870  0.300070  0.411660  1.0  -0.2697
  C  C1163  1  0.561640  0.245360  0.423510  1.0  0.1856
  C  C1164  1  0.553090  0.243440  0.449980  1.0  -0.1155
  C  C1165  1  0.520770  0.188360  0.462170  1.0  0.2169
  C  C1166  1  0.509040  0.151820  0.447070  1.0  0.1938
  C  C1167  1  0.518790  0.153030  0.420080  1.0  -0.1305
  C  C1168  1  0.545620  0.206160  0.408820  1.0  0.0987
  C  C1169  1  0.551460  0.203470  0.380300  1.0  -0.3029
  C  C1170  1  0.502150  0.193790  0.366820  1.0  0.0904
  C  C1171  1  0.461430  0.144510  0.363860  1.0  -0.1538
  C  C1172  1  0.416270  0.134380  0.353700  1.0  0.209
  C  C1173  1  0.407210  0.170960  0.346090  1.0  0.2485
  C  C1174  1  0.447950  0.224790  0.348560  1.0  -0.1476
  C  C1175  1  0.496510  0.233510  0.357950  1.0  0.1031
  C  C1176  1  0.535730  0.289850  0.359770  1.0  -0.2103
  C  C1177  1  0.511280  0.390650  0.465180  1.0  -0.0543
  C  C1178  1  0.472310  0.440070  0.394840  1.0  0.5256
  C  C1179  1  0.432270  0.446750  0.388510  1.0  0.0227
  C  C1180  1  0.380720  0.406400  0.388550  1.0  -0.1665
  C  C1181  1  0.340480  0.417360  0.385730  1.0  0.1496
  C  C1182  1  0.403330  0.509010  0.382820  1.0  0.1362
  C  C1183  1  0.443570  0.498050  0.385640  1.0  -0.1159
  C  C1184  1  0.342500  0.198880  0.333380  1.0  -0.0511
  C  C1185  1  0.371400  0.060100  0.343100  1.0  0.1767
  C  C1186  1  0.321530  0.994930  0.339150  1.0  -0.1625
  C  C1187  1  0.319820  0.956620  0.323160  1.0  -0.0433
  C  C1188  1  0.275680  0.907260  0.322680  1.0  0.1236
  C  C1189  1  0.234930  0.934640  0.354170  1.0  0.124
  C  C1190  1  0.279080  0.983970  0.354650  1.0  -0.0922
  C  C1191  1  0.471130  0.060710  0.447720  1.0  -0.0105
  C  C1192  1  0.465550  0.173850  0.495050  1.0  0.4771
  C  C1193  1  0.479210  0.184860  0.525280  1.0  -0.171
  C  C1194  1  0.430390  0.177950  0.539600  1.0  -0.1574
  C  C1195  1  0.439560  0.183720  0.564850  1.0  0.1126
  C  C1196  1  0.528820  0.212290  0.568320  1.0  0.0785
  C  C1197  1  0.527610  0.205070  0.540230  1.0  -0.0566
  C  C1198  1  0.551490  0.230190  0.624970  1.0  -0.023
  C  C1199  1  0.198600  0.770600  0.365290  1.0  0.0744
  C  C1200  1  0.198900  0.649760  0.713840  1.0  0.1818
  C  C1201  1  0.167520  0.671200  0.708510  1.0  -0.1963
  C  C1202  1  0.155320  0.695690  0.727790  1.0  0.0273
  C  C1203  1  0.174510  0.698750  0.752390  1.0  0.2241
  C  C1204  1  0.205880  0.677300  0.757720  1.0  -0.1964
  C  C1205  1  0.218080  0.652810  0.738440  1.0  0.0293
  C  C1206  1  0.254540  0.633400  0.744990  1.0  -0.2697
  C  C1207  1  0.228310  0.578690  0.756840  1.0  0.1856
  C  C1208  1  0.219760  0.576770  0.783310  1.0  -0.1155
  C  C1209  1  0.187440  0.521690  0.795500  1.0  0.2169
  C  C1210  1  0.175710  0.485150  0.780400  1.0  0.1938
  C  C1211  1  0.185460  0.486360  0.753410  1.0  -0.1305
  C  C1212  1  0.212290  0.539490  0.742150  1.0  0.0987
  C  C1213  1  0.218130  0.536800  0.713630  1.0  -0.3029
  C  C1214  1  0.168820  0.527120  0.700150  1.0  0.0904
  C  C1215  1  0.128100  0.477840  0.697190  1.0  -0.1538
  C  C1216  1  0.082940  0.467710  0.687030  1.0  0.209
  C  C1217  1  0.073880  0.504290  0.679420  1.0  0.2483
  C  C1218  1  0.114620  0.558120  0.681890  1.0  -0.1476
  C  C1219  1  0.163180  0.566840  0.691280  1.0  0.1031
  C  C1220  1  0.202400  0.623180  0.693100  1.0  -0.2103
  C  C1221  1  0.177950  0.723980  0.798510  1.0  -0.0543
  C  C1222  1  0.138980  0.773400  0.728170  1.0  0.5258
  C  C1223  1  0.098940  0.780080  0.721840  1.0  0.0227
  C  C1224  1  0.047390  0.739730  0.721880  1.0  -0.1665
  C  C1225  1  0.007150  0.750690  0.719060  1.0  0.1496
  C  C1226  1  0.070000  0.842340  0.716150  1.0  0.1363
  C  C1227  1  0.110240  0.831380  0.718970  1.0  -0.1159
  C  C1228  1  0.009170  0.532210  0.666667  1.0  -0.054
  C  C1229  1  0.038070  0.393430  0.676430  1.0  0.1767
  C  C1230  1  0.988200  0.328260  0.672480  1.0  -0.1625
  C  C1231  1  0.986490  0.289950  0.656490  1.0  -0.0433
  C  C1232  1  0.942350  0.240590  0.656010  1.0  0.1237
  C  C1233  1  0.901600  0.267970  0.687500  1.0  0.124
  C  C1234  1  0.945750  0.317300  0.687980  1.0  -0.0922
  C  C1235  1  0.137800  0.394040  0.781050  1.0  -0.0105
  C  C1236  1  0.132220  0.507180  0.828380  1.0  0.4771
  C  C1237  1  0.145880  0.518190  0.858610  1.0  -0.171
  C  C1238  1  0.097060  0.511280  0.872930  1.0  -0.1574
  C  C1239  1  0.106230  0.517050  0.898180  1.0  0.1126
  C  C1240  1  0.195490  0.545620  0.901650  1.0  0.0785
  C  C1241  1  0.194280  0.538400  0.873560  1.0  -0.0566
  C  C1242  1  0.218160  0.563520  0.958300  1.0  -0.0228
  C  C1243  1  0.865270  0.103930  0.698620  1.0  0.0744
  C  C1244  1  0.865560  0.983100  0.047180  1.0  0.1818
  C  C1245  1  0.834180  0.004540  0.041850  1.0  -0.1963
  C  C1246  1  0.821980  0.029030  0.061130  1.0  0.0273
  C  C1247  1  0.841170  0.032090  0.085730  1.0  0.2241
  C  C1248  1  0.872540  0.010640  0.091060  1.0  -0.1964
  C  C1249  1  0.884740  0.986150  0.071780  1.0  0.0293
  C  C1250  1  0.921200  0.966740  0.078330  1.0  -0.2697
  C  C1251  1  0.894970  0.912030  0.090180  1.0  0.1856
  C  C1252  1  0.886420  0.910110  0.116650  1.0  -0.1155
  C  C1253  1  0.854100  0.855030  0.128840  1.0  0.2169
  C  C1254  1  0.842370  0.818490  0.113740  1.0  0.1938
  C  C1255  1  0.852120  0.819700  0.086750  1.0  -0.1305
  C  C1256  1  0.878950  0.872830  0.075490  1.0  0.0987
  C  C1257  1  0.884790  0.870140  0.046970  1.0  -0.3029
  C  C1258  1  0.835480  0.860460  0.033490  1.0  0.0903
  C  C1259  1  0.794760  0.811180  0.030530  1.0  -0.1538
  C  C1260  1  0.749600  0.801050  0.020370  1.0  0.2091
  C  C1261  1  0.740540  0.837630  0.012760  1.0  0.2483
  C  C1262  1  0.781280  0.891460  0.015230  1.0  -0.1476
  C  C1263  1  0.829840  0.900180  0.024620  1.0  0.1027
  C  C1264  1  0.869060  0.956520  0.026440  1.0  -0.2103
  C  C1265  1  0.844610  0.057320  0.131850  1.0  -0.0543
  C  C1266  1  0.805640  0.106740  0.061510  1.0  0.5258
  C  C1267  1  0.765600  0.113420  0.055180  1.0  0.0227
  C  C1268  1  0.714050  0.073070  0.055220  1.0  -0.1665
  C  C1269  1  0.673810  0.084030  0.052400  1.0  0.1493
  C  C1270  1  0.736660  0.175680  0.049490  1.0  0.1362
  C  C1271  1  0.776900  0.164720  0.052310  1.0  -0.116
  C  C1272  1  0.675830  0.865550  0.000050  1.0  -0.0511
  C  C1273  1  0.704730  0.726770  0.009770  1.0  0.1773
  C  C1274  1  0.654860  0.661600  0.005820  1.0  -0.1624
  C  C1275  1  0.653150  0.623290  0.989830  1.0  -0.0433
  C  C1276  1  0.609010  0.573930  0.989350  1.0  0.1236
  C  C1277  1  0.568260  0.601310  0.020840  1.0  0.124
  C  C1278  1  0.612410  0.650640  0.021320  1.0  -0.0921
  C  C1279  1  0.804460  0.727380  0.114390  1.0  -0.0105
  C  C1280  1  0.798880  0.840520  0.161720  1.0  0.4771
  C  C1281  1  0.812540  0.851530  0.191950  1.0  -0.171
  C  C1282  1  0.763720  0.844620  0.206270  1.0  -0.1574
  C  C1283  1  0.772890  0.850390  0.231520  1.0  0.1126
  C  C1284  1  0.862150  0.878960  0.234990  1.0  0.0785
  C  C1285  1  0.860940  0.871740  0.206900  1.0  -0.0566
  C  C1286  1  0.884820  0.896860  0.291640  1.0  -0.023
  C  C1287  1  0.531930  0.437270  0.031960  1.0  0.0744
  C  C1288  1  0.683570  0.215800  0.380510  1.0  0.1814
  C  C1289  1  0.662130  0.162980  0.375180  1.0  -0.1975
  C  C1290  1  0.637640  0.126290  0.394460  1.0  0.0297
  C  C1291  1  0.634580  0.142420  0.419060  1.0  0.2235
  C  C1292  1  0.656030  0.195240  0.424390  1.0  -0.1957
  C  C1293  1  0.680520  0.231930  0.405110  1.0  0.0306
  C  C1294  1  0.699930  0.287800  0.411660  1.0  -0.2724
  C  C1295  1  0.754640  0.316280  0.423510  1.0  0.1841
  C  C1296  1  0.756560  0.309650  0.449980  1.0  -0.1163
  C  C1297  1  0.811640  0.332410  0.462170  1.0  0.2173
  C  C1298  1  0.848180  0.357220  0.447070  1.0  0.1958
  C  C1299  1  0.846970  0.365760  0.420080  1.0  -0.1318
  C  C1300  1  0.793840  0.339460  0.408820  1.0  0.1014
  C  C1301  1  0.796530  0.347990  0.380300  1.0  -0.3044
  C  C1302  1  0.806210  0.308360  0.366820  1.0  0.093
  C  C1303  1  0.855490  0.316920  0.363860  1.0  -0.1514
  C  C1304  1  0.865620  0.281890  0.353700  1.0  0.203
  C  C1305  1  0.829040  0.236250  0.346090  1.0  0.2466
  C  C1306  1  0.775210  0.223160  0.348560  1.0  -0.1472
  C  C1307  1  0.766490  0.263000  0.357950  1.0  0.1045
  C  C1308  1  0.710150  0.245880  0.359770  1.0  -0.2101
  C  C1309  1  0.609350  0.120630  0.465180  1.0  -0.0539
  C  C1310  1  0.559930  0.032240  0.394840  1.0  0.5247
  C  C1311  1  0.553250  0.985520  0.388510  1.0  0.0253
  C  C1312  1  0.593600  0.974320  0.388550  1.0  -0.1681
  C  C1313  1  0.582640  0.923120  0.385730  1.0  0.147
  C  C1314  1  0.490990  0.894320  0.382820  1.0  0.1383
  C  C1315  1  0.501950  0.945520  0.385640  1.0  -0.1166
  C  C1316  1  0.801120  0.143620  0.333380  1.0  -0.0532
  C  C1317  1  0.939900  0.311300  0.343100  1.0  0.179
  C  C1318  1  0.005070  0.326600  0.339150  1.0  -0.1675
  C  C1319  1  0.043380  0.363200  0.323160  1.0  -0.044
  C  C1320  1  0.092740  0.368420  0.322680  1.0  0.1242
  C  C1321  1  0.065360  0.300290  0.354170  1.0  0.1271
  C  C1322  1  0.016030  0.295110  0.354650  1.0  -0.0941
  C  C1323  1  0.939290  0.410420  0.447720  1.0  -0.0178
  C  C1324  1  0.826150  0.291700  0.495050  1.0  0.4799
  C  C1325  1  0.815140  0.294350  0.525280  1.0  -0.1718
  C  C1326  1  0.822050  0.252440  0.539600  1.0  -0.1581
  C  C1327  1  0.816280  0.255840  0.564850  1.0  0.1091
  C  C1328  1  0.787710  0.316530  0.568320  1.0  0.0778
  C  C1329  1  0.794930  0.322540  0.540230  1.0  -0.0571
  C  C1330  1  0.769810  0.321300  0.624970  1.0  -0.023
  C  C1331  1  0.229400  0.428000  0.365290  1.0  0.0714
  C  C1332  1  0.350240  0.549130  0.713840  1.0  0.1814
  C  C1333  1  0.328800  0.496310  0.708510  1.0  -0.1976
  C  C1334  1  0.304310  0.459620  0.727790  1.0  0.0297
  C  C1335  1  0.301250  0.475750  0.752390  1.0  0.2235
  C  C1336  1  0.322700  0.528570  0.757720  1.0  -0.1957
  C  C1337  1  0.347190  0.565260  0.738440  1.0  0.0306
  C  C1338  1  0.366600  0.621130  0.744990  1.0  -0.2724
  C  C1339  1  0.421310  0.649610  0.756840  1.0  0.1841
  C  C1340  1  0.423230  0.642980  0.783310  1.0  -0.1163
  C  C1341  1  0.478310  0.665740  0.795500  1.0  0.2173
  C  C1342  1  0.514850  0.690550  0.780400  1.0  0.1958
  C  C1343  1  0.513640  0.699090  0.753410  1.0  -0.1318
  C  C1344  1  0.460510  0.672790  0.742150  1.0  0.1014
  C  C1345  1  0.463200  0.681320  0.713630  1.0  -0.3044
  C  C1346  1  0.472880  0.641690  0.700150  1.0  0.093
  C  C1347  1  0.522160  0.650250  0.697190  1.0  -0.1514
  C  C1348  1  0.532290  0.615220  0.687030  1.0  0.203
  C  C1349  1  0.495710  0.569580  0.679420  1.0  0.2465
  C  C1350  1  0.441880  0.556490  0.681890  1.0  -0.1472
  C  C1351  1  0.433160  0.596330  0.691280  1.0  0.1045
  C  C1352  1  0.376820  0.579210  0.693100  1.0  -0.2101
  C  C1353  1  0.276020  0.453960  0.798510  1.0  -0.0539
  C  C1354  1  0.226600  0.365570  0.728170  1.0  0.5248
  C  C1355  1  0.219920  0.318850  0.721840  1.0  0.0253
  C  C1356  1  0.260270  0.307650  0.721880  1.0  -0.1681
  C  C1357  1  0.249310  0.256450  0.719060  1.0  0.147
  C  C1358  1  0.157660  0.227650  0.716150  1.0  0.1383
  C  C1359  1  0.168620  0.278850  0.718970  1.0  -0.1165
  C  C1360  1  0.467790  0.476950  0.666667  1.0  -0.0562
  C  C1361  1  0.606570  0.644630  0.676430  1.0  0.179
  C  C1362  1  0.671740  0.659930  0.672480  1.0  -0.1675
  C  C1363  1  0.710050  0.696530  0.656490  1.0  -0.044
  C  C1364  1  0.759410  0.701750  0.656010  1.0  0.1242
  C  C1365  1  0.732030  0.633620  0.687500  1.0  0.1271
  C  C1366  1  0.682700  0.628440  0.687980  1.0  -0.0941
  C  C1367  1  0.605960  0.743750  0.781050  1.0  -0.0178
  C  C1368  1  0.492820  0.625030  0.828380  1.0  0.4799
  C  C1369  1  0.481810  0.627680  0.858610  1.0  -0.1718
  C  C1370  1  0.488720  0.585770  0.872930  1.0  -0.1581
  C  C1371  1  0.482950  0.589170  0.898180  1.0  0.1091
  C  C1372  1  0.454380  0.649860  0.901650  1.0  0.0778
  C  C1373  1  0.461600  0.655870  0.873560  1.0  -0.0571
  C  C1374  1  0.436480  0.654630  0.958300  1.0  -0.0228
  C  C1375  1  0.896070  0.761330  0.698620  1.0  0.0714
  C  C1376  1  0.016900  0.882470  0.047180  1.0  0.1814
  C  C1377  1  0.995460  0.829650  0.041850  1.0  -0.1975
  C  C1378  1  0.970970  0.792960  0.061130  1.0  0.0297
  C  C1379  1  0.967910  0.809090  0.085730  1.0  0.2235
  C  C1380  1  0.989360  0.861910  0.091060  1.0  -0.1957
  C  C1381  1  0.013850  0.898600  0.071780  1.0  0.0306
  C  C1382  1  0.033260  0.954470  0.078330  1.0  -0.2724
  C  C1383  1  0.087970  0.982950  0.090180  1.0  0.1841
  C  C1384  1  0.089890  0.976320  0.116650  1.0  -0.1163
  C  C1385  1  0.144970  0.999080  0.128840  1.0  0.2173
  C  C1386  1  0.181510  0.023890  0.113740  1.0  0.1958
  C  C1387  1  0.180300  0.032430  0.086750  1.0  -0.1318
  C  C1388  1  0.127170  0.006130  0.075490  1.0  0.1014
  C  C1389  1  0.129860  0.014660  0.046970  1.0  -0.3044
  C  C1390  1  0.139540  0.975030  0.033490  1.0  0.093
  C  C1391  1  0.188820  0.983590  0.030530  1.0  -0.1514
  C  C1392  1  0.198950  0.948560  0.020370  1.0  0.203
  C  C1393  1  0.162370  0.902920  0.012760  1.0  0.2471
  C  C1394  1  0.108540  0.889830  0.015230  1.0  -0.1472
  C  C1395  1  0.099820  0.929670  0.024620  1.0  0.1045
  C  C1396  1  0.043480  0.912550  0.026440  1.0  -0.2101
  C  C1397  1  0.942680  0.787300  0.131850  1.0  -0.0539
  C  C1398  1  0.893260  0.698910  0.061510  1.0  0.525
  C  C1399  1  0.886580  0.652190  0.055180  1.0  0.0252
  C  C1400  1  0.926930  0.640990  0.055220  1.0  -0.1681
  C  C1401  1  0.915970  0.589790  0.052400  1.0  0.1467
  C  C1402  1  0.824320  0.560990  0.049490  1.0  0.1383
  C  C1403  1  0.835280  0.612190  0.052310  1.0  -0.1168
  C  C1404  1  0.134450  0.810290  0.000050  1.0  -0.0532
  C  C1405  1  0.273230  0.977970  0.009770  1.0  0.1789
  C  C1406  1  0.338400  0.993270  0.005820  1.0  -0.1675
  C  C1407  1  0.376710  0.029870  0.989830  1.0  -0.044
  C  C1408  1  0.426070  0.035090  0.989350  1.0  0.1242
  C  C1409  1  0.398690  0.966960  0.020840  1.0  0.1271
  C  C1410  1  0.349360  0.961780  0.021320  1.0  -0.0941
  C  C1411  1  0.272620  0.077090  0.114390  1.0  -0.0178
  C  C1412  1  0.159480  0.958370  0.161720  1.0  0.4799
  C  C1413  1  0.148470  0.961020  0.191950  1.0  -0.1718
  C  C1414  1  0.155380  0.919110  0.206270  1.0  -0.1581
  C  C1415  1  0.149610  0.922510  0.231520  1.0  0.1091
  C  C1416  1  0.121040  0.983200  0.234990  1.0  0.0778
  C  C1417  1  0.128260  0.989210  0.206900  1.0  -0.0571
  C  C1418  1  0.103140  0.987970  0.291640  1.0  -0.023
  C  C1419  1  0.562730  0.094670  0.031960  1.0  0.0714
  N  N1420  1  0.282100  0.480700  0.421610  1.0  -0.3023
  N  N1421  1  0.326300  0.596600  0.374330  1.0  -0.3506
  N  N1422  1  0.394800  0.192500  0.646720  1.0  -0.3822
  N  N1423  1  0.883130  0.351780  0.617140  1.0  -0.3444
  N  N1424  1  0.336940  0.233230  0.661820  1.0  -0.2559
  N  N1425  1  0.948770  0.814030  0.754940  1.0  -0.3023
  N  N1426  1  0.992970  0.929930  0.707660  1.0  -0.3506
  N  N1427  1  0.061470  0.525830  0.980050  1.0  -0.3821
  N  N1428  1  0.549800  0.685110  0.950470  1.0  -0.3444
  N  N1429  1  0.003610  0.566560  0.995150  1.0  -0.2558
  N  N1430  1  0.615430  0.147370  0.088280  1.0  -0.3023
  N  N1431  1  0.659630  0.263270  0.041000  1.0  -0.3505
  N  N1432  1  0.728130  0.859170  0.313390  1.0  -0.3813
  N  N1433  1  0.216460  0.018450  0.283810  1.0  -0.3444
  N  N1434  1  0.670270  0.899900  0.328490  1.0  -0.2559
  N  N1435  1  0.519300  0.801400  0.421610  1.0  -0.3049
  N  N1436  1  0.403400  0.729700  0.374330  1.0  -0.3508
  N  N1437  1  0.807500  0.202300  0.646720  1.0  -0.3816
  N  N1438  1  0.648220  0.531350  0.617140  1.0  -0.3454
  N  N1439  1  0.766770  0.103710  0.661820  1.0  -0.2558
  N  N1440  1  0.185970  0.134730  0.754940  1.0  -0.3049
  N  N1441  1  0.070070  0.063030  0.707660  1.0  -0.3508
  N  N1442  1  0.474170  0.535630  0.980050  1.0  -0.3816
  N  N1443  1  0.314890  0.864680  0.950470  1.0  -0.3453
  N  N1444  1  0.433440  0.437040  0.995150  1.0  -0.2558
  N  N1445  1  0.852630  0.468070  0.088280  1.0  -0.3049
  N  N1446  1  0.736730  0.396370  0.041000  1.0  -0.3508
  N  N1447  1  0.140830  0.868970  0.313390  1.0  -0.3808
  N  N1448  1  0.981550  0.198020  0.283810  1.0  -0.3454
  N  N1449  1  0.100100  0.770380  0.328490  1.0  -0.2558
  N  N1450  1  0.198600  0.717900  0.421610  1.0  -0.3043
  N  N1451  1  0.270300  0.673700  0.374330  1.0  -0.3505
  N  N1452  1  0.797700  0.605200  0.646720  1.0  -0.3812
  N  N1453  1  0.468650  0.116870  0.617140  1.0  -0.3467
  N  N1454  1  0.896290  0.663060  0.661820  1.0  -0.2576
  N  N1455  1  0.865270  0.051230  0.754940  1.0  -0.3043
  N  N1456  1  0.936970  0.007030  0.707660  1.0  -0.3505
  N  N1457  1  0.464370  0.938530  0.980050  1.0  -0.3809
  N  N1458  1  0.135320  0.450200  0.950470  1.0  -0.3467
  N  N1459  1  0.562960  0.996390  0.995150  1.0  -0.2575
  N  N1460  1  0.531930  0.384570  0.088280  1.0  -0.3043
  N  N1461  1  0.603630  0.340370  0.041000  1.0  -0.3505
  N  N1462  1  0.131030  0.271870  0.313390  1.0  -0.3818
  N  N1463  1  0.801980  0.783540  0.283810  1.0  -0.3467
  N  N1464  1  0.229620  0.329730  0.328490  1.0  -0.2576
  N  N1465  1  0.717900  0.519300  0.578390  1.0  -0.3061
  N  N1466  1  0.673700  0.403400  0.625670  1.0  -0.354
  N  N1467  1  0.605200  0.807500  0.353280  1.0  -0.3812
  N  N1468  1  0.116870  0.648220  0.382860  1.0  -0.3457
  N  N1469  1  0.663060  0.766770  0.338180  1.0  -0.2546
  N  N1470  1  0.384570  0.852630  0.911720  1.0  -0.3061
  N  N1471  1  0.340370  0.736730  0.959000  1.0  -0.3539
  N  N1472  1  0.271870  0.140830  0.686610  1.0  -0.3803
  N  N1473  1  0.783540  0.981550  0.716190  1.0  -0.3457
  N  N1474  1  0.329730  0.100100  0.671510  1.0  -0.2546
  N  N1475  1  0.051230  0.185970  0.245060  1.0  -0.3061
  N  N1476  1  0.007030  0.070070  0.292340  1.0  -0.354
  N  N1477  1  0.938530  0.474170  0.019950  1.0  -0.3812
  N  N1478  1  0.450200  0.314890  0.049530  1.0  -0.3457
  N  N1479  1  0.996390  0.433440  0.004850  1.0  -0.2546
  N  N1480  1  0.480700  0.198600  0.578390  1.0  -0.3048
  N  N1481  1  0.596600  0.270300  0.625670  1.0  -0.3562
  N  N1482  1  0.192500  0.797700  0.353280  1.0  -0.3829
  N  N1483  1  0.351780  0.468650  0.382860  1.0  -0.3458
  N  N1484  1  0.233230  0.896290  0.338180  1.0  -0.2555
  N  N1485  1  0.147370  0.531930  0.911720  1.0  -0.3048
  N  N1486  1  0.263270  0.603630  0.959000  1.0  -0.3562
  N  N1487  1  0.859170  0.131030  0.686610  1.0  -0.382
  N  N1488  1  0.018450  0.801980  0.716190  1.0  -0.3458
  N  N1489  1  0.899900  0.229620  0.671510  1.0  -0.2555
  N  N1490  1  0.814030  0.865270  0.245060  1.0  -0.3048
  N  N1491  1  0.929930  0.936970  0.292340  1.0  -0.3562
  N  N1492  1  0.525830  0.464370  0.019950  1.0  -0.3829
  N  N1493  1  0.685110  0.135320  0.049530  1.0  -0.3457
  N  N1494  1  0.566560  0.562960  0.004850  1.0  -0.2555
  N  N1495  1  0.801400  0.282100  0.578390  1.0  -0.3047
  N  N1496  1  0.729700  0.326300  0.625670  1.0  -0.3509
  N  N1497  1  0.202300  0.394800  0.353280  1.0  -0.3816
  N  N1498  1  0.531350  0.883130  0.382860  1.0  -0.3462
  N  N1499  1  0.103710  0.336940  0.338180  1.0  -0.2564
  N  N1500  1  0.468070  0.615430  0.911720  1.0  -0.3047
  N  N1501  1  0.396370  0.659630  0.959000  1.0  -0.3509
  N  N1502  1  0.868970  0.728130  0.686610  1.0  -0.3822
  N  N1503  1  0.198020  0.216460  0.716190  1.0  -0.3462
  N  N1504  1  0.770380  0.670270  0.671510  1.0  -0.2564
  N  N1505  1  0.134730  0.948770  0.245060  1.0  -0.3047
  N  N1506  1  0.063030  0.992970  0.292340  1.0  -0.3509
  N  N1507  1  0.535630  0.061470  0.019950  1.0  -0.3813
  N  N1508  1  0.864680  0.549800  0.049530  1.0  -0.3462
  N  N1509  1  0.437040  0.003610  0.004850  1.0  -0.2564
  O  O1510  1  0.106800  0.496500  0.560680  1.0  -0.298
  O  O1511  1  0.067090  0.453340  0.605420  1.0  -0.4205
  O  O1512  1  0.052460  0.517180  0.608930  1.0  -0.5084
  O  O1513  1  0.380800  0.483800  0.539330  1.0  -0.3661
  O  O1514  1  0.328900  0.518500  0.511690  1.0  -0.49
  O  O1515  1  0.259200  0.434800  0.515390  1.0  -0.4265
  O  O1516  1  0.199100  0.357170  0.662820  1.0  -0.3197
  O  O1517  1  0.287900  0.367600  0.643600  1.0  -0.5604
  O  O1518  1  0.342600  0.403100  0.675100  1.0  -0.5546
  O  O1519  1  0.773470  0.829830  0.894010  1.0  -0.298
  O  O1520  1  0.733760  0.786670  0.938750  1.0  -0.4201
  O  O1521  1  0.719130  0.850510  0.942260  1.0  -0.5084
  O  O1522  1  0.047470  0.817130  0.872660  1.0  -0.3661
  O  O1523  1  0.995570  0.851830  0.845020  1.0  -0.49
  O  O1524  1  0.925870  0.768130  0.848720  1.0  -0.4265
  O  O1525  1  0.865770  0.690500  0.996150  1.0  -0.3193
  O  O1526  1  0.954570  0.700930  0.976930  1.0  -0.5604
  O  O1527  1  0.009270  0.736430  0.008430  1.0  -0.5548
  O  O1528  1  0.440130  0.163170  0.227350  1.0  -0.298
  O  O1529  1  0.400420  0.120010  0.272090  1.0  -0.4204
  O  O1530  1  0.385790  0.183850  0.275600  1.0  -0.5084
  O  O1531  1  0.714130  0.150470  0.206000  1.0  -0.3661
  O  O1532  1  0.662230  0.185170  0.178360  1.0  -0.49
  O  O1533  1  0.592530  0.101470  0.182060  1.0  -0.4265
  O  O1534  1  0.532430  0.023840  0.329490  1.0  -0.3193
  O  O1535  1  0.621230  0.034270  0.310270  1.0  -0.5604
  O  O1536  1  0.675930  0.069770  0.341770  1.0  -0.5546
  O  O1537  1  0.503500  0.610300  0.560680  1.0  -0.2948
  O  O1538  1  0.546660  0.613750  0.605420  1.0  -0.4216
  O  O1539  1  0.482820  0.535280  0.608930  1.0  -0.5106
  O  O1540  1  0.516200  0.897000  0.539330  1.0  -0.3651
  O  O1541  1  0.481500  0.810400  0.511690  1.0  -0.493
  O  O1542  1  0.565200  0.824400  0.515390  1.0  -0.4284
  O  O1543  1  0.642830  0.841930  0.662820  1.0  -0.3178
  O  O1544  1  0.632400  0.920300  0.643600  1.0  -0.5602
  O  O1545  1  0.596900  0.939500  0.675100  1.0  -0.5546
  O  O1546  1  0.170170  0.943630  0.894010  1.0  -0.2948
  O  O1547  1  0.213330  0.947080  0.938750  1.0  -0.4216
  O  O1548  1  0.149490  0.868610  0.942260  1.0  -0.5105
  O  O1549  1  0.182870  0.230330  0.872660  1.0  -0.3651
  O  O1550  1  0.148170  0.143730  0.845020  1.0  -0.493
  O  O1551  1  0.231870  0.157730  0.848720  1.0  -0.4284
  O  O1552  1  0.309500  0.175260  0.996150  1.0  -0.317
  O  O1553  1  0.299070  0.253630  0.976930  1.0  -0.5602
  O  O1554  1  0.263570  0.272830  0.008430  1.0  -0.5549
  O  O1555  1  0.836830  0.276970  0.227350  1.0  -0.2948
  O  O1556  1  0.879990  0.280420  0.272090  1.0  -0.4216
  O  O1557  1  0.816150  0.201950  0.275600  1.0  -0.5106
  O  O1558  1  0.849530  0.563670  0.206000  1.0  -0.3651
  O  O1559  1  0.814830  0.477070  0.178360  1.0  -0.493
  O  O1560  1  0.898530  0.491070  0.182060  1.0  -0.4284
  O  O1561  1  0.976160  0.508600  0.329490  1.0  -0.3172
  O  O1562  1  0.965730  0.586970  0.310270  1.0  -0.5602
  O  O1563  1  0.930230  0.606170  0.341770  1.0  -0.5546
  O  O1564  1  0.389700  0.893200  0.560680  1.0  -0.2949
  O  O1565  1  0.386250  0.932910  0.605420  1.0  -0.4207
  O  O1566  1  0.464720  0.947540  0.608930  1.0  -0.5109
  O  O1567  1  0.103000  0.619200  0.539330  1.0  -0.364
  O  O1568  1  0.189600  0.671100  0.511690  1.0  -0.4907
  O  O1569  1  0.175600  0.740800  0.515390  1.0  -0.4267
  O  O1570  1  0.158070  0.800900  0.662820  1.0  -0.3191
  O  O1571  1  0.079700  0.712100  0.643600  1.0  -0.5608
  O  O1572  1  0.060500  0.657400  0.675100  1.0  -0.556
  O  O1573  1  0.056370  0.226530  0.894010  1.0  -0.2949
  O  O1574  1  0.052920  0.266240  0.938750  1.0  -0.4202
  O  O1575  1  0.131390  0.280870  0.942260  1.0  -0.5109
  O  O1576  1  0.769670  0.952530  0.872660  1.0  -0.364
  O  O1577  1  0.856270  0.004430  0.845020  1.0  -0.4907
  O  O1578  1  0.842270  0.074130  0.848720  1.0  -0.4267
  O  O1579  1  0.824740  0.134230  0.996150  1.0  -0.3183
  O  O1580  1  0.746370  0.045430  0.976930  1.0  -0.5608
  O  O1581  1  0.727170  0.990730  0.008430  1.0  -0.5561
  O  O1582  1  0.723030  0.559870  0.227350  1.0  -0.2949
  O  O1583  1  0.719580  0.599580  0.272090  1.0  -0.4207
  O  O1584  1  0.798050  0.614210  0.275600  1.0  -0.5109
  O  O1585  1  0.436330  0.285870  0.206000  1.0  -0.364
  O  O1586  1  0.522930  0.337770  0.178360  1.0  -0.4907
  O  O1587  1  0.508930  0.407470  0.182060  1.0  -0.4267
  O  O1588  1  0.491400  0.467570  0.329490  1.0  -0.3184
  O  O1589  1  0.413030  0.378770  0.310270  1.0  -0.5608
  O  O1590  1  0.393830  0.324070  0.341770  1.0  -0.556
  O  O1591  1  0.893200  0.503500  0.439320  1.0  -0.2928
  O  O1592  1  0.932910  0.546660  0.394580  1.0  -0.4182
  O  O1593  1  0.947540  0.482820  0.391070  1.0  -0.5075
  O  O1594  1  0.619200  0.516200  0.460670  1.0  -0.36
  O  O1595  1  0.671100  0.481500  0.488310  1.0  -0.4919
  O  O1596  1  0.740800  0.565200  0.484610  1.0  -0.4246
  O  O1597  1  0.800900  0.642830  0.337180  1.0  -0.3195
  O  O1598  1  0.712100  0.632400  0.356400  1.0  -0.5616
  O  O1599  1  0.657400  0.596900  0.324900  1.0  -0.5535
  O  O1600  1  0.559870  0.836830  0.772650  1.0  -0.2928
  O  O1601  1  0.599580  0.879990  0.727910  1.0  -0.4182
  O  O1602  1  0.614210  0.816150  0.724400  1.0  -0.5075
  O  O1603  1  0.285870  0.849530  0.794000  1.0  -0.36
  O  O1604  1  0.337770  0.814830  0.821640  1.0  -0.4919
  O  O1605  1  0.407470  0.898530  0.817940  1.0  -0.4246
  O  O1606  1  0.467570  0.976160  0.670510  1.0  -0.3201
  O  O1607  1  0.378770  0.965730  0.689730  1.0  -0.5616
  O  O1608  1  0.324070  0.930230  0.658230  1.0  -0.5535
  O  O1609  1  0.226530  0.170170  0.105990  1.0  -0.2928
  O  O1610  1  0.266240  0.213330  0.061250  1.0  -0.418
  O  O1611  1  0.280870  0.149490  0.057740  1.0  -0.5075
  O  O1612  1  0.952530  0.182870  0.127340  1.0  -0.36
  O  O1613  1  0.004430  0.148170  0.154980  1.0  -0.4919
  O  O1614  1  0.074130  0.231870  0.151280  1.0  -0.4246
  O  O1615  1  0.134230  0.309500  0.003850  1.0  -0.3195
  O  O1616  1  0.045430  0.299070  0.023070  1.0  -0.5616
  O  O1617  1  0.990730  0.263570  0.991570  1.0  -0.5538
  O  O1618  1  0.496500  0.389700  0.439320  1.0  -0.2941
  O  O1619  1  0.453340  0.386250  0.394580  1.0  -0.4205
  O  O1620  1  0.517180  0.464720  0.391070  1.0  -0.5103
  O  O1621  1  0.483800  0.103000  0.460670  1.0  -0.3611
  O  O1622  1  0.518500  0.189600  0.488310  1.0  -0.4898
  O  O1623  1  0.434800  0.175600  0.484610  1.0  -0.4311
  O  O1624  1  0.357170  0.158070  0.337180  1.0  -0.3187
  O  O1625  1  0.367600  0.079700  0.356400  1.0  -0.5602
  O  O1626  1  0.403100  0.060500  0.324900  1.0  -0.5558
  O  O1627  1  0.163170  0.723030  0.772650  1.0  -0.2941
  O  O1628  1  0.120010  0.719580  0.727910  1.0  -0.4205
  O  O1629  1  0.183850  0.798050  0.724400  1.0  -0.5103
  O  O1630  1  0.150470  0.436330  0.794000  1.0  -0.3611
  O  O1631  1  0.185170  0.522930  0.821640  1.0  -0.4898
  O  O1632  1  0.101470  0.508930  0.817940  1.0  -0.4311
  O  O1633  1  0.023840  0.491400  0.670510  1.0  -0.3193
  O  O1634  1  0.034270  0.413030  0.689730  1.0  -0.5602
  O  O1635  1  0.069770  0.393830  0.658230  1.0  -0.5558
  O  O1636  1  0.829830  0.056370  0.105990  1.0  -0.2941
  O  O1637  1  0.786670  0.052920  0.061250  1.0  -0.4203
  O  O1638  1  0.850510  0.131390  0.057740  1.0  -0.5102
  O  O1639  1  0.817130  0.769670  0.127340  1.0  -0.3611
  O  O1640  1  0.851830  0.856270  0.154980  1.0  -0.4898
  O  O1641  1  0.768130  0.842270  0.151280  1.0  -0.4311
  O  O1642  1  0.690500  0.824740  0.003850  1.0  -0.3185
  O  O1643  1  0.700930  0.746370  0.023070  1.0  -0.5602
  O  O1644  1  0.736430  0.727170  0.991570  1.0  -0.5561
  O  O1645  1  0.610300  0.106800  0.439320  1.0  -0.2939
  O  O1646  1  0.613750  0.067090  0.394580  1.0  -0.4208
  O  O1647  1  0.535280  0.052460  0.391070  1.0  -0.5096
  O  O1648  1  0.897000  0.380800  0.460670  1.0  -0.3606
  O  O1649  1  0.810400  0.328900  0.488310  1.0  -0.4903
  O  O1650  1  0.824400  0.259200  0.484610  1.0  -0.4257
  O  O1651  1  0.841930  0.199100  0.337180  1.0  -0.3191
  O  O1652  1  0.920300  0.287900  0.356400  1.0  -0.5633
  O  O1653  1  0.939500  0.342600  0.324900  1.0  -0.5547
  O  O1654  1  0.276970  0.440130  0.772650  1.0  -0.2939
  O  O1655  1  0.280420  0.400420  0.727910  1.0  -0.4208
  O  O1656  1  0.201950  0.385790  0.724400  1.0  -0.5096
  O  O1657  1  0.563670  0.714130  0.794000  1.0  -0.3606
  O  O1658  1  0.477070  0.662230  0.821640  1.0  -0.4903
  O  O1659  1  0.491070  0.592530  0.817940  1.0  -0.4257
  O  O1660  1  0.508600  0.532430  0.670510  1.0  -0.3196
  O  O1661  1  0.586970  0.621230  0.689730  1.0  -0.5633
  O  O1662  1  0.606170  0.675930  0.658230  1.0  -0.5547
  O  O1663  1  0.943630  0.773470  0.105990  1.0  -0.2938
  O  O1664  1  0.947080  0.733760  0.061250  1.0  -0.4205
  O  O1665  1  0.868610  0.719130  0.057740  1.0  -0.5095
  O  O1666  1  0.230330  0.047470  0.127340  1.0  -0.3606
  O  O1667  1  0.143730  0.995570  0.154980  1.0  -0.4903
  O  O1668  1  0.157730  0.925870  0.151280  1.0  -0.4257
  O  O1669  1  0.175260  0.865770  0.003850  1.0  -0.3191
  O  O1670  1  0.253630  0.954570  0.023070  1.0  -0.5633
  O  O1671  1  0.272830  0.009270  0.991570  1.0  -0.5547
