# generated using pymatgen
data_CuH33C42(NO3)3
_symmetry_space_group_name_H-M   'P 1'
_cell_length_a   28.91230000
_cell_length_b   20.77060000
_cell_length_c   29.72840000
_cell_angle_alpha   90.00000000
_cell_angle_beta   101.22400000
_cell_angle_gamma   90.00000000
_symmetry_Int_Tables_number   1
_chemical_formula_structural   CuH33C42(NO3)3
_chemical_formula_sum   'Cu8 H264 C336 N24 O72'
_cell_volume   17511.21633714
_cell_formula_units_Z   8
loop_
 _symmetry_equiv_pos_site_id
 _symmetry_equiv_pos_as_xyz
  1  'x, y, z'
loop_
 _atom_site_type_symbol
 _atom_site_label
 _atom_site_symmetry_multiplicity
 _atom_site_fract_x
 _atom_site_fract_y
 _atom_site_fract_z
 _atom_site_occupancy
 _atom_site_charge
  Cu  Cu1  1  0.740120  0.503690  0.564740  1.0  0.5485
  Cu  Cu2  1  0.238600  0.549320  0.072840  1.0  0.3669
  Cu  Cu3  1  0.740120  0.996310  0.064740  1.0  0.5484
  Cu  Cu4  1  0.238600  0.950680  0.572840  1.0  0.3668
  Cu  Cu5  1  0.259880  0.003690  0.935260  1.0  0.5482
  Cu  Cu6  1  0.761400  0.049320  0.427160  1.0  0.3684
  Cu  Cu7  1  0.259880  0.496310  0.435260  1.0  0.5479
  Cu  Cu8  1  0.761400  0.450680  0.927160  1.0  0.3685
  H  H9  1  0.391600  0.927300  0.299900  1.0  0.086
  H  H10  1  0.475700  0.795300  0.217300  1.0  0.106
  H  H11  1  0.541900  0.870500  0.230900  1.0  0.0896
  H  H12  1  0.545000  0.926300  0.268600  1.0  0.0946
  H  H13  1  0.561900  0.763800  0.251500  1.0  0.0832
  H  H14  1  0.614700  0.821100  0.404400  1.0  0.098
  H  H15  1  0.604600  0.936200  0.381800  1.0  0.1215
  H  H16  1  0.571100  0.954700  0.334200  1.0  0.0952
  H  H17  1  0.570100  0.900900  0.446900  1.0  0.079
  H  H18  1  0.425400  0.984900  0.373100  1.0  0.0967
  H  H19  1  0.507300  0.985300  0.300800  1.0  0.0975
  H  H20  1  0.455700  0.008300  0.306100  1.0  0.0966
  H  H21  1  0.335600  0.867400  0.318100  1.0  0.0864
  H  H22  1  0.286900  0.844200  0.287000  1.0  0.0876
  H  H23  1  0.311600  0.909000  0.274500  1.0  0.0721
  H  H24  1  0.340700  0.592700  0.225900  1.0  0.1043
  H  H25  1  0.287700  0.535600  0.169600  1.0  0.082
  H  H26  1  0.290500  0.673300  0.080100  1.0  0.0702
  H  H27  1  0.339800  0.736200  0.134100  1.0  0.1111
  H  H28  1  0.568400  0.658400  0.239700  1.0  0.0801
  H  H29  1  0.613300  0.611700  0.249400  1.0  0.114
  H  H30  1  0.619800  0.686300  0.238700  1.0  0.092
  H  H31  1  0.601000  0.543600  0.441000  1.0  0.1103
  H  H32  1  0.647100  0.489800  0.501900  1.0  0.0804
  H  H33  1  0.748100  0.619700  0.510900  1.0  0.0768
  H  H34  1  0.703500  0.680500  0.452900  1.0  0.1049
  H  H35  1  0.555200  0.840400  0.509200  1.0  0.0811
  H  H36  1  0.546700  0.871000  0.556300  1.0  0.107
  H  H37  1  0.575100  0.910700  0.524300  1.0  0.0817
  H  H38  1  0.315700  0.848600  0.455200  1.0  0.1026
  H  H39  1  0.255500  0.869600  0.495300  1.0  0.0757
  H  H40  1  0.325400  0.016600  0.557400  1.0  0.0716
  H  H41  1  0.384800  0.003600  0.515900  1.0  0.0936
  H  H42  1  0.961800  0.258500  0.716100  1.0  0.1069
  H  H43  1  0.886400  0.104200  0.789500  1.0  0.0852
  H  H44  1  0.957900  0.038800  0.802700  1.0  0.0895
  H  H45  1  0.007500  0.071300  0.800000  1.0  0.0926
  H  H46  1  0.919300  0.062400  0.866400  1.0  0.1047
  H  H47  1  0.055800  0.161600  0.945400  1.0  0.0839
  H  H48  1  0.066700  0.107700  0.835500  1.0  0.0948
  H  H49  1  0.096600  0.127300  0.884600  1.0  0.1001
  H  H50  1  0.106800  0.237700  0.906700  1.0  0.0983
  H  H51  1  0.042300  0.305100  0.758600  1.0  0.0785
  H  H52  1  0.040700  0.139500  0.767400  1.0  0.0831
  H  H53  1  0.034200  0.198800  0.732500  1.0  0.1038
  H  H54  1  0.802700  0.113600  0.771300  1.0  0.0707
  H  H55  1  0.775300  0.177600  0.780900  1.0  0.0964
  H  H56  1  0.826300  0.162200  0.810900  1.0  0.0814
  H  H57  1  0.772900  0.274400  0.596000  1.0  0.1118
  H  H58  1  0.733100  0.365200  0.563100  1.0  0.0725
  H  H59  1  0.816600  0.479700  0.647800  1.0  0.0753
  H  H60  1  0.857500  0.392000  0.684700  1.0  0.1045
  H  H61  1  0.070900  0.407600  0.743700  1.0  0.0867
  H  H62  1  0.058300  0.471800  0.768500  1.0  0.0983
  H  H63  1  0.023900  0.410800  0.764500  1.0  0.0802
  H  H64  1  0.086500  0.495800  0.968700  1.0  0.1057
  H  H65  1  0.138500  0.552700  0.024900  1.0  0.0781
  H  H66  1  0.242500  0.434500  0.014600  1.0  0.0829
  H  H67  1  0.193800  0.373300  0.959000  1.0  0.1035
  H  H68  1  0.059200  0.141700  0.022300  1.0  0.0768
  H  H69  1  0.029300  0.179800  0.053700  1.0  0.101
  H  H70  1  0.040100  0.212600  0.008100  1.0  0.0842
  H  H71  1  0.902200  0.952400  0.037500  1.0  0.098
  H  H72  1  0.838000  0.938700  0.071600  1.0  0.0804
  H  H73  1  0.763400  0.060200  0.984600  1.0  0.0825
  H  H74  1  0.827000  0.078800  0.949900  1.0  0.107
  H  H75  1  0.391600  0.572700  0.799900  1.0  0.0854
  H  H76  1  0.475700  0.704700  0.717300  1.0  0.1061
  H  H77  1  0.541900  0.629500  0.730900  1.0  0.0896
  H  H78  1  0.545000  0.573700  0.768600  1.0  0.0928
  H  H79  1  0.561900  0.736200  0.751500  1.0  0.0837
  H  H80  1  0.614700  0.678900  0.904400  1.0  0.0978
  H  H81  1  0.604600  0.563800  0.881800  1.0  0.1213
  H  H82  1  0.571100  0.545300  0.834200  1.0  0.0954
  H  H83  1  0.570100  0.599100  0.946900  1.0  0.0782
  H  H84  1  0.425400  0.515100  0.873100  1.0  0.0969
  H  H85  1  0.507300  0.514700  0.800800  1.0  0.0968
  H  H86  1  0.455700  0.491700  0.806100  1.0  0.097
  H  H87  1  0.335600  0.632600  0.818100  1.0  0.086
  H  H88  1  0.286900  0.655800  0.787000  1.0  0.0884
  H  H89  1  0.311600  0.591000  0.774500  1.0  0.0708
  H  H90  1  0.340700  0.907300  0.725900  1.0  0.1045
  H  H91  1  0.287700  0.964400  0.669600  1.0  0.082
  H  H92  1  0.290500  0.826700  0.580100  1.0  0.0697
  H  H93  1  0.339800  0.763800  0.634100  1.0  0.1112
  H  H94  1  0.568400  0.841600  0.739700  1.0  0.0807
  H  H95  1  0.613300  0.888300  0.749400  1.0  0.1134
  H  H96  1  0.619800  0.813700  0.738700  1.0  0.0915
  H  H97  1  0.601000  0.956400  0.941000  1.0  0.1105
  H  H98  1  0.647100  0.010200  0.001900  1.0  0.0807
  H  H99  1  0.748100  0.880300  0.010900  1.0  0.0767
  H  H100  1  0.703500  0.819500  0.952900  1.0  0.1047
  H  H101  1  0.555200  0.659600  0.009200  1.0  0.0839
  H  H102  1  0.546700  0.629000  0.056300  1.0  0.1069
  H  H103  1  0.575100  0.589300  0.024300  1.0  0.08
  H  H104  1  0.315700  0.651400  0.955200  1.0  0.1024
  H  H105  1  0.255500  0.630400  0.995300  1.0  0.0759
  H  H106  1  0.325400  0.483400  0.057400  1.0  0.0721
  H  H107  1  0.384800  0.496400  0.015900  1.0  0.0937
  H  H108  1  0.961800  0.241500  0.216100  1.0  0.107
  H  H109  1  0.886400  0.395800  0.289500  1.0  0.0849
  H  H110  1  0.957900  0.461200  0.302700  1.0  0.0892
  H  H111  1  0.007500  0.428700  0.300000  1.0  0.0923
  H  H112  1  0.919300  0.437600  0.366400  1.0  0.1046
  H  H113  1  0.055800  0.338400  0.445400  1.0  0.0845
  H  H114  1  0.066700  0.392300  0.335500  1.0  0.0956
  H  H115  1  0.096600  0.372700  0.384600  1.0  0.1002
  H  H116  1  0.106800  0.262300  0.406700  1.0  0.0984
  H  H117  1  0.042300  0.194900  0.258600  1.0  0.0779
  H  H118  1  0.040700  0.360500  0.267400  1.0  0.0838
  H  H119  1  0.034200  0.301200  0.232500  1.0  0.1033
  H  H120  1  0.802700  0.386400  0.271300  1.0  0.0706
  H  H121  1  0.775300  0.322400  0.280900  1.0  0.0971
  H  H122  1  0.826300  0.337800  0.310900  1.0  0.0818
  H  H123  1  0.772900  0.225600  0.096000  1.0  0.1118
  H  H124  1  0.733100  0.134800  0.063100  1.0  0.0724
  H  H125  1  0.816600  0.020300  0.147800  1.0  0.0756
  H  H126  1  0.857500  0.108000  0.184700  1.0  0.1047
  H  H127  1  0.070900  0.092400  0.243700  1.0  0.0864
  H  H128  1  0.058300  0.028200  0.268500  1.0  0.097
  H  H129  1  0.023900  0.089200  0.264500  1.0  0.0802
  H  H130  1  0.086500  0.004200  0.468700  1.0  0.1064
  H  H131  1  0.138500  0.947300  0.524900  1.0  0.0777
  H  H132  1  0.242500  0.065500  0.514600  1.0  0.0823
  H  H133  1  0.193800  0.126700  0.459000  1.0  0.1042
  H  H134  1  0.059200  0.358300  0.522300  1.0  0.0771
  H  H135  1  0.029300  0.320200  0.553700  1.0  0.1013
  H  H136  1  0.040100  0.287400  0.508100  1.0  0.0822
  H  H137  1  0.902200  0.547600  0.537500  1.0  0.0977
  H  H138  1  0.838000  0.561300  0.571600  1.0  0.0803
  H  H139  1  0.763400  0.439800  0.484600  1.0  0.083
  H  H140  1  0.827000  0.421200  0.449900  1.0  0.1067
  H  H141  1  0.608400  0.427300  0.200100  1.0  0.0865
  H  H142  1  0.524300  0.295300  0.282700  1.0  0.1062
  H  H143  1  0.458100  0.370500  0.269100  1.0  0.0886
  H  H144  1  0.455000  0.426300  0.231400  1.0  0.0939
  H  H145  1  0.438100  0.263800  0.248500  1.0  0.0818
  H  H146  1  0.385300  0.321100  0.095600  1.0  0.0985
  H  H147  1  0.395400  0.436200  0.118200  1.0  0.1218
  H  H148  1  0.428900  0.454700  0.165800  1.0  0.0949
  H  H149  1  0.429900  0.400900  0.053100  1.0  0.0786
  H  H150  1  0.574600  0.484900  0.126900  1.0  0.0965
  H  H151  1  0.492700  0.485300  0.199200  1.0  0.0974
  H  H152  1  0.544300  0.508300  0.193900  1.0  0.0959
  H  H153  1  0.664400  0.367400  0.181900  1.0  0.0865
  H  H154  1  0.713100  0.344200  0.213000  1.0  0.0907
  H  H155  1  0.688400  0.409000  0.225500  1.0  0.0724
  H  H156  1  0.659300  0.092700  0.274100  1.0  0.1043
  H  H157  1  0.712300  0.035600  0.330400  1.0  0.0819
  H  H158  1  0.709500  0.173300  0.419900  1.0  0.0698
  H  H159  1  0.660200  0.236200  0.365900  1.0  0.111
  H  H160  1  0.431600  0.158400  0.260300  1.0  0.0885
  H  H161  1  0.386700  0.111700  0.250600  1.0  0.1133
  H  H162  1  0.380200  0.186300  0.261300  1.0  0.0904
  H  H163  1  0.399000  0.043600  0.059000  1.0  0.11
  H  H164  1  0.352900  0.989800  0.998100  1.0  0.0799
  H  H165  1  0.251900  0.119700  0.989100  1.0  0.0772
  H  H166  1  0.296500  0.180500  0.047100  1.0  0.105
  H  H167  1  0.444800  0.340400  0.990800  1.0  0.0807
  H  H168  1  0.453300  0.371000  0.943700  1.0  0.1066
  H  H169  1  0.424900  0.410700  0.975700  1.0  0.0804
  H  H170  1  0.684300  0.348600  0.044800  1.0  0.1029
  H  H171  1  0.744500  0.369600  0.004700  1.0  0.0756
  H  H172  1  0.674600  0.516600  0.942600  1.0  0.0721
  H  H173  1  0.615200  0.503600  0.984100  1.0  0.094
  H  H174  1  0.038200  0.758500  0.783900  1.0  0.1065
  H  H175  1  0.113600  0.604200  0.710500  1.0  0.0849
  H  H176  1  0.042100  0.538800  0.697300  1.0  0.0887
  H  H177  1  0.992500  0.571300  0.700000  1.0  0.0943
  H  H178  1  0.080700  0.562400  0.633600  1.0  0.1048
  H  H179  1  0.944200  0.661600  0.554600  1.0  0.0847
  H  H180  1  0.933300  0.607700  0.664500  1.0  0.0947
  H  H181  1  0.903400  0.627300  0.615400  1.0  0.1006
  H  H182  1  0.893200  0.737700  0.593300  1.0  0.0994
  H  H183  1  0.957700  0.805100  0.741400  1.0  0.0794
  H  H184  1  0.959300  0.639500  0.732600  1.0  0.0845
  H  H185  1  0.965800  0.698800  0.767500  1.0  0.1019
  H  H186  1  0.197300  0.613600  0.728700  1.0  0.0718
  H  H187  1  0.224700  0.677600  0.719100  1.0  0.0973
  H  H188  1  0.173700  0.662200  0.689100  1.0  0.0844
  H  H189  1  0.227100  0.774400  0.904000  1.0  0.1115
  H  H190  1  0.266900  0.865200  0.936900  1.0  0.0717
  H  H191  1  0.183400  0.979700  0.852200  1.0  0.0755
  H  H192  1  0.142500  0.892000  0.815300  1.0  0.1044
  H  H193  1  0.929100  0.907600  0.756300  1.0  0.0865
  H  H194  1  0.941700  0.971800  0.731500  1.0  0.0966
  H  H195  1  0.976100  0.910800  0.735500  1.0  0.0804
  H  H196  1  0.913500  0.995800  0.531300  1.0  0.1061
  H  H197  1  0.861500  0.052700  0.475100  1.0  0.0779
  H  H198  1  0.757500  0.934500  0.485400  1.0  0.0827
  H  H199  1  0.806200  0.873300  0.541000  1.0  0.1034
  H  H200  1  0.940800  0.641700  0.477700  1.0  0.0748
  H  H201  1  0.970700  0.679800  0.446300  1.0  0.1012
  H  H202  1  0.959900  0.712600  0.491900  1.0  0.0839
  H  H203  1  0.097800  0.452400  0.462500  1.0  0.0978
  H  H204  1  0.162000  0.438700  0.428400  1.0  0.0804
  H  H205  1  0.236600  0.560200  0.515400  1.0  0.0827
  H  H206  1  0.173000  0.578800  0.550100  1.0  0.1073
  H  H207  1  0.608400  0.072700  0.700100  1.0  0.086
  H  H208  1  0.524300  0.204700  0.782700  1.0  0.1061
  H  H209  1  0.458100  0.129500  0.769100  1.0  0.0889
  H  H210  1  0.455000  0.073700  0.731400  1.0  0.0941
  H  H211  1  0.438100  0.236200  0.748500  1.0  0.0815
  H  H212  1  0.385300  0.178900  0.595600  1.0  0.0987
  H  H213  1  0.395400  0.063800  0.618200  1.0  0.1216
  H  H214  1  0.428900  0.045300  0.665800  1.0  0.0959
  H  H215  1  0.429900  0.099100  0.553100  1.0  0.0785
  H  H216  1  0.574600  0.015100  0.626900  1.0  0.0963
  H  H217  1  0.492700  0.014700  0.699200  1.0  0.0986
  H  H218  1  0.544300  0.991700  0.693900  1.0  0.0976
  H  H219  1  0.664400  0.132600  0.681900  1.0  0.0859
  H  H220  1  0.713100  0.155800  0.713000  1.0  0.0914
  H  H221  1  0.688400  0.091000  0.725500  1.0  0.0733
  H  H222  1  0.659300  0.407300  0.774100  1.0  0.1044
  H  H223  1  0.712300  0.464400  0.830400  1.0  0.0818
  H  H224  1  0.709500  0.326700  0.919900  1.0  0.0694
  H  H225  1  0.660200  0.263800  0.865900  1.0  0.1111
  H  H226  1  0.431600  0.341600  0.760300  1.0  0.0882
  H  H227  1  0.386700  0.388300  0.750600  1.0  0.1122
  H  H228  1  0.380200  0.313700  0.761300  1.0  0.0903
  H  H229  1  0.399000  0.456400  0.559000  1.0  0.1103
  H  H230  1  0.352900  0.510200  0.498100  1.0  0.0803
  H  H231  1  0.251900  0.380300  0.489100  1.0  0.077
  H  H232  1  0.296500  0.319500  0.547100  1.0  0.1045
  H  H233  1  0.444800  0.159600  0.490800  1.0  0.0822
  H  H234  1  0.453300  0.129000  0.443700  1.0  0.1062
  H  H235  1  0.424900  0.089300  0.475700  1.0  0.0797
  H  H236  1  0.684300  0.151400  0.544800  1.0  0.1023
  H  H237  1  0.744500  0.130400  0.504700  1.0  0.0756
  H  H238  1  0.674600  0.983400  0.442600  1.0  0.0718
  H  H239  1  0.615200  0.996400  0.484100  1.0  0.0939
  H  H240  1  0.038200  0.741500  0.283900  1.0  0.1067
  H  H241  1  0.113600  0.895800  0.210500  1.0  0.0852
  H  H242  1  0.042100  0.961200  0.197300  1.0  0.0879
  H  H243  1  0.992500  0.928700  0.200000  1.0  0.0928
  H  H244  1  0.080700  0.937600  0.133600  1.0  0.1052
  H  H245  1  0.944200  0.838400  0.054600  1.0  0.0842
  H  H246  1  0.933300  0.892300  0.164500  1.0  0.0938
  H  H247  1  0.903400  0.872700  0.115400  1.0  0.1007
  H  H248  1  0.893200  0.762300  0.093300  1.0  0.0994
  H  H249  1  0.957700  0.694900  0.241400  1.0  0.0794
  H  H250  1  0.959300  0.860500  0.232600  1.0  0.0848
  H  H251  1  0.965800  0.801200  0.267500  1.0  0.1023
  H  H252  1  0.197300  0.886400  0.228700  1.0  0.0709
  H  H253  1  0.224700  0.822400  0.219100  1.0  0.097
  H  H254  1  0.173700  0.837800  0.189100  1.0  0.084
  H  H255  1  0.227100  0.725600  0.404000  1.0  0.1117
  H  H256  1  0.266900  0.634800  0.436900  1.0  0.0712
  H  H257  1  0.183400  0.520300  0.352200  1.0  0.0759
  H  H258  1  0.142500  0.608000  0.315300  1.0  0.1042
  H  H259  1  0.929100  0.592400  0.256300  1.0  0.0862
  H  H260  1  0.941700  0.528200  0.231500  1.0  0.0954
  H  H261  1  0.976100  0.589200  0.235500  1.0  0.0807
  H  H262  1  0.913500  0.504200  0.031300  1.0  0.1058
  H  H263  1  0.861500  0.447300  0.975100  1.0  0.0776
  H  H264  1  0.757500  0.565500  0.985400  1.0  0.0823
  H  H265  1  0.806200  0.626700  0.041000  1.0  0.1041
  H  H266  1  0.940800  0.858300  0.977700  1.0  0.0747
  H  H267  1  0.970700  0.820200  0.946300  1.0  0.1015
  H  H268  1  0.959900  0.787400  0.991900  1.0  0.0823
  H  H269  1  0.097800  0.047600  0.962500  1.0  0.0976
  H  H270  1  0.162000  0.061300  0.928400  1.0  0.0802
  H  H271  1  0.236600  0.939800  0.015400  1.0  0.0825
  H  H272  1  0.173000  0.921200  0.050100  1.0  0.1071
  C  C273  1  0.457000  0.914300  0.284000  1.0  0.0472
  C  C274  1  0.409100  0.900200  0.283600  1.0  -0.2129
  C  C275  1  0.387400  0.847400  0.260000  1.0  0.2768
  C  C276  1  0.412700  0.810600  0.235200  1.0  0.2462
  C  C277  1  0.459100  0.822100  0.234700  1.0  -0.1734
  C  C278  1  0.482400  0.874700  0.260300  1.0  0.0282
  C  C279  1  0.535300  0.881100  0.261500  1.0  -0.3097
  C  C280  1  0.563600  0.837100  0.297000  1.0  0.0577
  C  C281  1  0.572500  0.775400  0.282700  1.0  -0.2105
  C  C282  1  0.596800  0.730500  0.313100  1.0  0.2574
  C  C283  1  0.610800  0.749300  0.358400  1.0  0.1581
  C  C284  1  0.603700  0.810000  0.373100  1.0  -0.1356
  C  C285  1  0.580400  0.856000  0.342500  1.0  0.0333
  C  C286  1  0.575100  0.924400  0.360400  1.0  -0.3275
  C  C287  1  0.533900  0.933200  0.384900  1.0  0.0139
  C  C288  1  0.540400  0.917000  0.431700  1.0  -0.2013
  C  C289  1  0.504400  0.924100  0.456300  1.0  0.2044
  C  C290  1  0.461000  0.949400  0.432200  1.0  0.1909
  C  C291  1  0.454600  0.966700  0.387700  1.0  -0.1609
  C  C292  1  0.490500  0.958100  0.362300  1.0  0.0327
  C  C293  1  0.478400  0.972000  0.311500  1.0  -0.2945
  C  C294  1  0.317200  0.865300  0.286800  1.0  -0.0037
  C  C295  1  0.374900  0.708800  0.221800  1.0  0.6304
  C  C296  1  0.344100  0.670300  0.185500  1.0  -0.1189
  C  C297  1  0.329800  0.610700  0.196400  1.0  -0.1465
  C  C298  1  0.298500  0.576900  0.162400  1.0  0.1138
  C  C299  1  0.299800  0.657400  0.110500  1.0  0.154
  C  C300  1  0.329600  0.695000  0.142100  1.0  -0.1625
  C  C301  1  0.602000  0.655400  0.253500  1.0  -0.0219
  C  C302  1  0.615200  0.656900  0.404900  1.0  0.622
  C  C303  1  0.647100  0.619600  0.441300  1.0  -0.1572
  C  C304  1  0.630600  0.560700  0.455700  1.0  -0.1666
  C  C305  1  0.658500  0.528700  0.491300  1.0  0.1232
  C  C306  1  0.717500  0.605000  0.497100  1.0  0.1516
  C  C307  1  0.691300  0.641300  0.462300  1.0  -0.1263
  C  C308  1  0.549100  0.880400  0.524500  1.0  -0.0194
  C  C309  1  0.392100  0.913000  0.452900  1.0  0.6356
  C  C310  1  0.355300  0.925600  0.480000  1.0  -0.1399
  C  C311  1  0.317800  0.884500  0.475300  1.0  -0.1397
  C  C312  1  0.282700  0.896200  0.500300  1.0  0.1136
  C  C313  1  0.323300  0.982400  0.535900  1.0  0.1376
  C  C314  1  0.358600  0.975100  0.511300  1.0  -0.1517
  C  C315  1  0.973700  0.179500  0.758000  1.0  0.0222
  C  C316  1  0.946900  0.227200  0.731700  1.0  -0.1586
  C  C317  1  0.899100  0.228400  0.728500  1.0  0.2028
  C  C318  1  0.875800  0.184800  0.750900  1.0  0.2445
  C  C319  1  0.902000  0.136200  0.775200  1.0  -0.1799
  C  C320  1  0.951000  0.133000  0.779300  1.0  0.0245
  C  C321  1  0.976600  0.078900  0.808600  1.0  -0.2678
  C  C322  1  0.983900  0.095600  0.859200  1.0  -0.003
  C  C323  1  0.947200  0.082700  0.882100  1.0  -0.158
  C  C324  1  0.951300  0.099200  0.927000  1.0  0.1812
  C  C325  1  0.991500  0.130000  0.951500  1.0  0.2674
  C  C326  1  0.028000  0.141500  0.929200  1.0  -0.1873
  C  C327  1  0.025200  0.124200  0.883100  1.0  0.0136
  C  C328  1  0.067700  0.137200  0.861800  1.0  -0.3185
  C  C329  1  0.070800  0.207000  0.845000  1.0  0.0168
  C  C330  1  0.093500  0.251200  0.876500  1.0  -0.141
  C  C331  1  0.097200  0.315300  0.864300  1.0  0.1758
  C  C332  1  0.077700  0.337100  0.820700  1.0  0.2257
  C  C333  1  0.055400  0.291500  0.788900  1.0  -0.2013
  C  C334  1  0.051900  0.227400  0.800300  1.0  0.0802
  C  C335  1  0.027300  0.183300  0.762000  1.0  -0.35
  C  C336  1  0.806300  0.158900  0.780300  1.0  -0.0297
  C  C337  1  0.846500  0.266500  0.664100  1.0  0.6386
  C  C338  1  0.820100  0.324100  0.643200  1.0  -0.1472
  C  C339  1  0.782500  0.316100  0.607200  1.0  -0.1691
  C  C340  1  0.759000  0.370600  0.587800  1.0  0.1309
  C  C341  1  0.807500  0.437500  0.637400  1.0  0.1293
  C  C342  1  0.832400  0.385600  0.659200  1.0  -0.1452
  C  C343  1  0.056800  0.424600  0.768700  1.0  -0.0213
  C  C344  1  0.101600  0.391700  0.922900  1.0  0.623
  C  C345  1  0.134800  0.428100  0.958100  1.0  -0.1755
  C  C346  1  0.118400  0.482200  0.977800  1.0  -0.149
  C  C347  1  0.149700  0.516100  0.011100  1.0  0.107
  C  C348  1  0.210400  0.446700  0.005100  1.0  0.1522
  C  C349  1  0.181700  0.410000  0.972000  1.0  -0.1391
  C  C350  1  0.033200  0.171900  0.022100  1.0  -0.0349
  C  C351  1  0.914200  0.027500  0.970600  1.0  0.6286
  C  C352  1  0.871800  0.018000  0.991000  1.0  -0.1545
  C  C353  1  0.874000  0.975800  0.026600  1.0  -0.1216
  C  C354  1  0.835700  0.967400  0.046400  1.0  0.1367
  C  C355  1  0.792300  0.038600  0.995800  1.0  0.1388
  C  C356  1  0.829800  0.049800  0.974900  1.0  -0.141
  C  C357  1  0.457000  0.585700  0.784000  1.0  0.047
  C  C358  1  0.409100  0.599800  0.783600  1.0  -0.2118
  C  C359  1  0.387400  0.652600  0.760000  1.0  0.2769
  C  C360  1  0.412700  0.689400  0.735200  1.0  0.2466
  C  C361  1  0.459100  0.677900  0.734700  1.0  -0.1735
  C  C362  1  0.482400  0.625300  0.760300  1.0  0.0279
  C  C363  1  0.535300  0.618900  0.761500  1.0  -0.3101
  C  C364  1  0.563600  0.662900  0.797000  1.0  0.0588
  C  C365  1  0.572500  0.724600  0.782700  1.0  -0.2109
  C  C366  1  0.596800  0.769500  0.813100  1.0  0.2583
  C  C367  1  0.610800  0.750700  0.858400  1.0  0.1573
  C  C368  1  0.603700  0.690000  0.873100  1.0  -0.136
  C  C369  1  0.580400  0.644000  0.842500  1.0  0.0339
  C  C370  1  0.575100  0.575600  0.860400  1.0  -0.3264
  C  C371  1  0.533900  0.566800  0.884900  1.0  0.0134
  C  C372  1  0.540400  0.583000  0.931700  1.0  -0.201
  C  C373  1  0.504400  0.575900  0.956300  1.0  0.2048
  C  C374  1  0.461000  0.550600  0.932200  1.0  0.1907
  C  C375  1  0.454600  0.533300  0.887700  1.0  -0.1612
  C  C376  1  0.490500  0.541900  0.862300  1.0  0.0332
  C  C377  1  0.478400  0.528000  0.811500  1.0  -0.2951
  C  C378  1  0.317200  0.634700  0.786800  1.0  -0.0026
  C  C379  1  0.374900  0.791200  0.721800  1.0  0.6299
  C  C380  1  0.344100  0.829700  0.685500  1.0  -0.1193
  C  C381  1  0.329800  0.889300  0.696400  1.0  -0.148
  C  C382  1  0.298500  0.923100  0.662400  1.0  0.1132
  C  C383  1  0.299800  0.842600  0.610500  1.0  0.1543
  C  C384  1  0.329600  0.805000  0.642100  1.0  -0.1617
  C  C385  1  0.602000  0.844600  0.753500  1.0  -0.022
  C  C386  1  0.615200  0.843100  0.904900  1.0  0.6212
  C  C387  1  0.647100  0.880400  0.941300  1.0  -0.1576
  C  C388  1  0.630600  0.939300  0.955700  1.0  -0.1667
  C  C389  1  0.658500  0.971300  0.991300  1.0  0.1225
  C  C390  1  0.717500  0.895000  0.997100  1.0  0.152
  C  C391  1  0.691300  0.858700  0.962300  1.0  -0.1264
  C  C392  1  0.549100  0.619600  0.024500  1.0  -0.0172
  C  C393  1  0.392100  0.587000  0.952900  1.0  0.6353
  C  C394  1  0.355300  0.574400  0.980000  1.0  -0.1398
  C  C395  1  0.317800  0.615500  0.975300  1.0  -0.1392
  C  C396  1  0.282700  0.603800  0.000300  1.0  0.114
  C  C397  1  0.323300  0.517600  0.035900  1.0  0.1388
  C  C398  1  0.358600  0.524900  0.011300  1.0  -0.1527
  C  C399  1  0.973700  0.320500  0.258000  1.0  0.022
  C  C400  1  0.946900  0.272800  0.231700  1.0  -0.1585
  C  C401  1  0.899100  0.271600  0.228500  1.0  0.2034
  C  C402  1  0.875800  0.315200  0.250900  1.0  0.2444
  C  C403  1  0.902000  0.363800  0.275200  1.0  -0.1803
  C  C404  1  0.951000  0.367000  0.279300  1.0  0.025
  C  C405  1  0.976600  0.421100  0.308600  1.0  -0.269
  C  C406  1  0.983900  0.404400  0.359200  1.0  -0.0031
  C  C407  1  0.947200  0.417300  0.382100  1.0  -0.1587
  C  C408  1  0.951300  0.400800  0.427000  1.0  0.1808
  C  C409  1  0.991500  0.370000  0.451500  1.0  0.2669
  C  C410  1  0.028000  0.358500  0.429200  1.0  -0.1873
  C  C411  1  0.025200  0.375800  0.383100  1.0  0.0137
  C  C412  1  0.067700  0.362800  0.361800  1.0  -0.3188
  C  C413  1  0.070800  0.293000  0.345000  1.0  0.0165
  C  C414  1  0.093500  0.248800  0.376500  1.0  -0.141
  C  C415  1  0.097200  0.184700  0.364300  1.0  0.1763
  C  C416  1  0.077700  0.162900  0.320700  1.0  0.2232
  C  C417  1  0.055400  0.208500  0.288900  1.0  -0.2015
  C  C418  1  0.051900  0.272600  0.300300  1.0  0.0804
  C  C419  1  0.027300  0.316700  0.262000  1.0  -0.3514
  C  C420  1  0.806300  0.341100  0.280300  1.0  -0.0289
  C  C421  1  0.846500  0.233500  0.164100  1.0  0.6387
  C  C422  1  0.820100  0.175900  0.143200  1.0  -0.1469
  C  C423  1  0.782500  0.183900  0.107200  1.0  -0.1688
  C  C424  1  0.759000  0.129400  0.087800  1.0  0.1311
  C  C425  1  0.807500  0.062500  0.137400  1.0  0.1299
  C  C426  1  0.832400  0.114400  0.159200  1.0  -0.1453
  C  C427  1  0.056800  0.075400  0.268700  1.0  -0.0214
  C  C428  1  0.101600  0.108300  0.422900  1.0  0.6231
  C  C429  1  0.134800  0.071900  0.458100  1.0  -0.1754
  C  C430  1  0.118400  0.017800  0.477800  1.0  -0.1485
  C  C431  1  0.149700  0.983900  0.511100  1.0  0.1057
  C  C432  1  0.210400  0.053300  0.505100  1.0  0.1522
  C  C433  1  0.181700  0.090000  0.472000  1.0  -0.1392
  C  C434  1  0.033200  0.328100  0.522100  1.0  -0.0348
  C  C435  1  0.914200  0.472500  0.470600  1.0  0.629
  C  C436  1  0.871800  0.482000  0.491000  1.0  -0.154
  C  C437  1  0.874000  0.524200  0.526600  1.0  -0.1218
  C  C438  1  0.835700  0.532600  0.546400  1.0  0.135
  C  C439  1  0.792300  0.461400  0.495800  1.0  0.1388
  C  C440  1  0.829800  0.450200  0.474900  1.0  -0.1403
  C  C441  1  0.543000  0.414300  0.216000  1.0  0.0489
  C  C442  1  0.590900  0.400200  0.216400  1.0  -0.2091
  C  C443  1  0.612600  0.347400  0.240000  1.0  0.2782
  C  C444  1  0.587300  0.310600  0.264800  1.0  0.2466
  C  C445  1  0.540900  0.322100  0.265300  1.0  -0.1728
  C  C446  1  0.517600  0.374700  0.239700  1.0  0.0315
  C  C447  1  0.464700  0.381100  0.238500  1.0  -0.3099
  C  C448  1  0.436400  0.337100  0.203000  1.0  0.0557
  C  C449  1  0.427500  0.275400  0.217300  1.0  -0.2121
  C  C450  1  0.403200  0.230500  0.186900  1.0  0.2574
  C  C451  1  0.389200  0.249300  0.141600  1.0  0.156
  C  C452  1  0.396300  0.310000  0.126900  1.0  -0.1364
  C  C453  1  0.419600  0.356000  0.157500  1.0  0.0334
  C  C454  1  0.424900  0.424400  0.139600  1.0  -0.327
  C  C455  1  0.466100  0.433200  0.115100  1.0  0.0139
  C  C456  1  0.459600  0.417000  0.068300  1.0  -0.2009
  C  C457  1  0.495600  0.424100  0.043700  1.0  0.2038
  C  C458  1  0.539000  0.449400  0.067800  1.0  0.1918
  C  C459  1  0.545400  0.466700  0.112300  1.0  -0.1602
  C  C460  1  0.509500  0.458100  0.137700  1.0  0.0346
  C  C461  1  0.521600  0.472000  0.188500  1.0  -0.2948
  C  C462  1  0.682800  0.365300  0.213200  1.0  -0.0061
  C  C463  1  0.625100  0.208800  0.278200  1.0  0.6297
  C  C464  1  0.655900  0.170300  0.314500  1.0  -0.1188
  C  C465  1  0.670200  0.110700  0.303600  1.0  -0.1486
  C  C466  1  0.701500  0.076900  0.337600  1.0  0.1143
  C  C467  1  0.700200  0.157400  0.389500  1.0  0.153
  C  C468  1  0.670400  0.195000  0.357900  1.0  -0.1619
  C  C469  1  0.398000  0.155400  0.246500  1.0  -0.02
  C  C470  1  0.384800  0.156900  0.095100  1.0  0.6212
  C  C471  1  0.352900  0.119600  0.058700  1.0  -0.1557
  C  C472  1  0.369400  0.060700  0.044300  1.0  -0.1655
  C  C473  1  0.341500  0.028700  0.008700  1.0  0.1222
  C  C474  1  0.282500  0.105000  0.002900  1.0  0.1504
  C  C475  1  0.308700  0.141300  0.037700  1.0  -0.127
  C  C476  1  0.450900  0.380400  0.975500  1.0  -0.0168
  C  C477  1  0.607900  0.413000  0.047100  1.0  0.6375
  C  C478  1  0.644700  0.425600  0.020000  1.0  -0.1384
  C  C479  1  0.682200  0.384500  0.024700  1.0  -0.1397
  C  C480  1  0.717300  0.396200  0.999700  1.0  0.1145
  C  C481  1  0.676700  0.482400  0.964100  1.0  0.1376
  C  C482  1  0.641400  0.475100  0.988700  1.0  -0.1516
  C  C483  1  0.026300  0.679500  0.742000  1.0  0.0235
  C  C484  1  0.053100  0.727200  0.768300  1.0  -0.1603
  C  C485  1  0.100900  0.728400  0.771500  1.0  0.2033
  C  C486  1  0.124200  0.684800  0.749100  1.0  0.2443
  C  C487  1  0.098000  0.636200  0.724800  1.0  -0.1783
  C  C488  1  0.049000  0.633000  0.720700  1.0  0.0265
  C  C489  1  0.023400  0.578900  0.691400  1.0  -0.2686
  C  C490  1  0.016100  0.595600  0.640800  1.0  -0.0012
  C  C491  1  0.052800  0.582700  0.617900  1.0  -0.1557
  C  C492  1  0.048700  0.599200  0.573000  1.0  0.1807
  C  C493  1  0.008500  0.630000  0.548500  1.0  0.2676
  C  C494  1  0.972000  0.641500  0.570800  1.0  -0.187
  C  C495  1  0.974800  0.624200  0.616900  1.0  0.0145
  C  C496  1  0.932300  0.637200  0.638200  1.0  -0.3198
  C  C497  1  0.929200  0.707000  0.655000  1.0  0.0161
  C  C498  1  0.906500  0.751200  0.623500  1.0  -0.1414
  C  C499  1  0.902800  0.815300  0.635700  1.0  0.1772
  C  C500  1  0.922300  0.837100  0.679300  1.0  0.2246
  C  C501  1  0.944600  0.791500  0.711100  1.0  -0.2013
  C  C502  1  0.948100  0.727400  0.699700  1.0  0.0814
  C  C503  1  0.972700  0.683300  0.738000  1.0  -0.3491
  C  C504  1  0.193700  0.658900  0.719700  1.0  -0.0304
  C  C505  1  0.153500  0.766500  0.835900  1.0  0.6395
  C  C506  1  0.179900  0.824100  0.856800  1.0  -0.1487
  C  C507  1  0.217500  0.816100  0.892800  1.0  -0.1693
  C  C508  1  0.241000  0.870600  0.912200  1.0  0.1306
  C  C509  1  0.192500  0.937500  0.862600  1.0  0.1279
  C  C510  1  0.167600  0.885600  0.840800  1.0  -0.1471
  C  C511  1  0.943200  0.924600  0.731300  1.0  -0.0204
  C  C512  1  0.898400  0.891700  0.577100  1.0  0.6233
  C  C513  1  0.865200  0.928100  0.541900  1.0  -0.1754
  C  C514  1  0.881600  0.982200  0.522200  1.0  -0.1447
  C  C515  1  0.850300  0.016100  0.488900  1.0  0.1063
  C  C516  1  0.789600  0.946700  0.494900  1.0  0.1508
  C  C517  1  0.818300  0.910000  0.528000  1.0  -0.1395
  C  C518  1  0.966800  0.671900  0.477900  1.0  -0.0332
  C  C519  1  0.085800  0.527500  0.529400  1.0  0.6284
  C  C520  1  0.128200  0.518000  0.509000  1.0  -0.1528
  C  C521  1  0.126000  0.475800  0.473400  1.0  -0.1225
  C  C522  1  0.164300  0.467400  0.453600  1.0  0.1367
  C  C523  1  0.207700  0.538600  0.504200  1.0  0.1375
  C  C524  1  0.170200  0.549800  0.525100  1.0  -0.1398
  C  C525  1  0.543000  0.085700  0.716000  1.0  0.0487
  C  C526  1  0.590900  0.099800  0.716400  1.0  -0.2084
  C  C527  1  0.612600  0.152600  0.740000  1.0  0.2771
  C  C528  1  0.587300  0.189400  0.764800  1.0  0.2467
  C  C529  1  0.540900  0.177900  0.765300  1.0  -0.173
  C  C530  1  0.517600  0.125300  0.739700  1.0  0.0314
  C  C531  1  0.464700  0.118900  0.738500  1.0  -0.31
  C  C532  1  0.436400  0.162900  0.703000  1.0  0.0564
  C  C533  1  0.427500  0.224600  0.717300  1.0  -0.2124
  C  C534  1  0.403200  0.269500  0.686900  1.0  0.2589
  C  C535  1  0.389200  0.250700  0.641600  1.0  0.1569
  C  C536  1  0.396300  0.190000  0.626900  1.0  -0.1369
  C  C537  1  0.419600  0.144000  0.657500  1.0  0.0333
  C  C538  1  0.424900  0.075600  0.639600  1.0  -0.3266
  C  C539  1  0.466100  0.066800  0.615100  1.0  0.0132
  C  C540  1  0.459600  0.083000  0.568300  1.0  -0.2006
  C  C541  1  0.495600  0.075900  0.543700  1.0  0.2037
  C  C542  1  0.539000  0.050600  0.567800  1.0  0.1917
  C  C543  1  0.545400  0.033300  0.612300  1.0  -0.1604
  C  C544  1  0.509500  0.041900  0.637700  1.0  0.0339
  C  C545  1  0.521600  0.028000  0.688500  1.0  -0.294
  C  C546  1  0.682800  0.134700  0.713200  1.0  -0.0043
  C  C547  1  0.625100  0.291200  0.778200  1.0  0.6303
  C  C548  1  0.655900  0.329700  0.814500  1.0  -0.1196
  C  C549  1  0.670200  0.389300  0.803600  1.0  -0.1484
  C  C550  1  0.701500  0.423100  0.837600  1.0  0.1156
  C  C551  1  0.700200  0.342600  0.889500  1.0  0.1543
  C  C552  1  0.670400  0.305000  0.857900  1.0  -0.1616
  C  C553  1  0.398000  0.344600  0.746500  1.0  -0.0218
  C  C554  1  0.384800  0.343100  0.595100  1.0  0.6209
  C  C555  1  0.352900  0.380400  0.558700  1.0  -0.1562
  C  C556  1  0.369400  0.439300  0.544300  1.0  -0.1652
  C  C557  1  0.341500  0.471300  0.508700  1.0  0.1215
  C  C558  1  0.282500  0.395000  0.502900  1.0  0.1505
  C  C559  1  0.308700  0.358700  0.537700  1.0  -0.1267
  C  C560  1  0.450900  0.119600  0.475500  1.0  -0.0156
  C  C561  1  0.607900  0.087000  0.547100  1.0  0.636
  C  C562  1  0.644700  0.074400  0.520000  1.0  -0.137
  C  C563  1  0.682200  0.115500  0.524700  1.0  -0.1381
  C  C564  1  0.717300  0.103800  0.499700  1.0  0.1147
  C  C565  1  0.676700  0.017600  0.464100  1.0  0.1373
  C  C566  1  0.641400  0.024900  0.488700  1.0  -0.1527
  C  C567  1  0.026300  0.820500  0.242000  1.0  0.0225
  C  C568  1  0.053100  0.772800  0.268300  1.0  -0.1596
  C  C569  1  0.100900  0.771600  0.271500  1.0  0.2036
  C  C570  1  0.124200  0.815200  0.249100  1.0  0.2447
  C  C571  1  0.098000  0.863800  0.224800  1.0  -0.1792
  C  C572  1  0.049000  0.867000  0.220700  1.0  0.0269
  C  C573  1  0.023400  0.921100  0.191400  1.0  -0.2702
  C  C574  1  0.016100  0.904400  0.140800  1.0  -0.0012
  C  C575  1  0.052800  0.917300  0.117900  1.0  -0.1564
  C  C576  1  0.048700  0.900800  0.073000  1.0  0.1811
  C  C577  1  0.008500  0.870000  0.048500  1.0  0.2674
  C  C578  1  0.972000  0.858500  0.070800  1.0  -0.1868
  C  C579  1  0.974800  0.875800  0.116900  1.0  0.0146
  C  C580  1  0.932300  0.862800  0.138200  1.0  -0.3196
  C  C581  1  0.929200  0.793000  0.155000  1.0  0.0161
  C  C582  1  0.906500  0.748800  0.123500  1.0  -0.141
  C  C583  1  0.902800  0.684700  0.135700  1.0  0.1773
  C  C584  1  0.922300  0.662900  0.179300  1.0  0.2217
  C  C585  1  0.944600  0.708500  0.211100  1.0  -0.2011
  C  C586  1  0.948100  0.772600  0.199700  1.0  0.0815
  C  C587  1  0.972700  0.816700  0.238000  1.0  -0.3489
  C  C588  1  0.193700  0.841100  0.219700  1.0  -0.0304
  C  C589  1  0.153500  0.733500  0.335900  1.0  0.6384
  C  C590  1  0.179900  0.675900  0.356800  1.0  -0.1479
  C  C591  1  0.217500  0.683900  0.392800  1.0  -0.1681
  C  C592  1  0.241000  0.629400  0.412200  1.0  0.1303
  C  C593  1  0.192500  0.562500  0.362600  1.0  0.1264
  C  C594  1  0.167600  0.614400  0.340800  1.0  -0.147
  C  C595  1  0.943200  0.575400  0.231300  1.0  -0.0193
  C  C596  1  0.898400  0.608300  0.077100  1.0  0.6236
  C  C597  1  0.865200  0.571900  0.041900  1.0  -0.1754
  C  C598  1  0.881600  0.517800  0.022200  1.0  -0.1448
  C  C599  1  0.850300  0.483900  0.988900  1.0  0.1053
  C  C600  1  0.789600  0.553300  0.994900  1.0  0.1506
  C  C601  1  0.818300  0.590000  0.028000  1.0  -0.1399
  C  C602  1  0.966800  0.828100  0.977900  1.0  -0.0337
  C  C603  1  0.085800  0.972500  0.029400  1.0  0.6287
  C  C604  1  0.128200  0.982000  0.009000  1.0  -0.1529
  C  C605  1  0.126000  0.024200  0.973400  1.0  -0.1225
  C  C606  1  0.164300  0.032600  0.953600  1.0  0.1361
  C  C607  1  0.207700  0.961400  0.004200  1.0  0.1378
  C  C608  1  0.170200  0.950200  0.025100  1.0  -0.1394
  N  N609  1  0.283300  0.600500  0.120470  1.0  -0.3441
  N  N610  1  0.771100  0.430700  0.602400  1.0  -0.3634
  N  N611  1  0.701700  0.550400  0.512200  1.0  -0.3606
  N  N612  1  0.286100  0.943000  0.530700  1.0  -0.3047
  N  N613  1  0.194610  0.499000  0.024310  1.0  -0.3629
  N  N614  1  0.794900  0.998400  0.031600  1.0  -0.3238
  N  N615  1  0.283300  0.899500  0.620470  1.0  -0.3437
  N  N616  1  0.771100  0.069300  0.102400  1.0  -0.3642
  N  N617  1  0.701700  0.949600  0.012200  1.0  -0.3611
  N  N618  1  0.286100  0.557000  0.030700  1.0  -0.3048
  N  N619  1  0.194610  0.001000  0.524310  1.0  -0.3614
  N  N620  1  0.794900  0.501600  0.531600  1.0  -0.3234
  N  N621  1  0.716700  0.100500  0.379530  1.0  -0.3471
  N  N622  1  0.228900  0.930700  0.897600  1.0  -0.3664
  N  N623  1  0.298300  0.050400  0.987800  1.0  -0.3635
  N  N624  1  0.713900  0.443000  0.969300  1.0  -0.3071
  N  N625  1  0.805390  0.999000  0.475690  1.0  -0.3634
  N  N626  1  0.205100  0.498400  0.468400  1.0  -0.3235
  N  N627  1  0.716700  0.399500  0.879530  1.0  -0.3481
  N  N628  1  0.228900  0.569300  0.397600  1.0  -0.3654
  N  N629  1  0.298300  0.449600  0.487800  1.0  -0.363
  N  N630  1  0.713900  0.057000  0.469300  1.0  -0.307
  N  N631  1  0.805390  0.501000  0.975690  1.0  -0.3642
  N  N632  1  0.205100  0.001600  0.968400  1.0  -0.3232
  O  O633  1  0.342100  0.830100  0.259300  1.0  -0.2885
  O  O634  1  0.608700  0.669800  0.302000  1.0  -0.268
  O  O635  1  0.574500  0.644200  0.391200  1.0  -0.4564
  O  O636  1  0.124200  0.357000  0.896000  1.0  -0.3091
  O  O637  1  0.388700  0.763900  0.205000  1.0  -0.3179
  O  O638  1  0.385800  0.692900  0.261900  1.0  -0.4516
  O  O639  1  0.638080  0.706500  0.390490  1.0  -0.3207
  O  O640  1  0.506140  0.908200  0.500980  1.0  -0.2678
  O  O641  1  0.424690  0.958600  0.457130  1.0  -0.367
  O  O642  1  0.393800  0.866100  0.430600  1.0  -0.4654
  O  O643  1  0.828100  0.193700  0.747700  1.0  -0.2858
  O  O644  1  0.873150  0.280000  0.704750  1.0  -0.3693
  O  O645  1  0.844800  0.214700  0.645800  1.0  -0.4606
  O  O646  1  0.082600  0.400600  0.812000  1.0  -0.2637
  O  O647  1  0.059210  0.393200  0.918900  1.0  -0.4715
  O  O648  1  0.990290  0.145000  0.996010  1.0  -0.2669
  O  O649  1  0.913040  0.085500  0.949400  1.0  -0.3759
  O  O650  1  0.945600  0.989600  0.972300  1.0  -0.4782
  O  O651  1  0.342100  0.669900  0.759300  1.0  -0.2881
  O  O652  1  0.608700  0.830200  0.802000  1.0  -0.2693
  O  O653  1  0.574500  0.855800  0.891200  1.0  -0.4573
  O  O654  1  0.124200  0.143000  0.396000  1.0  -0.3092
  O  O655  1  0.388700  0.736100  0.705000  1.0  -0.3183
  O  O656  1  0.385800  0.807100  0.761900  1.0  -0.4514
  O  O657  1  0.638080  0.793500  0.890490  1.0  -0.3207
  O  O658  1  0.506140  0.591800  0.000980  1.0  -0.266
  O  O659  1  0.424690  0.541400  0.957130  1.0  -0.3663
  O  O660  1  0.393800  0.633900  0.930600  1.0  -0.4643
  O  O661  1  0.828100  0.306300  0.247700  1.0  -0.2848
  O  O662  1  0.873150  0.220000  0.204750  1.0  -0.3689
  O  O663  1  0.844800  0.285300  0.145800  1.0  -0.4614
  O  O664  1  0.082600  0.099400  0.312000  1.0  -0.262
  O  O665  1  0.059210  0.106800  0.418900  1.0  -0.4704
  O  O666  1  0.990290  0.355000  0.496010  1.0  -0.2693
  O  O667  1  0.913040  0.414500  0.449400  1.0  -0.3765
  O  O668  1  0.945600  0.510400  0.472300  1.0  -0.4774
  O  O669  1  0.657900  0.330100  0.240700  1.0  -0.2879
  O  O670  1  0.391300  0.169800  0.198000  1.0  -0.2672
  O  O671  1  0.425500  0.144200  0.108800  1.0  -0.4565
  O  O672  1  0.875800  0.857000  0.604000  1.0  -0.3055
  O  O673  1  0.611300  0.263900  0.295000  1.0  -0.3199
  O  O674  1  0.614200  0.192900  0.238100  1.0  -0.4528
  O  O675  1  0.361920  0.206500  0.109510  1.0  -0.3173
  O  O676  1  0.493860  0.408200  0.999020  1.0  -0.2681
  O  O677  1  0.575310  0.458600  0.042870  1.0  -0.3664
  O  O678  1  0.606200  0.366100  0.069400  1.0  -0.4656
  O  O679  1  0.171900  0.693700  0.752300  1.0  -0.2881
  O  O680  1  0.126850  0.780000  0.795250  1.0  -0.3677
  O  O681  1  0.155200  0.714700  0.854200  1.0  -0.4592
  O  O682  1  0.917400  0.900600  0.688000  1.0  -0.262
  O  O683  1  0.940790  0.893200  0.581100  1.0  -0.4721
  O  O684  1  0.009710  0.645000  0.503990  1.0  -0.2711
  O  O685  1  0.086960  0.585500  0.550600  1.0  -0.3785
  O  O686  1  0.054400  0.489600  0.527700  1.0  -0.4784
  O  O687  1  0.657900  0.169900  0.740700  1.0  -0.2889
  O  O688  1  0.391300  0.330200  0.698000  1.0  -0.2686
  O  O689  1  0.425500  0.355800  0.608800  1.0  -0.4557
  O  O690  1  0.875800  0.643000  0.104000  1.0  -0.3057
  O  O691  1  0.611300  0.236100  0.795000  1.0  -0.3201
  O  O692  1  0.614200  0.307100  0.738100  1.0  -0.4538
  O  O693  1  0.361920  0.293500  0.609510  1.0  -0.3178
  O  O694  1  0.493860  0.091800  0.499020  1.0  -0.2696
  O  O695  1  0.575310  0.041400  0.542870  1.0  -0.3659
  O  O696  1  0.606200  0.133900  0.569400  1.0  -0.4647
  O  O697  1  0.171900  0.806300  0.252300  1.0  -0.2869
  O  O698  1  0.126850  0.720000  0.295250  1.0  -0.3674
  O  O699  1  0.155200  0.785300  0.354200  1.0  -0.4605
  O  O700  1  0.917400  0.599400  0.188000  1.0  -0.2617
  O  O701  1  0.940790  0.606800  0.081100  1.0  -0.4726
  O  O702  1  0.009710  0.855000  0.003990  1.0  -0.2704
  O  O703  1  0.086960  0.914500  0.050600  1.0  -0.3788
  O  O704  1  0.054400  0.010400  0.027700  1.0  -0.4782
