# generated using pymatgen
data_Zn4H28C58O13
_symmetry_space_group_name_H-M   'P 1'
_cell_length_a   50.74500000
_cell_length_b   50.74500000
_cell_length_c   71.07160000
_cell_angle_alpha   69.08400000
_cell_angle_beta   69.08400000
_cell_angle_gamma   60.00000000
_symmetry_Int_Tables_number   1
_chemical_formula_structural   Zn4H28C58O13
_chemical_formula_sum   'Zn72 H504 C1044 O234'
_cell_volume   144401.05180752
_cell_formula_units_Z   18
loop_
 _symmetry_equiv_pos_site_id
 _symmetry_equiv_pos_as_xyz
  1  'x, y, z'
loop_
 _atom_site_type_symbol
 _atom_site_label
 _atom_site_symmetry_multiplicity
 _atom_site_fract_x
 _atom_site_fract_y
 _atom_site_fract_z
 _atom_site_occupancy
 _atom_site_charge
  Zn  Zn1  1  0.493100  0.971100  0.755700  1.0  1.1754
  Zn  Zn2  1  0.604300  0.066300  0.411100  1.0  1.1443
  Zn  Zn3  1  0.348400  0.611400  0.909800  1.0  1.1678
  Zn  Zn4  1  0.435300  0.881300  0.563100  1.0  1.0792
  Zn  Zn5  1  0.473700  0.033700  0.726900  1.0  1.0655
  Zn  Zn6  1  0.104100  0.417100  0.910700  1.0  1.1716
  Zn  Zn7  1  0.881300  0.120300  0.563100  1.0  1.0807
  Zn  Zn8  1  0.780100  0.493100  0.755700  1.0  1.1788
  Zn  Zn9  1  0.028700  0.733700  0.771900  1.0  1.0802
  Zn  Zn10  1  0.033700  0.765700  0.726900  1.0  1.0607
  Zn  Zn11  1  0.424100  0.863100  0.611700  1.0  1.1578
  Zn  Zn12  1  0.130400  0.348400  0.909800  1.0  1.1667
  Zn  Zn13  1  0.008000  0.718000  0.744000  1.0  1.0704
  Zn  Zn14  1  0.120300  0.435300  0.563100  1.0  1.0787
  Zn  Zn15  1  0.382300  0.934300  0.064100  1.0  1.1406
  Zn  Zn16  1  0.431900  0.895900  0.089300  1.0  1.1719
  Zn  Zn17  1  0.234300  0.526300  0.273100  1.0  1.0685
  Zn  Zn18  1  0.363400  0.924400  0.110800  1.0  1.1662
  Zn  Zn19  1  0.992000  0.282000  0.256000  1.0  1.0738
  Zn  Zn20  1  0.136900  0.898900  0.388300  1.0  1.1525
  Zn  Zn21  1  0.765700  0.473700  0.726900  1.0  1.0652
  Zn  Zn22  1  0.966300  0.234300  0.273100  1.0  1.0634
  Zn  Zn23  1  0.110900  0.847900  0.409300  1.0  1.1243
  Zn  Zn24  1  0.506900  0.028900  0.244300  1.0  1.1748
  Zn  Zn25  1  0.601400  0.363400  0.110800  1.0  1.165
  Zn  Zn26  1  0.631900  0.110900  0.409300  1.0  1.1236
  Zn  Zn27  1  0.575900  0.136900  0.388300  1.0  1.1585
  Zn  Zn28  1  0.651600  0.388600  0.090200  1.0  1.168
  Zn  Zn29  1  0.568100  0.104100  0.910700  1.0  1.1716
  Zn  Zn30  1  0.081700  0.395700  0.588900  1.0  1.1436
  Zn  Zn31  1  0.534300  0.971300  0.228100  1.0  1.0772
  Zn  Zn32  1  0.733700  0.465700  0.771900  1.0  1.0739
  Zn  Zn33  1  0.118700  0.879700  0.436900  1.0  1.0822
  Zn  Zn34  1  0.847900  0.631900  0.409300  1.0  1.1243
  Zn  Zn35  1  0.611400  0.130400  0.909800  1.0  1.1674
  Zn  Zn36  1  0.933700  0.081700  0.588900  1.0  1.1432
  Zn  Zn37  1  0.718000  0.530000  0.744000  1.0  1.0715
  Zn  Zn38  1  0.898900  0.575900  0.388300  1.0  1.1562
  Zn  Zn39  1  0.934300  0.619300  0.064100  1.0  1.1386
  Zn  Zn40  1  0.152100  0.368100  0.590700  1.0  1.1244
  Zn  Zn41  1  0.924400  0.601400  0.110800  1.0  1.1663
  Zn  Zn42  1  0.380700  0.617700  0.935900  1.0  1.1439
  Zn  Zn43  1  0.530000  0.008000  0.744000  1.0  1.0693
  Zn  Zn44  1  0.417100  0.568100  0.910700  1.0  1.1705
  Zn  Zn45  1  0.101100  0.424100  0.611700  1.0  1.1598
  Zn  Zn46  1  0.619300  0.382300  0.064100  1.0  1.1423
  Zn  Zn47  1  0.889100  0.152100  0.590700  1.0  1.1256
  Zn  Zn48  1  0.526300  0.966300  0.273100  1.0  1.0674
  Zn  Zn49  1  0.582900  0.431900  0.089300  1.0  1.1718
  Zn  Zn50  1  0.465700  0.028700  0.771900  1.0  1.0791
  Zn  Zn51  1  0.398600  0.636600  0.889200  1.0  1.1616
  Zn  Zn52  1  0.066300  0.918300  0.411100  1.0  1.1437
  Zn  Zn53  1  0.895900  0.582900  0.089300  1.0  1.1718
  Zn  Zn54  1  0.879700  0.564700  0.436900  1.0  1.0798
  Zn  Zn55  1  0.617700  0.065700  0.935900  1.0  1.1438
  Zn  Zn56  1  0.266300  0.534300  0.228100  1.0  1.0736
  Zn  Zn57  1  0.971300  0.266300  0.228100  1.0  1.0777
  Zn  Zn58  1  0.075600  0.398600  0.889200  1.0  1.1653
  Zn  Zn59  1  0.065700  0.380700  0.935900  1.0  1.1406
  Zn  Zn60  1  0.219900  0.506900  0.244300  1.0  1.1774
  Zn  Zn61  1  0.028900  0.219900  0.244300  1.0  1.1743
  Zn  Zn62  1  0.282000  0.470000  0.256000  1.0  1.07
  Zn  Zn63  1  0.395700  0.933700  0.588900  1.0  1.1442
  Zn  Zn64  1  0.869600  0.651600  0.090200  1.0  1.1664
  Zn  Zn65  1  0.918300  0.604300  0.411100  1.0  1.1441
  Zn  Zn66  1  0.470000  0.992000  0.256000  1.0  1.0715
  Zn  Zn67  1  0.636600  0.075600  0.889200  1.0  1.1658
  Zn  Zn68  1  0.971100  0.780100  0.755700  1.0  1.1754
  Zn  Zn69  1  0.564700  0.118700  0.436900  1.0  1.0804
  Zn  Zn70  1  0.863100  0.101100  0.611700  1.0  1.1554
  Zn  Zn71  1  0.368100  0.889100  0.590700  1.0  1.1251
  Zn  Zn72  1  0.388600  0.869600  0.090200  1.0  1.1671
  H  H73  1  0.999900  0.399200  0.632100  1.0  0.0995
  H  H74  1  0.265600  0.052100  0.597000  1.0  0.1165
  H  H75  1  0.600800  0.031200  0.367900  1.0  0.1003
  H  H76  1  0.978000  0.011400  0.473500  1.0  0.1105
  H  H77  1  0.263000  0.064500  0.049000  1.0  0.1113
  H  H78  1  0.737000  0.935500  0.951000  1.0  0.1122
  H  H79  1  0.852300  0.265500  0.218200  1.0  0.1184
  H  H80  1  0.480600  0.190100  0.448500  1.0  0.1093
  H  H81  1  0.953400  0.320100  0.307200  1.0  0.1096
  H  H82  1  0.376500  0.737000  0.951000  1.0  0.1124
  H  H83  1  0.963300  0.466700  0.675900  1.0  0.1107
  H  H84  1  0.837400  0.238900  0.493200  1.0  0.1192
  H  H85  1  0.977300  0.770300  0.860100  1.0  0.1165
  H  H86  1  0.912700  0.927700  0.705300  1.0  0.1128
  H  H87  1  0.630700  0.217500  0.307900  1.0  0.128
  H  H88  1  0.304500  0.763400  0.753900  1.0  0.1196
  H  H89  1  0.673200  0.454300  0.095000  1.0  0.1071
  H  H90  1  0.892900  0.271400  0.359100  1.0  0.1193
  H  H91  1  0.255800  0.244000  0.722100  1.0  0.1206
  H  H92  1  0.045100  0.487100  0.846300  1.0  0.1029
  H  H93  1  0.929400  0.334500  0.339300  1.0  0.1241
  H  H94  1  0.359000  0.700100  0.841200  1.0  0.105
  H  H95  1  0.370100  0.356000  0.393000  1.0  0.1237
  H  H96  1  0.455500  0.878500  0.653400  1.0  0.1033
  H  H97  1  0.968800  0.999900  0.632100  1.0  0.1007
  H  H98  1  0.162300  0.224700  0.985700  1.0  0.1152
  H  H99  1  0.544500  0.121500  0.346600  1.0  0.1027
  H  H100  1  0.010800  0.081100  0.592800  1.0  0.1195
  H  H101  1  0.015600  0.048900  0.345100  1.0  0.1253
  H  H102  1  0.621500  0.045100  0.846300  1.0  0.1035
  H  H103  1  0.005300  0.977900  0.450700  1.0  0.1169
  H  H104  1  0.536400  0.605300  0.824100  1.0  0.1051
  H  H105  1  0.131200  0.708300  0.572800  1.0  0.1237
  H  H106  1  0.298600  0.813600  0.663900  1.0  0.1276
  H  H107  1  0.991200  0.457100  0.007400  1.0  0.1134
  H  H108  1  0.291700  0.412300  0.427200  1.0  0.1232
  H  H109  1  0.248700  0.761400  0.215200  1.0  0.1158
  H  H110  1  0.036600  0.512100  0.973200  1.0  0.1199
  H  H111  1  0.049200  0.603800  0.111700  1.0  0.1189
  H  H112  1  0.209400  0.433700  0.239800  1.0  0.1048
  H  H113  1  0.764700  0.950800  0.888300  1.0  0.1194
  H  H114  1  0.101600  0.164800  0.160300  1.0  0.1095
  H  H115  1  0.356000  0.880900  0.393000  1.0  0.1225
  H  H116  1  0.333333  0.827900  0.131500  1.0  0.1082
  H  H117  1  0.806300  0.136200  0.662100  1.0  0.106
  H  H118  1  0.399200  0.968800  0.632100  1.0  0.1003
  H  H119  1  0.499200  0.916600  0.327300  1.0  0.1083
  H  H120  1  0.836700  0.790400  0.760500  1.0  0.1161
  H  H121  1  0.888700  0.223300  0.279400  1.0  0.109
  H  H122  1  0.336000  0.147700  0.781800  1.0  0.1197
  H  H123  1  0.357500  0.831900  0.956100  1.0  0.1237
  H  H124  1  0.504900  0.059100  0.837000  1.0  0.1121
  H  H125  1  0.129400  0.620700  0.106600  1.0  0.1174
  H  H126  1  0.954900  0.172200  0.595800  1.0  0.1082
  H  H127  1  0.607700  0.022700  0.139900  1.0  0.1171
  H  H128  1  0.113400  0.292600  0.256900  1.0  0.1176
  H  H129  1  0.698400  0.193100  0.841200  1.0  0.1218
  H  H130  1  0.886600  0.707400  0.743100  1.0  0.1164
  H  H131  1  0.221900  0.744200  0.277900  1.0  0.1212
  H  H132  1  0.934500  0.521100  0.049900  1.0  0.1211
  H  H133  1  0.495100  0.940900  0.163000  1.0  0.1116
  H  H134  1  0.272200  0.322300  0.902000  1.0  0.1091
  H  H135  1  0.955200  0.042400  0.492900  1.0  0.1186
  H  H136  1  0.929400  0.877600  0.726900  1.0  0.1084
  H  H137  1  0.396200  0.764700  0.888300  1.0  0.1197
  H  H138  1  0.563200  0.762200  0.548800  1.0  0.12
  H  H139  1  0.878500  0.012600  0.653400  1.0  0.1029
  H  H140  1  0.806900  0.732700  0.158800  1.0  0.121
  H  H141  1  0.245100  0.583000  0.171400  1.0  0.107
  H  H142  1  0.065500  0.478900  0.950100  1.0  0.1225
  H  H143  1  0.952000  0.351200  0.184300  1.0  0.1096
  H  H144  1  0.700100  0.099700  0.841200  1.0  0.1054
  H  H145  1  0.433900  0.994700  0.549300  1.0  0.118
  H  H146  1  0.569500  0.035200  0.773400  1.0  0.1028
  H  H147  1  0.571400  0.020000  0.984300  1.0  0.1021
  H  H148  1  0.218600  0.657500  0.278200  1.0  0.1232
  H  H149  1  0.781400  0.342500  0.721800  1.0  0.1235
  H  H150  1  0.775300  0.372700  0.014300  1.0  0.1154
  H  H151  1  0.005600  0.596800  0.114400  1.0  0.1132
  H  H152  1  0.419300  0.953400  0.307200  1.0  0.1089
  H  H153  1  0.022000  0.988600  0.526500  1.0  0.1107
  H  H154  1  0.660800  0.068300  0.007900  1.0  0.122
  H  H155  1  0.283200  0.005600  0.114400  1.0  0.1121
  H  H156  1  0.677700  0.496500  0.098000  1.0  0.1098
  H  H157  1  0.924400  0.519400  0.484300  1.0  0.1022
  H  H158  1  0.657500  0.845700  0.278200  1.0  0.1233
  H  H159  1  0.658500  0.118200  0.456700  1.0  0.1119
  H  H160  1  0.653500  0.062700  0.979100  1.0  0.1064
  H  H161  1  0.546700  0.515600  0.844500  1.0  0.1084
  H  H162  1  0.424300  0.571400  0.984300  1.0  0.1031
  H  H163  1  0.490400  0.184800  0.906200  1.0  0.11
  H  H164  1  0.663800  0.124300  0.486400  1.0  0.1165
  H  H165  1  0.523400  0.107100  0.640900  1.0  0.119
  H  H166  1  0.022700  0.229700  0.139900  1.0  0.1165
  H  H167  1  0.500800  0.083400  0.672700  1.0  0.1093
  H  H168  1  0.777500  0.673200  0.095000  1.0  0.1065
  H  H169  1  0.702800  0.749500  0.752400  1.0  0.1508
  H  H170  1  0.895700  0.451200  0.388500  1.0  0.1215
  H  H171  1  0.749500  0.795300  0.752400  1.0  0.1485
  H  H172  1  0.952700  0.428300  0.205600  1.0  0.1215
  H  H173  1  0.979100  0.383400  0.948300  1.0  0.1125
  H  H174  1  0.184800  0.418600  0.906200  1.0  0.1108
  H  H175  1  0.480600  0.928100  0.515700  1.0  0.1013
  H  H176  1  0.244000  0.778100  0.722100  1.0  0.1211
  H  H177  1  0.795300  0.702800  0.752400  1.0  0.1475
  H  H178  1  0.042400  0.509500  0.492900  1.0  0.1167
  H  H179  1  0.994400  0.403200  0.885600  1.0  0.1129
  H  H180  1  0.623500  0.263000  0.049000  1.0  0.112
  H  H181  1  0.265500  0.664000  0.218200  1.0  0.1198
  H  H182  1  0.003500  0.823600  0.400300  1.0  0.1227
  H  H183  1  0.163300  0.209600  0.239500  1.0  0.1161
  H  H184  1  0.443700  0.994300  0.663000  1.0  0.1114
  H  H185  1  0.237800  0.874200  0.451200  1.0  0.1206
  H  H186  1  0.413900  0.448700  0.903200  1.0  0.1192
  H  H187  1  0.989200  0.918900  0.407200  1.0  0.1195
  H  H188  1  0.880900  0.370100  0.393000  1.0  0.1236
  H  H189  1  0.521900  0.963400  0.026800  1.0  0.1181
  H  H190  1  0.463600  0.394700  0.175900  1.0  0.1046
  H  H191  1  0.631500  0.679800  0.101300  1.0  0.1225
  H  H192  1  0.863800  0.604600  0.337900  1.0  0.1072
  H  H193  1  0.913700  0.793100  0.927600  1.0  0.1223
  H  H194  1  0.616600  0.310800  0.051700  1.0  0.1121
  H  H195  1  0.772600  0.003500  0.400300  1.0  0.123
  H  H196  1  0.977900  0.566100  0.450700  1.0  0.1179
  H  H197  1  0.178700  0.131000  0.604200  1.0  0.125
  H  H198  1  0.569500  0.162600  0.506800  1.0  0.1195
  H  H199  1  0.403200  0.716800  0.885600  1.0  0.1119
  H  H200  1  0.072300  0.545700  0.294700  1.0  0.1125
  H  H201  1  0.762200  0.125800  0.548800  1.0  0.12
  H  H202  1  0.020900  0.616600  0.051700  1.0  0.1124
  H  H203  1  0.545700  0.222500  0.905000  1.0  0.1065
  H  H204  1  0.011200  0.849400  0.684600  1.0  0.1028
  H  H205  1  0.104700  0.729600  0.780900  1.0  0.1109
  H  H206  1  0.662900  0.886600  0.743100  1.0  0.1154
  H  H207  1  0.849400  0.454800  0.684600  1.0  0.1024
  H  H208  1  0.940900  0.401000  0.163000  1.0  0.1106
  H  H209  1  0.533900  0.070600  0.273100  1.0  0.1084
  H  H210  1  0.487500  0.048000  0.815700  1.0  0.1114
  H  H211  1  0.571700  0.586600  0.794400  1.0  0.1217
  H  H212  1  0.227400  0.996500  0.599700  1.0  0.1229
  H  H213  1  0.737000  0.339200  0.992100  1.0  0.12
  H  H214  1  0.875700  0.274500  0.513600  1.0  0.1176
  H  H215  1  0.573300  0.101600  0.160300  1.0  0.114
  H  H216  1  0.994700  0.022100  0.549300  1.0  0.1168
  H  H217  1  0.913900  0.821300  0.395800  1.0  0.1225
  H  H218  1  0.629900  0.644000  0.607000  1.0  0.1243
  H  H219  1  0.468300  0.896700  0.133000  1.0  0.108
  H  H220  1  0.478900  0.505500  0.950100  1.0  0.1216
  H  H221  1  0.980000  0.575700  0.015700  1.0  0.1034
  H  H222  1  0.957600  0.490500  0.507100  1.0  0.1167
  H  H223  1  0.964800  0.378100  0.226600  1.0  0.1019
  H  H224  1  0.455700  0.008800  0.992600  1.0  0.1161
  H  H225  1  0.178200  0.304500  0.753900  1.0  0.1195
  H  H226  1  0.937300  0.695300  0.020900  1.0  0.1068
  H  H227  1  0.046600  0.679900  0.692800  1.0  0.1086
  H  H228  1  0.064500  0.623500  0.049000  1.0  0.1127
  H  H229  1  0.099700  0.359000  0.841200  1.0  0.1058
  H  H230  1  0.999500  0.754900  0.828600  1.0  0.1075
  H  H231  1  0.036700  0.533300  0.324100  1.0  0.1098
  H  H232  1  0.796000  0.675600  0.365800  1.0  0.1025
  H  H233  1  0.988800  0.150600  0.315400  1.0  0.1023
  H  H234  1  0.551300  0.765800  0.096800  1.0  0.1176
  H  H235  1  0.869000  0.913900  0.395800  1.0  0.1241
  H  H236  1  0.083400  0.743100  0.672700  1.0  0.1089
  H  H237  1  0.268300  0.879100  0.186100  1.0  0.1167
  H  H238  1  0.045100  0.827800  0.404200  1.0  0.1077
  H  H239  1  0.837700  0.775300  0.014300  1.0  0.116
  H  H240  1  0.223900  0.298600  0.663900  1.0  0.1271
  H  H241  1  0.621900  0.569500  0.773400  1.0  0.1031
  H  H242  1  0.206900  0.634400  0.072400  1.0  0.1227
  H  H243  1  0.575700  0.428600  0.015700  1.0  0.103
  H  H244  1  0.204700  0.297200  0.247600  1.0  0.1473
  H  H245  1  0.519400  0.071900  0.484300  1.0  0.1019
  H  H246  1  0.068300  0.263000  0.007900  1.0  0.1239
  H  H247  1  0.756000  0.221900  0.277900  1.0  0.1216
  H  H248  1  0.947900  0.914700  0.403000  1.0  0.1163
  H  H249  1  0.301600  0.806900  0.158800  1.0  0.122
  H  H250  1  0.466700  0.894100  0.675900  1.0  0.1104
  H  H251  1  0.334500  0.396800  0.339300  1.0  0.1254
  H  H252  1  0.000500  0.245100  0.171400  1.0  0.1077
  H  H253  1  0.320200  0.412600  0.898700  1.0  0.1215
  H  H254  1  0.234200  0.413900  0.903200  1.0  0.1186
  H  H255  1  0.412300  0.868800  0.427200  1.0  0.1217
  H  H256  1  0.620700  0.143300  0.106600  1.0  0.1181
  H  H257  1  0.378500  0.954900  0.153700  1.0  0.1038
  H  H258  1  0.813600  0.223900  0.663900  1.0  0.1264
  H  H259  1  0.835200  0.426700  0.839700  1.0  0.1095
  H  H260  1  0.820000  0.451700  0.807900  1.0  0.115
  H  H261  1  0.059100  0.599000  0.837000  1.0  0.111
  H  H262  1  0.519400  0.809900  0.551500  1.0  0.1091
  H  H263  1  0.716800  0.994400  0.885600  1.0  0.1122
  H  H264  1  0.854500  0.357500  0.956100  1.0  0.1223
  H  H265  1  0.324400  0.837400  0.634200  1.0  0.1018
  H  H266  1  0.384800  0.104700  0.780900  1.0  0.111
  H  H267  1  0.843900  0.630700  0.307900  1.0  0.1283
  H  H268  1  0.580700  0.046600  0.692800  1.0  0.1094
  H  H269  1  0.020000  0.424300  0.984300  1.0  0.1031
  H  H270  1  0.581400  0.509600  0.093800  1.0  0.109
  H  H271  1  0.504900  0.783100  0.614500  1.0  0.1092
  H  H272  1  0.729600  0.384800  0.780900  1.0  0.1107
  H  H273  1  0.933100  0.707500  0.742500  1.0  0.1088
  H  H274  1  0.136200  0.395400  0.662100  1.0  0.1075
  H  H275  1  0.047300  0.571700  0.794400  1.0  0.1204
  H  H276  1  0.612400  0.836700  0.760500  1.0  0.1157
  H  H277  1  0.336200  0.875700  0.513600  1.0  0.1172
  H  H278  1  0.209600  0.387600  0.239500  1.0  0.1149
  H  H279  1  0.331700  0.858400  0.455700  1.0  0.1192
  H  H280  1  0.430500  0.964800  0.226600  1.0  0.1034
  H  H281  1  0.533300  0.105900  0.324100  1.0  0.1111
  H  H282  1  0.484400  0.906800  0.155500  1.0  0.1087
  H  H283  1  0.478100  0.036600  0.973200  1.0  0.1195
  H  H284  1  0.870600  0.379300  0.893400  1.0  0.1169
  H  H285  1  0.238600  0.225300  0.784800  1.0  0.1175
  H  H286  1  0.496500  0.727800  0.098000  1.0  0.1086
  H  H287  1  0.590400  0.015600  0.345100  1.0  0.1252
  H  H288  1  0.734400  0.947900  0.403000  1.0  0.1149
  H  H289  1  0.217500  0.843900  0.307900  1.0  0.1287
  H  H290  1  0.728600  0.523400  0.640900  1.0  0.1196
  H  H291  1  0.542900  0.455700  0.992600  1.0  0.116
  H  H292  1  0.141600  0.645800  0.544300  1.0  0.1188
  H  H293  1  0.763400  0.178200  0.753900  1.0  0.12
  H  H294  1  0.512100  0.478100  0.973200  1.0  0.12
  H  H295  1  0.172100  0.292700  0.868500  1.0  0.1084
  H  H296  1  0.081100  0.315300  0.592800  1.0  0.12
  H  H297  1  0.093200  0.546700  0.844500  1.0  0.108
  H  H298  1  0.634400  0.086300  0.072400  1.0  0.1234
  H  H299  1  0.154300  0.781400  0.721800  1.0  0.1242
  H  H300  1  0.868800  0.291700  0.427200  1.0  0.1232
  H  H301  1  0.856700  0.870600  0.893400  1.0  0.1173
  H  H302  1  0.086100  0.178700  0.604200  1.0  0.1229
  H  H303  1  0.034200  0.536400  0.824100  1.0  0.1038
  H  H304  1  0.454800  0.011200  0.684600  1.0  0.1032
  H  H305  1  0.111300  0.776700  0.720600  1.0  0.1081
  H  H306  1  0.267300  0.698400  0.841200  1.0  0.1205
  H  H307  1  0.264600  0.895700  0.388500  1.0  0.1224
  H  H308  1  0.271400  0.476600  0.359100  1.0  0.1191
  H  H309  1  0.843300  0.733700  0.043400  1.0  0.1169
  H  H310  1  0.372700  0.837700  0.014300  1.0  0.1133
  H  H311  1  0.066900  0.292500  0.257500  1.0  0.1096
  H  H312  1  0.988600  0.462900  0.526500  1.0  0.1104
  H  H313  1  0.793100  0.365600  0.927600  1.0  0.1225
  H  H314  1  0.604600  0.193700  0.337900  1.0  0.1061
  H  H315  1  0.502000  0.468300  0.133000  1.0  0.1105
  H  H316  1  0.476600  0.892900  0.359100  1.0  0.1194
  H  H317  1  0.150600  0.545200  0.315400  1.0  0.1027
  H  H318  1  0.379600  0.843300  0.043400  1.0  0.1168
  H  H319  1  0.326800  0.545700  0.905000  1.0  0.1069
  H  H320  1  0.395400  0.806300  0.662100  1.0  0.1065
  H  H321  1  0.599000  0.504900  0.837000  1.0  0.1124
  H  H322  1  0.778100  0.255800  0.722100  1.0  0.1211
  H  H323  1  0.790400  0.612400  0.760500  1.0  0.1153
  H  H324  1  0.454300  0.912700  0.705300  1.0  0.1148
  H  H325  1  0.701400  0.186400  0.336100  1.0  0.1267
  H  H326  1  0.556300  0.005700  0.337000  1.0  0.112
  H  H327  1  0.815200  0.581400  0.093800  1.0  0.1108
  H  H328  1  0.707400  0.662900  0.743100  1.0  0.1177
  H  H329  1  0.190100  0.880800  0.448500  1.0  0.1094
  H  H330  1  0.827900  0.707300  0.131500  1.0  0.1084
  H  H331  1  0.564000  0.156400  0.477400  1.0  0.106
  H  H332  1  0.274500  0.336200  0.513600  1.0  0.119
  H  H333  1  0.164800  0.573300  0.160300  1.0  0.109
  H  H334  1  0.928100  0.075600  0.515700  1.0  0.1022
  H  H335  1  0.802200  0.564000  0.477400  1.0  0.1063
  H  H336  1  0.143300  0.129400  0.106600  1.0  0.1182
  H  H337  1  0.156700  0.266300  0.956600  1.0  0.1171
  H  H338  1  0.119200  0.519400  0.551500  1.0  0.1087
  H  H339  1  0.603800  0.235300  0.111700  1.0  0.1195
  H  H340  1  0.537100  0.978000  0.473500  1.0  0.1106
  H  H341  1  0.906800  0.453300  0.155500  1.0  0.1082
  H  H342  1  0.765800  0.586100  0.096800  1.0  0.1184
  H  H343  1  0.412600  0.368500  0.898700  1.0  0.1211
  H  H344  1  0.996500  0.176400  0.599700  1.0  0.1234
  H  H345  1  0.487900  0.521900  0.026800  1.0  0.1204
  H  H346  1  0.882900  0.790600  0.760200  1.0  0.1042
  H  H347  1  0.831900  0.854500  0.956100  1.0  0.1229
  H  H348  1  0.695300  0.346500  0.020900  1.0  0.1068
  H  H349  1  0.222500  0.326800  0.905000  1.0  0.1059
  H  H350  1  0.495100  0.216900  0.385500  1.0  0.1088
  H  H351  1  0.035200  0.621900  0.773400  1.0  0.102
  H  H352  1  0.666500  0.268300  0.186100  1.0  0.1164
  H  H353  1  0.223300  0.608600  0.279400  1.0  0.1096
  H  H354  1  0.774700  0.248700  0.215200  1.0  0.1159
  H  H355  1  0.627300  0.162300  0.985700  1.0  0.1145
  H  H356  1  0.070600  0.665500  0.660700  1.0  0.1238
  H  H357  1  0.351200  0.512500  0.184300  1.0  0.1115
  H  H358  1  0.641000  0.299900  0.158800  1.0  0.1048
  H  H359  1  0.225300  0.751300  0.784800  1.0  0.1167
  H  H360  1  0.235300  0.049200  0.111700  1.0  0.1185
  H  H361  1  0.454300  0.777500  0.095000  1.0  0.1058
  H  H362  1  0.761400  0.774700  0.215200  1.0  0.1161
  H  H363  1  0.071900  0.924400  0.484300  1.0  0.1016
  H  H364  1  0.156400  0.802200  0.477400  1.0  0.1067
  H  H365  1  0.583000  0.000500  0.171400  1.0  0.1078
  H  H366  1  0.707500  0.616900  0.742500  1.0  0.1073
  H  H367  1  0.346500  0.937300  0.020900  1.0  0.1064
  H  H368  1  0.722900  0.045100  0.404200  1.0  0.1069
  H  H369  1  0.735400  0.104300  0.611500  1.0  0.1219
  H  H370  1  0.012600  0.455500  0.653400  1.0  0.1027
  H  H371  1  0.642500  0.168100  0.043900  1.0  0.1225
  H  H372  1  0.180000  0.548300  0.192100  1.0  0.1145
  H  H373  1  0.809900  0.119200  0.551500  1.0  0.1093
  H  H374  1  0.250500  0.204700  0.247600  1.0  0.1477
  H  H375  1  0.689200  0.979100  0.948300  1.0  0.1125
  H  H376  1  0.914700  0.734400  0.403000  1.0  0.1163
  H  H377  1  0.451700  0.920400  0.807900  1.0  0.1151
  H  H378  1  0.515600  0.093200  0.844500  1.0  0.1095
  H  H379  1  0.881800  0.233400  0.543300  1.0  0.1119
  H  H380  1  0.337100  0.113400  0.256900  1.0  0.1147
  H  H381  1  0.874200  0.436800  0.451200  1.0  0.121
  H  H382  1  0.097500  0.504900  0.614500  1.0  0.1088
  H  H383  1  0.732700  0.301600  0.158800  1.0  0.1201
  H  H384  1  0.545700  0.087300  0.294700  1.0  0.1146
  H  H385  1  0.457100  0.544300  0.007400  1.0  0.1165
  H  H386  1  0.620400  0.156700  0.956600  1.0  0.1173
  H  H387  1  0.509500  0.955200  0.492900  1.0  0.1184
  H  H388  1  0.984400  0.951100  0.654900  1.0  0.1247
  H  H389  1  0.666667  0.172100  0.868500  1.0  0.1089
  H  H390  1  0.426700  0.898400  0.839700  1.0  0.1126
  H  H391  1  0.401000  0.495100  0.163000  1.0  0.1124
  H  H392  1  0.744200  0.756000  0.277900  1.0  0.1218
  H  H393  1  0.918900  0.684700  0.407200  1.0  0.1204
  H  H394  1  0.176400  0.227400  0.599700  1.0  0.1227
  H  H395  1  0.233400  0.341500  0.543300  1.0  0.1121
  H  H396  1  0.503500  0.272200  0.902000  1.0  0.1094
  H  H397  1  0.392300  0.977300  0.860100  1.0  0.1173
  H  H398  1  0.396800  0.929400  0.339300  1.0  0.1245
  H  H399  1  0.783100  0.097500  0.614500  1.0  0.1076
  H  H400  1  0.224700  0.627300  0.985700  1.0  0.1159
  H  H401  1  0.521100  0.494500  0.049900  1.0  0.1215
  H  H402  1  0.383400  0.689200  0.948300  1.0  0.1125
  H  H403  1  0.341500  0.881800  0.543300  1.0  0.1111
  H  H404  1  0.378100  0.430500  0.226600  1.0  0.1035
  H  H405  1  0.879100  0.666500  0.186100  1.0  0.1155
  H  H406  1  0.679900  0.580700  0.692800  1.0  0.1106
  H  H407  1  0.587400  0.631500  0.101300  1.0  0.1213
  H  H408  1  0.156100  0.369300  0.692100  1.0  0.1278
  H  H409  1  0.428300  0.413400  0.205600  1.0  0.1217
  H  H410  1  0.122400  0.533900  0.273100  1.0  0.1069
  H  H411  1  0.684700  0.989200  0.407200  1.0  0.1193
  H  H412  1  0.935500  0.376500  0.951000  1.0  0.1118
  H  H413  1  0.509600  0.815200  0.093800  1.0  0.1101
  H  H414  1  0.379300  0.856700  0.893400  1.0  0.1176
  H  H415  1  0.766600  0.658500  0.456700  1.0  0.1122
  H  H416  1  0.731700  0.120900  0.813900  1.0  0.1162
  H  H417  1  0.548300  0.079600  0.192100  1.0  0.1155
  H  H418  1  0.320100  0.419300  0.307200  1.0  0.1094
  H  H419  1  0.292600  0.337100  0.256900  1.0  0.1179
  H  H420  1  0.413400  0.952700  0.205600  1.0  0.1225
  H  H421  1  0.062700  0.304700  0.979100  1.0  0.1064
  H  H422  1  0.743100  0.500800  0.672700  1.0  0.1113
  H  H423  1  0.821300  0.869000  0.395800  1.0  0.1239
  H  H424  1  0.365600  0.913700  0.927600  1.0  0.1234
  H  H425  1  0.566300  0.882900  0.760200  1.0  0.1061
  H  H426  1  0.131000  0.086100  0.604200  1.0  0.1235
  H  H427  1  0.044800  0.957600  0.507100  1.0  0.1173
  H  H428  1  0.315300  0.010800  0.592800  1.0  0.1189
  H  H429  1  0.031200  0.000100  0.367900  1.0  0.1002
  H  H430  1  0.101000  0.556300  0.337000  1.0  0.1107
  H  H431  1  0.451200  0.264600  0.388500  1.0  0.122
  H  H432  1  0.117100  0.209400  0.239800  1.0  0.1036
  H  H433  1  0.172200  0.277100  0.595800  1.0  0.1066
  H  H434  1  0.782500  0.156100  0.692100  1.0  0.1283
  H  H435  1  0.770300  0.392300  0.860100  1.0  0.1179
  H  H436  1  0.085300  0.265600  0.597000  1.0  0.116
  H  H437  1  0.548800  0.735400  0.611500  1.0  0.1211
  H  H438  1  0.008800  0.542900  0.992600  1.0  0.1142
  H  H439  1  0.900300  0.641000  0.158800  1.0  0.1058
  H  H440  1  0.916600  0.256900  0.327300  1.0  0.1096
  H  H441  1  0.754900  0.417000  0.828600  1.0  0.107
  H  H442  1  0.880800  0.480600  0.448500  1.0  0.109
  H  H443  1  0.342500  0.154300  0.721800  1.0  0.124
  H  H444  1  0.394700  0.965800  0.175900  1.0  0.1026
  H  H445  1  0.708300  0.587700  0.572800  1.0  0.1237
  H  H446  1  0.821800  0.695500  0.246100  1.0  0.1198
  H  H447  1  0.823600  0.772600  0.400300  1.0  0.1225
  H  H448  1  0.615200  0.895300  0.219100  1.0  0.1101
  H  H449  1  0.512900  0.378500  0.153700  1.0  0.1028
  H  H450  1  0.086300  0.206900  0.072400  1.0  0.1221
  H  H451  1  0.197800  0.436000  0.522600  1.0  0.1066
  H  H452  1  0.304700  0.653500  0.979100  1.0  0.1066
  H  H453  1  0.466100  0.929400  0.726900  1.0  0.1083
  H  H454  1  0.951100  0.409600  0.654900  1.0  0.1224
  H  H455  1  0.487100  0.621500  0.846300  1.0  0.1031
  H  H456  1  0.896700  0.502000  0.133000  1.0  0.1096
  H  H457  1  0.931700  0.737000  0.992100  1.0  0.1241
  H  H458  1  0.695500  0.236600  0.246100  1.0  0.1193
  H  H459  1  0.297200  0.250500  0.247600  1.0  0.1493
  H  H460  1  0.644000  0.119100  0.607000  1.0  0.1229
  H  H461  1  0.845700  0.218600  0.278200  1.0  0.1236
  H  H462  1  0.216900  0.902500  0.385500  1.0  0.1073
  H  H463  1  0.048900  0.590400  0.345100  1.0  0.1227
  H  H464  1  0.238900  0.430500  0.493200  1.0  0.1203
  H  H465  1  0.118200  0.766600  0.456700  1.0  0.1122
  H  H466  1  0.761100  0.569500  0.506800  1.0  0.1192
  H  H467  1  0.858400  0.354200  0.455700  1.0  0.119
  H  H468  1  0.193700  0.863800  0.337900  1.0  0.1066
  H  H469  1  0.299900  0.900300  0.158800  1.0  0.1062
  H  H470  1  0.679800  0.587400  0.101300  1.0  0.121
  H  H471  1  0.707300  0.333333  0.131500  1.0  0.109
  H  H472  1  0.963400  0.487900  0.026800  1.0  0.1195
  H  H473  1  0.418600  0.490400  0.906200  1.0  0.1086
  H  H474  1  0.895300  0.270400  0.219100  1.0  0.1108
  H  H475  1  0.899000  0.443700  0.663000  1.0  0.1107
  H  H476  1  0.266300  0.620400  0.956600  1.0  0.1166
  H  H477  1  0.310800  0.020900  0.051700  1.0  0.1117
  H  H478  1  0.292500  0.383100  0.257500  1.0  0.1079
  H  H479  1  0.733700  0.379600  0.043400  1.0  0.1169
  H  H480  1  0.168100  0.145500  0.043900  1.0  0.1227
  H  H481  1  0.453300  0.484400  0.155500  1.0  0.109
  H  H482  1  0.586600  0.047300  0.794400  1.0  0.1217
  H  H483  1  0.877600  0.466100  0.726900  1.0  0.1065
  H  H484  1  0.322300  0.503500  0.902000  1.0  0.1092
  H  H485  1  0.339200  0.931700  0.992100  1.0  0.1226
  H  H486  1  0.494500  0.934500  0.049900  1.0  0.1221
  H  H487  1  0.292700  0.666667  0.868500  1.0  0.108
  H  H488  1  0.776100  0.701400  0.336100  1.0  0.1274
  H  H489  1  0.368500  0.320200  0.898700  1.0  0.1211
  H  H490  1  0.490500  0.044800  0.507100  1.0  0.1188
  H  H491  1  0.776700  0.391400  0.720600  1.0  0.1095
  H  H492  1  0.087300  0.072300  0.294700  1.0  0.1126
  H  H493  1  0.005700  0.101000  0.337000  1.0  0.1106
  H  H494  1  0.409600  0.984400  0.654900  1.0  0.1248
  H  H495  1  0.505500  0.065500  0.950100  1.0  0.1218
  H  H496  1  0.512500  0.952000  0.184300  1.0  0.1108
  H  H497  1  0.186400  0.776100  0.336100  1.0  0.1266
  H  H498  1  0.668300  0.141600  0.544300  1.0  0.1182
  H  H499  1  0.954900  0.512900  0.153700  1.0  0.1034
  H  H500  1  0.605300  0.034200  0.824100  1.0  0.1022
  H  H501  1  0.354200  0.331700  0.455700  1.0  0.1212
  H  H502  1  0.070600  0.122400  0.273100  1.0  0.1083
  H  H503  1  0.734500  0.336000  0.781800  1.0  0.1198
  H  H504  1  0.333500  0.731700  0.813900  1.0  0.117
  H  H505  1  0.052100  0.085300  0.597000  1.0  0.116
  H  H506  1  0.751300  0.238600  0.784800  1.0  0.1172
  H  H507  1  0.387600  0.163300  0.239500  1.0  0.1157
  H  H508  1  0.545200  0.988800  0.315400  1.0  0.1031
  H  H509  1  0.790600  0.566300  0.760200  1.0  0.1044
  H  H510  1  0.498000  0.531700  0.867000  1.0  0.1094
  H  H511  1  0.075600  0.480600  0.515700  1.0  0.1014
  H  H512  1  0.417000  0.999500  0.828600  1.0  0.1079
  H  H513  1  0.391400  0.111300  0.720600  1.0  0.1088
  H  H514  1  0.256900  0.499200  0.327300  1.0  0.1113
  H  H515  1  0.664000  0.852300  0.218200  1.0  0.1197
  H  H516  1  0.544300  0.991200  0.007400  1.0  0.1155
  H  H517  1  0.105900  0.036700  0.324100  1.0  0.1094
  H  H518  1  0.603200  0.070600  0.660700  1.0  0.1243
  H  H519  1  0.119100  0.629900  0.607000  1.0  0.1246
  H  H520  1  0.162600  0.796000  0.365800  1.0  0.1016
  H  H521  1  0.987400  0.544500  0.346600  1.0  0.1025
  H  H522  1  0.725500  0.663800  0.486400  1.0  0.1187
  H  H523  1  0.125800  0.563200  0.548800  1.0  0.1197
  H  H524  1  0.843600  0.197800  0.522600  1.0  0.1068
  H  H525  1  0.448700  0.234200  0.903200  1.0  0.119
  H  H526  1  0.147700  0.734500  0.781800  1.0  0.1185
  H  H527  1  0.000100  0.600800  0.367900  1.0  0.1003
  H  H528  1  0.107100  0.728600  0.640900  1.0  0.1195
  H  H529  1  0.430500  0.837400  0.493200  1.0  0.1196
  H  H530  1  0.616900  0.933100  0.742500  1.0  0.1081
  H  H531  1  0.145500  0.642500  0.043900  1.0  0.1224
  H  H532  1  0.994300  0.899000  0.663000  1.0  0.1102
  H  H533  1  0.193100  0.267300  0.841200  1.0  0.122
  H  H534  1  0.648800  0.487500  0.815700  1.0  0.1112
  H  H535  1  0.204000  0.324400  0.634200  1.0  0.1025
  H  H536  1  0.837400  0.204000  0.634200  1.0  0.1027
  H  H537  1  0.898400  0.835200  0.839700  1.0  0.1091
  H  H538  1  0.927700  0.454300  0.705300  1.0  0.1135
  H  H539  1  0.048000  0.648800  0.815700  1.0  0.1096
  H  H540  1  0.103300  0.498000  0.867000  1.0  0.1091
  H  H541  1  0.022100  0.433900  0.549300  1.0  0.1171
  H  H542  1  0.263000  0.660800  0.007900  1.0  0.1192
  H  H543  1  0.727800  0.677700  0.098000  1.0  0.1097
  H  H544  1  0.236600  0.821800  0.246100  1.0  0.1204
  H  H545  1  0.950800  0.396200  0.888300  1.0  0.1188
  H  H546  1  0.162600  0.761100  0.506800  1.0  0.1185
  H  H547  1  0.665500  0.603200  0.660700  1.0  0.126
  H  H548  1  0.079600  0.180000  0.192100  1.0  0.1155
  H  H549  1  0.436000  0.843600  0.522600  1.0  0.1059
  H  H550  1  0.229700  0.607700  0.139900  1.0  0.1179
  H  H551  1  0.383100  0.066900  0.257500  1.0  0.1078
  H  H552  1  0.902500  0.495100  0.385500  1.0  0.1081
  H  H553  1  0.596800  0.283200  0.114400  1.0  0.1123
  H  H554  1  0.433700  0.117100  0.239800  1.0  0.1047
  H  H555  1  0.462900  0.022000  0.526500  1.0  0.1112
  H  H556  1  0.965800  0.463600  0.175900  1.0  0.103
  H  H557  1  0.566100  0.005300  0.450700  1.0  0.118
  H  H558  1  0.011400  0.537100  0.473500  1.0  0.1108
  H  H559  1  0.827800  0.722900  0.404200  1.0  0.1069
  H  H560  1  0.675600  0.162600  0.365800  1.0  0.1017
  H  H561  1  0.586100  0.551300  0.096800  1.0  0.1183
  H  H562  1  0.277100  0.954900  0.595800  1.0  0.1067
  H  H563  1  0.920400  0.820000  0.807900  1.0  0.115
  H  H564  1  0.124300  0.725500  0.486400  1.0  0.1177
  H  H565  1  0.608600  0.888700  0.279400  1.0  0.11
  H  H566  1  0.428600  0.980000  0.015700  1.0  0.1029
  H  H567  1  0.369300  0.782500  0.692100  1.0  0.1279
  H  H568  1  0.531700  0.103300  0.867000  1.0  0.1082
  H  H569  1  0.645800  0.668300  0.544300  1.0  0.1205
  H  H570  1  0.894100  0.963300  0.675900  1.0  0.11
  H  H571  1  0.121500  0.987400  0.346600  1.0  0.1028
  H  H572  1  0.270400  0.615200  0.219100  1.0  0.1107
  H  H573  1  0.104300  0.548800  0.611500  1.0  0.1206
  H  H574  1  0.587700  0.131200  0.572800  1.0  0.1206
  H  H575  1  0.436800  0.237800  0.451200  1.0  0.1209
  H  H576  1  0.120900  0.333500  0.813900  1.0  0.1158
  C  C577  1  0.020900  0.228900  0.169300  1.0  -0.0469
  C  C578  1  0.489900  0.991900  0.507300  1.0  -0.0087
  C  C579  1  0.562700  0.037700  0.184900  1.0  -0.1378
  C  C580  1  0.840400  0.896400  0.395800  1.0  0.0687
  C  C581  1  0.277800  0.223800  0.247600  1.0  0.0575
  C  C582  1  0.018300  0.105300  0.324100  1.0  -0.1415
  C  C583  1  0.021000  0.393000  0.915000  1.0  0.6533
  C  C584  1  0.341700  0.500700  0.902900  1.0  -0.1298
  C  C585  1  0.394000  0.341000  0.899000  1.0  0.1447
  C  C586  1  0.487500  0.948500  0.038500  1.0  -0.0456
  C  C587  1  0.483000  0.221000  0.399000  1.0  -0.067
  C  C588  1  0.116400  0.525400  0.563800  1.0  -0.0525
  C  C589  1  0.826700  0.193700  0.645900  1.0  -0.0656
  C  C590  1  0.275300  0.974300  0.596100  1.0  -0.0537
  C  C591  1  0.607000  0.690000  0.577000  1.0  -0.0298
  C  C592  1  0.660000  0.606000  0.101000  1.0  -0.1134
  C  C593  1  0.421500  0.925500  0.140500  1.0  -0.0868
  C  C594  1  0.238600  0.756600  0.772200  1.0  -0.0323
  C  C595  1  0.860900  0.857900  0.906300  1.0  -0.1024
  C  C596  1  0.864600  0.210600  0.535200  1.0  -0.1459
  C  C597  1  0.862200  0.348200  0.443400  1.0  0.0213
  C  C598  1  0.916600  0.465600  0.155200  1.0  -0.1058
  C  C599  1  0.545400  0.041400  0.464800  1.0  -0.1321
  C  C600  1  0.498900  0.599900  0.846300  1.0  -0.0888
  C  C601  1  0.855600  0.229600  0.266200  1.0  -0.1329
  C  C602  1  0.060600  0.928600  0.449200  1.0  0.6883
  C  C603  1  0.983500  0.825500  0.721500  1.0  0.7121
  C  C604  1  0.244500  0.794500  0.227500  1.0  0.0844
  C  C605  1  0.325000  0.719000  0.825000  1.0  -0.1458
  C  C606  1  0.196700  0.285700  0.753900  1.0  -0.0627
  C  C607  1  0.310000  0.874000  0.423000  1.0  -0.0353
  C  C608  1  0.993800  0.532800  0.475600  1.0  -0.1138
  C  C609  1  0.900200  0.000200  0.653400  1.0  -0.0538
  C  C610  1  0.779000  0.103000  0.601000  1.0  -0.0687
  C  C611  1  0.054600  0.132600  0.601200  1.0  -0.0477
  C  C612  1  0.057000  0.118000  0.286000  1.0  -0.0714
  C  C613  1  0.243000  0.250000  0.735000  1.0  -0.0803
  C  C614  1  0.797000  0.191000  0.681000  1.0  0.0612
  C  C615  1  0.153100  0.375100  0.662700  1.0  -0.0447
  C  C616  1  0.087700  0.545700  0.298900  1.0  -0.0919
  C  C617  1  0.784100  0.723100  0.264700  1.0  0.0412
  C  C618  1  0.638600  0.153600  0.056200  1.0  -0.0662
  C  C619  1  0.521900  0.079900  0.670300  1.0  -0.045
  C  C620  1  0.297900  0.007900  0.594300  1.0  -0.1081
  C  C621  1  0.752800  0.392800  0.750600  1.0  -0.1155
  C  C622  1  0.623900  0.451900  0.092300  1.0  0.704
  C  C623  1  0.052700  0.942700  0.481900  1.0  -0.0677
  C  C624  1  0.218000  0.644000  0.019000  1.0  -0.0732
  C  C625  1  0.943000  0.882000  0.714000  1.0  -0.0718
  C  C626  1  0.266600  0.052600  0.062200  1.0  -0.1146
  C  C627  1  0.021000  0.874000  0.406000  1.0  -0.1233
  C  C628  1  0.632100  0.529100  0.097700  1.0  0.0312
  C  C629  1  0.103000  0.517000  0.601000  1.0  -0.0685
  C  C630  1  0.205800  0.317800  0.663600  1.0  -0.1318
  C  C631  1  0.974400  0.550400  0.461800  1.0  -0.1089
  C  C632  1  0.595200  0.034200  0.150400  1.0  -0.1217
  C  C633  1  0.510100  0.008100  0.492700  1.0  -0.0098
  C  C634  1  0.306700  0.194700  0.247900  1.0  -0.0739
  C  C635  1  0.986600  0.025600  0.538200  1.0  -0.1078
  C  C636  1  0.967200  0.505200  0.024400  1.0  -0.1139
  C  C637  1  0.797000  0.236000  0.247000  1.0  -0.1394
  C  C638  1  0.982400  0.397400  0.898800  1.0  -0.088
  C  C639  1  0.266500  0.755500  0.772500  1.0  0.0877
  C  C640  1  0.512500  0.051500  0.961500  1.0  -0.0465
  C  C641  1  0.883600  0.474600  0.436200  1.0  -0.0534
  C  C642  1  0.505200  0.503200  0.024400  1.0  -0.1147
  C  C643  1  0.243400  0.767400  0.227800  1.0  -0.0319
  C  C644  1  0.116000  0.560000  0.580000  1.0  0.0757
  C  C645  1  0.535200  0.094200  0.651400  1.0  -0.1577
  C  C646  1  0.765600  0.640600  0.467200  1.0  -0.0904
  C  C647  1  0.818900  0.238900  0.247300  1.0  -0.1572
  C  C648  1  0.078400  0.988400  0.359800  1.0  -0.0603
  C  C649  1  0.329700  0.171700  0.247900  1.0  -0.0508
  C  C650  1  0.126000  0.301000  0.594000  1.0  -0.1214
  C  C651  1  0.606900  0.126900  0.448300  1.0  0.7001
  C  C652  1  0.612700  0.123700  0.592900  1.0  0.1253
  C  C653  1  0.037900  0.494900  0.504300  1.0  -0.1528
  C  C654  1  0.773700  0.613700  0.756900  1.0  -0.1367
  C  C655  1  0.383700  0.907700  0.888900  1.0  -0.1028
  C  C656  1  0.474600  0.205600  0.436200  1.0  -0.0502
  C  C657  1  0.973900  0.385900  0.936300  1.0  -0.1265
  C  C658  1  0.742500  0.347500  0.769500  1.0  -0.0612
  C  C659  1  0.711200  0.352200  0.019400  1.0  -0.0765
  C  C660  1  0.275800  0.356800  0.253600  1.0  -0.1297
  C  C661  1  0.560000  0.744000  0.580000  1.0  0.0808
  C  C662  1  0.874000  0.393000  0.423000  1.0  -0.0342
  C  C663  1  0.606600  0.301600  0.083200  1.0  -0.1022
  C  C664  1  0.131000  0.325000  0.825000  1.0  -0.1469
  C  C665  1  0.831900  0.623900  0.092300  1.0  0.702
  C  C666  1  0.453200  0.911200  0.141400  1.0  -0.0798
  C  C667  1  0.228000  0.757000  0.265000  1.0  -0.0797
  C  C668  1  0.507600  0.047600  0.811200  1.0  -0.0584
  C  C669  1  0.052600  0.618600  0.062200  1.0  -0.1137
  C  C670  1  0.885300  0.260300  0.231100  1.0  -0.0677
  C  C671  1  0.491900  0.989900  0.007300  1.0  -0.0146
  C  C672  1  0.868800  0.310800  0.426600  1.0  0.0713
  C  C673  1  0.144300  0.226300  0.243100  1.0  -0.1379
  C  C674  1  0.499300  0.745300  0.097100  1.0  -0.1297
  C  C675  1  0.134300  0.329300  0.857100  1.0  -0.1269
  C  C676  1  0.639400  0.124400  0.593800  1.0  -0.0888
  C  C677  1  0.205600  0.883600  0.436200  1.0  -0.05
  C  C678  1  0.187900  0.633900  0.073300  1.0  0.0249
  C  C679  1  0.997800  0.993800  0.475600  1.0  -0.1155
  C  C680  1  0.960100  0.359100  0.207700  1.0  -0.0943
  C  C681  1  0.867400  0.788400  0.398800  1.0  -0.0479
  C  C682  1  0.104900  0.187900  0.073300  1.0  0.0287
  C  C683  1  0.951600  0.471600  0.167200  1.0  -0.1331
  C  C684  1  0.954900  0.275900  0.294300  1.0  0.7016
  C  C685  1  0.412600  0.919600  0.125200  1.0  0.7131
  C  C686  1  0.226300  0.386300  0.243100  1.0  -0.1377
  C  C687  1  0.803300  0.714300  0.246100  1.0  -0.0609
  C  C688  1  0.342200  0.877200  0.126400  1.0  0.7107
  C  C689  1  0.724100  0.525100  0.705700  1.0  0.7025
  C  C690  1  0.536100  0.006100  0.995700  1.0  -0.1415
  C  C691  1  0.745300  0.658300  0.097100  1.0  -0.1322
  C  C692  1  0.593500  0.114500  0.611500  1.0  -0.0231
  C  C693  1  0.825500  0.469500  0.721500  1.0  0.7118
  C  C694  1  0.616300  0.913300  0.746100  1.0  -0.0524
  C  C695  1  0.634900  0.108900  0.965300  1.0  -0.0974
  C  C696  1  0.809100  0.153100  0.662700  1.0  -0.0458
  C  C697  1  0.382100  0.444100  0.213700  1.0  -0.0716
  C  C698  1  0.249100  0.577100  0.249700  1.0  0.6955
  C  C699  1  0.171700  0.250700  0.247900  1.0  -0.048
  C  C700  1  0.924100  0.249100  0.249700  1.0  0.6961
  C  C701  1  0.310100  0.431100  0.317700  1.0  -0.0642
  C  C702  1  0.522700  0.052700  0.481900  1.0  -0.0624
  C  C703  1  0.584500  0.149500  0.479500  1.0  -0.0742
  C  C704  1  0.104000  0.688000  0.628000  1.0  -0.1425
  C  C705  1  0.054300  0.580300  0.818100  1.0  0.0231
  C  C706  1  0.577200  0.687200  0.100400  1.0  -0.1605
  C  C707  1  0.041400  0.948400  0.464800  1.0  -0.1331
  C  C708  1  0.032100  0.103100  0.596700  1.0  -0.1302
  C  C709  1  0.785300  0.437300  0.815100  1.0  -0.1381
  C  C710  1  0.912300  0.454300  0.701100  1.0  -0.0912
  C  C711  1  0.438400  0.939400  0.550800  1.0  0.6877
  C  C712  1  0.547400  0.090400  0.332800  1.0  -0.0908
  C  C713  1  0.305100  0.181100  0.752700  1.0  -0.1585
  C  C714  1  0.813000  0.923000  0.397000  1.0  0.025
  C  C715  1  0.894600  0.681600  0.051200  1.0  0.7129
  C  C716  1  0.979000  0.126000  0.594000  1.0  -0.1235
  C  C717  1  0.054300  0.603300  0.824100  1.0  -0.1047
  C  C718  1  0.714300  0.301300  0.159100  1.0  -0.1171
  C  C719  1  0.116400  0.240400  0.999800  1.0  0.1236
  C  C720  1  0.537400  0.083400  0.844800  1.0  -0.1087
  C  C721  1  0.722200  0.776200  0.752400  1.0  0.0552
  C  C722  1  0.037100  0.962100  0.495700  1.0  -0.1528
  C  C723  1  0.702100  0.992100  0.405700  1.0  -0.1082
  C  C724  1  0.739700  0.376700  0.768900  1.0  -0.0681
  C  C725  1  0.329300  0.679300  0.857100  1.0  -0.1268
  C  C726  1  0.538700  0.061700  0.685900  1.0  -0.1412
  C  C727  1  0.660400  0.130400  0.575800  1.0  0.0414
  C  C728  1  0.108900  0.506900  0.583300  1.0  -0.1443
  C  C729  1  0.570400  0.440400  0.050800  1.0  0.6972
  C  C730  1  0.873400  0.234400  0.532800  1.0  -0.0871
  C  C731  1  0.974300  0.154300  0.596100  1.0  -0.0517
  C  C732  1  0.116300  0.226300  0.243100  1.0  -0.0779
  C  C733  1  0.367500  0.858500  0.015500  1.0  -0.1148
  C  C734  1  0.510900  0.491900  0.007300  1.0  -0.0204
  C  C735  1  0.547700  0.558700  0.831900  1.0  -0.0156
  C  C736  1  0.559600  0.061600  0.949200  1.0  0.6957
  C  C737  1  0.634600  0.554600  0.099200  1.0  -0.0667
  C  C738  1  0.054900  0.498900  0.846300  1.0  -0.0864
  C  C739  1  0.140500  0.742500  0.769500  1.0  -0.0629
  C  C740  1  0.223800  0.250800  0.247600  1.0  0.0559
  C  C741  1  0.861700  0.733700  0.032900  1.0  -0.092
  C  C742  1  0.763700  0.196700  0.753900  1.0  -0.063
  C  C743  1  0.643200  0.886200  0.746400  1.0  -0.1302
  C  C744  1  0.938400  0.570400  0.050800  1.0  0.6972
  C  C745  1  0.981700  0.894700  0.675900  1.0  -0.14
  C  C746  1  0.818900  0.424900  0.837300  1.0  -0.1225
  C  C747  1  0.607200  0.896200  0.249400  1.0  -0.1156
  C  C748  1  0.714300  0.236300  0.246100  1.0  -0.0636
  C  C749  1  0.143600  0.250600  0.248200  1.0  0.0655
  C  C750  1  0.846400  0.848400  0.943800  1.0  -0.0644
  C  C751  1  0.892300  0.374300  0.923100  1.0  -0.0987
  C  C752  1  0.440100  0.931100  0.818700  1.0  -0.1
  C  C753  1  0.505800  0.546800  0.858600  1.0  -0.0825
  C  C754  1  0.714000  0.267000  0.193000  1.0  -0.0115
  C  C755  1  0.236200  0.748200  0.246400  1.0  0.0721
  C  C756  1  0.694900  0.818900  0.247300  1.0  -0.1568
  C  C757  1  0.896400  0.867400  0.395800  1.0  0.0675
  C  C758  1  0.366600  0.339600  0.424200  1.0  0.0419
  C  C759  1  0.113800  0.275800  0.253600  1.0  -0.1294
  C  C760  1  0.240400  0.643400  0.999800  1.0  0.1223
  C  C761  1  0.340000  0.394000  0.899000  1.0  -0.114
  C  C762  1  0.632500  0.141500  0.984500  1.0  -0.1137
  C  C763  1  0.298100  0.718100  0.824700  1.0  0.0749
  C  C764  1  0.586600  0.912600  0.751200  1.0  -0.153
  C  C765  1  0.241500  0.632500  0.984500  1.0  -0.1096
  C  C766  1  0.310800  0.393800  0.426600  1.0  0.0712
  C  C767  1  0.847300  0.237300  0.503100  1.0  -0.1275
  C  C768  1  0.681300  0.582300  0.663100  1.0  -0.1174
  C  C769  1  0.086300  0.621300  0.078100  1.0  -0.0817
  C  C770  1  0.699700  0.118700  0.840900  1.0  -0.0524
  C  C771  1  0.989900  0.510900  0.007300  1.0  -0.016
  C  C772  1  0.526100  0.225100  0.904700  1.0  -0.0962
  C  C773  1  0.606000  0.633000  0.101000  1.0  -0.1097
  C  C774  1  0.312800  0.364800  0.899600  1.0  -0.162
  C  C775  1  0.941700  0.749700  0.750900  1.0  0.6945
  C  C776  1  0.875600  0.357600  0.406200  1.0  -0.0939
  C  C777  1  0.512500  0.421500  0.140500  1.0  -0.0846
  C  C778  1  0.962100  0.505100  0.495700  1.0  -0.1547
  C  C779  1  0.452300  0.441300  0.168100  1.0  -0.0153
  C  C780  1  0.002200  0.006200  0.524400  1.0  -0.1157
  C  C781  1  0.356600  0.883600  0.000200  1.0  0.1266
  C  C782  1  0.474900  0.954900  0.294300  1.0  0.703
  C  C783  1  0.909600  0.970600  0.667200  1.0  -0.0873
  C  C784  1  0.258200  0.356200  0.515400  1.0  -0.1194
  C  C785  1  0.191000  0.331000  0.681000  1.0  0.0638
  C  C786  1  0.371700  0.861700  0.032900  1.0  -0.0924
  C  C787  1  0.546800  0.088800  0.858600  1.0  -0.0812
  C  C788  1  0.356800  0.113800  0.253600  1.0  -0.1316
  C  C789  1  0.088800  0.505800  0.858600  1.0  -0.0797
  C  C790  1  0.767400  0.761400  0.227800  1.0  -0.0301
  C  C791  1  0.046600  0.007600  0.359200  1.0  -0.0688
  C  C792  1  0.679300  0.134300  0.857100  1.0  -0.1255
  C  C793  1  0.918900  0.818900  0.837300  1.0  -0.1212
  C  C794  1  0.396500  0.467500  0.903500  1.0  -0.094
  C  C795  1  0.159600  0.103600  0.604200  1.0  0.0693
  C  C796  1  0.008100  0.989100  0.492700  1.0  -0.0082
  C  C797  1  0.935700  0.803700  0.852900  1.0  0.0844
  C  C798  1  0.762700  0.587700  0.496900  1.0  -0.1289
  C  C799  1  0.237300  0.412300  0.503100  1.0  -0.1288
  C  C800  1  0.602600  0.278600  0.101200  1.0  -0.0905
  C  C801  1  0.882000  0.461000  0.714000  1.0  -0.0744
  C  C802  1  0.107500  0.542500  0.599500  1.0  -0.15
  C  C803  1  0.398900  0.492900  0.905300  1.0  -0.0483
  C  C804  1  0.948400  0.545400  0.464800  1.0  -0.1337
  C  C805  1  0.657800  0.122800  0.873600  1.0  0.7111
  C  C806  1  0.203000  0.764000  0.753000  1.0  -0.1405
  C  C807  1  0.121000  0.551000  0.562000  1.0  -0.1448
  C  C808  1  0.991400  0.865400  0.688800  1.0  -0.0593
  C  C809  1  0.214700  0.562700  0.184900  1.0  -0.1377
  C  C810  1  0.711600  0.634600  0.099200  1.0  -0.0691
  C  C811  1  0.873100  0.182100  0.551700  1.0  0.6999
  C  C812  1  0.870200  0.258200  0.515400  1.0  -0.1206
  C  C813  1  0.859200  0.299200  0.464400  1.0  -0.1056
  C  C814  1  0.257500  0.652500  0.230500  1.0  -0.0617
  C  C815  1  0.785700  0.913700  0.921900  1.0  -0.0819
  C  C816  1  0.962300  0.785300  0.815100  1.0  -0.1383
  C  C817  1  0.821000  0.361000  0.945000  1.0  0.1842
  C  C818  1  0.601100  0.507100  0.094700  1.0  -0.0488
  C  C819  1  0.614100  0.296100  0.063700  1.0  -0.1323
  C  C820  1  0.585600  0.714600  0.578200  1.0  -0.0693
  C  C821  1  0.301600  0.008600  0.083200  1.0  -0.1033
  C  C822  1  0.580000  0.104000  0.628000  1.0  -0.1425
  C  C823  1  0.200600  0.312600  0.700200  1.0  -0.1591
  C  C824  1  0.114500  0.680500  0.611500  1.0  -0.023
  C  C825  1  0.846900  0.624900  0.337300  1.0  -0.0461
  C  C826  1  0.137200  0.680200  0.555400  1.0  0.1047
  C  C827  1  0.530500  0.016500  0.278500  1.0  0.7128
  C  C828  1  0.642400  0.856400  0.751800  1.0  0.0665
  C  C829  1  0.384300  0.756300  0.920100  1.0  0.1015
  C  C830  1  0.883600  0.759600  0.000200  1.0  0.1245
  C  C831  1  0.557300  0.448300  0.018100  1.0  -0.0713
  C  C832  1  0.414400  0.285400  0.421800  1.0  -0.0694
  C  C833  1  0.393000  0.310000  0.423000  1.0  -0.0288
  C  C834  1  0.347500  0.140500  0.769500  1.0  -0.0636
  C  C835  1  0.043200  0.607200  0.099400  1.0  -0.1409
  C  C836  1  0.473900  0.774900  0.095300  1.0  -0.0953
  C  C837  1  0.856400  0.749400  0.751800  1.0  0.0639
  C  C838  1  0.236300  0.803300  0.246100  1.0  -0.0633
  C  C839  1  0.801300  0.627300  0.094100  1.0  -0.1003
  C  C840  1  0.617900  0.555900  0.786300  1.0  -0.0728
  C  C841  1  0.633600  0.507600  0.811200  1.0  -0.0578
  C  C842  1  0.757000  0.750000  0.265000  1.0  -0.083
  C  C843  1  0.392800  0.103800  0.750600  1.0  -0.1161
  C  C844  1  0.243700  0.060700  0.079900  1.0  0.1022
  C  C845  1  0.494900  0.962900  0.504300  1.0  -0.1546
  C  C846  1  0.296100  0.026100  0.063700  1.0  -0.1308
  C  C847  1  0.755500  0.205500  0.772500  1.0  0.0843
  C  C848  1  0.419700  0.452700  0.181900  1.0  0.0229
  C  C849  1  0.264100  0.652100  0.997700  1.0  -0.1231
  C  C850  1  0.229600  0.648600  0.266200  1.0  -0.1345
  C  C851  1  0.415500  0.850500  0.520500  1.0  -0.0736
  C  C852  1  0.857700  0.281700  0.480900  1.0  -0.0478
  C  C853  1  0.606200  0.131200  0.573400  1.0  0.0687
  C  C854  1  0.731900  0.967900  0.403300  1.0  -0.1319
  C  C855  1  0.238900  0.694900  0.247300  1.0  -0.1527
  C  C856  1  0.812100  0.366100  0.926700  1.0  0.0277
  C  C857  1  0.203000  0.809000  0.319000  1.0  0.063
  C  C858  1  0.458500  0.954500  0.035500  1.0  -0.0781
  C  C859  1  0.525500  0.487500  0.038500  1.0  -0.042
  C  C860  1  0.926700  0.318700  0.336900  1.0  -0.1178
  C  C861  1  0.590400  0.048400  0.832800  1.0  -0.1338
  C  C862  1  0.312000  0.420000  0.372000  1.0  -0.1403
  C  C863  1  0.230800  0.763800  0.753600  1.0  0.0719
  C  C864  1  0.741100  0.632100  0.097700  1.0  0.0318
  C  C865  1  0.431100  0.941100  0.317700  1.0  -0.0615
  C  C866  1  0.767600  0.380600  0.733200  1.0  -0.0641
  C  C867  1  0.699000  0.021000  0.406000  1.0  -0.1229
  C  C868  1  0.542500  0.750500  0.599500  1.0  -0.15
  C  C869  1  0.357600  0.360600  0.406200  1.0  -0.0878
  C  C870  1  0.281900  0.840900  0.175300  1.0  0.0748
  C  C871  1  0.039900  0.617900  0.786300  1.0  -0.073
  C  C872  1  0.392800  0.749800  0.900600  1.0  -0.1421
  C  C873  1  0.372600  0.894600  0.051200  1.0  0.7125
  C  C874  1  0.452700  0.945700  0.181900  1.0  0.023
  C  C875  1  0.194700  0.250700  0.247900  1.0  -0.0767
  C  C876  1  0.429600  0.559600  0.949200  1.0  0.6975
  C  C877  1  0.205500  0.266500  0.772500  1.0  0.0837
  C  C878  1  0.911200  0.494200  0.141400  1.0  -0.0806
  C  C879  1  0.242400  0.027400  0.598800  1.0  0.1087
  C  C880  1  0.470900  0.258900  0.902300  1.0  0.0327
  C  C881  1  0.812100  0.394100  0.872700  1.0  -0.1485
  C  C882  1  0.267000  0.826000  0.193000  1.0  -0.0109
  C  C883  1  0.724200  0.643200  0.746400  1.0  -0.1293
  C  C884  1  0.639800  0.205800  0.319600  1.0  -0.0421
  C  C885  1  0.001500  0.842500  0.401500  1.0  -0.1471
  C  C886  1  0.741800  0.643800  0.484600  1.0  -0.1208
  C  C887  1  0.153600  0.151600  0.056200  1.0  -0.0627
  C  C888  1  0.025700  0.845700  0.403900  1.0  -0.051
  C  C889  1  0.857900  0.374900  0.906300  1.0  -0.0913
  C  C890  1  0.187900  0.605900  0.127300  1.0  -0.1504
  C  C891  1  0.400100  0.945100  0.153700  1.0  -0.0856
  C  C892  1  0.947300  0.057300  0.518100  1.0  -0.07
  C  C893  1  0.613700  0.855700  0.756900  1.0  -0.1375
  C  C894  1  0.750000  0.228000  0.265000  1.0  -0.0807
  C  C895  1  0.800900  0.108900  0.583300  1.0  -0.1441
  C  C896  1  0.786600  0.200600  0.700200  1.0  -0.1588
  C  C897  1  0.006100  0.462100  0.995700  1.0  -0.1447
  C  C898  1  0.643400  0.116400  0.999800  1.0  0.1276
  C  C899  1  0.719000  0.131000  0.825000  1.0  -0.1461
  C  C900  1  0.051500  0.474500  0.961500  1.0  -0.0459
  C  C901  1  0.462000  0.972000  0.708000  1.0  -0.0948
  C  C902  1  0.909600  0.303600  0.352200  1.0  0.0646
  C  C903  1  0.771900  0.215900  0.735300  1.0  0.0415
  C  C904  1  0.447800  0.951800  0.681600  1.0  -0.0331
  C  C905  1  0.368800  0.839800  0.924600  1.0  0.026
  C  C906  1  0.518300  0.054300  0.824100  1.0  -0.1046
  C  C907  1  0.548100  0.168100  0.907700  1.0  0.7035
  C  C908  1  0.288400  0.365400  0.900800  1.0  -0.0668
  C  C909  1  0.420000  0.896000  0.372000  1.0  -0.1455
  C  C910  1  0.867000  0.813000  0.397000  1.0  0.0277
  C  C911  1  0.938300  0.452300  0.168100  1.0  -0.0155
  C  C912  1  0.210600  0.389600  0.535200  1.0  -0.1459
  C  C913  1  0.187200  0.794200  0.336400  1.0  -0.1328
  C  C914  1  0.457500  0.249500  0.400500  1.0  -0.1509
  C  C915  1  0.894700  0.447700  0.675900  1.0  -0.1397
  C  C916  1  0.222800  0.278800  0.247600  1.0  -0.1195
  C  C917  1  0.586700  0.566700  0.798900  1.0  -0.0976
  C  C918  1  0.993900  0.537900  0.004300  1.0  -0.1442
  C  C919  1  0.690000  0.126000  0.577000  1.0  -0.0326
  C  C920  1  0.220200  0.595200  0.150400  1.0  -0.1204
  C  C921  1  0.374300  0.810300  0.923100  1.0  -0.0979
  C  C922  1  0.766000  0.121000  0.562000  1.0  -0.1432
  C  C923  1  0.099900  0.297900  0.594300  1.0  -0.1086
  C  C924  1  0.733700  0.371700  0.032900  1.0  -0.0907
  C  C925  1  0.892000  0.523000  0.414000  1.0  0.7151
  C  C926  1  0.299200  0.377200  0.464400  1.0  -0.1071
  C  C927  1  0.394000  0.367000  0.899000  1.0  -0.1117
  C  C928  1  0.626500  0.111500  0.092500  1.0  0.2714
  C  C929  1  0.082800  0.288800  0.980600  1.0  -0.0755
  C  C930  1  0.794200  0.165200  0.680400  1.0  -0.0414
  C  C931  1  0.644000  0.119000  0.019000  1.0  -0.0746
  C  C932  1  0.992100  0.900100  0.405700  1.0  -0.1064
  C  C933  1  0.537900  0.463900  0.004300  1.0  -0.1432
  C  C934  1  0.281700  0.379700  0.480900  1.0  -0.0477
  C  C935  1  0.633000  0.660000  0.101000  1.0  -0.1143
  C  C936  1  0.654200  0.342200  0.126400  1.0  0.7115
  C  C937  1  0.945700  0.419700  0.181900  1.0  0.0239
  C  C938  1  0.397400  0.721400  0.898800  1.0  -0.0879
  C  C939  1  0.122800  0.345800  0.873600  1.0  0.7108
  C  C940  1  0.621300  0.214300  0.078100  1.0  -0.0795
  C  C941  1  0.919600  0.542600  0.125200  1.0  0.7122
  C  C942  1  0.032300  0.673300  0.779100  1.0  0.7209
  C  C943  1  0.551500  0.458500  0.035500  1.0  -0.0789
  C  C944  1  0.437300  0.962300  0.815100  1.0  -0.1377
  C  C945  1  0.506900  0.800900  0.583300  1.0  -0.1431
  C  C946  1  0.771100  0.419100  0.830700  1.0  -0.0438
  C  C947  1  0.412300  0.847300  0.503100  1.0  -0.1244
  C  C948  1  0.133200  0.631200  0.075400  1.0  0.026
  C  C949  1  0.032800  0.494800  0.975600  1.0  -0.1125
  C  C950  1  0.008600  0.606600  0.083200  1.0  -0.103
  C  C951  1  0.377200  0.859200  0.464400  1.0  -0.1045
  C  C952  1  0.877500  0.800500  0.964500  1.0  -0.0544
  C  C953  1  0.805300  0.749300  0.752100  1.0  -0.0744
  C  C954  1  0.442700  0.551700  0.981900  1.0  -0.0697
  C  C955  1  0.440000  0.256000  0.420000  1.0  0.0784
  C  C956  1  0.939300  0.384300  0.920100  1.0  0.1003
  C  C957  1  0.526900  0.039900  0.792300  1.0  -0.0954
  C  C958  1  0.090400  0.029400  0.332800  1.0  -0.0861
  C  C959  1  0.383700  0.086700  0.253900  1.0  -0.0532
  C  C960  1  0.879000  0.449000  0.438000  1.0  -0.1448
  C  C961  1  0.157500  0.245500  0.598500  1.0  -0.1433
  C  C962  1  0.083400  0.534400  0.844800  1.0  -0.105
  C  C963  1  0.952300  0.413300  0.201100  1.0  -0.0945
  C  C964  1  0.627200  0.137200  0.555400  1.0  0.1049
  C  C965  1  0.346200  0.862200  0.443400  1.0  0.0207
  C  C966  1  0.250800  0.222800  0.247600  1.0  -0.1214
  C  C967  1  0.393000  0.671000  0.915000  1.0  0.6563
  C  C968  1  0.913300  0.724300  0.746100  1.0  -0.0561
  C  C969  1  0.932300  0.912300  0.701100  1.0  -0.0923
  C  C970  1  0.188200  0.276200  0.791400  1.0  -0.0939
  C  C971  1  0.633400  0.660400  0.575800  1.0  0.0411
  C  C972  1  0.528400  0.590400  0.832800  1.0  -0.1359
  C  C973  1  0.858500  0.758500  0.015500  1.0  -0.1116
  C  C974  1  0.340700  0.699700  0.840900  1.0  -0.0513
  C  C975  1  0.825300  0.714300  0.159100  1.0  -0.116
  C  C976  1  0.086100  0.264100  0.997700  1.0  -0.1254
  C  C977  1  0.622800  0.140800  0.535600  1.0  -0.1057
  C  C978  1  0.108900  0.290900  0.965300  1.0  -0.0969
  C  C979  1  0.721400  0.982400  0.898800  1.0  -0.089
  C  C980  1  0.551700  0.023700  0.981900  1.0  -0.0669
  C  C981  1  0.837800  0.698800  0.142600  1.0  -0.0769
  C  C982  1  0.501100  0.400100  0.153700  1.0  -0.0879
  C  C983  1  0.126900  0.817900  0.448300  1.0  0.7002
  C  C984  1  0.545700  0.067700  0.298900  1.0  -0.0933
  C  C985  1  0.603300  0.518300  0.824100  1.0  -0.1037
  C  C986  1  0.867400  0.840400  0.395800  1.0  0.0653
  C  C987  1  0.027400  0.131400  0.598800  1.0  0.1094
  C  C988  1  0.718100  0.159100  0.824700  1.0  0.0761
  C  C989  1  0.373500  0.888500  0.907500  1.0  0.2706
  C  C990  1  0.681600  0.372600  0.051200  1.0  0.7124
  C  C991  1  0.232600  0.238600  0.772200  1.0  -0.0264
  C  C992  1  0.123700  0.670700  0.592900  1.0  0.1275
  C  C993  1  0.575100  0.081100  0.162700  1.0  -0.1235
  C  C994  1  0.361000  0.873000  0.945000  1.0  0.1871
  C  C995  1  0.477300  0.801300  0.094100  1.0  -0.0991
  C  C996  1  0.266300  0.628300  0.967100  1.0  -0.0902
  C  C997  1  0.060700  0.615700  0.079900  1.0  0.0991
  C  C998  1  0.013400  0.974400  0.461800  1.0  -0.1084
  C  C999  1  0.756300  0.939300  0.920100  1.0  0.1028
  C  C1000  1  0.413400  0.953400  0.640800  1.0  -0.0734
  C  C1001  1  0.134600  0.545600  0.311200  1.0  -0.0582
  C  C1002  1  0.250000  0.772000  0.735000  1.0  -0.0806
  C  C1003  1  0.360200  0.794200  0.680400  1.0  -0.04
  C  C1004  1  0.087300  0.957300  0.375100  1.0  0.7313
  C  C1005  1  0.960100  0.382100  0.213700  1.0  -0.0737
  C  C1006  1  0.484700  0.967700  0.220900  1.0  0.7195
  C  C1007  1  0.376700  0.114700  0.768900  1.0  -0.0667
  C  C1008  1  0.891100  0.493100  0.416700  1.0  -0.1434
  C  C1009  1  0.698400  0.991400  0.916800  1.0  -0.1035
  C  C1010  1  0.948500  0.525500  0.038500  1.0  -0.046
  C  C1011  1  0.339600  0.869600  0.424200  1.0  0.0392
  C  C1012  1  0.045500  0.448500  0.964500  1.0  -0.0772
  C  C1013  1  0.643800  0.129800  0.484600  1.0  -0.1215
  C  C1014  1  0.462600  0.916600  0.155200  1.0  -0.1083
  C  C1015  1  0.045100  0.724100  0.705700  1.0  0.7025
  C  C1016  1  0.979100  0.771100  0.830700  1.0  -0.0461
  C  C1017  1  0.345800  0.657800  0.873600  1.0  0.7107
  C  C1018  1  0.254700  0.341700  0.902900  1.0  -0.1294
  C  C1019  1  0.640900  0.526900  0.792300  1.0  -0.0961
  C  C1020  1  0.989100  0.510100  0.492700  1.0  -0.0082
  C  C1021  1  0.788400  0.945400  0.398800  1.0  -0.0482
  C  C1022  1  0.774900  0.655900  0.095300  1.0  -0.0937
  C  C1023  1  0.925500  0.512500  0.140500  1.0  -0.0844
  C  C1024  1  0.631200  0.160200  0.075400  1.0  0.0286
  C  C1025  1  0.058600  0.048600  0.332200  1.0  -0.0212
  C  C1026  1  0.800500  0.357500  0.964500  1.0  -0.0626
  C  C1027  1  0.799400  0.687400  0.299800  1.0  -0.1607
  C  C1028  1  0.666300  0.173300  0.354100  1.0  -0.0642
  C  C1029  1  0.007900  0.099900  0.594300  1.0  -0.1073
  C  C1030  1  0.951400  0.439400  0.667800  1.0  -0.0221
  C  C1031  1  0.154300  0.275300  0.596100  1.0  -0.0512
  C  C1032  1  0.565400  0.090400  0.647800  1.0  0.0662
  C  C1033  1  0.280000  0.203000  0.753000  1.0  -0.1392
  C  C1034  1  0.250700  0.329700  0.247900  1.0  -0.0447
  C  C1035  1  0.647800  0.082800  0.980600  1.0  -0.0756
  C  C1036  1  0.721200  0.749200  0.752400  1.0  -0.1192
  C  C1037  1  0.557700  0.941700  0.750900  1.0  0.6958
  C  C1038  1  0.941400  0.951400  0.667800  1.0  -0.0216
  C  C1039  1  0.865400  0.454400  0.688800  1.0  -0.0602
  C  C1040  1  0.165200  0.360200  0.680400  1.0  -0.0407
  C  C1041  1  0.039900  0.640900  0.792300  1.0  -0.0943
  C  C1042  1  0.551000  0.766000  0.562000  1.0  -0.1461
  C  C1043  1  0.105400  0.318400  0.948800  1.0  0.7134
  C  C1044  1  0.749300  0.670300  0.752100  1.0  -0.0449
  C  C1045  1  0.381400  0.733400  0.937800  1.0  -0.1087
  C  C1046  1  0.624300  0.155300  0.372100  1.0  0.7192
  C  C1047  1  0.374900  0.860900  0.906300  1.0  -0.0929
  C  C1048  1  0.834800  0.639800  0.319600  1.0  -0.0406
  C  C1049  1  0.151700  0.375700  0.627900  1.0  0.7195
  C  C1050  1  0.618600  0.266600  0.062200  1.0  -0.1105
  C  C1051  1  0.496800  0.032800  0.975600  1.0  -0.115
  C  C1052  1  0.394100  0.921100  0.872700  1.0  -0.1519
  C  C1053  1  0.962900  0.037900  0.504300  1.0  -0.1544
  C  C1054  1  0.525100  0.045100  0.705700  1.0  0.7035
  C  C1055  1  0.422800  0.312800  0.899600  1.0  -0.159
  C  C1056  1  0.552200  0.048200  0.318400  1.0  -0.0324
  C  C1057  1  0.099800  0.999800  0.346600  1.0  -0.0545
  C  C1058  1  0.619400  0.881400  0.266800  1.0  -0.0628
  C  C1059  1  0.140800  0.700800  0.535600  1.0  -0.1032
  C  C1060  1  0.406500  0.885500  0.388500  1.0  -0.0221
  C  C1061  1  0.126600  0.765600  0.467200  1.0  -0.0892
  C  C1062  1  0.951800  0.918800  0.681600  1.0  -0.0319
  C  C1063  1  0.750900  0.422900  0.750300  1.0  0.6961
  C  C1064  1  0.809000  0.669000  0.319000  1.0  0.0622
  C  C1065  1  0.585700  0.883700  0.756900  1.0  -0.074
  C  C1066  1  0.300300  0.881300  0.159100  1.0  -0.0511
  C  C1067  1  0.319500  0.406500  0.388500  1.0  -0.0232
  C  C1068  1  0.953400  0.992400  0.640800  1.0  -0.0688
  C  C1069  1  0.680200  0.627200  0.555400  1.0  0.1043
  C  C1070  1  0.897000  0.483000  0.399000  1.0  -0.0691
  C  C1071  1  0.087400  0.250400  0.248800  1.0  -0.1546
  C  C1072  1  0.635200  0.577200  0.100400  1.0  -0.161
  C  C1073  1  0.417700  0.926700  0.336900  1.0  -0.1197
  C  C1074  1  0.010100  0.489100  0.992700  1.0  -0.0157
  C  C1075  1  0.413300  0.433300  0.201100  1.0  -0.0942
  C  C1076  1  0.839800  0.866800  0.924600  1.0  0.0262
  C  C1077  1  0.449600  0.986600  0.538200  1.0  -0.1091
  C  C1078  1  0.108000  0.477000  0.586000  1.0  0.7143
  C  C1079  1  0.667400  0.047400  0.407800  1.0  0.7067
  C  C1080  1  0.767500  0.603500  0.096500  1.0  -0.0974
  C  C1081  1  0.850500  0.213500  0.520500  1.0  -0.0751
  C  C1082  1  0.913700  0.378700  0.921900  1.0  -0.0838
  C  C1083  1  0.454600  0.958600  0.535200  1.0  -0.1321
  C  C1084  1  0.245500  0.998500  0.598500  1.0  -0.1429
  C  C1085  1  0.196300  0.592300  0.147100  1.0  0.0812
  C  C1086  1  0.347900  0.913900  0.002300  1.0  -0.1232
  C  C1087  1  0.938300  0.286300  0.314100  1.0  -0.1417
  C  C1088  1  0.285700  0.763700  0.753900  1.0  -0.064
  C  C1089  1  0.442300  0.058300  0.249100  1.0  0.6945
  C  C1090  1  0.433300  0.952300  0.201100  1.0  -0.0974
  C  C1091  1  0.819700  0.383700  0.888900  1.0  -0.1059
  C  C1092  1  0.220700  0.792700  0.283900  1.0  -0.1663
  C  C1093  1  0.367900  0.470900  0.902300  1.0  0.0302
  C  C1094  1  0.868400  0.895400  0.395800  1.0  0.0394
  C  C1095  1  0.249500  0.892500  0.400500  1.0  -0.1498
  C  C1096  1  0.958600  0.051600  0.535200  1.0  -0.1326
  C  C1097  1  0.445400  0.288400  0.900800  1.0  -0.0682
  C  C1098  1  0.008600  0.134600  0.311200  1.0  -0.06
  C  C1099  1  0.122600  0.332600  0.592200  1.0  0.7063
  C  C1100  1  0.207300  0.297300  0.716100  1.0  -0.1661
  C  C1101  1  0.000200  0.446200  0.653400  1.0  -0.055
  C  C1102  1  0.539000  0.057000  0.286000  1.0  -0.0729
  C  C1103  1  0.418800  0.963800  0.654600  1.0  -0.0767
  C  C1104  1  0.896200  0.247200  0.249400  1.0  -0.1165
  C  C1105  1  0.599900  0.054900  0.846300  1.0  -0.0855
  C  C1106  1  0.378700  0.785700  0.921900  1.0  -0.0806
  C  C1107  1  0.912700  0.042700  0.624900  1.0  0.7304
  C  C1108  1  0.763800  0.251800  0.753600  1.0  0.0736
  C  C1109  1  0.830500  0.373500  0.907500  1.0  0.2706
  C  C1110  1  0.566700  0.047700  0.798900  1.0  -0.0944
  C  C1111  1  0.700800  0.622800  0.535600  1.0  -0.1041
  C  C1112  1  0.733400  0.947400  0.937800  1.0  -0.1132
  C  C1113  1  0.655900  0.473900  0.095300  1.0  -0.0945
  C  C1114  1  0.278600  0.017600  0.101200  1.0  -0.0895
  C  C1115  1  0.580300  0.087300  0.375100  1.0  0.7308
  C  C1116  1  0.825900  0.166900  0.645300  1.0  -0.1331
  C  C1117  1  0.900100  0.702100  0.405700  1.0  -0.1073
  C  C1118  1  0.607200  0.250200  0.099400  1.0  -0.14
  C  C1119  1  0.359100  0.473100  0.207700  1.0  -0.0951
  C  C1120  1  0.714600  0.121600  0.578200  1.0  -0.0681
  C  C1121  1  0.193700  0.333700  0.645900  1.0  -0.0666
  C  C1122  1  0.103800  0.752800  0.750600  1.0  -0.1157
  C  C1123  1  0.770400  0.351400  0.733800  1.0  -0.1345
  C  C1124  1  0.829000  0.108000  0.586000  1.0  0.714
  C  C1125  1  0.580900  0.020900  0.169300  1.0  -0.0479
  C  C1126  1  0.276900  0.771900  0.735300  1.0  0.0326
  C  C1127  1  0.623300  0.885300  0.231100  1.0  -0.0682
  C  C1128  1  0.181100  0.575100  0.162700  1.0  -0.1241
  C  C1129  1  0.463900  0.993900  0.004300  1.0  -0.1445
  C  C1130  1  0.724700  0.025700  0.403900  1.0  -0.0514
  C  C1131  1  0.467500  0.232500  0.903500  1.0  -0.0975
  C  C1132  1  0.303600  0.434600  0.352200  1.0  0.0667
  C  C1133  1  0.921600  0.011600  0.640200  1.0  -0.0601
  C  C1134  1  0.687200  0.635200  0.100400  1.0  -0.1607
  C  C1135  1  0.079900  0.727900  0.670300  1.0  -0.0445
  C  C1136  1  0.873000  0.821000  0.945000  1.0  0.1871
  C  C1137  1  0.159100  0.298100  0.824700  1.0  0.077
  C  C1138  1  0.047600  0.633600  0.811200  1.0  -0.0581
  C  C1139  1  0.855700  0.773700  0.756900  1.0  -0.1398
  C  C1140  1  0.104600  0.159600  0.604200  1.0  0.0404
  C  C1141  1  0.555900  0.039900  0.786300  1.0  -0.0716
  C  C1142  1  0.553800  0.099800  0.346600  1.0  -0.0542
  C  C1143  1  0.121600  0.585600  0.578200  1.0  -0.0676
  C  C1144  1  0.877200  0.654200  0.126400  1.0  0.7113
  C  C1145  1  0.698800  0.320800  0.142600  1.0  -0.0743
  C  C1146  1  0.876300  0.329300  0.407100  1.0  0.1238
  C  C1147  1  0.256000  0.884000  0.420000  1.0  0.0754
  C  C1148  1  0.688000  0.580000  0.628000  1.0  -0.1438
  C  C1149  1  0.048600  0.560600  0.332200  1.0  -0.0217
  C  C1150  1  0.789400  0.610400  0.464800  1.0  -0.1451
  C  C1151  1  0.275900  0.474900  0.294300  1.0  0.7029
  C  C1152  1  0.320700  0.865700  0.142900  1.0  -0.1253
  C  C1153  1  0.007600  0.586600  0.359200  1.0  -0.0689
  C  C1154  1  0.545600  0.008600  0.311200  1.0  -0.0603
  C  C1155  1  0.250200  0.043200  0.099400  1.0  -0.1427
  C  C1156  1  0.703900  0.973900  0.936300  1.0  -0.1299
  C  C1157  1  0.653800  0.137800  0.556600  1.0  0.0204
  C  C1158  1  0.628300  0.138300  0.967100  1.0  -0.0928
  C  C1159  1  0.749200  0.722200  0.752400  1.0  0.0531
  C  C1160  1  0.174100  0.833100  0.354700  1.0  -0.1332
  C  C1161  1  0.581200  0.036200  0.345400  1.0  -0.0746
  C  C1162  1  0.779800  0.404800  0.849600  1.0  -0.118
  C  C1163  1  0.627300  0.477300  0.094100  1.0  -0.0997
  C  C1164  1  0.341000  0.366000  0.899000  1.0  0.1445
  C  C1165  1  0.845700  0.240700  0.247900  1.0  0.0624
  C  C1166  1  0.559900  0.068900  0.181300  1.0  -0.1011
  C  C1167  1  0.957300  0.580300  0.375100  1.0  0.7308
  C  C1168  1  0.500700  0.254700  0.902900  1.0  -0.1297
  C  C1169  1  0.917200  0.711200  0.019400  1.0  -0.0754
  C  C1170  1  0.773700  0.585700  0.756900  1.0  -0.0763
  C  C1171  1  0.992400  0.413400  0.640800  1.0  -0.0669
  C  C1172  1  0.118000  0.539000  0.286000  1.0  -0.0718
  C  C1173  1  0.419100  0.979100  0.830700  1.0  -0.0469
  C  C1174  1  0.769200  0.236200  0.246400  1.0  0.074
  C  C1175  1  0.522700  0.198700  0.905900  1.0  -0.0987
  C  C1176  1  0.689200  0.606200  0.573400  1.0  0.0714
  C  C1177  1  0.389600  0.864600  0.535200  1.0  -0.144
  C  C1178  1  0.135400  0.789400  0.464800  1.0  -0.1456
  C  C1179  1  0.761100  0.305100  0.752700  1.0  -0.1521
  C  C1180  1  0.859500  0.257500  0.230500  1.0  -0.0646
  C  C1181  1  0.317800  0.812800  0.663600  1.0  -0.1334
  C  C1182  1  0.058300  0.250300  0.249100  1.0  0.694
  C  C1183  1  0.383200  0.856200  0.500400  1.0  0.0961
  C  C1184  1  0.047400  0.877400  0.407800  1.0  0.7063
  C  C1185  1  0.174000  0.286000  0.807000  1.0  -0.0139
  C  C1186  1  0.448500  0.541500  0.964500  1.0  -0.0788
  C  C1187  1  0.748200  0.769200  0.246400  1.0  0.073
  C  C1188  1  0.319800  0.372800  0.444600  1.0  0.1042
  C  C1189  1  0.453800  0.975800  0.795600  1.0  0.7012
  C  C1190  1  0.970600  0.452600  0.667200  1.0  -0.0891
  C  C1191  1  0.532500  0.767500  0.096500  1.0  -0.0963
  C  C1192  1  0.126000  0.607000  0.577000  1.0  -0.0355
  C  C1193  1  0.552300  0.018300  0.324100  1.0  -0.1444
  C  C1194  1  0.162200  0.301200  0.857400  1.0  -0.078
  C  C1195  1  0.886200  0.724200  0.746400  1.0  -0.131
  C  C1196  1  0.234400  0.359400  0.532800  1.0  -0.0891
  C  C1197  1  0.560600  0.058600  0.332200  1.0  -0.0218
  C  C1198  1  0.149500  0.786500  0.479500  1.0  -0.0745
  C  C1199  1  0.578500  0.074500  0.859500  1.0  -0.0863
  C  C1200  1  0.290900  0.634900  0.965300  1.0  -0.0978
  C  C1201  1  0.061700  0.713700  0.685900  1.0  -0.1408
  C  C1202  1  0.727900  0.521900  0.670300  1.0  -0.0458
  C  C1203  1  0.858000  0.462000  0.708000  1.0  -0.0944
  C  C1204  1  0.547300  0.054300  0.818100  1.0  0.0236
  C  C1205  1  0.874000  0.699000  0.406000  1.0  -0.122
  C  C1206  1  0.275700  0.383700  0.253900  1.0  -0.0566
  C  C1207  1  0.764000  0.280000  0.753000  1.0  -0.1348
  C  C1208  1  0.351400  0.144400  0.733800  1.0  -0.1339
  C  C1209  1  0.550400  0.013400  0.461800  1.0  -0.1105
  C  C1210  1  0.073300  0.681300  0.663100  1.0  -0.1177
  C  C1211  1  0.301000  0.979000  0.594000  1.0  -0.1222
  C  C1212  1  0.393100  0.873100  0.551700  1.0  0.7003
  C  C1213  1  0.888500  0.830500  0.907500  1.0  0.2687
  C  C1214  1  0.413400  0.087400  0.248800  1.0  -0.1528
  C  C1215  1  0.967900  0.896900  0.403300  1.0  -0.1307
  C  C1216  1  0.105300  0.552300  0.324100  1.0  -0.1395
  C  C1217  1  0.991400  0.393400  0.916800  1.0  -0.1031
  C  C1218  1  0.845700  0.724700  0.403900  1.0  -0.0512
  C  C1219  1  0.461300  0.938300  0.314100  1.0  -0.1407
  C  C1220  1  0.160200  0.133200  0.075400  1.0  0.0269
  C  C1221  1  0.276200  0.744200  0.791400  1.0  -0.0913
  C  C1222  1  0.103600  0.132600  0.604200  1.0  0.0666
  C  C1223  1  0.462100  0.536100  0.995700  1.0  -0.1419
  C  C1224  1  0.138300  0.266300  0.967100  1.0  -0.0929
  C  C1225  1  0.954500  0.551500  0.035500  1.0  -0.0785
  C  C1226  1  0.759600  0.356600  0.000200  1.0  0.1263
  C  C1227  1  0.923000  0.867000  0.397000  1.0  0.0184
  C  C1228  1  0.610400  0.135400  0.464800  1.0  -0.143
  C  C1229  1  0.573400  0.078400  0.359800  1.0  -0.0614
  C  C1230  1  0.592300  0.064300  0.147100  1.0  0.086
  C  C1231  1  0.988400  0.573400  0.359800  1.0  -0.0609
  C  C1232  1  0.952600  0.122600  0.592200  1.0  0.7068
  C  C1233  1  0.133000  0.187000  0.603000  1.0  0.0251
  C  C1234  1  0.159600  0.131600  0.604200  1.0  0.0378
  C  C1235  1  0.199100  0.891100  0.416700  1.0  -0.1438
  C  C1236  1  0.297300  0.779300  0.716100  1.0  -0.1664
  C  C1237  1  0.225100  0.344100  0.904700  1.0  -0.0945
  C  C1238  1  0.441300  0.938300  0.168100  1.0  -0.0152
  C  C1239  1  0.332600  0.952600  0.592200  1.0  0.7062
  C  C1240  1  0.129800  0.741800  0.484600  1.0  -0.1228
  C  C1241  1  0.735900  0.347900  0.002300  1.0  -0.123
  C  C1242  1  0.774800  0.453800  0.795600  1.0  0.7008
  C  C1243  1  0.638100  0.174100  0.354700  1.0  -0.134
  C  C1244  1  0.166900  0.361900  0.645300  1.0  -0.1348
  C  C1245  1  0.659000  0.634000  0.101000  1.0  0.146
  C  C1246  1  0.892500  0.457500  0.400500  1.0  -0.1499
  C  C1247  1  0.833100  0.638100  0.354700  1.0  -0.1337
  C  C1248  1  0.465600  0.462600  0.155200  1.0  -0.1084
  C  C1249  1  0.260200  0.383200  0.500400  1.0  0.0922
  C  C1250  1  0.912600  0.749600  0.751200  1.0  -0.1542
  C  C1251  1  0.320800  0.837800  0.142600  1.0  -0.0757
  C  C1252  1  0.285700  0.698700  0.840900  1.0  -0.1188
  C  C1253  1  0.189900  0.559900  0.181300  1.0  -0.0986
  C  C1254  1  0.234000  0.879000  0.438000  1.0  -0.1416
  C  C1255  1  0.779300  0.207300  0.716100  1.0  -0.168
  C  C1256  1  0.868600  0.757600  0.401200  1.0  0.1102
  C  C1257  1  0.634000  0.606000  0.101000  1.0  0.1485
  C  C1258  1  0.329300  0.387300  0.407100  1.0  0.1268
  C  C1259  1  0.605900  0.078900  0.127300  1.0  -0.1516
  C  C1260  1  0.023700  0.442700  0.981900  1.0  -0.0671
  C  C1261  1  0.582300  0.073300  0.663100  1.0  -0.1161
  C  C1262  1  0.477000  0.829000  0.586000  1.0  0.714
  C  C1263  1  0.505100  0.037100  0.495700  1.0  -0.1538
  C  C1264  1  0.344100  0.526100  0.904700  1.0  -0.0942
  C  C1265  1  0.037200  0.581200  0.345400  1.0  -0.0726
  C  C1266  1  0.891100  0.709100  0.034700  1.0  -0.0967
  C  C1267  1  0.723800  0.255800  0.208600  1.0  -0.0936
  C  C1268  1  0.797100  0.601100  0.094700  1.0  -0.0502
  C  C1269  1  0.348200  0.346200  0.443400  1.0  0.0228
  C  C1270  1  0.356200  0.870200  0.515400  1.0  -0.1233
  C  C1271  1  0.979000  0.607000  0.085000  1.0  0.6528
  C  C1272  1  0.878400  0.414400  0.421800  1.0  -0.0708
  C  C1273  1  0.124400  0.642400  0.593800  1.0  -0.0933
  C  C1274  1  0.615700  0.243700  0.079900  1.0  0.1003
  C  C1275  1  0.508100  0.010100  0.992700  1.0  -0.0161
  C  C1276  1  0.975800  0.774800  0.795600  1.0  0.7012
  C  C1277  1  0.422900  0.075900  0.750300  1.0  0.695
  C  C1278  1  0.724300  0.616300  0.746100  1.0  -0.0556
  C  C1279  1  0.232500  0.396500  0.903500  1.0  -0.0975
  C  C1280  1  0.671000  0.021000  0.915000  1.0  0.6549
  C  C1281  1  0.268100  0.032100  0.596700  1.0  -0.1292
  C  C1282  1  0.141500  0.241500  0.984500  1.0  -0.1155
  C  C1283  1  0.659300  0.300300  0.159100  1.0  -0.051
  C  C1284  1  0.652500  0.859500  0.230500  1.0  -0.0627
  C  C1285  1  0.532800  0.997800  0.475600  1.0  -0.1135
  C  C1286  1  0.449000  0.234000  0.438000  1.0  -0.1462
  C  C1287  1  0.024200  0.225200  0.204400  1.0  0.701
  C  C1288  1  0.620300  0.142300  0.519100  1.0  -0.0465
  C  C1289  1  0.782000  0.356000  0.981000  1.0  -0.0727
  C  C1290  1  0.696400  0.565400  0.647800  1.0  0.0666
  C  C1291  1  0.733500  0.244500  0.227500  1.0  0.0871
  C  C1292  1  0.142300  0.718300  0.519100  1.0  -0.0464
  C  C1293  1  0.945400  0.867400  0.398800  1.0  -0.0506
  C  C1294  1  0.529100  0.741100  0.097700  1.0  0.0327
  C  C1295  1  0.842500  0.754500  0.401500  1.0  -0.1452
  C  C1296  1  0.467200  0.002200  0.524400  1.0  -0.1138
  C  C1297  1  0.221000  0.897000  0.399000  1.0  -0.0689
  C  C1298  1  0.761400  0.243400  0.227800  1.0  -0.0275
  C  C1299  1  0.991900  0.010900  0.507300  1.0  -0.008
  C  C1300  1  0.810300  0.892300  0.923100  1.0  -0.1025
  C  C1301  1  0.616300  0.092300  0.111100  1.0  -0.1052
  C  C1302  1  0.648600  0.855600  0.266200  1.0  -0.1336
  C  C1303  1  0.457400  0.587400  0.874800  1.0  0.7124
  C  C1304  1  0.026100  0.614100  0.063700  1.0  -0.1306
  C  C1305  1  0.709100  0.365100  0.034700  1.0  -0.0978
  C  C1306  1  0.976300  0.557300  0.018100  1.0  -0.0679
  C  C1307  1  0.965800  0.779800  0.849600  1.0  -0.1184
  C  C1308  1  0.440400  0.938400  0.050800  1.0  0.6976
  C  C1309  1  0.794200  0.682200  0.336400  1.0  -0.1323
  C  C1310  1  0.179000  0.639000  0.055000  1.0  0.1852
  C  C1311  1  0.750500  0.107500  0.599500  1.0  -0.1506
  C  C1312  1  0.361900  0.825900  0.645300  1.0  -0.1339
  C  C1313  1  0.972600  0.868600  0.401200  1.0  0.1088
  C  C1314  1  0.848400  0.361400  0.943800  1.0  -0.0614
  C  C1315  1  0.439400  0.941400  0.667800  1.0  -0.0211
  C  C1316  1  0.258900  0.367900  0.902300  1.0  0.0308
  C  C1317  1  0.561600  0.060600  0.449200  1.0  0.6868
  C  C1318  1  0.786500  0.584500  0.479500  1.0  -0.0753
  C  C1319  1  0.862800  0.319800  0.444600  1.0  0.1044
  C  C1320  1  0.077000  0.133000  0.603000  1.0  0.0182
  C  C1321  1  0.963800  0.962800  0.654600  1.0  -0.0714
  C  C1322  1  0.407700  0.935700  0.852900  1.0  0.0847
  C  C1323  1  0.939400  0.071400  0.550800  1.0  0.6883
  C  C1324  1  0.250400  0.413400  0.248800  1.0  -0.1543
  C  C1325  1  0.881300  0.659300  0.159100  1.0  -0.0495
  C  C1326  1  0.071400  0.438400  0.550800  1.0  0.6877
  C  C1327  1  0.689900  0.568900  0.682300  1.0  -0.0643
  C  C1328  1  0.848300  0.624300  0.372100  1.0  0.719
  C  C1329  1  0.036200  0.037200  0.345400  1.0  -0.0717
  C  C1330  1  0.494200  0.453200  0.141400  1.0  -0.0803
  C  C1331  1  0.174700  0.285700  0.840900  1.0  -0.1154
  C  C1332  1  0.078900  0.187900  0.127300  1.0  -0.1511
  C  C1333  1  0.881000  0.782000  0.981000  1.0  -0.071
  C  C1334  1  0.918800  0.447800  0.681600  1.0  -0.0328
  C  C1335  1  0.642500  0.122500  0.035500  1.0  -0.0549
  C  C1336  1  0.627400  0.105400  0.948800  1.0  0.7144
  C  C1337  1  0.356000  0.881000  0.981000  1.0  -0.0759
  C  C1338  1  0.154300  0.759300  0.752100  1.0  0.0681
  C  C1339  1  0.326700  0.484700  0.220900  1.0  0.7197
  C  C1340  1  0.387300  0.876300  0.407100  1.0  0.128
  C  C1341  1  0.945100  0.501100  0.153700  1.0  -0.0841
  C  C1342  1  0.143800  0.739800  0.499600  1.0  0.0944
  C  C1343  1  0.865700  0.670700  0.142900  1.0  -0.1262
  C  C1344  1  0.670700  0.320700  0.142900  1.0  -0.1263
  C  C1345  1  0.749400  0.642400  0.751800  1.0  0.0613
  C  C1346  1  0.749800  0.956800  0.900600  1.0  -0.14
  C  C1347  1  0.393800  0.868800  0.426600  1.0  0.0711
  C  C1348  1  0.434600  0.909600  0.352200  1.0  0.064
  C  C1349  1  0.250800  0.277800  0.247600  1.0  0.0482
  C  C1350  1  0.651800  0.653800  0.556600  1.0  0.0199
  C  C1351  1  0.507100  0.797100  0.094700  1.0  -0.0475
  C  C1352  1  0.215900  0.276900  0.735300  1.0  0.0419
  C  C1353  1  0.702700  0.220700  0.283900  1.0  -0.1684
  C  C1354  1  0.376100  0.548100  0.907700  1.0  0.704
  C  C1355  1  0.424900  0.918900  0.837300  1.0  -0.1249
  C  C1356  1  0.477300  0.947300  0.518100  1.0  -0.069
  C  C1357  1  0.169500  0.626500  0.092500  1.0  0.2717
  C  C1358  1  0.665700  0.845700  0.247900  1.0  0.071
  C  C1359  1  0.503200  0.967200  0.024400  1.0  -0.1137
  C  C1360  1  0.364800  0.422800  0.899600  1.0  -0.1601
  C  C1361  1  0.131600  0.104600  0.604200  1.0  0.0368
  C  C1362  1  0.189700  0.107700  0.076900  1.0  -0.1
  C  C1363  1  0.826000  0.714000  0.193000  1.0  -0.0128
  C  C1364  1  0.366400  0.492400  0.188800  1.0  -0.0588
  C  C1365  1  0.952400  0.366400  0.188800  1.0  -0.0584
  C  C1366  1  0.675000  0.281000  0.175000  1.0  -0.1464
  C  C1367  1  0.866800  0.368800  0.924600  1.0  0.0284
  C  C1368  1  0.155300  0.848300  0.372100  1.0  0.7202
  C  C1369  1  0.278800  0.250800  0.247600  1.0  -0.1167
  C  C1370  1  0.942700  0.522700  0.481900  1.0  -0.0615
  C  C1371  1  0.493100  0.199100  0.416700  1.0  -0.144
  C  C1372  1  0.139100  0.142100  0.093700  1.0  -0.1012
  C  C1373  1  0.331000  0.797000  0.681000  1.0  0.0616
  C  C1374  1  0.118600  0.767600  0.733200  1.0  -0.063
  C  C1375  1  0.913900  0.735900  0.002300  1.0  -0.1266
  C  C1376  1  0.538000  0.028000  0.292000  1.0  -0.095
  C  C1377  1  0.580300  0.547300  0.818100  1.0  0.023
  C  C1378  1  0.658300  0.499300  0.097100  1.0  -0.1287
  C  C1379  1  0.682200  0.187200  0.336400  1.0  -0.1324
  C  C1380  1  0.404800  0.965800  0.849600  1.0  -0.1202
  C  C1381  1  0.090400  0.696400  0.647800  1.0  0.066
  C  C1382  1  0.941100  0.310100  0.317700  1.0  -0.0634
  C  C1383  1  0.016500  0.174500  0.278500  1.0  0.7122
  C  C1384  1  0.103100  0.268100  0.596700  1.0  -0.1292
  C  C1385  1  0.357500  0.877500  0.964500  1.0  -0.0537
  C  C1386  1  0.673300  0.515300  0.779100  1.0  0.7187
  C  C1387  1  0.856200  0.260200  0.500400  1.0  0.0937
  C  C1388  1  0.772000  0.243000  0.735000  1.0  -0.0781
  C  C1389  1  0.587400  0.080400  0.874800  1.0  0.7125
  C  C1390  1  0.723100  0.228100  0.264700  1.0  0.0393
  C  C1391  1  0.372800  0.862800  0.444600  1.0  0.104
  C  C1392  1  0.081200  0.552200  0.318400  1.0  -0.0332
  C  C1393  1  0.301300  0.825300  0.159100  1.0  -0.1166
  C  C1394  1  0.744000  0.116000  0.580000  1.0  0.0758
  C  C1395  1  0.286300  0.461300  0.314100  1.0  -0.1414
  C  C1396  1  0.895100  0.812100  0.926700  1.0  0.0281
  C  C1397  1  0.251800  0.230800  0.753600  1.0  0.0739
  C  C1398  1  0.546200  0.024200  0.204400  1.0  0.7015
  C  C1399  1  0.132600  0.159600  0.604200  1.0  0.0664
  C  C1400  1  0.426600  0.921600  0.640200  1.0  -0.0628
  C  C1401  1  0.419700  0.912700  0.624900  1.0  0.7319
  C  C1402  1  0.749200  0.777200  0.752400  1.0  -0.1184
  C  C1403  1  0.180300  0.616300  0.111100  1.0  -0.1037
  C  C1404  1  0.260300  0.623300  0.231100  1.0  -0.0664
  C  C1405  1  0.587700  0.152700  0.496900  1.0  -0.1264
  C  C1406  1  0.037700  0.214700  0.184900  1.0  -0.1372
  C  C1407  1  0.107700  0.625700  0.076900  1.0  -0.0998
  C  C1408  1  0.199500  0.642500  0.035500  1.0  -0.0618
  C  C1409  1  0.921100  0.812100  0.872700  1.0  -0.15
  C  C1410  1  0.489100  0.508100  0.992700  1.0  -0.0219
  C  C1411  1  0.094200  0.719200  0.651400  1.0  -0.1578
  C  C1412  1  0.451900  0.831900  0.092300  1.0  0.7046
  C  C1413  1  0.396700  0.481700  0.175900  1.0  -0.1037
  C  C1414  1  0.517000  0.779000  0.601000  1.0  -0.0668
  C  C1415  1  0.739800  0.616800  0.499600  1.0  0.0907
  C  C1416  1  0.869600  0.366600  0.424200  1.0  0.0427
  C  C1417  1  0.061700  0.547700  0.831900  1.0  -0.0149
  C  C1418  1  0.236000  0.720000  0.247000  1.0  -0.1364
  C  C1419  1  0.792700  0.702700  0.283900  1.0  -0.1655
  C  C1420  1  0.640600  0.126600  0.467200  1.0  -0.0876
  C  C1421  1  0.068900  0.189900  0.181300  1.0  -0.1013
  C  C1422  1  0.081100  0.181100  0.162700  1.0  -0.1217
  C  C1423  1  0.972000  0.858000  0.708000  1.0  -0.0935
  C  C1424  1  0.679200  0.162200  0.857400  1.0  -0.0759
  C  C1425  1  0.749600  0.586600  0.751200  1.0  -0.154
  C  C1426  1  0.329000  0.979000  0.085000  1.0  0.6549
  C  C1427  1  0.577100  0.924100  0.249700  1.0  0.6955
  C  C1428  1  0.794500  0.733500  0.227500  1.0  0.0854
  C  C1429  1  0.375100  0.809100  0.662700  1.0  -0.044
  C  C1430  1  0.042700  0.419700  0.624900  1.0  0.7307
  C  C1431  1  0.469500  0.983500  0.721500  1.0  0.7127
  C  C1432  1  0.187000  0.077000  0.603000  1.0  0.0255
  C  C1433  1  0.006200  0.467200  0.524400  1.0  -0.1136
  C  C1434  1  0.225200  0.546200  0.204400  1.0  0.6998
  C  C1435  1  0.625700  0.189700  0.076900  1.0  -0.0989
  C  C1436  1  0.312600  0.786600  0.700200  1.0  -0.1619
  C  C1437  1  0.142100  0.625100  0.093700  1.0  -0.0913
  C  C1438  1  0.057300  0.477300  0.518100  1.0  -0.0637
  C  C1439  1  0.301200  0.679200  0.857400  1.0  -0.0761
  C  C1440  1  0.687400  0.213400  0.299800  1.0  -0.1597
  C  C1441  1  0.017600  0.602600  0.101200  1.0  -0.0874
  C  C1442  1  0.286000  0.733000  0.807000  1.0  -0.0115
  C  C1443  1  0.255800  0.811800  0.208600  1.0  -0.0964
  C  C1444  1  0.250600  0.357600  0.248200  1.0  0.0666
  C  C1445  1  0.718300  0.620300  0.519100  1.0  -0.051
  C  C1446  1  0.446200  0.900200  0.653400  1.0  -0.0554
  C  C1447  1  0.281000  0.869000  0.175000  1.0  -0.1477
  C  C1448  1  0.058900  0.689900  0.682300  1.0  -0.0646
  C  C1449  1  0.492400  0.952400  0.188800  1.0  -0.0571
  C  C1450  1  0.130400  0.633400  0.575800  1.0  0.0438
  C  C1451  1  0.931100  0.810100  0.818700  1.0  -0.1006
  C  C1452  1  0.487500  0.578500  0.859500  1.0  -0.0846
  C  C1453  1  0.174500  0.530500  0.278500  1.0  0.7118
  C  C1454  1  0.122500  0.199500  0.035500  1.0  -0.0545
  C  C1455  1  0.119000  0.218000  0.019000  1.0  -0.0717
  C  C1456  1  0.250300  0.442300  0.249100  1.0  0.6946
  C  C1457  1  0.701900  0.281900  0.175300  1.0  0.0756
  C  C1458  1  0.114700  0.739700  0.768900  1.0  -0.0668
  C  C1459  1  0.558700  0.061700  0.831900  1.0  -0.0157
  C  C1460  1  0.885500  0.319500  0.388500  1.0  -0.0257
  C  C1461  1  0.759300  0.334300  0.752100  1.0  0.066
  C  C1462  1  0.452600  0.909600  0.667200  1.0  -0.0898
  C  C1463  1  0.828300  0.749300  0.752100  1.0  -0.0489
  C  C1464  1  0.213400  0.799400  0.299800  1.0  -0.161
  C  C1465  1  0.670700  0.612700  0.592900  1.0  0.1279
  C  C1466  1  0.999800  0.553800  0.346600  1.0  -0.0565
  C  C1467  1  0.928600  0.561600  0.449200  1.0  0.6882
  C  C1468  1  0.366000  0.394000  0.899000  1.0  0.1478
  C  C1469  1  0.357600  0.143600  0.248200  1.0  0.0645
  C  C1470  1  0.606000  0.659000  0.101000  1.0  0.1438
  C  C1471  1  0.877400  0.667400  0.407800  1.0  0.7067
  C  C1472  1  0.048400  0.528400  0.832800  1.0  -0.1332
  C  C1473  1  0.444100  0.960100  0.213700  1.0  -0.0715
  C  C1474  1  0.205800  0.834800  0.319600  1.0  -0.0403
  C  C1475  1  0.285400  0.878400  0.421800  1.0  -0.0674
  C  C1476  1  0.171000  0.892000  0.414000  1.0  0.7148
  C  C1477  1  0.198700  0.372700  0.905900  1.0  -0.0995
  C  C1478  1  0.607000  0.329000  0.085000  1.0  0.6551
  C  C1479  1  0.776200  0.749200  0.752400  1.0  0.0531
  C  C1480  1  0.461000  0.943000  0.714000  1.0  -0.0737
  C  C1481  1  0.333700  0.826700  0.645900  1.0  -0.0651
  C  C1482  1  0.896000  0.312000  0.372000  1.0  -0.1428
  C  C1483  1  0.232400  0.619400  0.266800  1.0  -0.0623
  C  C1484  1  0.474500  0.512500  0.961500  1.0  -0.0431
  C  C1485  1  0.211600  0.054600  0.601200  1.0  -0.0515
  C  C1486  1  0.525400  0.794400  0.563800  1.0  -0.0514
  C  C1487  1  0.883700  0.773700  0.756900  1.0  -0.0777
  C  C1488  1  0.680500  0.593500  0.611500  1.0  -0.0226
  C  C1489  1  0.092300  0.180300  0.111100  1.0  -0.1028
  C  C1490  1  0.749300  0.693300  0.752100  1.0  -0.0668
  C  C1491  1  0.616800  0.143800  0.499600  1.0  0.0962
  C  C1492  1  0.086700  0.275700  0.253900  1.0  -0.0555
  C  C1493  1  0.756600  0.232600  0.772200  1.0  -0.0319
  C  C1494  1  0.367000  0.340000  0.899000  1.0  -0.1183
  C  C1495  1  0.414300  0.116300  0.243100  1.0  -0.0751
  C  C1496  1  0.131400  0.242400  0.598800  1.0  0.1124
  C  C1497  1  0.318700  0.417700  0.336900  1.0  -0.1161
  C  C1498  1  0.884000  0.440000  0.420000  1.0  0.0781
  C  C1499  1  0.693300  0.805300  0.752100  1.0  -0.0759
  C  C1500  1  0.029400  0.547400  0.332800  1.0  -0.0887
  C  C1501  1  0.182100  0.393100  0.551700  1.0  0.7009
  C  C1502  1  0.127000  0.179000  0.055000  1.0  0.1864
  C  C1503  1  0.132600  0.211600  0.601200  1.0  -0.0484
  C  C1504  1  0.733000  0.174000  0.807000  1.0  -0.0112
  C  C1505  1  0.962800  0.418800  0.654600  1.0  -0.074
  C  C1506  1  0.967700  0.326700  0.220900  1.0  0.7207
  C  C1507  1  0.352200  0.917200  0.019400  1.0  -0.0769
  C  C1508  1  0.011600  0.426600  0.640200  1.0  -0.0605
  C  C1509  1  0.047700  0.586700  0.798900  1.0  -0.094
  C  C1510  1  0.920100  0.272100  0.329700  1.0  -0.0447
  C  C1511  1  0.409600  0.951600  0.167200  1.0  -0.1349
  C  C1512  1  0.586600  0.046600  0.359200  1.0  -0.0715
  C  C1513  1  0.131200  0.689200  0.573400  1.0  0.0696
  C  C1514  1  0.379700  0.857700  0.480900  1.0  -0.0451
  C  C1515  1  0.905800  0.280800  0.348600  1.0  -0.1581
  C  C1516  1  0.473100  0.960100  0.207700  1.0  -0.0953
  C  C1517  1  0.280800  0.464800  0.348600  1.0  -0.158
  C  C1518  1  0.152700  0.762700  0.496900  1.0  -0.1224
  C  C1519  1  0.806300  0.666300  0.354100  1.0  -0.0683
  C  C1520  1  0.365100  0.891100  0.034700  1.0  -0.0979
  C  C1521  1  0.288800  0.647800  0.980600  1.0  -0.0761
  C  C1522  1  0.137800  0.651800  0.556600  1.0  0.0192
  C  C1523  1  0.454400  0.991400  0.688800  1.0  -0.0585
  C  C1524  1  0.720000  0.797000  0.247000  1.0  -0.1408
  C  C1525  1  0.228900  0.580900  0.169300  1.0  -0.0454
  C  C1526  1  0.240700  0.665700  0.247900  1.0  0.065
  C  C1527  1  0.542600  0.412600  0.125200  1.0  0.7111
  C  C1528  1  0.794400  0.116400  0.563800  1.0  -0.0502
  C  C1529  1  0.366100  0.895100  0.926700  1.0  0.0246
  C  C1530  1  0.757600  0.972600  0.401200  1.0  0.1107
  C  C1531  1  0.624900  0.190900  0.337300  1.0  -0.0456
  C  C1532  1  0.075900  0.750900  0.750300  1.0  0.6921
  C  C1533  1  0.173300  0.806300  0.354100  1.0  -0.0645
  C  C1534  1  0.947400  0.381400  0.937800  1.0  -0.1149
  C  C1535  1  0.361400  0.846400  0.943800  1.0  -0.0667
  C  C1536  1  0.869000  0.675000  0.175000  1.0  -0.1458
  C  C1537  1  0.811800  0.723800  0.208600  1.0  -0.0939
  C  C1538  1  0.448300  0.976300  0.018100  1.0  -0.0679
  C  C1539  1  0.250700  0.306700  0.247900  1.0  -0.0671
  C  C1540  1  0.025600  0.449600  0.538200  1.0  -0.1071
  C  C1541  1  0.840400  0.868400  0.395800  1.0  -0.1069
  C  C1542  1  0.749700  0.557700  0.750900  1.0  0.6949
  C  C1543  1  0.810100  0.440100  0.818700  1.0  -0.0977
  C  C1544  1  0.481700  0.945700  0.175900  1.0  -0.103
  C  C1545  1  0.372700  0.522700  0.905900  1.0  -0.1
  C  C1546  1  0.698700  0.174700  0.840900  1.0  -0.1151
  C  C1547  1  0.226300  0.414300  0.243100  1.0  -0.0768
  C  C1548  1  0.061600  0.429600  0.949200  1.0  0.6973
  C  C1549  1  0.386300  0.144300  0.243100  1.0  -0.1384
  C  C1550  1  0.447700  0.981700  0.675900  1.0  -0.1439
  C  C1551  1  0.840900  0.701900  0.175300  1.0  0.0759
  C  C1552  1  0.907700  0.819700  0.888900  1.0  -0.1049
  C  C1553  1  0.228100  0.784100  0.264700  1.0  0.0359
  C  C1554  1  0.111500  0.169500  0.092500  1.0  0.2684
  C  C1555  1  0.515300  0.032300  0.779100  1.0  0.721
  C  C1556  1  0.881400  0.232400  0.266800  1.0  -0.0616
  C  C1557  1  0.048200  0.081200  0.318400  1.0  -0.0325
  C  C1558  1  0.523000  0.171000  0.414000  1.0  0.7135
  C  C1559  1  0.010900  0.489900  0.507300  1.0  -0.0084
  C  C1560  1  0.464800  0.905800  0.348600  1.0  -0.1558
  C  C1561  1  0.067700  0.087700  0.298900  1.0  -0.0903
  C  C1562  1  0.213500  0.415500  0.520500  1.0  -0.0764
  C  C1563  1  0.359400  0.873400  0.532800  1.0  -0.0866
  C  C1564  1  0.385900  0.703900  0.936300  1.0  -0.1305
  C  C1565  1  0.142000  0.538000  0.292000  1.0  -0.0948
  C  C1566  1  0.190900  0.846900  0.337300  1.0  -0.0443
  C  C1567  1  0.844700  0.151700  0.627900  1.0  0.7199
  C  C1568  1  0.945700  0.396700  0.175900  1.0  -0.105
  C  C1569  1  0.754500  0.001500  0.401500  1.0  -0.1453
  C  C1570  1  0.034200  0.220200  0.150400  1.0  -0.1205
  C  C1571  1  0.471600  0.409600  0.167200  1.0  -0.1362
  C  C1572  1  0.895400  0.840400  0.395800  1.0  -0.1044
  C  C1573  1  0.051600  0.454600  0.535200  1.0  -0.1328
  C  C1574  1  0.080400  0.457400  0.874800  1.0  0.7123
  C  C1575  1  0.318400  0.627400  0.948800  1.0  0.7118
  C  C1576  1  0.375700  0.844700  0.627900  1.0  0.7188
  C  C1577  1  0.202900  0.398900  0.905300  1.0  -0.0492
  C  C1578  1  0.669000  0.203000  0.319000  1.0  0.0626
  C  C1579  1  0.028000  0.142000  0.292000  1.0  -0.0914
  C  C1580  1  0.777200  0.721200  0.752400  1.0  -0.1162
  C  C1581  1  0.758500  0.367500  0.015500  1.0  -0.1127
  C  C1582  1  0.494800  0.496800  0.975600  1.0  -0.1164
  C  C1583  1  0.144400  0.770400  0.733800  1.0  -0.1344
  C  C1584  1  0.492900  0.202900  0.905300  1.0  -0.0497
  C  C1585  1  0.151600  0.638600  0.056200  1.0  -0.0621
  C  C1586  1  0.670300  0.828300  0.752100  1.0  -0.0477
  C  C1587  1  0.534400  0.537400  0.844800  1.0  -0.1084
  C  C1588  1  0.168100  0.376100  0.907700  1.0  0.7024
  C  C1589  1  0.719200  0.535200  0.651400  1.0  -0.1572
  C  C1590  1  0.541500  0.045500  0.964500  1.0  -0.0777
  C  C1591  1  0.074500  0.487500  0.859500  1.0  -0.0851
  C  C1592  1  0.272100  0.478100  0.329700  1.0  -0.0458
  C  C1593  1  0.817900  0.606900  0.448300  1.0  0.6999
  C  C1594  1  0.639000  0.127000  0.055000  1.0  0.1869
  C  C1595  1  0.568900  0.058900  0.682300  1.0  -0.0621
  C  C1596  1  0.454300  0.932300  0.701100  1.0  -0.093
  C  C1597  1  0.214300  0.086300  0.078100  1.0  -0.0857
  C  C1598  1  0.360600  0.875600  0.406200  1.0  -0.0883
  C  C1599  1  0.247200  0.607200  0.249400  1.0  -0.1155
  C  C1600  1  0.713700  0.538700  0.685900  1.0  -0.141
  C  C1601  1  0.380600  0.118600  0.733200  1.0  -0.0624
  C  C1602  1  0.181100  0.761100  0.752700  1.0  -0.1562
  C  C1603  1  0.365400  0.445400  0.900800  1.0  -0.0669
  C  C1604  1  0.744200  0.188200  0.791400  1.0  -0.0985
  C  C1605  1  0.803700  0.407700  0.852900  1.0  0.0806
  C  C1606  1  0.998500  0.157500  0.598500  1.0  -0.1487
  C  C1607  1  0.603500  0.532500  0.096500  1.0  -0.0963
  C  C1608  1  0.642400  0.639400  0.593800  1.0  -0.0896
  C  C1609  1  0.956800  0.392800  0.900600  1.0  -0.141
  C  C1610  1  0.812800  0.205800  0.663600  1.0  -0.1356
  C  C1611  1  0.478100  0.920100  0.329700  1.0  -0.0438
  C  C1612  1  0.064300  0.196300  0.147100  1.0  0.0844
  C  C1613  1  0.896900  0.731900  0.403300  1.0  -0.1277
  C  C1614  1  0.118700  0.340700  0.840900  1.0  -0.0514
  C  C1615  1  0.554600  0.711600  0.099200  1.0  -0.0668
  C  C1616  1  0.334300  0.154300  0.752100  1.0  0.0681
  C  C1617  1  0.625100  0.139100  0.093700  1.0  -0.0957
  C  C1618  1  0.633900  0.104900  0.073300  1.0  0.0262
  C  C1619  1  0.393400  0.698400  0.916800  1.0  -0.1015
  C  C1620  1  0.652100  0.086100  0.997700  1.0  -0.122
  O  O1621  1  0.532100  0.940100  0.755700  1.0  -0.601
  O  O1622  1  0.407900  0.586900  0.951300  1.0  -0.6338
  O  O1623  1  0.818400  0.628400  0.431800  1.0  -0.639
  O  O1624  1  0.616900  0.071900  0.873300  1.0  -0.6348
  O  O1625  1  0.342800  0.901800  0.127600  1.0  -0.6313
  O  O1626  1  0.844600  0.126600  0.628200  1.0  -0.6264
  O  O1627  1  0.886300  0.594400  0.411400  1.0  -1.2637
  O  O1628  1  0.065300  0.763300  0.734100  1.0  -0.6271
  O  O1629  1  0.665000  0.360000  0.112000  1.0  -0.623
  O  O1630  1  0.049400  0.745400  0.707800  1.0  -0.615
  O  O1631  1  0.181600  0.371600  0.568200  1.0  -0.638
  O  O1632  1  0.391200  0.906600  0.088700  1.0  -1.3155
  O  O1633  1  0.164100  0.353100  0.907700  1.0  -0.6375
  O  O1634  1  0.884200  0.061200  0.626400  1.0  -0.6244
  O  O1635  1  0.020600  0.681600  0.763200  1.0  -0.6388
  O  O1636  1  0.903900  0.644900  0.409300  1.0  -0.6018
  O  O1637  1  0.254600  0.502600  0.292200  1.0  -0.6119
  O  O1638  1  0.126600  0.400600  0.628200  1.0  -0.6239
  O  O1639  1  0.466100  0.011100  0.716700  1.0  -0.6248
  O  O1640  1  0.450600  0.003600  0.793200  1.0  -0.6219
  O  O1641  1  0.608800  0.093400  0.911300  1.0  -1.3154
  O  O1642  1  0.628400  0.121400  0.431800  1.0  -0.6361
  O  O1643  1  0.378200  0.873200  0.067400  1.0  -0.6362
  O  O1644  1  0.970600  0.288600  0.280200  1.0  -0.6162
  O  O1645  1  0.137000  0.335000  0.888000  1.0  -0.6213
  O  O1646  1  0.863000  0.665000  0.112000  1.0  -0.6213
  O  O1647  1  0.155400  0.873400  0.371800  1.0  -0.6258
  O  O1648  1  0.651500  0.030500  0.931500  1.0  -0.6285
  O  O1649  1  0.250400  0.509100  0.250300  1.0  -1.2754
  O  O1650  1  0.480100  0.964100  0.737700  1.0  -0.6081
  O  O1651  1  0.383100  0.928100  0.126700  1.0  -0.6338
  O  O1652  1  0.818100  0.480100  0.737700  1.0  -0.6062
  O  O1653  1  0.502600  0.950600  0.292200  1.0  -0.6118
  O  O1654  1  0.360000  0.863000  0.112000  1.0  -0.6236
  O  O1655  1  0.335100  0.962100  0.102700  1.0  -0.6241
  O  O1656  1  0.009800  0.749600  0.749700  1.0  -1.2757
  O  O1657  1  0.644900  0.041900  0.409300  1.0  -0.6007
  O  O1658  1  0.037900  0.399900  0.897300  1.0  -0.6239
  O  O1659  1  0.599400  0.155400  0.371800  1.0  -0.6214
  O  O1660  1  0.450200  0.918200  0.066400  1.0  -0.6243
  O  O1661  1  0.519900  0.035900  0.262300  1.0  -0.6085
  O  O1662  1  0.413100  0.946100  0.048700  1.0  -0.6328
  O  O1663  1  0.933400  0.049400  0.610800  1.0  -0.6351
  O  O1664  1  0.467900  0.059900  0.244300  1.0  -0.6017
  O  O1665  1  0.114800  0.468800  0.568600  1.0  -0.6291
  O  O1666  1  0.613500  0.391200  0.088700  1.0  -1.3155
  O  O1667  1  0.906300  0.549300  0.111100  1.0  -0.6282
  O  O1668  1  0.437300  0.065300  0.734100  1.0  -0.6292
  O  O1669  1  0.964300  0.307300  0.216100  1.0  -0.6195
  O  O1670  1  0.613500  0.348500  0.068500  1.0  -0.6301
  O  O1671  1  0.597400  0.456400  0.090800  1.0  -0.6292
  O  O1672  1  0.968300  0.726300  0.746100  1.0  -0.6314
  O  O1673  1  0.549400  0.996400  0.206800  1.0  -0.6206
  O  O1674  1  0.434800  0.549800  0.933600  1.0  -0.6245
  O  O1675  1  0.049700  0.933700  0.433900  1.0  -0.6367
  O  O1676  1  0.752600  0.450600  0.793200  1.0  -0.6192
  O  O1677  1  0.212500  0.529500  0.218500  1.0  -0.6241
  O  O1678  1  0.405600  0.892100  0.588600  1.0  -1.2635
  O  O1679  1  0.640000  0.137000  0.888000  1.0  -0.6218
  O  O1680  1  0.566600  0.937600  0.233200  1.0  -0.614
  O  O1681  1  0.318800  0.621800  0.932600  1.0  -0.636
  O  O1682  1  0.163600  0.361600  0.613200  1.0  -0.6295
  O  O1683  1  0.906800  0.553800  0.451600  1.0  -0.6336
  O  O1684  1  0.417300  0.950300  0.566100  1.0  -0.6368
  O  O1685  1  0.386500  0.651500  0.931500  1.0  -0.6305
  O  O1686  1  0.049400  0.406400  0.610800  1.0  -0.636
  O  O1687  1  0.374400  0.919400  0.048800  1.0  -0.622
  O  O1688  1  0.030500  0.386500  0.931500  1.0  -0.6306
  O  O1689  1  0.787500  0.470500  0.781500  1.0  -0.6249
  O  O1690  1  0.433400  0.062400  0.766800  1.0  -0.6154
  O  O1691  1  0.468800  0.847800  0.568600  1.0  -0.6283
  O  O1692  1  0.906600  0.613500  0.088700  1.0  -1.3156
  O  O1693  1  0.039500  0.212500  0.218500  1.0  -0.6231
  O  O1694  1  0.247400  0.549400  0.206800  1.0  -0.6207
  O  O1695  1  0.372200  0.657200  0.872400  1.0  -0.6303
  O  O1696  1  0.581000  0.126000  0.451000  1.0  -0.6186
  O  O1697  1  0.101400  0.461400  0.602800  1.0  -0.6055
  O  O1698  1  0.933700  0.582700  0.433900  1.0  -0.6376
  O  O1699  1  0.093400  0.386500  0.911300  1.0  -1.3153
  O  O1700  1  0.406400  0.933400  0.610800  1.0  -0.6362
  O  O1701  1  0.625600  0.080600  0.951200  1.0  -0.6205
  O  O1702  1  0.152200  0.885200  0.431400  1.0  -0.6306
  O  O1703  1  0.582700  0.049700  0.433900  1.0  -0.6376
  O  O1704  1  0.061200  0.428200  0.626400  1.0  -0.6254
  O  O1705  1  0.960500  0.787500  0.781500  1.0  -0.6243
  O  O1706  1  0.969500  0.613500  0.068500  1.0  -0.6301
  O  O1707  1  0.053900  0.407900  0.951300  1.0  -0.6349
  O  O1708  1  0.399900  0.664900  0.897300  1.0  -0.6208
  O  O1709  1  0.559300  0.968300  0.746100  1.0  -0.6283
  O  O1710  1  0.490900  0.009800  0.749700  1.0  -1.2756
  O  O1711  1  0.806100  0.466100  0.716700  1.0  -0.6221
  O  O1712  1  0.950300  0.066300  0.566100  1.0  -0.6358
  O  O1713  1  0.562700  0.934700  0.265900  1.0  -0.6298
  O  O1714  1  0.087800  0.906800  0.451600  1.0  -0.6326
  O  O1715  1  0.566700  0.093700  0.888900  1.0  -0.6295
  O  O1716  1  0.749600  0.490900  0.749700  1.0  -1.2755
  O  O1717  1  0.565200  0.450200  0.066400  1.0  -0.6239
  O  O1718  1  0.885200  0.531200  0.431400  1.0  -0.63
  O  O1719  1  0.460600  0.970600  0.280200  1.0  -0.6144
  O  O1720  1  0.400600  0.844600  0.628200  1.0  -0.6238
  O  O1721  1  0.181900  0.519900  0.262300  1.0  -0.6074
  O  O1722  1  0.531200  0.152200  0.431400  1.0  -0.6299
  O  O1723  1  0.594400  0.107900  0.411400  1.0  -1.2634
  O  O1724  1  0.925600  0.146600  0.592200  1.0  -0.6251
  O  O1725  1  0.950600  0.254600  0.292200  1.0  -0.6136
  O  O1726  1  0.456400  0.855400  0.090800  1.0  -0.629
  O  O1727  1  0.003600  0.752600  0.793200  1.0  -0.6206
  O  O1728  1  0.898600  0.538600  0.397200  1.0  -0.6055
  O  O1729  1  0.487700  0.035700  0.783900  1.0  -0.6198
  O  O1730  1  0.011100  0.806100  0.716700  1.0  -0.6233
  O  O1731  1  0.107900  0.886300  0.411400  1.0  -1.2638
  O  O1732  1  0.918200  0.565200  0.066400  1.0  -0.6247
  O  O1733  1  0.692700  0.487700  0.783900  1.0  -0.621
  O  O1734  1  0.035700  0.692700  0.783900  1.0  -0.6195
  O  O1735  1  0.878600  0.181600  0.568200  1.0  -0.6364
  O  O1736  1  0.593600  0.066600  0.389200  1.0  -0.6359
  O  O1737  1  0.847800  0.114800  0.568600  1.0  -0.6292
  O  O1738  1  0.873400  0.599400  0.371800  1.0  -0.624
  O  O1739  1  0.066600  0.950600  0.389200  1.0  -0.635
  O  O1740  1  0.465400  0.979400  0.236800  1.0  -0.6388
  O  O1741  1  0.892100  0.113700  0.588600  1.0  -1.2628
  O  O1742  1  0.273700  0.440700  0.253900  1.0  -0.63
  O  O1743  1  0.681200  0.378200  0.067400  1.0  -0.6361
  O  O1744  1  0.115800  0.938800  0.373600  1.0  -0.6254
  O  O1745  1  0.424900  0.835900  0.092300  1.0  -0.6364
  O  O1746  1  0.437900  0.616900  0.873300  1.0  -0.6346
  O  O1747  1  0.096100  0.355100  0.590700  1.0  -0.6015
  O  O1748  1  0.144600  0.402600  0.909200  1.0  -0.632
  O  O1749  1  0.361600  0.861600  0.613200  1.0  -0.6305
  O  O1750  1  0.158000  0.419000  0.549000  1.0  -0.6207
  O  O1751  1  0.901800  0.627800  0.127600  1.0  -0.6289
  O  O1752  1  0.081800  0.434800  0.933600  1.0  -0.6241
  O  O1753  1  0.098200  0.372200  0.872400  1.0  -0.6293
  O  O1754  1  0.592100  0.413100  0.048700  1.0  -0.633
  O  O1755  1  0.681600  0.534600  0.763200  1.0  -0.6419
  O  O1756  1  0.342600  0.625600  0.951200  1.0  -0.6193
  O  O1757  1  0.461400  0.834400  0.602800  1.0  -0.6051
  O  O1758  1  0.657400  0.374400  0.048800  1.0  -0.6189
  O  O1759  1  0.126800  0.318800  0.932600  1.0  -0.635
  O  O1760  1  0.533900  0.988900  0.283300  1.0  -0.6251
  O  O1761  1  0.066300  0.417300  0.566100  1.0  -0.6388
  O  O1762  1  0.402600  0.543600  0.909200  1.0  -0.63
  O  O1763  1  0.512300  0.964300  0.216100  1.0  -0.6199
  O  O1764  1  0.627800  0.342800  0.127600  1.0  -0.6308
  O  O1765  1  0.371600  0.878600  0.568200  1.0  -0.6372
  O  O1766  1  0.307300  0.512300  0.216100  1.0  -0.6206
  O  O1767  1  0.745400  0.497400  0.707800  1.0  -0.6119
  O  O1768  1  0.074400  0.853400  0.407800  1.0  -0.6267
  O  O1769  1  0.711400  0.539400  0.719800  1.0  -0.6153
  O  O1770  1  0.571800  0.115800  0.373600  1.0  -0.6259
  O  O1771  1  0.071900  0.437900  0.873300  1.0  -0.6354
  O  O1772  1  0.386500  0.608800  0.911300  1.0  -1.3152
  O  O1773  1  0.737400  0.433400  0.766800  1.0  -0.6115
  O  O1774  1  0.355100  0.958100  0.590700  1.0  -0.602
  O  O1775  1  0.938800  0.571800  0.373600  1.0  -0.6242
  O  O1776  1  0.288600  0.460600  0.280200  1.0  -0.6157
  O  O1777  1  0.146600  0.335600  0.592200  1.0  -0.6251
  O  O1778  1  0.138400  0.836400  0.386800  1.0  -0.6315
  O  O1779  1  0.621800  0.126800  0.932600  1.0  -0.6355
  O  O1780  1  0.126000  0.842000  0.451000  1.0  -0.6187
  O  O1781  1  0.664900  0.037900  0.897300  1.0  -0.6226
  O  O1782  1  0.861600  0.163600  0.613200  1.0  -0.631
  O  O1783  1  0.433300  0.906300  0.111100  1.0  -0.6304
  O  O1784  1  0.543600  0.144600  0.909200  1.0  -0.6284
  O  O1785  1  0.964100  0.818100  0.737700  1.0  -0.6059
  O  O1786  1  0.873200  0.681200  0.067400  1.0  -0.636
  O  O1787  1  0.335600  0.925600  0.592200  1.0  -0.6245
  O  O1788  1  0.538600  0.165600  0.397200  1.0  -0.6056
  O  O1789  1  0.353100  0.575100  0.907700  1.0  -0.6374
  O  O1790  1  0.586900  0.053900  0.951300  1.0  -0.6339
  O  O1791  1  0.638400  0.138400  0.386800  1.0  -0.629
  O  O1792  1  0.962100  0.600100  0.102700  1.0  -0.6222
  O  O1793  1  0.988900  0.193900  0.283300  1.0  -0.6224
  O  O1794  1  0.035900  0.181900  0.262300  1.0  -0.6071
  O  O1795  1  0.031700  0.273700  0.253900  1.0  -0.6307
  O  O1796  1  0.113700  0.405600  0.588600  1.0  -1.2632
  O  O1797  1  0.470500  0.960500  0.781500  1.0  -0.6262
  O  O1798  1  0.950600  0.593600  0.389200  1.0  -0.6342
  O  O1799  1  0.318400  0.465400  0.236800  1.0  -0.6403
  O  O1800  1  0.958100  0.096100  0.590700  1.0  -0.6011
  O  O1801  1  0.600100  0.335100  0.102700  1.0  -0.621
  O  O1802  1  0.121400  0.818400  0.431800  1.0  -0.6371
  O  O1803  1  0.041900  0.903900  0.409300  1.0  -0.6022
  O  O1804  1  0.227900  0.467900  0.244300  1.0  -0.6017
  O  O1805  1  0.335000  0.640000  0.888000  1.0  -0.6229
  O  O1806  1  0.029400  0.711400  0.719800  1.0  -0.6158
  O  O1807  1  0.450700  0.566700  0.888900  1.0  -0.6314
  O  O1808  1  0.657200  0.098200  0.872400  1.0  -0.6298
  O  O1809  1  0.497400  0.049400  0.707800  1.0  -0.6108
  O  O1810  1  0.946100  0.592100  0.048700  1.0  -0.6356
  O  O1811  1  0.440700  0.031700  0.253900  1.0  -0.6301
  O  O1812  1  0.835900  0.646900  0.092300  1.0  -0.639
  O  O1813  1  0.990200  0.250400  0.250300  1.0  -1.2751
  O  O1814  1  0.093700  0.450700  0.888900  1.0  -0.6271
  O  O1815  1  0.979400  0.318400  0.236800  1.0  -0.6372
  O  O1816  1  0.940100  0.772100  0.755700  1.0  -0.6018
  O  O1817  1  0.562100  0.383100  0.126700  1.0  -0.6357
  O  O1818  1  0.937600  0.262600  0.233200  1.0  -0.615
  O  O1819  1  0.874000  0.158000  0.549000  1.0  -0.6176
  O  O1820  1  0.928100  0.562100  0.126700  1.0  -0.6333
  O  O1821  1  0.419000  0.874000  0.549000  1.0  -0.6178
  O  O1822  1  0.236700  0.562700  0.265900  1.0  -0.6281
  O  O1823  1  0.428200  0.884200  0.626400  1.0  -0.6269
  O  O1824  1  0.912200  0.093200  0.548400  1.0  -0.6324
  O  O1825  1  0.855400  0.597400  0.090800  1.0  -0.6318
  O  O1826  1  0.553800  0.087800  0.451600  1.0  -0.6338
  O  O1827  1  0.262600  0.566600  0.233200  1.0  -0.6131
  O  O1828  1  0.549300  0.433300  0.111100  1.0  -0.6315
  O  O1829  1  0.059900  0.227900  0.244300  1.0  -0.601
  O  O1830  1  0.509100  0.990200  0.250300  1.0  -1.2754
  O  O1831  1  0.348500  0.969500  0.068500  1.0  -0.6294
  O  O1832  1  0.534600  0.020600  0.763200  1.0  -0.6394
  O  O1833  1  0.093200  0.446200  0.548400  1.0  -0.6331
  O  O1834  1  0.062400  0.737400  0.766800  1.0  -0.6144
  O  O1835  1  0.529500  0.039500  0.218500  1.0  -0.6261
  O  O1836  1  0.919400  0.657400  0.048800  1.0  -0.6214
  O  O1837  1  0.549800  0.081800  0.933600  1.0  -0.6252
  O  O1838  1  0.646900  0.424900  0.092300  1.0  -0.6362
  O  O1839  1  0.165600  0.898600  0.397200  1.0  -0.6044
  O  O1840  1  0.836400  0.638400  0.386800  1.0  -0.6307
  O  O1841  1  0.664400  0.074400  0.407800  1.0  -0.6246
  O  O1842  1  0.996400  0.247400  0.206800  1.0  -0.619
  O  O1843  1  0.934700  0.236700  0.265900  1.0  -0.6273
  O  O1844  1  0.726300  0.559300  0.746100  1.0  -0.6301
  O  O1845  1  0.080600  0.342600  0.951200  1.0  -0.6207
  O  O1846  1  0.193900  0.533900  0.283300  1.0  -0.6241
  O  O1847  1  0.763300  0.437300  0.734100  1.0  -0.6276
  O  O1848  1  0.842000  0.581000  0.451000  1.0  -0.6212
  O  O1849  1  0.539400  0.029400  0.719800  1.0  -0.6149
  O  O1850  1  0.834400  0.101400  0.602800  1.0  -0.6058
  O  O1851  1  0.772100  0.532100  0.755700  1.0  -0.6014
  O  O1852  1  0.853400  0.664400  0.407800  1.0  -0.6234
  O  O1853  1  0.575100  0.164100  0.907700  1.0  -0.6349
  O  O1854  1  0.446200  0.912200  0.548400  1.0  -0.6324
