# generated using pymatgen
data_Ag2B2H96C90(NO)9
_symmetry_space_group_name_H-M   'P 1'
_cell_length_a   22.35110000
_cell_length_b   22.35110000
_cell_length_c   25.37760000
_cell_angle_alpha   90.00000000
_cell_angle_beta   90.00000000
_cell_angle_gamma   90.00000000
_symmetry_Int_Tables_number   1
_chemical_formula_structural   Ag2B2H96C90(NO)9
_chemical_formula_sum   'Ag8 B8 H384 C360 N36 O36'
_cell_volume   12677.93004330
_cell_formula_units_Z   4
loop_
 _symmetry_equiv_pos_site_id
 _symmetry_equiv_pos_as_xyz
  1  'x, y, z'
loop_
 _atom_site_type_symbol
 _atom_site_label
 _atom_site_symmetry_multiplicity
 _atom_site_fract_x
 _atom_site_fract_y
 _atom_site_fract_z
 _atom_site_occupancy
 _atom_site_charge
  Ag  Ag1  1  0.133400  0.241980  0.918410  1.0  0.3309
  Ag  Ag2  1  0.866600  0.758020  0.418410  1.0  0.3317
  Ag  Ag3  1  0.241980  0.133400  0.081590  1.0  0.3338
  Ag  Ag4  1  0.758020  0.866600  0.581590  1.0  0.3344
  Ag  Ag5  1  0.258020  0.633400  0.668410  1.0  0.3343
  Ag  Ag6  1  0.741980  0.366600  0.168410  1.0  0.334
  Ag  Ag7  1  0.366600  0.741980  0.831590  1.0  0.3316
  Ag  Ag8  1  0.633400  0.258020  0.331590  1.0  0.3308
  B  B9  1  0.274220  0.932200  0.607550  1.0  0.4089
  B  B10  1  0.725780  0.067800  0.107550  1.0  0.4081
  B  B11  1  0.932200  0.274220  0.392450  1.0  0.408
  B  B12  1  0.067800  0.725780  0.892450  1.0  0.4093
  B  B13  1  0.567800  0.774220  0.357550  1.0  0.4082
  B  B14  1  0.432200  0.225780  0.857550  1.0  0.4073
  B  B15  1  0.225780  0.432200  0.142450  1.0  0.409
  B  B16  1  0.774220  0.567800  0.642450  1.0  0.4097
  H  H17  1  0.229000  0.139900  0.898100  1.0  0.0796
  H  H18  1  0.264300  0.075200  0.835700  1.0  0.1142
  H  H19  1  0.134100  0.130700  0.740400  1.0  0.1219
  H  H20  1  0.102000  0.192400  0.804800  1.0  0.0879
  H  H21  1  0.142500  0.935400  0.772100  1.0  0.0717
  H  H22  1  0.175900  0.977200  0.812100  1.0  0.1214
  H  H23  1  0.122000  0.002000  0.779100  1.0  0.1308
  H  H24  1  0.158500  0.891500  0.719300  1.0  0.0708
  H  H25  1  0.165000  0.891200  0.657800  1.0  0.118
  H  H26  1  0.216600  0.865900  0.693200  1.0  0.1193
  H  H27  1  0.341700  0.095000  0.630300  1.0  0.1035
  H  H28  1  0.362500  0.029100  0.619700  1.0  0.1247
  H  H29  1  0.310800  0.057200  0.586000  1.0  0.1114
  H  H30  1  0.273700  0.154100  0.734600  1.0  0.1146
  H  H31  1  0.333100  0.132400  0.708000  1.0  0.1209
  H  H32  1  0.280300  0.156100  0.673100  1.0  0.1194
  H  H33  1  0.918000  0.825800  0.525000  1.0  0.0875
  H  H34  1  0.005200  0.858700  0.563200  1.0  0.1167
  H  H35  1  0.092900  0.809700  0.433800  1.0  0.1204
  H  H36  1  0.003900  0.774200  0.399300  1.0  0.0906
  H  H37  1  0.091500  0.009100  0.509700  1.0  0.1027
  H  H38  1  0.074600  0.960900  0.467400  1.0  0.1297
  H  H39  1  0.041100  0.962200  0.521600  1.0  0.121
  H  H40  1  0.155900  0.035600  0.538100  1.0  0.1056
  H  H41  1  0.194900  0.027100  0.589000  1.0  0.1202
  H  H42  1  0.224800  0.023600  0.533200  1.0  0.1138
  H  H43  1  0.245000  0.761300  0.574400  1.0  0.1031
  H  H44  1  0.295800  0.808700  0.565700  1.0  0.1207
  H  H45  1  0.263100  0.804800  0.620300  1.0  0.1225
  H  H46  1  0.110400  0.749200  0.523500  1.0  0.1167
  H  H47  1  0.179500  0.739100  0.517800  1.0  0.1137
  H  H48  1  0.150000  0.740100  0.573800  1.0  0.1125
  H  H49  1  0.636600  0.791100  0.569900  1.0  0.073
  H  H50  1  0.536000  0.800400  0.569200  1.0  0.1143
  H  H51  1  0.556000  0.970800  0.612800  1.0  0.1234
  H  H52  1  0.656200  0.957100  0.609400  1.0  0.0864
  H  H53  1  0.510400  0.920300  0.503000  1.0  0.1195
  H  H54  1  0.452300  0.905600  0.470900  1.0  0.1172
  H  H55  1  0.464400  0.971200  0.490000  1.0  0.1234
  H  H56  1  0.300100  0.957600  0.515000  1.0  0.1159
  H  H57  1  0.358700  0.991600  0.499100  1.0  0.1194
  H  H58  1  0.346500  0.927200  0.477200  1.0  0.1153
  H  H59  1  0.300400  0.881500  0.689900  1.0  0.1192
  H  H60  1  0.347200  0.830300  0.699000  1.0  0.1199
  H  H61  1  0.358500  0.894100  0.722600  1.0  0.118
  H  H62  1  0.512000  0.851300  0.678900  1.0  0.123
  H  H63  1  0.465800  0.881200  0.717200  1.0  0.1233
  H  H64  1  0.454400  0.816300  0.696100  1.0  0.1216
  H  H65  1  0.771000  0.860100  0.398100  1.0  0.0796
  H  H66  1  0.735700  0.924800  0.335700  1.0  0.1146
  H  H67  1  0.865900  0.869300  0.240400  1.0  0.1221
  H  H68  1  0.898000  0.807600  0.304800  1.0  0.0882
  H  H69  1  0.857500  0.064600  0.272100  1.0  0.0728
  H  H70  1  0.824100  0.022800  0.312100  1.0  0.1201
  H  H71  1  0.878000  0.998000  0.279100  1.0  0.1303
  H  H72  1  0.841500  0.108500  0.219300  1.0  0.0718
  H  H73  1  0.835000  0.108800  0.157800  1.0  0.1188
  H  H74  1  0.783400  0.134100  0.193200  1.0  0.1182
  H  H75  1  0.658300  0.905000  0.130300  1.0  0.1036
  H  H76  1  0.637500  0.970900  0.119700  1.0  0.1238
  H  H77  1  0.689200  0.942800  0.086000  1.0  0.1101
  H  H78  1  0.726300  0.845900  0.234600  1.0  0.1141
  H  H79  1  0.666900  0.867600  0.208000  1.0  0.1194
  H  H80  1  0.719700  0.843900  0.173100  1.0  0.1186
  H  H81  1  0.082000  0.174200  0.025000  1.0  0.0881
  H  H82  1  0.994800  0.141300  0.063200  1.0  0.1171
  H  H83  1  0.907100  0.190300  0.933800  1.0  0.1204
  H  H84  1  0.996100  0.225800  0.899300  1.0  0.0902
  H  H85  1  0.908500  0.990900  0.009700  1.0  0.1028
  H  H86  1  0.925400  0.039100  0.967400  1.0  0.1297
  H  H87  1  0.958900  0.037800  0.021600  1.0  0.1232
  H  H88  1  0.844100  0.964400  0.038100  1.0  0.1039
  H  H89  1  0.805100  0.972900  0.089000  1.0  0.1197
  H  H90  1  0.775200  0.976400  0.033200  1.0  0.115
  H  H91  1  0.755000  0.238700  0.074400  1.0  0.1038
  H  H92  1  0.704200  0.191300  0.065700  1.0  0.1196
  H  H93  1  0.736900  0.195200  0.120300  1.0  0.1226
  H  H94  1  0.889600  0.250800  0.023500  1.0  0.1173
  H  H95  1  0.820500  0.260900  0.017800  1.0  0.1144
  H  H96  1  0.850000  0.259900  0.073800  1.0  0.1127
  H  H97  1  0.363400  0.208900  0.069900  1.0  0.0728
  H  H98  1  0.464000  0.199600  0.069200  1.0  0.114
  H  H99  1  0.444000  0.029200  0.112800  1.0  0.1248
  H  H100  1  0.343800  0.042900  0.109400  1.0  0.0861
  H  H101  1  0.489600  0.079700  0.003000  1.0  0.1193
  H  H102  1  0.547700  0.094400  0.970900  1.0  0.116
  H  H103  1  0.535600  0.028800  0.990000  1.0  0.1235
  H  H104  1  0.699900  0.042400  0.015000  1.0  0.1166
  H  H105  1  0.641300  0.008400  0.999100  1.0  0.1185
  H  H106  1  0.653500  0.072800  0.977200  1.0  0.1136
  H  H107  1  0.699600  0.118500  0.189900  1.0  0.1186
  H  H108  1  0.652800  0.169700  0.199000  1.0  0.1206
  H  H109  1  0.641500  0.105900  0.222600  1.0  0.118
  H  H110  1  0.488000  0.148700  0.178900  1.0  0.1226
  H  H111  1  0.534200  0.118800  0.217200  1.0  0.125
  H  H112  1  0.545600  0.183700  0.196100  1.0  0.1229
  H  H113  1  0.139900  0.229000  0.101900  1.0  0.0795
  H  H114  1  0.075200  0.264300  0.164300  1.0  0.1149
  H  H115  1  0.130700  0.134100  0.259600  1.0  0.1206
  H  H116  1  0.192400  0.102000  0.195200  1.0  0.0886
  H  H117  1  0.935400  0.142500  0.227900  1.0  0.0691
  H  H118  1  0.977200  0.175900  0.187900  1.0  0.1204
  H  H119  1  0.002000  0.122000  0.220900  1.0  0.1298
  H  H120  1  0.891500  0.158500  0.280700  1.0  0.0703
  H  H121  1  0.891200  0.165000  0.342200  1.0  0.1183
  H  H122  1  0.865900  0.216600  0.306800  1.0  0.1201
  H  H123  1  0.095000  0.341700  0.369700  1.0  0.1028
  H  H124  1  0.029100  0.362500  0.380300  1.0  0.1285
  H  H125  1  0.057200  0.310800  0.414000  1.0  0.1129
  H  H126  1  0.154100  0.273700  0.265400  1.0  0.1159
  H  H127  1  0.132400  0.333100  0.292000  1.0  0.1208
  H  H128  1  0.156100  0.280300  0.326900  1.0  0.1172
  H  H129  1  0.825800  0.918000  0.475000  1.0  0.0878
  H  H130  1  0.858700  0.005200  0.436800  1.0  0.117
  H  H131  1  0.809700  0.092900  0.566200  1.0  0.1199
  H  H132  1  0.774200  0.003900  0.600700  1.0  0.0907
  H  H133  1  0.009100  0.091500  0.490300  1.0  0.1096
  H  H134  1  0.960900  0.074600  0.532600  1.0  0.1308
  H  H135  1  0.962200  0.041100  0.478400  1.0  0.1242
  H  H136  1  0.035600  0.155900  0.461900  1.0  0.1064
  H  H137  1  0.027100  0.194900  0.411000  1.0  0.1202
  H  H138  1  0.023600  0.224800  0.466800  1.0  0.1167
  H  H139  1  0.761300  0.245000  0.425600  1.0  0.104
  H  H140  1  0.808700  0.295800  0.434300  1.0  0.1216
  H  H141  1  0.804800  0.263100  0.379700  1.0  0.1233
  H  H142  1  0.749200  0.110400  0.476500  1.0  0.1186
  H  H143  1  0.739100  0.179500  0.482200  1.0  0.1151
  H  H144  1  0.740100  0.150000  0.426200  1.0  0.1145
  H  H145  1  0.791100  0.636600  0.430100  1.0  0.0737
  H  H146  1  0.800400  0.536000  0.430800  1.0  0.1139
  H  H147  1  0.970800  0.556000  0.387200  1.0  0.1238
  H  H148  1  0.957100  0.656200  0.390600  1.0  0.0853
  H  H149  1  0.920300  0.510400  0.497000  1.0  0.1205
  H  H150  1  0.905600  0.452300  0.529100  1.0  0.1195
  H  H151  1  0.971200  0.464400  0.510000  1.0  0.124
  H  H152  1  0.957600  0.300100  0.485000  1.0  0.1158
  H  H153  1  0.991600  0.358700  0.500900  1.0  0.1168
  H  H154  1  0.927200  0.346500  0.522800  1.0  0.1165
  H  H155  1  0.881500  0.300400  0.310100  1.0  0.117
  H  H156  1  0.830300  0.347200  0.301000  1.0  0.1232
  H  H157  1  0.894100  0.358500  0.277400  1.0  0.1178
  H  H158  1  0.851300  0.512000  0.321100  1.0  0.1195
  H  H159  1  0.881200  0.465800  0.282800  1.0  0.1232
  H  H160  1  0.816300  0.454400  0.303900  1.0  0.1189
  H  H161  1  0.860100  0.771000  0.601900  1.0  0.0803
  H  H162  1  0.924800  0.735700  0.664300  1.0  0.1155
  H  H163  1  0.869300  0.865900  0.759600  1.0  0.1214
  H  H164  1  0.807600  0.898000  0.695200  1.0  0.0889
  H  H165  1  0.064600  0.857500  0.727900  1.0  0.0698
  H  H166  1  0.022800  0.824100  0.687900  1.0  0.1202
  H  H167  1  0.998000  0.878000  0.720900  1.0  0.129
  H  H168  1  0.108500  0.841500  0.780700  1.0  0.0705
  H  H169  1  0.108800  0.835000  0.842200  1.0  0.1179
  H  H170  1  0.134100  0.783400  0.806800  1.0  0.1182
  H  H171  1  0.905000  0.658300  0.869700  1.0  0.1073
  H  H172  1  0.970900  0.637500  0.880300  1.0  0.1289
  H  H173  1  0.942800  0.689200  0.914000  1.0  0.1127
  H  H174  1  0.845900  0.726300  0.765400  1.0  0.1165
  H  H175  1  0.867600  0.666900  0.792000  1.0  0.1222
  H  H176  1  0.843900  0.719700  0.826900  1.0  0.1185
  H  H177  1  0.174200  0.082000  0.975000  1.0  0.0878
  H  H178  1  0.141300  0.994800  0.936800  1.0  0.1174
  H  H179  1  0.190300  0.907100  0.066200  1.0  0.12
  H  H180  1  0.225800  0.996100  0.100700  1.0  0.091
  H  H181  1  0.990900  0.908500  0.990300  1.0  0.1054
  H  H182  1  0.039100  0.925400  0.032600  1.0  0.1316
  H  H183  1  0.037800  0.958900  0.978400  1.0  0.1247
  H  H184  1  0.964400  0.844100  0.961900  1.0  0.1074
  H  H185  1  0.972900  0.805100  0.911000  1.0  0.12
  H  H186  1  0.976400  0.775200  0.966800  1.0  0.1177
  H  H187  1  0.238700  0.755000  0.925600  1.0  0.1046
  H  H188  1  0.191300  0.704200  0.934300  1.0  0.1207
  H  H189  1  0.195200  0.736900  0.879700  1.0  0.1232
  H  H190  1  0.250800  0.889600  0.976500  1.0  0.12
  H  H191  1  0.260900  0.820500  0.982200  1.0  0.1139
  H  H192  1  0.259900  0.850000  0.926200  1.0  0.1138
  H  H193  1  0.208900  0.363400  0.930100  1.0  0.0729
  H  H194  1  0.199600  0.464000  0.930800  1.0  0.1137
  H  H195  1  0.029200  0.444000  0.887200  1.0  0.1232
  H  H196  1  0.042900  0.343800  0.890600  1.0  0.085
  H  H197  1  0.079700  0.489600  0.997000  1.0  0.1197
  H  H198  1  0.094400  0.547700  0.029100  1.0  0.1177
  H  H199  1  0.028800  0.535600  0.010000  1.0  0.1224
  H  H200  1  0.042400  0.699900  0.985000  1.0  0.1159
  H  H201  1  0.008400  0.641300  0.000900  1.0  0.118
  H  H202  1  0.072800  0.653500  0.022800  1.0  0.1155
  H  H203  1  0.118500  0.699600  0.810100  1.0  0.1177
  H  H204  1  0.169700  0.652800  0.801000  1.0  0.124
  H  H205  1  0.105900  0.641500  0.777400  1.0  0.1172
  H  H206  1  0.148700  0.488000  0.821100  1.0  0.1199
  H  H207  1  0.118800  0.534200  0.782800  1.0  0.1233
  H  H208  1  0.183700  0.545600  0.803900  1.0  0.1215
  H  H209  1  0.360100  0.729000  0.648100  1.0  0.0787
  H  H210  1  0.424800  0.764300  0.585700  1.0  0.1153
  H  H211  1  0.369300  0.634100  0.490400  1.0  0.1213
  H  H212  1  0.307600  0.602000  0.554800  1.0  0.0878
  H  H213  1  0.564600  0.642500  0.522100  1.0  0.0701
  H  H214  1  0.522800  0.675900  0.562100  1.0  0.1204
  H  H215  1  0.498000  0.622000  0.529100  1.0  0.1299
  H  H216  1  0.608500  0.658500  0.469300  1.0  0.0704
  H  H217  1  0.608800  0.665000  0.407800  1.0  0.118
  H  H218  1  0.634100  0.716600  0.443200  1.0  0.119
  H  H219  1  0.405000  0.841700  0.380300  1.0  0.1053
  H  H220  1  0.470900  0.862500  0.369700  1.0  0.1273
  H  H221  1  0.442800  0.810800  0.336000  1.0  0.1127
  H  H222  1  0.345900  0.773700  0.484600  1.0  0.1149
  H  H223  1  0.367600  0.833100  0.458000  1.0  0.1217
  H  H224  1  0.343900  0.780300  0.423100  1.0  0.1184
  H  H225  1  0.674200  0.418000  0.275000  1.0  0.0886
  H  H226  1  0.641300  0.505200  0.313200  1.0  0.1166
  H  H227  1  0.690300  0.592900  0.183800  1.0  0.12
  H  H228  1  0.725800  0.503900  0.149300  1.0  0.0907
  H  H229  1  0.490900  0.591500  0.259700  1.0  0.1054
  H  H230  1  0.539100  0.574600  0.217400  1.0  0.1296
  H  H231  1  0.537800  0.541100  0.271600  1.0  0.1237
  H  H232  1  0.464400  0.655900  0.288100  1.0  0.1062
  H  H233  1  0.472900  0.694900  0.339000  1.0  0.1194
  H  H234  1  0.476400  0.724800  0.283200  1.0  0.1165
  H  H235  1  0.738700  0.745000  0.324400  1.0  0.1044
  H  H236  1  0.691300  0.795800  0.315700  1.0  0.1213
  H  H237  1  0.695200  0.763100  0.370300  1.0  0.1232
  H  H238  1  0.750800  0.610400  0.273500  1.0  0.1202
  H  H239  1  0.760900  0.679500  0.267800  1.0  0.1141
  H  H240  1  0.759900  0.650000  0.323800  1.0  0.1134
  H  H241  1  0.708900  0.136600  0.319900  1.0  0.0735
  H  H242  1  0.699600  0.036000  0.319200  1.0  0.1145
  H  H243  1  0.529200  0.056000  0.362800  1.0  0.1231
  H  H244  1  0.542900  0.156200  0.359400  1.0  0.0859
  H  H245  1  0.579700  0.010400  0.253000  1.0  0.1202
  H  H246  1  0.594400  0.952300  0.220900  1.0  0.1159
  H  H247  1  0.528800  0.964400  0.240000  1.0  0.1222
  H  H248  1  0.542400  0.800100  0.265000  1.0  0.1159
  H  H249  1  0.508400  0.858700  0.249100  1.0  0.1169
  H  H250  1  0.572800  0.846500  0.227200  1.0  0.1144
  H  H251  1  0.618500  0.800400  0.439900  1.0  0.1177
  H  H252  1  0.669700  0.847200  0.449000  1.0  0.1242
  H  H253  1  0.605900  0.858500  0.472600  1.0  0.1179
  H  H254  1  0.648700  0.012000  0.428900  1.0  0.1192
  H  H255  1  0.618800  0.965800  0.467200  1.0  0.1234
  H  H256  1  0.683700  0.954400  0.446100  1.0  0.1213
  H  H257  1  0.639900  0.271000  0.148100  1.0  0.0791
  H  H258  1  0.575200  0.235700  0.085700  1.0  0.1149
  H  H259  1  0.630700  0.365900  0.990400  1.0  0.1213
  H  H260  1  0.692400  0.398000  0.054800  1.0  0.0889
  H  H261  1  0.435400  0.357500  0.022100  1.0  0.0693
  H  H262  1  0.477200  0.324100  0.062100  1.0  0.1201
  H  H263  1  0.502000  0.378000  0.029100  1.0  0.1288
  H  H264  1  0.391500  0.341500  0.969300  1.0  0.0708
  H  H265  1  0.391200  0.335000  0.907800  1.0  0.1175
  H  H266  1  0.365900  0.283400  0.943200  1.0  0.1191
  H  H267  1  0.595000  0.158300  0.880300  1.0  0.1041
  H  H268  1  0.529100  0.137500  0.869700  1.0  0.1285
  H  H269  1  0.557200  0.189200  0.836000  1.0  0.1128
  H  H270  1  0.654100  0.226300  0.984600  1.0  0.1154
  H  H271  1  0.632400  0.166900  0.958000  1.0  0.1203
  H  H272  1  0.656100  0.219700  0.923100  1.0  0.1196
  H  H273  1  0.325800  0.582000  0.775000  1.0  0.0879
  H  H274  1  0.358700  0.494800  0.813200  1.0  0.1164
  H  H275  1  0.309700  0.407100  0.683800  1.0  0.119
  H  H276  1  0.274200  0.496100  0.649300  1.0  0.0909
  H  H277  1  0.509100  0.408500  0.759700  1.0  0.1091
  H  H278  1  0.460900  0.425400  0.717400  1.0  0.1296
  H  H279  1  0.462200  0.458900  0.771600  1.0  0.1245
  H  H280  1  0.535600  0.344100  0.788100  1.0  0.1068
  H  H281  1  0.527100  0.305100  0.839000  1.0  0.1197
  H  H282  1  0.523600  0.275200  0.783200  1.0  0.118
  H  H283  1  0.261300  0.255000  0.824400  1.0  0.1035
  H  H284  1  0.308700  0.204200  0.815700  1.0  0.1208
  H  H285  1  0.304800  0.236900  0.870300  1.0  0.123
  H  H286  1  0.249200  0.389600  0.773500  1.0  0.1198
  H  H287  1  0.239100  0.320500  0.767800  1.0  0.1136
  H  H288  1  0.240100  0.350000  0.823800  1.0  0.1134
  H  H289  1  0.291100  0.863400  0.819900  1.0  0.0746
  H  H290  1  0.300400  0.964000  0.819200  1.0  0.1141
  H  H291  1  0.470800  0.944000  0.862800  1.0  0.1235
  H  H292  1  0.457100  0.843800  0.859400  1.0  0.0854
  H  H293  1  0.420300  0.989600  0.753000  1.0  0.1216
  H  H294  1  0.405600  0.047700  0.720900  1.0  0.1187
  H  H295  1  0.471200  0.035600  0.740000  1.0  0.1241
  H  H296  1  0.457600  0.199900  0.765000  1.0  0.1159
  H  H297  1  0.491600  0.141300  0.749100  1.0  0.1196
  H  H298  1  0.427200  0.153500  0.727200  1.0  0.1166
  H  H299  1  0.381500  0.199600  0.939900  1.0  0.1173
  H  H300  1  0.330300  0.152800  0.949000  1.0  0.1231
  H  H301  1  0.394100  0.141500  0.972600  1.0  0.1182
  H  H302  1  0.351300  0.988000  0.928900  1.0  0.1203
  H  H303  1  0.381200  0.034200  0.967200  1.0  0.1228
  H  H304  1  0.316300  0.045600  0.946100  1.0  0.1189
  H  H305  1  0.271000  0.639900  0.851900  1.0  0.0798
  H  H306  1  0.235700  0.575200  0.914300  1.0  0.1145
  H  H307  1  0.365900  0.630700  0.009600  1.0  0.1216
  H  H308  1  0.398000  0.692400  0.945200  1.0  0.0885
  H  H309  1  0.357500  0.435400  0.977900  1.0  0.0718
  H  H310  1  0.324100  0.477200  0.937900  1.0  0.1202
  H  H311  1  0.378000  0.502000  0.970900  1.0  0.1309
  H  H312  1  0.341500  0.391500  0.030700  1.0  0.0706
  H  H313  1  0.335000  0.391200  0.092200  1.0  0.119
  H  H314  1  0.283400  0.365900  0.056800  1.0  0.1182
  H  H315  1  0.158300  0.595000  0.119700  1.0  0.1036
  H  H316  1  0.137500  0.529100  0.130300  1.0  0.1252
  H  H317  1  0.189200  0.557200  0.164000  1.0  0.1113
  H  H318  1  0.226300  0.654100  0.015400  1.0  0.1151
  H  H319  1  0.166900  0.632400  0.042000  1.0  0.1205
  H  H320  1  0.219700  0.656100  0.076900  1.0  0.1179
  H  H321  1  0.582000  0.325800  0.225000  1.0  0.0875
  H  H322  1  0.494800  0.358700  0.186800  1.0  0.1177
  H  H323  1  0.407100  0.309700  0.316200  1.0  0.1207
  H  H324  1  0.496100  0.274200  0.350700  1.0  0.0912
  H  H325  1  0.408500  0.509100  0.240300  1.0  0.1029
  H  H326  1  0.425400  0.460900  0.282600  1.0  0.1313
  H  H327  1  0.458900  0.462200  0.228400  1.0  0.1232
  H  H328  1  0.344100  0.535600  0.211900  1.0  0.1058
  H  H329  1  0.305100  0.527100  0.161000  1.0  0.1208
  H  H330  1  0.275200  0.523600  0.216800  1.0  0.1144
  H  H331  1  0.255000  0.261300  0.175600  1.0  0.1046
  H  H332  1  0.204200  0.308700  0.184300  1.0  0.119
  H  H333  1  0.236900  0.304800  0.129700  1.0  0.1222
  H  H334  1  0.389600  0.249200  0.226500  1.0  0.1177
  H  H335  1  0.320500  0.239100  0.232200  1.0  0.115
  H  H336  1  0.350000  0.240100  0.176200  1.0  0.1137
  H  H337  1  0.863400  0.291100  0.180100  1.0  0.0733
  H  H338  1  0.964000  0.300400  0.180800  1.0  0.1139
  H  H339  1  0.944000  0.470800  0.137200  1.0  0.1249
  H  H340  1  0.843800  0.457100  0.140600  1.0  0.0856
  H  H341  1  0.989600  0.420300  0.247000  1.0  0.119
  H  H342  1  0.047700  0.405600  0.279100  1.0  0.1169
  H  H343  1  0.035600  0.471200  0.260000  1.0  0.123
  H  H344  1  0.199900  0.457600  0.235000  1.0  0.1136
  H  H345  1  0.141300  0.491600  0.250900  1.0  0.1182
  H  H346  1  0.153500  0.427200  0.272800  1.0  0.113
  H  H347  1  0.199600  0.381500  0.060100  1.0  0.1189
  H  H348  1  0.152800  0.330300  0.051000  1.0  0.12
  H  H349  1  0.141500  0.394100  0.027400  1.0  0.1175
  H  H350  1  0.988000  0.351300  0.071100  1.0  0.1211
  H  H351  1  0.034200  0.381200  0.032800  1.0  0.1246
  H  H352  1  0.045600  0.316300  0.053900  1.0  0.1215
  H  H353  1  0.729000  0.360100  0.351900  1.0  0.08
  H  H354  1  0.764300  0.424800  0.414300  1.0  0.1142
  H  H355  1  0.634100  0.369300  0.509600  1.0  0.1228
  H  H356  1  0.602000  0.307600  0.445200  1.0  0.0885
  H  H357  1  0.642500  0.564600  0.477900  1.0  0.0718
  H  H358  1  0.675900  0.522800  0.437900  1.0  0.1213
  H  H359  1  0.622000  0.498000  0.470900  1.0  0.1307
  H  H360  1  0.658500  0.608500  0.530700  1.0  0.0715
  H  H361  1  0.665000  0.608800  0.592200  1.0  0.1187
  H  H362  1  0.716600  0.634100  0.556800  1.0  0.118
  H  H363  1  0.841700  0.405000  0.619700  1.0  0.104
  H  H364  1  0.862500  0.470900  0.630300  1.0  0.1258
  H  H365  1  0.810800  0.442800  0.664000  1.0  0.111
  H  H366  1  0.773700  0.345900  0.515400  1.0  0.1161
  H  H367  1  0.833100  0.367600  0.542000  1.0  0.1217
  H  H368  1  0.780300  0.343900  0.576900  1.0  0.1194
  H  H369  1  0.418000  0.674200  0.725000  1.0  0.0873
  H  H370  1  0.505200  0.641300  0.686800  1.0  0.1177
  H  H371  1  0.592900  0.690300  0.816200  1.0  0.1201
  H  H372  1  0.503900  0.725800  0.850700  1.0  0.0906
  H  H373  1  0.591500  0.490900  0.740300  1.0  0.1044
  H  H374  1  0.574600  0.539100  0.782600  1.0  0.1309
  H  H375  1  0.541100  0.537800  0.728400  1.0  0.1212
  H  H376  1  0.655900  0.464400  0.711900  1.0  0.1052
  H  H377  1  0.694900  0.472900  0.661000  1.0  0.1221
  H  H378  1  0.724800  0.476400  0.716800  1.0  0.1146
  H  H379  1  0.745000  0.738700  0.675600  1.0  0.1033
  H  H380  1  0.795800  0.691300  0.684300  1.0  0.121
  H  H381  1  0.763100  0.695200  0.629700  1.0  0.1226
  H  H382  1  0.610400  0.750800  0.726500  1.0  0.1162
  H  H383  1  0.679500  0.760900  0.732200  1.0  0.1141
  H  H384  1  0.650000  0.759900  0.676200  1.0  0.1134
  H  H385  1  0.136600  0.708900  0.680100  1.0  0.0728
  H  H386  1  0.036000  0.699600  0.680800  1.0  0.1139
  H  H387  1  0.056000  0.529200  0.637200  1.0  0.1242
  H  H388  1  0.156200  0.542900  0.640600  1.0  0.086
  H  H389  1  0.010400  0.579700  0.747000  1.0  0.1194
  H  H390  1  0.952300  0.594400  0.779100  1.0  0.1162
  H  H391  1  0.964400  0.528800  0.760000  1.0  0.1242
  H  H392  1  0.800100  0.542400  0.735000  1.0  0.115
  H  H393  1  0.858700  0.508400  0.750900  1.0  0.1186
  H  H394  1  0.846500  0.572800  0.772800  1.0  0.1145
  H  H395  1  0.800400  0.618500  0.560100  1.0  0.119
  H  H396  1  0.847200  0.669700  0.551000  1.0  0.1214
  H  H397  1  0.858500  0.605900  0.527400  1.0  0.1181
  H  H398  1  0.012000  0.648700  0.571100  1.0  0.1247
  H  H399  1  0.965800  0.618800  0.532800  1.0  0.124
  H  H400  1  0.954400  0.683700  0.553900  1.0  0.1227
  C  C401  1  0.209300  0.137690  0.865830  1.0  0.1804
  C  C402  1  0.230900  0.098590  0.828590  1.0  -0.191
  C  C403  1  0.202150  0.094460  0.779950  1.0  0.0866
  C  C404  1  0.154100  0.131200  0.772500  1.0  -0.2144
  C  C405  1  0.135200  0.168400  0.811200  1.0  0.1567
  C  C406  1  0.223650  0.052330  0.738320  1.0  -0.0546
  C  C407  1  0.265570  0.072060  0.700780  1.0  0.0498
  C  C408  1  0.283070  0.033090  0.659950  1.0  0.0306
  C  C409  1  0.256830  0.976210  0.655190  1.0  -0.0285
  C  C410  1  0.214370  0.957480  0.692670  1.0  0.0647
  C  C411  1  0.199250  0.994840  0.734930  1.0  0.0519
  C  C412  1  0.155900  0.975600  0.778600  1.0  -0.3649
  C  C413  1  0.186000  0.895900  0.690500  1.0  -0.3316
  C  C414  1  0.328700  0.055700  0.620400  1.0  -0.3846
  C  C415  1  0.290400  0.134300  0.704500  1.0  -0.3706
  C  C416  1  0.953700  0.821900  0.506500  1.0  0.1822
  C  C417  1  0.005900  0.843000  0.529300  1.0  -0.165
  C  C418  1  0.058480  0.840700  0.501710  1.0  0.1048
  C  C419  1  0.057600  0.813600  0.453000  1.0  -0.1729
  C  C420  1  0.003800  0.791900  0.432400  1.0  0.1709
  C  C421  1  0.116310  0.864000  0.524520  1.0  -0.0579
  C  C422  1  0.158970  0.824180  0.542230  1.0  0.0151
  C  C423  1  0.212780  0.845440  0.564130  1.0  0.0533
  C  C424  1  0.221560  0.907540  0.571680  1.0  -0.054
  C  C425  1  0.177670  0.947830  0.551470  1.0  0.0344
  C  C426  1  0.125510  0.926000  0.527600  1.0  0.0373
  C  C427  1  0.078800  0.968500  0.504400  1.0  -0.3587
  C  C428  1  0.189400  0.014700  0.553100  1.0  -0.3688
  C  C429  1  0.258270  0.801090  0.582800  1.0  -0.3912
  C  C430  1  0.148800  0.756900  0.539000  1.0  -0.3485
  C  C431  1  0.620110  0.828100  0.578300  1.0  0.1864
  C  C432  1  0.559500  0.833160  0.578240  1.0  -0.214
  C  C433  1  0.532520  0.887000  0.591590  1.0  0.1031
  C  C434  1  0.571200  0.933600  0.603500  1.0  -0.213
  C  C435  1  0.631500  0.924800  0.601800  1.0  0.1769
  C  C436  1  0.466450  0.894800  0.594000  1.0  -0.099
  C  C437  1  0.436550  0.880600  0.640440  1.0  0.0269
  C  C438  1  0.374280  0.890410  0.643710  1.0  0.0393
  C  C439  1  0.342810  0.914820  0.600840  1.0  -0.0377
  C  C440  1  0.373460  0.926670  0.553720  1.0  0.0462
  C  C441  1  0.435670  0.916700  0.549680  1.0  0.0375
  C  C442  1  0.468700  0.929600  0.498700  1.0  -0.3745
  C  C443  1  0.341800  0.953100  0.507050  1.0  -0.4024
  C  C444  1  0.342200  0.872500  0.693300  1.0  -0.3718
  C  C445  1  0.470300  0.855000  0.687500  1.0  -0.3869
  C  C446  1  0.790700  0.862310  0.365830  1.0  0.1801
  C  C447  1  0.769100  0.901410  0.328590  1.0  -0.188
  C  C448  1  0.797850  0.905540  0.279950  1.0  0.0872
  C  C449  1  0.845900  0.868800  0.272500  1.0  -0.2154
  C  C450  1  0.864800  0.831600  0.311200  1.0  0.1574
  C  C451  1  0.776350  0.947670  0.238320  1.0  -0.0533
  C  C452  1  0.734430  0.927940  0.200780  1.0  0.0506
  C  C453  1  0.716930  0.966910  0.159950  1.0  0.0293
  C  C454  1  0.743170  0.023790  0.155190  1.0  -0.0295
  C  C455  1  0.785630  0.042520  0.192670  1.0  0.0647
  C  C456  1  0.800750  0.005160  0.234930  1.0  0.0528
  C  C457  1  0.844100  0.024400  0.278600  1.0  -0.3671
  C  C458  1  0.814000  0.104100  0.190500  1.0  -0.3319
  C  C459  1  0.671300  0.944300  0.120400  1.0  -0.3859
  C  C460  1  0.709600  0.865700  0.204500  1.0  -0.3727
  C  C461  1  0.046300  0.178100  0.006500  1.0  0.1831
  C  C462  1  0.994100  0.157000  0.029300  1.0  -0.1649
  C  C463  1  0.941520  0.159300  0.001710  1.0  0.1042
  C  C464  1  0.942400  0.186400  0.953000  1.0  -0.1705
  C  C465  1  0.996200  0.208100  0.932400  1.0  0.1711
  C  C466  1  0.883690  0.136000  0.024520  1.0  -0.0582
  C  C467  1  0.841030  0.175820  0.042230  1.0  0.0144
  C  C468  1  0.787220  0.154560  0.064130  1.0  0.0537
  C  C469  1  0.778440  0.092460  0.071680  1.0  -0.0545
  C  C470  1  0.822330  0.052170  0.051470  1.0  0.0349
  C  C471  1  0.874490  0.074000  0.027600  1.0  0.0374
  C  C472  1  0.921200  0.031500  0.004400  1.0  -0.3582
  C  C473  1  0.810600  0.985300  0.053100  1.0  -0.3696
  C  C474  1  0.741730  0.198910  0.082800  1.0  -0.3914
  C  C475  1  0.851200  0.243100  0.039000  1.0  -0.3471
  C  C476  1  0.379890  0.171900  0.078300  1.0  0.1881
  C  C477  1  0.440500  0.166840  0.078240  1.0  -0.2142
  C  C478  1  0.467480  0.113000  0.091590  1.0  0.1035
  C  C479  1  0.428800  0.066400  0.103500  1.0  -0.2163
  C  C480  1  0.368500  0.075200  0.101800  1.0  0.178
  C  C481  1  0.533550  0.105200  0.094000  1.0  -0.0995
  C  C482  1  0.563450  0.119400  0.140440  1.0  0.0266
  C  C483  1  0.625720  0.109590  0.143710  1.0  0.0389
  C  C484  1  0.657190  0.085180  0.100840  1.0  -0.0376
  C  C485  1  0.626540  0.073330  0.053720  1.0  0.0446
  C  C486  1  0.564330  0.083300  0.049680  1.0  0.0361
  C  C487  1  0.531300  0.070400  0.998700  1.0  -0.3748
  C  C488  1  0.658200  0.046900  0.007050  1.0  -0.4046
  C  C489  1  0.657800  0.127500  0.193300  1.0  -0.3716
  C  C490  1  0.529700  0.145000  0.187500  1.0  -0.387
  C  C491  1  0.137690  0.209300  0.134170  1.0  0.1775
  C  C492  1  0.098590  0.230900  0.171410  1.0  -0.1926
  C  C493  1  0.094460  0.202150  0.220050  1.0  0.0859
  C  C494  1  0.131200  0.154100  0.227500  1.0  -0.218
  C  C495  1  0.168400  0.135200  0.188800  1.0  0.158
  C  C496  1  0.052330  0.223650  0.261680  1.0  -0.0536
  C  C497  1  0.072060  0.265570  0.299220  1.0  0.0497
  C  C498  1  0.033090  0.283070  0.340050  1.0  0.0321
  C  C499  1  0.976210  0.256830  0.344810  1.0  -0.0289
  C  C500  1  0.957480  0.214370  0.307330  1.0  0.0656
  C  C501  1  0.994840  0.199250  0.265070  1.0  0.0538
  C  C502  1  0.975600  0.155900  0.221400  1.0  -0.3652
  C  C503  1  0.895900  0.186000  0.309500  1.0  -0.3272
  C  C504  1  0.055700  0.328700  0.379600  1.0  -0.3884
  C  C505  1  0.134300  0.290400  0.295500  1.0  -0.3717
  C  C506  1  0.821900  0.953700  0.493500  1.0  0.1828
  C  C507  1  0.843000  0.005900  0.470700  1.0  -0.1656
  C  C508  1  0.840700  0.058480  0.498290  1.0  0.1013
  C  C509  1  0.813600  0.057600  0.547000  1.0  -0.1734
  C  C510  1  0.791900  0.003800  0.567600  1.0  0.1695
  C  C511  1  0.864000  0.116310  0.475480  1.0  -0.059
  C  C512  1  0.824180  0.158970  0.457770  1.0  0.0149
  C  C513  1  0.845440  0.212780  0.435870  1.0  0.0543
  C  C514  1  0.907540  0.221560  0.428320  1.0  -0.0567
  C  C515  1  0.947830  0.177670  0.448530  1.0  0.0345
  C  C516  1  0.926000  0.125510  0.472400  1.0  0.0375
  C  C517  1  0.968500  0.078800  0.495600  1.0  -0.3587
  C  C518  1  0.014700  0.189400  0.446900  1.0  -0.3699
  C  C519  1  0.801090  0.258270  0.417200  1.0  -0.3919
  C  C520  1  0.756900  0.148800  0.461000  1.0  -0.3526
  C  C521  1  0.828100  0.620110  0.421700  1.0  0.1868
  C  C522  1  0.833160  0.559500  0.421760  1.0  -0.2148
  C  C523  1  0.887000  0.532520  0.408410  1.0  0.1049
  C  C524  1  0.933600  0.571200  0.396500  1.0  -0.2128
  C  C525  1  0.924800  0.631500  0.398200  1.0  0.1777
  C  C526  1  0.894800  0.466450  0.406000  1.0  -0.1
  C  C527  1  0.880600  0.436550  0.359560  1.0  0.0268
  C  C528  1  0.890410  0.374280  0.356290  1.0  0.0385
  C  C529  1  0.914820  0.342810  0.399160  1.0  -0.0364
  C  C530  1  0.926670  0.373460  0.446280  1.0  0.045
  C  C531  1  0.916700  0.435670  0.450320  1.0  0.04
  C  C532  1  0.929600  0.468700  0.501300  1.0  -0.3811
  C  C533  1  0.953100  0.341800  0.492950  1.0  -0.405
  C  C534  1  0.872500  0.342200  0.306700  1.0  -0.3706
  C  C535  1  0.855000  0.470300  0.312500  1.0  -0.3859
  C  C536  1  0.862310  0.790700  0.634170  1.0  0.1775
  C  C537  1  0.901410  0.769100  0.671410  1.0  -0.1912
  C  C538  1  0.905540  0.797850  0.720050  1.0  0.085
  C  C539  1  0.868800  0.845900  0.727500  1.0  -0.2157
  C  C540  1  0.831600  0.864800  0.688800  1.0  0.1558
  C  C541  1  0.947670  0.776350  0.761680  1.0  -0.0538
  C  C542  1  0.927940  0.734430  0.799220  1.0  0.0494
  C  C543  1  0.966910  0.716930  0.840050  1.0  0.0327
  C  C544  1  0.023790  0.743170  0.844810  1.0  -0.0284
  C  C545  1  0.042520  0.785630  0.807330  1.0  0.0644
  C  C546  1  0.005160  0.800750  0.765070  1.0  0.0527
  C  C547  1  0.024400  0.844100  0.721400  1.0  -0.3665
  C  C548  1  0.104100  0.814000  0.809500  1.0  -0.3267
  C  C549  1  0.944300  0.671300  0.879600  1.0  -0.3895
  C  C550  1  0.865700  0.709600  0.795500  1.0  -0.3723
  C  C551  1  0.178100  0.046300  0.993500  1.0  0.1822
  C  C552  1  0.157000  0.994100  0.970700  1.0  -0.1661
  C  C553  1  0.159300  0.941520  0.998290  1.0  0.1025
  C  C554  1  0.186400  0.942400  0.047000  1.0  -0.1729
  C  C555  1  0.208100  0.996200  0.067600  1.0  0.1694
  C  C556  1  0.136000  0.883690  0.975480  1.0  -0.0595
  C  C557  1  0.175820  0.841030  0.957770  1.0  0.016
  C  C558  1  0.154560  0.787220  0.935870  1.0  0.0536
  C  C559  1  0.092460  0.778440  0.928320  1.0  -0.0548
  C  C560  1  0.052170  0.822330  0.948530  1.0  0.034
  C  C561  1  0.074000  0.874490  0.972400  1.0  0.038
  C  C562  1  0.031500  0.921200  0.995600  1.0  -0.3588
  C  C563  1  0.985300  0.810600  0.946900  1.0  -0.3699
  C  C564  1  0.198910  0.741730  0.917200  1.0  -0.3925
  C  C565  1  0.243100  0.851200  0.961000  1.0  -0.3522
  C  C566  1  0.171900  0.379890  0.921700  1.0  0.1846
  C  C567  1  0.166840  0.440500  0.921760  1.0  -0.2146
  C  C568  1  0.113000  0.467480  0.908410  1.0  0.1057
  C  C569  1  0.066400  0.428800  0.896500  1.0  -0.2119
  C  C570  1  0.075200  0.368500  0.898200  1.0  0.1766
  C  C571  1  0.105200  0.533550  0.906000  1.0  -0.0999
  C  C572  1  0.119400  0.563450  0.859560  1.0  0.0251
  C  C573  1  0.109590  0.625720  0.856290  1.0  0.0386
  C  C574  1  0.085180  0.657190  0.899160  1.0  -0.0372
  C  C575  1  0.073330  0.626540  0.946280  1.0  0.0438
  C  C576  1  0.083300  0.564330  0.950320  1.0  0.0391
  C  C577  1  0.070400  0.531300  0.001300  1.0  -0.3804
  C  C578  1  0.046900  0.658200  0.992950  1.0  -0.4072
  C  C579  1  0.127500  0.657800  0.806700  1.0  -0.3714
  C  C580  1  0.145000  0.529700  0.812500  1.0  -0.3858
  C  C581  1  0.362310  0.709300  0.615830  1.0  0.1789
  C  C582  1  0.401410  0.730900  0.578590  1.0  -0.1923
  C  C583  1  0.405540  0.702150  0.529950  1.0  0.0855
  C  C584  1  0.368800  0.654100  0.522500  1.0  -0.2151
  C  C585  1  0.331600  0.635200  0.561200  1.0  0.1578
  C  C586  1  0.447670  0.723650  0.488320  1.0  -0.0545
  C  C587  1  0.427940  0.765570  0.450780  1.0  0.05
  C  C588  1  0.466910  0.783070  0.409950  1.0  0.0303
  C  C589  1  0.523790  0.756830  0.405190  1.0  -0.0283
  C  C590  1  0.542520  0.714370  0.442670  1.0  0.0641
  C  C591  1  0.505160  0.699250  0.484930  1.0  0.0526
  C  C592  1  0.524400  0.655900  0.528600  1.0  -0.3661
  C  C593  1  0.604100  0.686000  0.440500  1.0  -0.3274
  C  C594  1  0.444300  0.828700  0.370400  1.0  -0.3884
  C  C595  1  0.365700  0.790400  0.454500  1.0  -0.372
  C  C596  1  0.678100  0.453700  0.256500  1.0  0.1831
  C  C597  1  0.657000  0.505900  0.279300  1.0  -0.1651
  C  C598  1  0.659300  0.558480  0.251710  1.0  0.1029
  C  C599  1  0.686400  0.557600  0.203000  1.0  -0.1705
  C  C600  1  0.708100  0.503800  0.182400  1.0  0.1693
  C  C601  1  0.636000  0.616310  0.274520  1.0  -0.0576
  C  C602  1  0.675820  0.658970  0.292230  1.0  0.015
  C  C603  1  0.654560  0.712780  0.314130  1.0  0.0525
  C  C604  1  0.592460  0.721560  0.321680  1.0  -0.0547
  C  C605  1  0.552170  0.677670  0.301470  1.0  0.0347
  C  C606  1  0.574000  0.625510  0.277600  1.0  0.0387
  C  C607  1  0.531500  0.578800  0.254400  1.0  -0.3586
  C  C608  1  0.485300  0.689400  0.303100  1.0  -0.3701
  C  C609  1  0.698910  0.758270  0.332800  1.0  -0.3921
  C  C610  1  0.743100  0.648800  0.289000  1.0  -0.3529
  C  C611  1  0.671900  0.120110  0.328300  1.0  0.1853
  C  C612  1  0.666840  0.059500  0.328240  1.0  -0.2139
  C  C613  1  0.613000  0.032520  0.341590  1.0  0.1051
  C  C614  1  0.566400  0.071200  0.353500  1.0  -0.2119
  C  C615  1  0.575200  0.131500  0.351800  1.0  0.1768
  C  C616  1  0.605200  0.966450  0.344000  1.0  -0.0996
  C  C617  1  0.619400  0.936550  0.390440  1.0  0.0277
  C  C618  1  0.609590  0.874280  0.393710  1.0  0.0387
  C  C619  1  0.585180  0.842810  0.350840  1.0  -0.037
  C  C620  1  0.573330  0.873460  0.303720  1.0  0.0458
  C  C621  1  0.583300  0.935670  0.299680  1.0  0.0373
  C  C622  1  0.570400  0.968700  0.248700  1.0  -0.3796
  C  C623  1  0.546900  0.841800  0.257050  1.0  -0.4032
  C  C624  1  0.627500  0.842200  0.443300  1.0  -0.3726
  C  C625  1  0.645000  0.970300  0.437500  1.0  -0.3854
  C  C626  1  0.637690  0.290700  0.115830  1.0  0.1777
  C  C627  1  0.598590  0.269100  0.078590  1.0  -0.1935
  C  C628  1  0.594460  0.297850  0.029950  1.0  0.0852
  C  C629  1  0.631200  0.345900  0.022500  1.0  -0.2162
  C  C630  1  0.668400  0.364800  0.061200  1.0  0.1573
  C  C631  1  0.552330  0.276350  0.988320  1.0  -0.0533
  C  C632  1  0.572060  0.234430  0.950780  1.0  0.0503
  C  C633  1  0.533090  0.216930  0.909950  1.0  0.0304
  C  C634  1  0.476210  0.243170  0.905190  1.0  -0.0291
  C  C635  1  0.457480  0.285630  0.942670  1.0  0.0652
  C  C636  1  0.494840  0.300750  0.984930  1.0  0.0538
  C  C637  1  0.475600  0.344100  0.028600  1.0  -0.3658
  C  C638  1  0.395900  0.314000  0.940500  1.0  -0.3269
  C  C639  1  0.555700  0.171300  0.870400  1.0  -0.3911
  C  C640  1  0.634300  0.209600  0.954500  1.0  -0.3737
  C  C641  1  0.321900  0.546300  0.756500  1.0  0.182
  C  C642  1  0.343000  0.494100  0.779300  1.0  -0.1633
  C  C643  1  0.340700  0.441520  0.751710  1.0  0.1017
  C  C644  1  0.313600  0.442400  0.703000  1.0  -0.1709
  C  C645  1  0.291900  0.496200  0.682400  1.0  0.1717
  C  C646  1  0.364000  0.383690  0.774520  1.0  -0.0582
  C  C647  1  0.324180  0.341030  0.792230  1.0  0.0142
  C  C648  1  0.345440  0.287220  0.814130  1.0  0.0538
  C  C649  1  0.407540  0.278440  0.821680  1.0  -0.0528
  C  C650  1  0.447830  0.322330  0.801470  1.0  0.0357
  C  C651  1  0.426000  0.374490  0.777600  1.0  0.0383
  C  C652  1  0.468500  0.421200  0.754400  1.0  -0.359
  C  C653  1  0.514700  0.310600  0.803100  1.0  -0.3695
  C  C654  1  0.301090  0.241730  0.832800  1.0  -0.3918
  C  C655  1  0.256900  0.351200  0.789000  1.0  -0.3521
  C  C656  1  0.328100  0.879890  0.828300  1.0  0.1869
  C  C657  1  0.333160  0.940500  0.828240  1.0  -0.2146
  C  C658  1  0.387000  0.967480  0.841590  1.0  0.1034
  C  C659  1  0.433600  0.928800  0.853500  1.0  -0.2147
  C  C660  1  0.424800  0.868500  0.851800  1.0  0.178
  C  C661  1  0.394800  0.033550  0.844000  1.0  -0.1
  C  C662  1  0.380600  0.063450  0.890440  1.0  0.0271
  C  C663  1  0.390410  0.125720  0.893710  1.0  0.0385
  C  C664  1  0.414820  0.157190  0.850840  1.0  -0.0371
  C  C665  1  0.426670  0.126540  0.803720  1.0  0.045
  C  C666  1  0.416700  0.064330  0.799680  1.0  0.039
  C  C667  1  0.429600  0.031300  0.748700  1.0  -0.3806
  C  C668  1  0.453100  0.158200  0.757050  1.0  -0.4043
  C  C669  1  0.372500  0.157800  0.943300  1.0  -0.3712
  C  C670  1  0.355000  0.029700  0.937500  1.0  -0.3854
  C  C671  1  0.290700  0.637690  0.884170  1.0  0.1796
  C  C672  1  0.269100  0.598590  0.921410  1.0  -0.1871
  C  C673  1  0.297850  0.594460  0.970050  1.0  0.0869
  C  C674  1  0.345900  0.631200  0.977500  1.0  -0.2167
  C  C675  1  0.364800  0.668400  0.938800  1.0  0.1578
  C  C676  1  0.276350  0.552330  0.011680  1.0  -0.053
  C  C677  1  0.234430  0.572060  0.049220  1.0  0.0503
  C  C678  1  0.216930  0.533090  0.090050  1.0  0.0328
  C  C679  1  0.243170  0.476210  0.094810  1.0  -0.0291
  C  C680  1  0.285630  0.457480  0.057330  1.0  0.0652
  C  C681  1  0.300750  0.494840  0.015070  1.0  0.0533
  C  C682  1  0.344100  0.475600  0.971400  1.0  -0.3681
  C  C683  1  0.314000  0.395900  0.059500  1.0  -0.3321
  C  C684  1  0.171300  0.555700  0.129600  1.0  -0.3837
  C  C685  1  0.209600  0.634300  0.045500  1.0  -0.373
  C  C686  1  0.546300  0.321900  0.243500  1.0  0.1822
  C  C687  1  0.494100  0.343000  0.220700  1.0  -0.1672
  C  C688  1  0.441520  0.340700  0.248290  1.0  0.1041
  C  C689  1  0.442400  0.313600  0.297000  1.0  -0.1739
  C  C690  1  0.496200  0.291900  0.317600  1.0  0.1705
  C  C691  1  0.383690  0.364000  0.225480  1.0  -0.0596
  C  C692  1  0.341030  0.324180  0.207770  1.0  0.0158
  C  C693  1  0.287220  0.345440  0.185870  1.0  0.0544
  C  C694  1  0.278440  0.407540  0.178320  1.0  -0.0565
  C  C695  1  0.322330  0.447830  0.198530  1.0  0.035
  C  C696  1  0.374490  0.426000  0.222400  1.0  0.0374
  C  C697  1  0.421200  0.468500  0.245600  1.0  -0.3584
  C  C698  1  0.310600  0.514700  0.196900  1.0  -0.3715
  C  C699  1  0.241730  0.301090  0.167200  1.0  -0.392
  C  C700  1  0.351200  0.256900  0.211000  1.0  -0.3466
  C  C701  1  0.879890  0.328100  0.171700  1.0  0.1865
  C  C702  1  0.940500  0.333160  0.171760  1.0  -0.2143
  C  C703  1  0.967480  0.387000  0.158410  1.0  0.1051
  C  C704  1  0.928800  0.433600  0.146500  1.0  -0.2122
  C  C705  1  0.868500  0.424800  0.148200  1.0  0.1773
  C  C706  1  0.033550  0.394800  0.156000  1.0  -0.0995
  C  C707  1  0.063450  0.380600  0.109560  1.0  0.0248
  C  C708  1  0.125720  0.390410  0.106290  1.0  0.039
  C  C709  1  0.157190  0.414820  0.149160  1.0  -0.0376
  C  C710  1  0.126540  0.426670  0.196280  1.0  0.0449
  C  C711  1  0.064330  0.416700  0.200320  1.0  0.0387
  C  C712  1  0.031300  0.429600  0.251300  1.0  -0.3759
  C  C713  1  0.158200  0.453100  0.242950  1.0  -0.4054
  C  C714  1  0.157800  0.372500  0.056700  1.0  -0.3708
  C  C715  1  0.029700  0.355000  0.062500  1.0  -0.3877
  C  C716  1  0.709300  0.362310  0.384170  1.0  0.1787
  C  C717  1  0.730900  0.401410  0.421410  1.0  -0.1904
  C  C718  1  0.702150  0.405540  0.470050  1.0  0.0869
  C  C719  1  0.654100  0.368800  0.477500  1.0  -0.2149
  C  C720  1  0.635200  0.331600  0.438800  1.0  0.1565
  C  C721  1  0.723650  0.447670  0.511680  1.0  -0.0544
  C  C722  1  0.765570  0.427940  0.549220  1.0  0.0509
  C  C723  1  0.783070  0.466910  0.590050  1.0  0.0299
  C  C724  1  0.756830  0.523790  0.594810  1.0  -0.0287
  C  C725  1  0.714370  0.542520  0.557330  1.0  0.0641
  C  C726  1  0.699250  0.505160  0.515070  1.0  0.0518
  C  C727  1  0.655900  0.524400  0.471400  1.0  -0.3658
  C  C728  1  0.686000  0.604100  0.559500  1.0  -0.3311
  C  C729  1  0.828700  0.444300  0.629600  1.0  -0.3858
  C  C730  1  0.790400  0.365700  0.545500  1.0  -0.3686
  C  C731  1  0.453700  0.678100  0.743500  1.0  0.1821
  C  C732  1  0.505900  0.657000  0.720700  1.0  -0.166
  C  C733  1  0.558480  0.659300  0.748290  1.0  0.1039
  C  C734  1  0.557600  0.686400  0.797000  1.0  -0.1729
  C  C735  1  0.503800  0.708100  0.817600  1.0  0.1698
  C  C736  1  0.616310  0.636000  0.725480  1.0  -0.0595
  C  C737  1  0.658970  0.675820  0.707770  1.0  0.016
  C  C738  1  0.712780  0.654560  0.685870  1.0  0.0537
  C  C739  1  0.721560  0.592460  0.678320  1.0  -0.0563
  C  C740  1  0.677670  0.552170  0.698530  1.0  0.0345
  C  C741  1  0.625510  0.574000  0.722400  1.0  0.0375
  C  C742  1  0.578800  0.531500  0.745600  1.0  -0.3585
  C  C743  1  0.689400  0.485300  0.696900  1.0  -0.3691
  C  C744  1  0.758270  0.698910  0.667200  1.0  -0.3907
  C  C745  1  0.648800  0.743100  0.711000  1.0  -0.3482
  C  C746  1  0.120110  0.671900  0.671700  1.0  0.1871
  C  C747  1  0.059500  0.666840  0.671760  1.0  -0.2156
  C  C748  1  0.032520  0.613000  0.658410  1.0  0.1031
  C  C749  1  0.071200  0.566400  0.646500  1.0  -0.2142
  C  C750  1  0.131500  0.575200  0.648200  1.0  0.1763
  C  C751  1  0.966450  0.605200  0.656000  1.0  -0.099
  C  C752  1  0.936550  0.619400  0.609560  1.0  0.0257
  C  C753  1  0.874280  0.609590  0.606290  1.0  0.0392
  C  C754  1  0.842810  0.585180  0.649160  1.0  -0.0376
  C  C755  1  0.873460  0.573330  0.696280  1.0  0.0451
  C  C756  1  0.935670  0.583300  0.700320  1.0  0.0376
  C  C757  1  0.968700  0.570400  0.751300  1.0  -0.3769
  C  C758  1  0.841800  0.546900  0.742950  1.0  -0.4065
  C  C759  1  0.842200  0.627500  0.556700  1.0  -0.3711
  C  C760  1  0.970300  0.645000  0.562500  1.0  -0.3865
  N  N761  1  0.162000  0.172460  0.858280  1.0  -0.3441
  N  N762  1  0.952620  0.795900  0.458670  1.0  -0.348
  N  N763  1  0.657280  0.872610  0.589700  1.0  -0.3142
  N  N764  1  0.838000  0.827540  0.358280  1.0  -0.3433
  N  N765  1  0.047380  0.204100  0.958670  1.0  -0.3482
  N  N766  1  0.342720  0.127390  0.089700  1.0  -0.3148
  N  N767  1  0.172460  0.162000  0.141720  1.0  -0.347
  N  N768  1  0.795900  0.952620  0.541330  1.0  -0.3498
  N  N769  1  0.872610  0.657280  0.410300  1.0  -0.3151
  N  N770  1  0.827540  0.838000  0.641720  1.0  -0.345
  N  N771  1  0.204100  0.047380  0.041330  1.0  -0.3498
  N  N772  1  0.127390  0.342720  0.910300  1.0  -0.3163
  N  N773  1  0.236340  0.236340  0.000000  1.0  0.6874
  N  N774  1  0.763660  0.763660  0.500000  1.0  0.6876
  N  N775  1  0.327540  0.662000  0.608280  1.0  -0.3448
  N  N776  1  0.704100  0.452620  0.208670  1.0  -0.3484
  N  N777  1  0.627390  0.157280  0.339700  1.0  -0.3173
  N  N778  1  0.672460  0.338000  0.108280  1.0  -0.3436
  N  N779  1  0.295900  0.547380  0.708670  1.0  -0.3501
  N  N780  1  0.372610  0.842720  0.839700  1.0  -0.3155
  N  N781  1  0.338000  0.672460  0.891720  1.0  -0.346
  N  N782  1  0.547380  0.295900  0.291330  1.0  -0.3471
  N  N783  1  0.842720  0.372610  0.160300  1.0  -0.3145
  N  N784  1  0.662000  0.327540  0.391720  1.0  -0.3471
  N  N785  1  0.452620  0.704100  0.791330  1.0  -0.348
  N  N786  1  0.157280  0.627390  0.660300  1.0  -0.3152
  N  N787  1  0.263660  0.736340  0.750000  1.0  0.6875
  N  N788  1  0.736340  0.263660  0.250000  1.0  0.6877
  N  N789  1  0.986200  0.026400  0.851200  1.0  0.8249
  N  N790  1  0.013800  0.973600  0.351200  1.0  0.8254
  N  N791  1  0.473600  0.486200  0.601200  1.0  0.8226
  N  N792  1  0.526400  0.513800  0.101200  1.0  0.8237
  N  N793  1  0.513800  0.526400  0.898800  1.0  0.823
  N  N794  1  0.486200  0.473600  0.398800  1.0  0.8245
  N  N795  1  0.026400  0.986200  0.148800  1.0  0.8222
  N  N796  1  0.973600  0.013800  0.648800  1.0  0.8218
  O  O797  1  0.241400  0.268400  0.961500  1.0  -0.603
  O  O798  1  0.758600  0.731600  0.461500  1.0  -0.6025
  O  O799  1  0.268400  0.241400  0.038500  1.0  -0.6008
  O  O800  1  0.731600  0.758600  0.538500  1.0  -0.6014
  O  O801  1  0.197000  0.197000  0.000000  1.0  -0.6546
  O  O802  1  0.803000  0.803000  0.500000  1.0  -0.6559
  O  O803  1  0.231600  0.741400  0.711500  1.0  -0.6021
  O  O804  1  0.768400  0.258600  0.211500  1.0  -0.6015
  O  O805  1  0.258600  0.768400  0.788500  1.0  -0.6022
  O  O806  1  0.741400  0.231600  0.288500  1.0  -0.603
  O  O807  1  0.303000  0.697000  0.750000  1.0  -0.6553
  O  O808  1  0.697000  0.303000  0.250000  1.0  -0.6547
  O  O809  1  0.027100  0.050100  0.875400  1.0  -0.4439
  O  O810  1  0.997500  0.983100  0.822700  1.0  -0.4027
  O  O811  1  0.934900  0.044000  0.857200  1.0  -0.3685
  O  O812  1  0.972900  0.949900  0.375400  1.0  -0.4408
  O  O813  1  0.002500  0.016900  0.322700  1.0  -0.4026
  O  O814  1  0.065100  0.956000  0.357200  1.0  -0.3674
  O  O815  1  0.449900  0.527100  0.625400  1.0  -0.4408
  O  O816  1  0.516900  0.497500  0.572700  1.0  -0.4024
  O  O817  1  0.456000  0.434900  0.607200  1.0  -0.3627
  O  O818  1  0.550100  0.472900  0.125400  1.0  -0.4378
  O  O819  1  0.483100  0.502500  0.072700  1.0  -0.4001
  O  O820  1  0.544000  0.565100  0.107200  1.0  -0.3616
  O  O821  1  0.472900  0.550100  0.874600  1.0  -0.4385
  O  O822  1  0.502500  0.483100  0.927300  1.0  -0.4012
  O  O823  1  0.565100  0.544000  0.892800  1.0  -0.3651
  O  O824  1  0.527100  0.449900  0.374600  1.0  -0.4415
  O  O825  1  0.497500  0.516900  0.427300  1.0  -0.4013
  O  O826  1  0.434900  0.456000  0.392800  1.0  -0.3672
  O  O827  1  0.050100  0.027100  0.124600  1.0  -0.4377
  O  O828  1  0.983100  0.997500  0.177300  1.0  -0.3991
  O  O829  1  0.044000  0.934900  0.142800  1.0  -0.3621
  O  O830  1  0.949900  0.972900  0.624600  1.0  -0.4365
  O  O831  1  0.016900  0.002500  0.677300  1.0  -0.4005
  O  O832  1  0.956000  0.065100  0.642800  1.0  -0.3591
