# generated using pymatgen
data_AgBH48C46SN3(OF)3
_symmetry_space_group_name_H-M   'P 1'
_cell_length_a   13.65810000
_cell_length_b   32.41560000
_cell_length_c   40.57910000
_cell_angle_alpha   90.00000000
_cell_angle_beta   90.00000000
_cell_angle_gamma   90.00000000
_symmetry_Int_Tables_number   1
_chemical_formula_structural   AgBH48C46SN3(OF)3
_chemical_formula_sum   'Ag12 B12 H576 C552 S12 N36 O36 F36'
_cell_volume   17965.80838613
_cell_formula_units_Z   12
loop_
 _symmetry_equiv_pos_site_id
 _symmetry_equiv_pos_as_xyz
  1  'x, y, z'
loop_
 _atom_site_type_symbol
 _atom_site_label
 _atom_site_symmetry_multiplicity
 _atom_site_fract_x
 _atom_site_fract_y
 _atom_site_fract_z
 _atom_site_occupancy
 _atom_site_charge
  Ag  Ag1  1  0.315880  0.695690  0.130170  1.0  0.3716
  Ag  Ag2  1  0.735740  0.244520  0.000660  1.0  0.4081
  Ag  Ag3  1  0.051270  0.713070  0.876390  1.0  0.3394
  Ag  Ag4  1  0.184120  0.304310  0.630170  1.0  0.3706
  Ag  Ag5  1  0.764260  0.755480  0.500660  1.0  0.4086
  Ag  Ag6  1  0.448730  0.286930  0.376390  1.0  0.3394
  Ag  Ag7  1  0.684120  0.195690  0.369830  1.0  0.3706
  Ag  Ag8  1  0.264260  0.744520  0.499340  1.0  0.4082
  Ag  Ag9  1  0.948730  0.213070  0.623610  1.0  0.3398
  Ag  Ag10  1  0.815880  0.804310  0.869830  1.0  0.3718
  Ag  Ag11  1  0.235740  0.255480  0.999340  1.0  0.4084
  Ag  Ag12  1  0.551270  0.786930  0.123610  1.0  0.3396
  B  B13  1  0.686600  0.580500  0.997800  1.0  0.2932
  B  B14  1  0.282300  0.908600  0.337300  1.0  0.4045
  B  B15  1  0.219900  0.086100  0.175100  1.0  0.4303
  B  B16  1  0.813400  0.419500  0.497800  1.0  0.2936
  B  B17  1  0.217700  0.091400  0.837300  1.0  0.4042
  B  B18  1  0.280100  0.913900  0.675100  1.0  0.4302
  B  B19  1  0.313400  0.080500  0.502200  1.0  0.2933
  B  B20  1  0.717700  0.408600  0.162700  1.0  0.4041
  B  B21  1  0.780100  0.586100  0.324900  1.0  0.43
  B  B22  1  0.186600  0.919500  0.002200  1.0  0.2934
  B  B23  1  0.782300  0.591400  0.662700  1.0  0.4044
  B  B24  1  0.719900  0.413900  0.824900  1.0  0.4301
  H  H25  1  0.196900  0.725700  0.064600  1.0  0.0916
  H  H26  1  0.066000  0.704400  0.032400  1.0  0.1041
  H  H27  1  0.993900  0.620400  0.101000  1.0  0.1148
  H  H28  1  0.124800  0.641700  0.133200  1.0  0.0983
  H  H29  1  0.755500  0.694300  0.081900  1.0  0.1198
  H  H30  1  0.856000  0.682300  0.097900  1.0  0.1221
  H  H31  1  0.852300  0.715400  0.069800  1.0  0.1176
  H  H32  1  0.656900  0.665000  0.065300  1.0  0.1134
  H  H33  1  0.616900  0.655100  0.030000  1.0  0.1088
  H  H34  1  0.626600  0.619800  0.056200  1.0  0.1055
  H  H35  1  0.962000  0.565900  0.967700  1.0  0.1119
  H  H36  1  0.867200  0.541400  0.977400  1.0  0.1033
  H  H37  1  0.860700  0.578300  0.952600  1.0  0.096
  H  H38  1  0.059300  0.589900  0.987500  1.0  0.0964
  H  H39  1  0.091800  0.633900  0.999200  1.0  0.1151
  H  H40  1  0.094400  0.596800  0.023900  1.0  0.12
  H  H41  1  0.232700  0.656100  0.870900  1.0  0.0922
  H  H42  1  0.366100  0.629400  0.899200  1.0  0.1098
  H  H43  1  0.289200  0.694500  0.979400  1.0  0.0964
  H  H44  1  0.155900  0.721200  0.951100  1.0  0.0919
  H  H45  1  0.313000  0.576700  0.007300  1.0  0.102
  H  H46  1  0.277100  0.621500  0.999100  1.0  0.1117
  H  H47  1  0.277800  0.587500  0.971600  1.0  0.1225
  H  H48  1  0.426500  0.554100  0.025600  1.0  0.1096
  H  H49  1  0.525500  0.534400  0.014000  1.0  0.1071
  H  H50  1  0.525700  0.569000  0.041000  1.0  0.1074
  H  H51  1  0.701000  0.671900  0.934400  1.0  0.1184
  H  H52  1  0.741100  0.660300  0.969400  1.0  0.1022
  H  H53  1  0.741400  0.627400  0.941100  1.0  0.1071
  H  H54  1  0.588400  0.700800  0.920900  1.0  0.1069
  H  H55  1  0.490000  0.686200  0.904800  1.0  0.1073
  H  H56  1  0.488100  0.716300  0.935000  1.0  0.1154
  H  H57  1  0.819000  0.321000  0.961200  1.0  0.0961
  H  H58  1  0.809800  0.392400  0.958900  1.0  0.1028
  H  H59  1  0.612800  0.391500  0.032500  1.0  0.1024
  H  H60  1  0.622100  0.320100  0.034800  1.0  0.0948
  H  H61  1  0.792800  0.415000  0.046700  1.0  0.0973
  H  H62  1  0.858300  0.453800  0.053400  1.0  0.1096
  H  H63  1  0.758600  0.448500  0.072100  1.0  0.0969
  H  H64  1  0.778500  0.511600  0.072600  1.0  0.0966
  H  H65  1  0.811800  0.550300  0.052400  1.0  0.1098
  H  H66  1  0.703300  0.546700  0.064700  1.0  0.1122
  H  H67  1  0.617900  0.514900  0.920000  1.0  0.1048
  H  H68  1  0.580400  0.551000  0.942300  1.0  0.1058
  H  H69  1  0.688900  0.550900  0.929700  1.0  0.1117
  H  H70  1  0.596000  0.458500  0.923600  1.0  0.1033
  H  H71  1  0.667000  0.421800  0.931600  1.0  0.1108
  H  H72  1  0.565900  0.425100  0.949700  1.0  0.1176
  H  H73  1  0.370800  0.701900  0.206700  1.0  0.093
  H  H74  1  0.363100  0.749600  0.249300  1.0  0.1157
  H  H75  1  0.279600  0.837100  0.185000  1.0  0.092
  H  H76  1  0.287300  0.789400  0.142400  1.0  0.0992
  H  H77  1  0.149500  0.809400  0.223900  1.0  0.1029
  H  H78  1  0.087300  0.812600  0.256300  1.0  0.1193
  H  H79  1  0.093000  0.850200  0.232100  1.0  0.1247
  H  H80  1  0.108100  0.905500  0.311600  1.0  0.1126
  H  H81  1  0.084600  0.902100  0.273800  1.0  0.1091
  H  H82  1  0.062500  0.864800  0.297300  1.0  0.1079
  H  H83  1  0.467500  0.899900  0.327900  1.0  0.1063
  H  H84  1  0.515400  0.858100  0.317100  1.0  0.1031
  H  H85  1  0.522800  0.896800  0.294200  1.0  0.1061
  H  H86  1  0.488300  0.814500  0.233300  1.0  0.106
  H  H87  1  0.528600  0.856800  0.246300  1.0  0.1095
  H  H88  1  0.529300  0.817800  0.269300  1.0  0.1046
  H  H89  1  0.780200  0.793200  0.429900  1.0  0.0912
  H  H90  1  0.886300  0.827900  0.394900  1.0  0.1074
  H  H91  1  0.079900  0.839700  0.468900  1.0  0.0928
  H  H92  1  0.973700  0.805000  0.503900  1.0  0.0942
  H  H93  1  0.221300  0.777200  0.396200  1.0  0.1038
  H  H94  1  0.166700  0.786600  0.429300  1.0  0.1117
  H  H95  1  0.107500  0.771600  0.398500  1.0  0.121
  H  H96  1  0.348200  0.838000  0.350000  1.0  0.0933
  H  H97  1  0.343200  0.817300  0.384900  1.0  0.1071
  H  H98  1  0.286100  0.797800  0.355200  1.0  0.1369
  H  H99  1  0.166500  0.966400  0.349700  1.0  0.1001
  H  H100  1  0.052800  0.960100  0.351200  1.0  0.1079
  H  H101  1  0.109400  0.975700  0.382400  1.0  0.1056
  H  H102  1  0.972100  0.949000  0.398200  1.0  0.1007
  H  H103  1  0.911300  0.908100  0.401300  1.0  0.1295
  H  H104  1  0.975800  0.923200  0.430900  1.0  0.118
  H  H105  1  0.687400  0.113100  0.329000  1.0  0.099
  H  H106  1  0.604000  0.051200  0.322800  1.0  0.1083
  H  H107  1  0.429400  0.081000  0.398800  1.0  0.1003
  H  H108  1  0.512800  0.142900  0.405000  1.0  0.0961
  H  H109  1  0.564300  0.965700  0.409000  1.0  0.0977
  H  H110  1  0.579100  0.012700  0.401400  1.0  0.1135
  H  H111  1  0.495500  0.998500  0.425400  1.0  0.1078
  H  H112  1  0.462400  0.922400  0.413100  1.0  0.1147
  H  H113  1  0.358400  0.906300  0.403100  1.0  0.1053
  H  H114  1  0.450700  0.893000  0.382700  1.0  0.0997
  H  H115  1  0.271300  0.004300  0.279100  1.0  0.0769
  H  H116  1  0.289200  0.956600  0.277300  1.0  0.1003
  H  H117  1  0.202600  0.974100  0.298500  1.0  0.1085
  H  H118  1  0.335600  0.049300  0.286200  1.0  0.1089
  H  H119  1  0.355200  0.078400  0.316300  1.0  0.098
  H  H120  1  0.443100  0.061900  0.295300  1.0  0.1077
  H  H121  1  0.730700  0.202900  0.071800  1.0  0.1043
  H  H122  1  0.831400  0.171600  0.110400  1.0  0.1029
  H  H123  1  0.055800  0.176000  0.046500  1.0  0.0996
  H  H124  1  0.955000  0.207300  0.007800  1.0  0.0903
  H  H125  1  0.898200  0.061700  0.114300  1.0  0.0994
  H  H126  1  0.847500  0.104400  0.108100  1.0  0.1091
  H  H127  1  0.912600  0.084500  0.080600  1.0  0.1111
  H  H128  1  0.082700  0.039300  0.165600  1.0  0.1038
  H  H129  1  0.970400  0.048400  0.162200  1.0  0.1077
  H  H130  1  0.028500  0.029900  0.132300  1.0  0.1117
  H  H131  1  0.264300  0.197300  0.142300  1.0  0.1108
  H  H132  1  0.263100  0.170800  0.174500  1.0  0.1096
  H  H133  1  0.316100  0.154200  0.142900  1.0  0.1132
  H  H134  1  0.175400  0.224900  0.116400  1.0  0.1136
  H  H135  1  0.126000  0.214100  0.082600  1.0  0.1104
  H  H136  1  0.062300  0.231000  0.111800  1.0  0.1147
  H  H137  1  0.363900  0.842200  0.098000  1.0  0.0963
  H  H138  1  0.291000  0.905500  0.108500  1.0  0.0973
  H  H139  1  0.489000  0.927600  0.179600  1.0  0.1144
  H  H140  1  0.561900  0.864300  0.169100  1.0  0.0971
  H  H141  1  0.167000  0.989800  0.229100  1.0  0.1004
  H  H142  1  0.206800  0.035100  0.231400  1.0  0.1052
  H  H143  1  0.112900  0.025500  0.210500  1.0  0.1121
  H  H144  1  0.211800  0.941200  0.220300  1.0  0.1102
  H  H145  1  0.219200  0.912000  0.189600  1.0  0.1209
  H  H146  1  0.312400  0.921000  0.211000  1.0  0.1168
  H  H147  1  0.426400  0.013700  0.087900  1.0  0.1081
  H  H148  1  0.484000  0.980600  0.108300  1.0  0.1173
  H  H149  1  0.392700  0.967500  0.087300  1.0  0.0995
  H  H150  1  0.371000  0.065500  0.096700  1.0  0.1142
  H  H151  1  0.273300  0.086200  0.108400  1.0  0.1071
  H  H152  1  0.370600  0.093900  0.128000  1.0  0.1064
  H  H153  1  0.390900  0.282700  0.300200  1.0  0.0918
  H  H154  1  0.339500  0.236000  0.260500  1.0  0.1163
  H  H155  1  0.351000  0.144700  0.327300  1.0  0.0983
  H  H156  1  0.402300  0.191400  0.367100  1.0  0.0984
  H  H157  1  0.528400  0.125300  0.239800  1.0  0.1002
  H  H158  1  0.504300  0.169300  0.253500  1.0  0.1197
  H  H159  1  0.494500  0.130600  0.276400  1.0  0.1154
  H  H160  1  0.490100  0.096100  0.204000  1.0  0.0965
  H  H161  1  0.415700  0.060500  0.196500  1.0  0.105
  H  H162  1  0.421400  0.098800  0.173100  1.0  0.1238
  H  H163  1  0.058400  0.104600  0.203800  1.0  0.0955
  H  H164  1  0.036100  0.112900  0.241200  1.0  0.1031
  H  H165  1  0.041600  0.149900  0.216300  1.0  0.1093
  H  H166  1  0.068800  0.165700  0.267900  1.0  0.1086
  H  H167  1  0.137400  0.162600  0.298700  1.0  0.1258
  H  H168  1  0.142000  0.201600  0.275900  1.0  0.1171
  H  H169  1  0.303100  0.274300  0.564600  1.0  0.0912
  H  H170  1  0.434000  0.295600  0.532400  1.0  0.1038
  H  H171  1  0.506100  0.379600  0.601000  1.0  0.1152
  H  H172  1  0.375200  0.358300  0.633200  1.0  0.0982
  H  H173  1  0.744500  0.305700  0.581900  1.0  0.1197
  H  H174  1  0.644000  0.317700  0.597900  1.0  0.1223
  H  H175  1  0.647700  0.284600  0.569800  1.0  0.1181
  H  H176  1  0.843100  0.335000  0.565300  1.0  0.1137
  H  H177  1  0.883100  0.344900  0.530000  1.0  0.1096
  H  H178  1  0.873400  0.380200  0.556200  1.0  0.1064
  H  H179  1  0.538000  0.434100  0.467700  1.0  0.1116
  H  H180  1  0.632800  0.458600  0.477400  1.0  0.1043
  H  H181  1  0.639300  0.421700  0.452600  1.0  0.0926
  H  H182  1  0.440700  0.410100  0.487500  1.0  0.0971
  H  H183  1  0.408200  0.366100  0.499200  1.0  0.1147
  H  H184  1  0.405600  0.403200  0.523900  1.0  0.1205
  H  H185  1  0.267300  0.343900  0.370900  1.0  0.0921
  H  H186  1  0.133900  0.370600  0.399200  1.0  0.1101
  H  H187  1  0.210800  0.305500  0.479400  1.0  0.0967
  H  H188  1  0.344100  0.278800  0.451100  1.0  0.092
  H  H189  1  0.187000  0.423300  0.507300  1.0  0.1002
  H  H190  1  0.222900  0.378500  0.499100  1.0  0.1115
  H  H191  1  0.222200  0.412500  0.471600  1.0  0.1223
  H  H192  1  0.073500  0.445900  0.525600  1.0  0.1078
  H  H193  1  0.974500  0.465600  0.514000  1.0  0.1096
  H  H194  1  0.974300  0.431000  0.541000  1.0  0.1083
  H  H195  1  0.799000  0.328100  0.434400  1.0  0.1178
  H  H196  1  0.758900  0.339700  0.469400  1.0  0.1029
  H  H197  1  0.758600  0.372600  0.441100  1.0  0.1079
  H  H198  1  0.911600  0.299200  0.420900  1.0  0.1048
  H  H199  1  0.010000  0.313800  0.404800  1.0  0.1078
  H  H200  1  0.011900  0.283700  0.435000  1.0  0.1156
  H  H201  1  0.681000  0.679000  0.461200  1.0  0.0961
  H  H202  1  0.690200  0.607600  0.458900  1.0  0.1029
  H  H203  1  0.887200  0.608500  0.532500  1.0  0.1026
  H  H204  1  0.877900  0.679900  0.534800  1.0  0.0946
  H  H205  1  0.707200  0.585000  0.546700  1.0  0.0966
  H  H206  1  0.641700  0.546200  0.553400  1.0  0.1061
  H  H207  1  0.741400  0.551500  0.572100  1.0  0.0975
  H  H208  1  0.721500  0.488400  0.572600  1.0  0.0969
  H  H209  1  0.688200  0.449700  0.552400  1.0  0.1104
  H  H210  1  0.796700  0.453300  0.564700  1.0  0.1129
  H  H211  1  0.882100  0.485100  0.420000  1.0  0.1041
  H  H212  1  0.919600  0.449000  0.442300  1.0  0.1076
  H  H213  1  0.811100  0.449100  0.429700  1.0  0.1125
  H  H214  1  0.904000  0.541500  0.423600  1.0  0.102
  H  H215  1  0.833000  0.578200  0.431600  1.0  0.1112
  H  H216  1  0.934100  0.574900  0.449700  1.0  0.1171
  H  H217  1  0.129200  0.298100  0.706700  1.0  0.0936
  H  H218  1  0.136900  0.250400  0.749300  1.0  0.1151
  H  H219  1  0.220400  0.162900  0.685000  1.0  0.091
  H  H220  1  0.212700  0.210600  0.642400  1.0  0.0997
  H  H221  1  0.350500  0.190600  0.723900  1.0  0.1034
  H  H222  1  0.412700  0.187400  0.756300  1.0  0.1185
  H  H223  1  0.407000  0.149800  0.732100  1.0  0.1258
  H  H224  1  0.391900  0.094500  0.811600  1.0  0.1136
  H  H225  1  0.415400  0.097900  0.773800  1.0  0.1097
  H  H226  1  0.437500  0.135200  0.797300  1.0  0.1076
  H  H227  1  0.032500  0.100100  0.827900  1.0  0.1074
  H  H228  1  0.984600  0.141900  0.817100  1.0  0.1033
  H  H229  1  0.977200  0.103200  0.794200  1.0  0.1057
  H  H230  1  0.011700  0.185500  0.733300  1.0  0.1072
  H  H231  1  0.971400  0.143200  0.746300  1.0  0.1103
  H  H232  1  0.970700  0.182200  0.769300  1.0  0.1053
  H  H233  1  0.719800  0.206800  0.929900  1.0  0.0912
  H  H234  1  0.613700  0.172100  0.894900  1.0  0.1079
  H  H235  1  0.420100  0.160300  0.968900  1.0  0.0926
  H  H236  1  0.526300  0.195000  0.003900  1.0  0.0948
  H  H237  1  0.278700  0.222800  0.896200  1.0  0.1048
  H  H238  1  0.333333  0.213400  0.929300  1.0  0.1117
  H  H239  1  0.392500  0.228400  0.898500  1.0  0.1224
  H  H240  1  0.151800  0.162000  0.850000  1.0  0.0937
  H  H241  1  0.156800  0.182700  0.884900  1.0  0.1077
  H  H242  1  0.213900  0.202200  0.855200  1.0  0.1387
  H  H243  1  0.333500  0.033600  0.849700  1.0  0.1026
  H  H244  1  0.447200  0.039900  0.851200  1.0  0.108
  H  H245  1  0.390600  0.024300  0.882400  1.0  0.1057
  H  H246  1  0.527900  0.051000  0.898200  1.0  0.1031
  H  H247  1  0.588700  0.091900  0.901300  1.0  0.132
  H  H248  1  0.524200  0.076800  0.930900  1.0  0.1185
  H  H249  1  0.812600  0.886900  0.829000  1.0  0.0988
  H  H250  1  0.896000  0.948800  0.822800  1.0  0.1088
  H  H251  1  0.070600  0.919000  0.898800  1.0  0.1001
  H  H252  1  0.987200  0.857100  0.905000  1.0  0.0965
  H  H253  1  0.935700  0.034300  0.909000  1.0  0.096
  H  H254  1  0.920900  0.987300  0.901400  1.0  0.1131
  H  H255  1  0.004500  0.001500  0.925400  1.0  0.1067
  H  H256  1  0.037600  0.077600  0.913100  1.0  0.1151
  H  H257  1  0.141600  0.093700  0.903100  1.0  0.107
  H  H258  1  0.049300  0.107000  0.882700  1.0  0.1004
  H  H259  1  0.228700  0.995700  0.779100  1.0  0.0735
  H  H260  1  0.210800  0.043400  0.777300  1.0  0.1003
  H  H261  1  0.297400  0.025900  0.798500  1.0  0.1093
  H  H262  1  0.164400  0.950700  0.786200  1.0  0.1086
  H  H263  1  0.144800  0.921600  0.816300  1.0  0.0986
  H  H264  1  0.056900  0.938100  0.795300  1.0  0.1073
  H  H265  1  0.769300  0.797100  0.571800  1.0  0.1051
  H  H266  1  0.668600  0.828400  0.610400  1.0  0.1031
  H  H267  1  0.444200  0.824000  0.546500  1.0  0.0996
  H  H268  1  0.545000  0.792700  0.507800  1.0  0.0897
  H  H269  1  0.601800  0.938300  0.614300  1.0  0.0995
  H  H270  1  0.652500  0.895600  0.608100  1.0  0.1093
  H  H271  1  0.587400  0.915500  0.580600  1.0  0.112
  H  H272  1  0.417300  0.960700  0.665600  1.0  0.1049
  H  H273  1  0.529600  0.951600  0.662200  1.0  0.1099
  H  H274  1  0.471500  0.970100  0.632300  1.0  0.1098
  H  H275  1  0.235700  0.802700  0.642300  1.0  0.1119
  H  H276  1  0.236900  0.829200  0.674500  1.0  0.1102
  H  H277  1  0.183900  0.845800  0.642900  1.0  0.1129
  H  H278  1  0.324600  0.775100  0.616400  1.0  0.1142
  H  H279  1  0.374000  0.785900  0.582600  1.0  0.1101
  H  H280  1  0.437700  0.769000  0.611800  1.0  0.1144
  H  H281  1  0.136100  0.157800  0.598000  1.0  0.0966
  H  H282  1  0.209000  0.094500  0.608500  1.0  0.0982
  H  H283  1  0.011000  0.072400  0.679600  1.0  0.1144
  H  H284  1  0.938100  0.135700  0.669100  1.0  0.0968
  H  H285  1  0.333000  0.010200  0.729100  1.0  0.0996
  H  H286  1  0.293200  0.964900  0.731400  1.0  0.1063
  H  H287  1  0.387100  0.974500  0.710500  1.0  0.1146
  H  H288  1  0.288200  0.058800  0.720300  1.0  0.1099
  H  H289  1  0.280800  0.088000  0.689600  1.0  0.1215
  H  H290  1  0.187600  0.079000  0.711000  1.0  0.1138
  H  H291  1  0.073600  0.986300  0.587900  1.0  0.1064
  H  H292  1  0.016000  0.019400  0.608300  1.0  0.1209
  H  H293  1  0.107300  0.032500  0.587300  1.0  0.0991
  H  H294  1  0.129000  0.934500  0.596700  1.0  0.1133
  H  H295  1  0.226700  0.913800  0.608400  1.0  0.1048
  H  H296  1  0.129400  0.906100  0.628000  1.0  0.1062
  H  H297  1  0.109100  0.717300  0.800200  1.0  0.0919
  H  H298  1  0.160500  0.764000  0.760500  1.0  0.1165
  H  H299  1  0.149000  0.855300  0.827300  1.0  0.098
  H  H300  1  0.097700  0.808600  0.867100  1.0  0.0982
  H  H301  1  0.971600  0.874700  0.739800  1.0  0.0993
  H  H302  1  0.995700  0.830700  0.753500  1.0  0.1186
  H  H303  1  0.005500  0.869400  0.776400  1.0  0.1134
  H  H304  1  0.009900  0.903900  0.704000  1.0  0.0954
  H  H305  1  0.084300  0.939500  0.696500  1.0  0.105
  H  H306  1  0.078600  0.901200  0.673100  1.0  0.1241
  H  H307  1  0.441600  0.895400  0.703800  1.0  0.0944
  H  H308  1  0.463900  0.887100  0.741200  1.0  0.102
  H  H309  1  0.458400  0.850100  0.716300  1.0  0.1078
  H  H310  1  0.431200  0.834300  0.767900  1.0  0.1072
  H  H311  1  0.362600  0.837400  0.798700  1.0  0.1239
  H  H312  1  0.358000  0.798400  0.775900  1.0  0.117
  H  H313  1  0.803100  0.225700  0.435400  1.0  0.0909
  H  H314  1  0.934000  0.204400  0.467600  1.0  0.1033
  H  H315  1  0.006100  0.120400  0.399000  1.0  0.1146
  H  H316  1  0.875200  0.141700  0.366800  1.0  0.0985
  H  H317  1  0.244500  0.194300  0.418100  1.0  0.1184
  H  H318  1  0.144000  0.182300  0.402100  1.0  0.121
  H  H319  1  0.147700  0.215400  0.430200  1.0  0.1176
  H  H320  1  0.343100  0.165000  0.434700  1.0  0.1141
  H  H321  1  0.383100  0.155100  0.470000  1.0  0.1086
  H  H322  1  0.373400  0.119800  0.443800  1.0  0.1061
  H  H323  1  0.038000  0.065900  0.532300  1.0  0.1118
  H  H324  1  0.132800  0.041400  0.522600  1.0  0.1015
  H  H325  1  0.139300  0.078300  0.547400  1.0  0.0917
  H  H326  1  0.940700  0.089900  0.512500  1.0  0.0957
  H  H327  1  0.908200  0.133900  0.500800  1.0  0.1156
  H  H328  1  0.905600  0.096800  0.476100  1.0  0.1206
  H  H329  1  0.767300  0.156100  0.629100  1.0  0.092
  H  H330  1  0.633900  0.129400  0.600800  1.0  0.1096
  H  H331  1  0.710800  0.194500  0.520600  1.0  0.098
  H  H332  1  0.844100  0.221200  0.548900  1.0  0.0914
  H  H333  1  0.687000  0.076700  0.492700  1.0  0.1011
  H  H334  1  0.722900  0.121500  0.500900  1.0  0.1113
  H  H335  1  0.722200  0.087500  0.528400  1.0  0.1223
  H  H336  1  0.573500  0.054100  0.474400  1.0  0.1064
  H  H337  1  0.474500  0.034400  0.486000  1.0  0.1085
  H  H338  1  0.474300  0.069000  0.459000  1.0  0.1089
  H  H339  1  0.299000  0.171900  0.565600  1.0  0.1193
  H  H340  1  0.258900  0.160300  0.530600  1.0  0.1027
  H  H341  1  0.258600  0.127400  0.558900  1.0  0.1067
  H  H342  1  0.411600  0.200800  0.579100  1.0  0.1069
  H  H343  1  0.510000  0.186200  0.595200  1.0  0.1082
  H  H344  1  0.511900  0.216300  0.565000  1.0  0.1154
  H  H345  1  0.181000  0.821000  0.538800  1.0  0.0965
  H  H346  1  0.190200  0.892400  0.541100  1.0  0.103
  H  H347  1  0.387200  0.891500  0.467500  1.0  0.1022
  H  H348  1  0.377900  0.820100  0.465200  1.0  0.094
  H  H349  1  0.207200  0.915000  0.453300  1.0  0.0962
  H  H350  1  0.141700  0.953800  0.446600  1.0  0.1066
  H  H351  1  0.241400  0.948500  0.427900  1.0  0.0965
  H  H352  1  0.221500  0.011600  0.427400  1.0  0.0983
  H  H353  1  0.188200  0.050300  0.447600  1.0  0.1086
  H  H354  1  0.296700  0.046700  0.435300  1.0  0.1128
  H  H355  1  0.382100  0.014900  0.580000  1.0  0.1036
  H  H356  1  0.419600  0.051000  0.557700  1.0  0.1064
  H  H357  1  0.311100  0.050900  0.570300  1.0  0.112
  H  H358  1  0.404000  0.958500  0.576400  1.0  0.1041
  H  H359  1  0.333000  0.921800  0.568400  1.0  0.1099
  H  H360  1  0.434100  0.925100  0.550300  1.0  0.1175
  H  H361  1  0.629200  0.201900  0.293300  1.0  0.0932
  H  H362  1  0.636900  0.249600  0.250700  1.0  0.1154
  H  H363  1  0.720400  0.337100  0.315000  1.0  0.0915
  H  H364  1  0.712700  0.289400  0.357600  1.0  0.0998
  H  H365  1  0.850500  0.309400  0.276100  1.0  0.1027
  H  H366  1  0.912700  0.312600  0.243700  1.0  0.1185
  H  H367  1  0.907000  0.350200  0.267900  1.0  0.1252
  H  H368  1  0.891900  0.405500  0.188400  1.0  0.1126
  H  H369  1  0.915400  0.402100  0.226200  1.0  0.1092
  H  H370  1  0.937500  0.364800  0.202700  1.0  0.1084
  H  H371  1  0.532500  0.399900  0.172100  1.0  0.1075
  H  H372  1  0.484600  0.358100  0.182900  1.0  0.1029
  H  H373  1  0.477200  0.396800  0.205800  1.0  0.1056
  H  H374  1  0.511700  0.314500  0.266700  1.0  0.1081
  H  H375  1  0.471400  0.356800  0.253700  1.0  0.1099
  H  H376  1  0.470700  0.317800  0.230700  1.0  0.1047
  H  H377  1  0.219800  0.293200  0.070100  1.0  0.0904
  H  H378  1  0.113700  0.327900  0.105100  1.0  0.1069
  H  H379  1  0.920100  0.339700  0.031100  1.0  0.0925
  H  H380  1  0.026300  0.305000  0.996100  1.0  0.0943
  H  H381  1  0.778700  0.277200  0.103800  1.0  0.1046
  H  H382  1  0.833300  0.286600  0.070700  1.0  0.1119
  H  H383  1  0.892500  0.271600  0.101500  1.0  0.1236
  H  H384  1  0.651800  0.338000  0.150000  1.0  0.0933
  H  H385  1  0.656800  0.317300  0.115100  1.0  0.1072
  H  H386  1  0.713900  0.297800  0.144800  1.0  0.137
  H  H387  1  0.833500  0.466400  0.150300  1.0  0.1016
  H  H388  1  0.947200  0.460100  0.148800  1.0  0.1074
  H  H389  1  0.890600  0.475700  0.117600  1.0  0.1051
  H  H390  1  0.027900  0.449000  0.101800  1.0  0.1015
  H  H391  1  0.088700  0.408100  0.098700  1.0  0.1314
  H  H392  1  0.024200  0.423200  0.069100  1.0  0.1205
  H  H393  1  0.312600  0.613100  0.171000  1.0  0.099
  H  H394  1  0.396000  0.551200  0.177200  1.0  0.1088
  H  H395  1  0.570600  0.581000  0.101200  1.0  0.1
  H  H396  1  0.487200  0.642900  0.095000  1.0  0.0963
  H  H397  1  0.435700  0.465700  0.091000  1.0  0.0959
  H  H398  1  0.420900  0.512700  0.098600  1.0  0.1133
  H  H399  1  0.504500  0.498500  0.074600  1.0  0.1076
  H  H400  1  0.537600  0.422400  0.086900  1.0  0.1144
  H  H401  1  0.641600  0.406300  0.096900  1.0  0.1057
  H  H402  1  0.549300  0.393000  0.117300  1.0  0.0988
  H  H403  1  0.728700  0.504300  0.220900  1.0  0.0764
  H  H404  1  0.710800  0.456600  0.222700  1.0  0.1005
  H  H405  1  0.797400  0.474100  0.201500  1.0  0.1094
  H  H406  1  0.664400  0.549300  0.213800  1.0  0.1081
  H  H407  1  0.644800  0.578400  0.183700  1.0  0.0989
  H  H408  1  0.556900  0.561900  0.204700  1.0  0.1071
  H  H409  1  0.269300  0.702900  0.428200  1.0  0.1047
  H  H410  1  0.168600  0.671600  0.389600  1.0  0.1048
  H  H411  1  0.944200  0.676000  0.453500  1.0  0.0997
  H  H412  1  0.045000  0.707300  0.492200  1.0  0.0899
  H  H413  1  0.101800  0.561700  0.385700  1.0  0.0987
  H  H414  1  0.152500  0.604400  0.391900  1.0  0.1101
  H  H415  1  0.087400  0.584500  0.419400  1.0  0.1116
  H  H416  1  0.917300  0.539300  0.334400  1.0  0.1051
  H  H417  1  0.029600  0.548400  0.337800  1.0  0.1098
  H  H418  1  0.971500  0.529900  0.367700  1.0  0.1086
  H  H419  1  0.735700  0.697300  0.357700  1.0  0.111
  H  H420  1  0.736900  0.670800  0.325500  1.0  0.111
  H  H421  1  0.683900  0.654200  0.357100  1.0  0.114
  H  H422  1  0.824600  0.724900  0.383600  1.0  0.1132
  H  H423  1  0.874000  0.714100  0.417400  1.0  0.109
  H  H424  1  0.937700  0.731000  0.388200  1.0  0.1146
  H  H425  1  0.636100  0.342200  0.402000  1.0  0.097
  H  H426  1  0.709000  0.405500  0.391500  1.0  0.0979
  H  H427  1  0.511000  0.427600  0.320400  1.0  0.1145
  H  H428  1  0.438100  0.364300  0.330900  1.0  0.097
  H  H429  1  0.833000  0.489800  0.270900  1.0  0.1013
  H  H430  1  0.793200  0.535100  0.268600  1.0  0.1073
  H  H431  1  0.887100  0.525500  0.289500  1.0  0.1159
  H  H432  1  0.788200  0.441200  0.279700  1.0  0.1102
  H  H433  1  0.780800  0.412000  0.310400  1.0  0.1203
  H  H434  1  0.687600  0.421000  0.289000  1.0  0.1136
  H  H435  1  0.573600  0.513700  0.412100  1.0  0.1068
  H  H436  1  0.516000  0.480600  0.391700  1.0  0.1208
  H  H437  1  0.607300  0.467500  0.412700  1.0  0.0994
  H  H438  1  0.629000  0.565500  0.403300  1.0  0.1153
  H  H439  1  0.726700  0.586200  0.391600  1.0  0.1049
  H  H440  1  0.629400  0.593900  0.372000  1.0  0.1067
  H  H441  1  0.609100  0.782700  0.199800  1.0  0.0915
  H  H442  1  0.660500  0.736000  0.239500  1.0  0.1162
  H  H443  1  0.649000  0.644700  0.172700  1.0  0.0979
  H  H444  1  0.597700  0.691400  0.132900  1.0  0.0987
  H  H445  1  0.471600  0.625300  0.260200  1.0  0.1
  H  H446  1  0.495700  0.669300  0.246500  1.0  0.1204
  H  H447  1  0.505500  0.630600  0.223600  1.0  0.114
  H  H448  1  0.509900  0.596100  0.296000  1.0  0.0953
  H  H449  1  0.584300  0.560500  0.303500  1.0  0.1032
  H  H450  1  0.578600  0.598800  0.326900  1.0  0.1241
  H  H451  1  0.941600  0.604600  0.296200  1.0  0.0967
  H  H452  1  0.963900  0.612900  0.258800  1.0  0.1018
  H  H453  1  0.958400  0.649900  0.283700  1.0  0.108
  H  H454  1  0.931200  0.665700  0.232100  1.0  0.1076
  H  H455  1  0.862600  0.662600  0.201300  1.0  0.1255
  H  H456  1  0.858000  0.701600  0.224100  1.0  0.1175
  H  H457  1  0.696900  0.774300  0.935400  1.0  0.0914
  H  H458  1  0.566000  0.795600  0.967600  1.0  0.1036
  H  H459  1  0.493900  0.879600  0.899000  1.0  0.1153
  H  H460  1  0.624800  0.858300  0.866800  1.0  0.0981
  H  H461  1  0.255500  0.805700  0.918100  1.0  0.118
  H  H462  1  0.356000  0.817700  0.902100  1.0  0.1219
  H  H463  1  0.352300  0.784600  0.930200  1.0  0.1178
  H  H464  1  0.156900  0.835000  0.934700  1.0  0.1125
  H  H465  1  0.116900  0.844900  0.970000  1.0  0.1099
  H  H466  1  0.126600  0.880200  0.943800  1.0  0.1066
  H  H467  1  0.462000  0.934100  0.032300  1.0  0.1126
  H  H468  1  0.367200  0.958600  0.022600  1.0  0.104
  H  H469  1  0.360700  0.921700  0.047400  1.0  0.095
  H  H470  1  0.559300  0.910100  0.012500  1.0  0.0963
  H  H471  1  0.591800  0.866100  0.000800  1.0  0.115
  H  H472  1  0.594400  0.903200  0.976100  1.0  0.1203
  H  H473  1  0.732700  0.843900  0.129100  1.0  0.0916
  H  H474  1  0.866100  0.870600  0.100800  1.0  0.1096
  H  H475  1  0.789200  0.805500  0.020600  1.0  0.0976
  H  H476  1  0.655900  0.778800  0.048900  1.0  0.0913
  H  H477  1  0.813000  0.923300  0.992700  1.0  0.1015
  H  H478  1  0.777100  0.878500  0.000900  1.0  0.1114
  H  H479  1  0.777800  0.912500  0.028400  1.0  0.1228
  H  H480  1  0.926500  0.945900  0.974400  1.0  0.1093
  H  H481  1  0.025500  0.965600  0.986000  1.0  0.1094
  H  H482  1  0.025700  0.931000  0.959000  1.0  0.1074
  H  H483  1  0.201000  0.828100  0.065600  1.0  0.1201
  H  H484  1  0.241100  0.839700  0.030600  1.0  0.1032
  H  H485  1  0.241400  0.872600  0.058900  1.0  0.1073
  H  H486  1  0.088400  0.799200  0.079100  1.0  0.108
  H  H487  1  0.990000  0.813800  0.095200  1.0  0.1085
  H  H488  1  0.988100  0.783700  0.065000  1.0  0.1158
  H  H489  1  0.319000  0.179000  0.038800  1.0  0.0963
  H  H490  1  0.309800  0.107600  0.041100  1.0  0.103
  H  H491  1  0.112800  0.108500  0.967500  1.0  0.1024
  H  H492  1  0.122100  0.179900  0.965200  1.0  0.0944
  H  H493  1  0.292800  0.085000  0.953300  1.0  0.0955
  H  H494  1  0.358300  0.046200  0.946600  1.0  0.1097
  H  H495  1  0.258600  0.051500  0.927900  1.0  0.0968
  H  H496  1  0.278500  0.988400  0.927400  1.0  0.0984
  H  H497  1  0.311800  0.949700  0.947600  1.0  0.1113
  H  H498  1  0.203300  0.953300  0.935300  1.0  0.1119
  H  H499  1  0.117900  0.985100  0.080000  1.0  0.104
  H  H500  1  0.080400  0.949000  0.057700  1.0  0.106
  H  H501  1  0.188900  0.949100  0.070300  1.0  0.1121
  H  H502  1  0.096000  0.041500  0.076400  1.0  0.1036
  H  H503  1  0.167000  0.078200  0.068400  1.0  0.1108
  H  H504  1  0.065900  0.074900  0.050300  1.0  0.1178
  H  H505  1  0.870800  0.798100  0.793300  1.0  0.0929
  H  H506  1  0.863100  0.750400  0.750700  1.0  0.1153
  H  H507  1  0.779600  0.662900  0.815000  1.0  0.0912
  H  H508  1  0.787300  0.710600  0.857600  1.0  0.0996
  H  H509  1  0.649500  0.690600  0.776100  1.0  0.1011
  H  H510  1  0.587300  0.687400  0.743700  1.0  0.1209
  H  H511  1  0.593000  0.649800  0.767900  1.0  0.1246
  H  H512  1  0.608100  0.594500  0.688400  1.0  0.1132
  H  H513  1  0.584600  0.597900  0.726200  1.0  0.1098
  H  H514  1  0.562500  0.635200  0.702700  1.0  0.1082
  H  H515  1  0.967500  0.600100  0.672100  1.0  0.1063
  H  H516  1  0.015400  0.641900  0.682900  1.0  0.1036
  H  H517  1  0.022800  0.603200  0.705800  1.0  0.1055
  H  H518  1  0.988300  0.685500  0.766700  1.0  0.1067
  H  H519  1  0.028600  0.643200  0.753700  1.0  0.1101
  H  H520  1  0.029300  0.682200  0.730700  1.0  0.1059
  H  H521  1  0.280200  0.706800  0.570100  1.0  0.0908
  H  H522  1  0.386300  0.672100  0.605100  1.0  0.1079
  H  H523  1  0.579900  0.660300  0.531100  1.0  0.0926
  H  H524  1  0.473700  0.695000  0.496100  1.0  0.0948
  H  H525  1  0.721300  0.722800  0.603800  1.0  0.1033
  H  H526  1  0.666667  0.713400  0.570700  1.0  0.1118
  H  H527  1  0.607500  0.728400  0.601500  1.0  0.1216
  H  H528  1  0.848200  0.662000  0.650000  1.0  0.0933
  H  H529  1  0.843200  0.682700  0.615100  1.0  0.1068
  H  H530  1  0.786100  0.702200  0.644800  1.0  0.1363
  H  H531  1  0.666500  0.533600  0.650300  1.0  0.1015
  H  H532  1  0.552800  0.539900  0.648800  1.0  0.1064
  H  H533  1  0.609400  0.524300  0.617600  1.0  0.1063
  H  H534  1  0.472100  0.551000  0.601800  1.0  0.1023
  H  H535  1  0.411300  0.591900  0.598700  1.0  0.1299
  H  H536  1  0.475800  0.576800  0.569100  1.0  0.1193
  H  H537  1  0.187400  0.386900  0.671000  1.0  0.0988
  H  H538  1  0.104000  0.448800  0.677200  1.0  0.1082
  H  H539  1  0.929400  0.419000  0.601200  1.0  0.1001
  H  H540  1  0.012800  0.357100  0.595000  1.0  0.0961
  H  H541  1  0.064300  0.534300  0.591000  1.0  0.0978
  H  H542  1  0.079100  0.487300  0.598600  1.0  0.1127
  H  H543  1  0.995500  0.501500  0.574600  1.0  0.1085
  H  H544  1  0.962400  0.577600  0.586900  1.0  0.1135
  H  H545  1  0.858400  0.593700  0.596900  1.0  0.1044
  H  H546  1  0.950700  0.607000  0.617300  1.0  0.0986
  H  H547  1  0.771300  0.495700  0.720900  1.0  0.0722
  H  H548  1  0.789200  0.543400  0.722700  1.0  0.0993
  H  H549  1  0.702600  0.525900  0.701500  1.0  0.1083
  H  H550  1  0.835600  0.450700  0.713800  1.0  0.108
  H  H551  1  0.855200  0.421600  0.683700  1.0  0.098
  H  H552  1  0.943100  0.438100  0.704700  1.0  0.1073
  H  H553  1  0.230700  0.297100  0.928200  1.0  0.1044
  H  H554  1  0.331400  0.328400  0.889600  1.0  0.1038
  H  H555  1  0.555800  0.324000  0.953500  1.0  0.0993
  H  H556  1  0.455000  0.292700  0.992200  1.0  0.0901
  H  H557  1  0.398200  0.438300  0.885700  1.0  0.0991
  H  H558  1  0.347500  0.395600  0.891900  1.0  0.1095
  H  H559  1  0.412600  0.415500  0.919400  1.0  0.1113
  H  H560  1  0.582700  0.460700  0.834400  1.0  0.1048
  H  H561  1  0.470400  0.451600  0.837800  1.0  0.1083
  H  H562  1  0.528500  0.470100  0.867700  1.0  0.1121
  H  H563  1  0.764300  0.302700  0.857700  1.0  0.1128
  H  H564  1  0.763100  0.329200  0.825500  1.0  0.1096
  H  H565  1  0.816100  0.345800  0.857100  1.0  0.1129
  H  H566  1  0.675400  0.275100  0.883600  1.0  0.1124
  H  H567  1  0.626000  0.285900  0.917400  1.0  0.1104
  H  H568  1  0.562300  0.269000  0.888200  1.0  0.1139
  H  H569  1  0.863900  0.657800  0.902000  1.0  0.0964
  H  H570  1  0.791000  0.594500  0.891500  1.0  0.0969
  H  H571  1  0.989000  0.572400  0.820400  1.0  0.1141
  H  H572  1  0.061900  0.635700  0.830900  1.0  0.0976
  H  H573  1  0.667000  0.510200  0.770900  1.0  0.1007
  H  H574  1  0.706800  0.464900  0.768600  1.0  0.1059
  H  H575  1  0.612900  0.474500  0.789500  1.0  0.1124
  H  H576  1  0.711800  0.558800  0.779700  1.0  0.1107
  H  H577  1  0.719200  0.588000  0.810400  1.0  0.1205
  H  H578  1  0.812400  0.579000  0.789000  1.0  0.1162
  H  H579  1  0.926400  0.486300  0.912100  1.0  0.1075
  H  H580  1  0.984000  0.519400  0.891700  1.0  0.118
  H  H581  1  0.892700  0.532500  0.912700  1.0  0.0988
  H  H582  1  0.871000  0.434500  0.903300  1.0  0.1139
  H  H583  1  0.773300  0.413800  0.891600  1.0  0.1065
  H  H584  1  0.870600  0.406100  0.872000  1.0  0.1064
  H  H585  1  0.890900  0.217300  0.699800  1.0  0.0921
  H  H586  1  0.839500  0.264000  0.739500  1.0  0.1164
  H  H587  1  0.851000  0.355300  0.672700  1.0  0.0986
  H  H588  1  0.902300  0.308600  0.632900  1.0  0.0986
  H  H589  1  0.028400  0.374700  0.760200  1.0  0.1001
  H  H590  1  0.004300  0.330700  0.746500  1.0  0.1183
  H  H591  1  0.994500  0.369400  0.723600  1.0  0.1136
  H  H592  1  0.990100  0.403900  0.796000  1.0  0.0976
  H  H593  1  0.915700  0.439500  0.803500  1.0  0.1057
  H  H594  1  0.921400  0.401200  0.826900  1.0  0.1227
  H  H595  1  0.558400  0.395400  0.796200  1.0  0.0958
  H  H596  1  0.536100  0.387100  0.758800  1.0  0.1019
  H  H597  1  0.541600  0.350100  0.783700  1.0  0.1067
  H  H598  1  0.568800  0.334300  0.732100  1.0  0.1083
  H  H599  1  0.637400  0.337400  0.701300  1.0  0.1254
  H  H600  1  0.642000  0.298400  0.724100  1.0  0.1165
  C  C601  1  0.156200  0.704600  0.071900  1.0  0.1512
  C  C602  1  0.077800  0.691900  0.052600  1.0  -0.1253
  C  C603  1  0.017000  0.660300  0.063500  1.0  0.0641
  C  C604  1  0.034600  0.641500  0.093700  1.0  -0.1168
  C  C605  1  0.113000  0.654300  0.113000  1.0  0.1389
  C  C606  1  0.934800  0.645600  0.042200  1.0  -0.0647
  C  C607  1  0.954000  0.618400  0.016100  1.0  0.0387
  C  C608  1  0.875400  0.598500  0.001200  1.0  0.0081
  C  C609  1  0.775500  0.607600  0.011800  1.0  -0.1202
  C  C610  1  0.760400  0.636000  0.036100  1.0  0.0184
  C  C611  1  0.837900  0.655400  0.051400  1.0  0.0373
  C  C612  1  0.824100  0.690300  0.077800  1.0  -0.3615
  C  C613  1  0.655300  0.644800  0.048100  1.0  -0.3722
  C  C614  1  0.893000  0.568100  0.971900  1.0  -0.3564
  C  C615  1  0.059800  0.608800  0.005700  1.0  -0.3531
  C  C616  1  0.244000  0.663800  0.892600  1.0  0.1528
  C  C617  1  0.323900  0.647800  0.909600  1.0  -0.1834
  C  C618  1  0.340900  0.659300  0.942100  1.0  0.0824
  C  C619  1  0.277900  0.686800  0.957600  1.0  -0.1265
  C  C620  1  0.198000  0.702800  0.940700  1.0  0.1553
  C  C621  1  0.428900  0.641000  0.958000  1.0  0.0103
  C  C622  1  0.518300  0.655000  0.949600  1.0  0.0034
  C  C623  1  0.603000  0.636000  0.960900  1.0  0.0408
  C  C624  1  0.597200  0.603700  0.984500  1.0  0.0026
  C  C625  1  0.503300  0.591200  0.995300  1.0  0.0371
  C  C626  1  0.417300  0.610200  0.981200  1.0  0.0589
  C  C627  1  0.311200  0.597800  0.990700  1.0  -0.3982
  C  C628  1  0.494500  0.559400  0.021300  1.0  -0.3693
  C  C629  1  0.706400  0.650200  0.950400  1.0  -0.3611
  C  C630  1  0.521500  0.693400  0.925200  1.0  -0.3546
  C  C631  1  0.777700  0.335100  0.975500  1.0  0.1517
  C  C632  1  0.772100  0.377900  0.974100  1.0  -0.1186
  C  C633  1  0.710400  0.399000  0.995500  1.0  0.0218
  C  C634  1  0.654100  0.377400  0.018200  1.0  -0.0812
  C  C635  1  0.659700  0.334600  0.019600  1.0  0.1518
  C  C636  1  0.703900  0.445300  0.995800  1.0  -0.0439
  C  C637  1  0.668400  0.466900  0.968600  1.0  0.0355
  C  C638  1  0.668300  0.509100  0.968800  1.0  -0.022
  C  C639  1  0.698500  0.532200  0.995700  1.0  0.002
  C  C640  1  0.731100  0.509700  0.024600  1.0  0.0358
  C  C641  1  0.739200  0.467400  0.023700  1.0  -0.0207
  C  C642  1  0.792300  0.444000  0.051600  1.0  -0.341
  C  C643  1  0.758700  0.531600  0.056500  1.0  -0.3884
  C  C644  1  0.635700  0.533900  0.937100  1.0  -0.3574
  C  C645  1  0.619600  0.440500  0.940700  1.0  -0.3586
  C  C646  1  0.352500  0.729000  0.202300  1.0  0.1665
  C  C647  1  0.347900  0.757600  0.227850  1.0  -0.1055
  C  C648  1  0.320600  0.798100  0.221400  1.0  0.007
  C  C649  1  0.297900  0.810000  0.189400  1.0  -0.1585
  C  C650  1  0.302500  0.781400  0.163850  1.0  0.1643
  C  C651  1  0.312500  0.829700  0.250000  1.0  -0.104
  C  C652  1  0.394500  0.843100  0.264400  1.0  0.1158
  C  C653  1  0.387300  0.869900  0.292700  1.0  0.0386
  C  C654  1  0.293300  0.883300  0.303000  1.0  -0.0635
  C  C655  1  0.210800  0.870000  0.286500  1.0  -0.0187
  C  C656  1  0.214700  0.843000  0.259000  1.0  0.1002
  C  C657  1  0.128700  0.827400  0.241300  1.0  -0.3847
  C  C658  1  0.106500  0.887200  0.292900  1.0  -0.391
  C  C659  1  0.481900  0.882300  0.309500  1.0  -0.3849
  C  C660  1  0.494000  0.832100  0.252200  1.0  -0.3847
  C  C661  1  0.840200  0.802600  0.437700  1.0  0.1375
  C  C662  1  0.903800  0.823300  0.416800  1.0  -0.1184
  C  C663  1  0.993600  0.837300  0.428400  1.0  0.0577
  C  C664  1  0.019800  0.830400  0.461100  1.0  -0.0982
  C  C665  1  0.956200  0.809600  0.482100  1.0  0.1691
  C  C666  1  0.066900  0.856700  0.405700  1.0  -0.0284
  C  C667  1  0.057200  0.897400  0.394000  1.0  0.0745
  C  C668  1  0.127500  0.914400  0.374300  1.0  0.0952
  C  C669  1  0.206900  0.890100  0.362800  1.0  -0.0823
  C  C670  1  0.216400  0.849800  0.373800  1.0  -0.0082
  C  C671  1  0.147700  0.832800  0.394900  1.0  0.0186
  C  C672  1  0.162200  0.787800  0.405800  1.0  -0.3775
  C  C673  1  0.307100  0.823200  0.365100  1.0  -0.3512
  C  C674  1  0.112700  0.958100  0.363400  1.0  -0.3254
  C  C675  1  0.971200  0.921600  0.407300  1.0  -0.3886
  C  C676  1  0.635700  0.106600  0.343000  1.0  0.1496
  C  C677  1  0.585700  0.069600  0.339300  1.0  -0.136
  C  C678  1  0.508400  0.060000  0.360200  1.0  0.0369
  C  C679  1  0.481100  0.087500  0.384800  1.0  -0.1208
  C  C680  1  0.531100  0.124500  0.388500  1.0  0.1532
  C  C681  1  0.453500  0.020200  0.355600  1.0  0.0109
  C  C682  1  0.387500  0.017200  0.326900  1.0  0.052
  C  C683  1  0.337400  0.981700  0.321700  1.0  -0.0295
  C  C684  1  0.345300  0.948300  0.343100  1.0  -0.0613
  C  C685  1  0.407200  0.953200  0.371900  1.0  0.0378
  C  C686  1  0.461200  0.988200  0.376700  1.0  0.066
  C  C687  1  0.531600  0.991600  0.405800  1.0  -0.3789
  C  C688  1  0.421000  0.915000  0.394900  1.0  -0.3511
  C  C689  1  0.268500  0.978900  0.291200  1.0  -0.3525
  C  C690  1  0.379600  0.055300  0.304000  1.0  -0.3408
  C  C691  1  0.795800  0.197500  0.066700  1.0  0.1353
  C  C692  1  0.856200  0.178800  0.089900  1.0  -0.1229
  C  C693  1  0.953600  0.170700  0.082300  1.0  0.0533
  C  C694  1  0.990600  0.181400  0.051500  1.0  -0.204
  C  C695  1  0.930200  0.200100  0.028400  1.0  0.1836
  C  C696  1  0.017400  0.149300  0.105500  1.0  -0.0727
  C  C697  1  0.099600  0.169200  0.118300  1.0  -0.0048
  C  C698  1  0.165200  0.149000  0.139600  1.0  0.0192
  C  C699  1  0.143600  0.109200  0.150700  1.0  -0.1036
  C  C700  1  0.054200  0.090000  0.139300  1.0  0.0799
  C  C701  1  0.992000  0.109500  0.117400  1.0  0.0608
  C  C702  1  0.904900  0.088100  0.103900  1.0  -0.3936
  C  C703  1  0.032100  0.048300  0.150800  1.0  -0.3543
  C  C704  1  0.261300  0.169800  0.150900  1.0  -0.3691
  C  C705  1  0.117600  0.214100  0.106100  1.0  -0.3801
  C  C706  1  0.389000  0.859300  0.114400  1.0  0.1514
  C  C707  1  0.345300  0.897200  0.120600  1.0  -0.1137
  C  C708  1  0.382700  0.922800  0.145100  1.0  0.0553
  C  C709  1  0.463900  0.910500  0.163200  1.0  -0.1104
  C  C710  1  0.507600  0.872600  0.157000  1.0  0.1543
  C  C711  1  0.334700  0.964300  0.153300  1.0  -0.0074
  C  C712  1  0.353200  0.997100  0.130600  1.0  0.0172
  C  C713  1  0.311700  0.036300  0.137500  1.0  0.0352
  C  C714  1  0.257500  0.041700  0.165800  1.0  0.0152
  C  C715  1  0.240400  0.007600  0.186600  1.0  0.0202
  C  C716  1  0.277100  0.970000  0.180200  1.0  0.0687
  C  C717  1  0.175600  0.015200  0.217300  1.0  -0.3688
  C  C718  1  0.252800  0.932500  0.202400  1.0  -0.37
  C  C719  1  0.420500  0.989000  0.100700  1.0  -0.37
  C  C720  1  0.333700  0.074000  0.115600  1.0  -0.3616
  C  C721  1  0.382900  0.255100  0.305600  1.0  0.1607
  C  C722  1  0.352100  0.227100  0.281840  1.0  -0.191
  C  C723  1  0.340200  0.185700  0.290000  1.0  0.0601
  C  C724  1  0.359000  0.172300  0.321900  1.0  -0.0953
  C  C725  1  0.389800  0.200300  0.345700  1.0  0.1702
  C  C726  1  0.310700  0.157100  0.262800  1.0  -0.0652
  C  C727  1  0.209200  0.151700  0.255800  1.0  0.0479
  C  C728  1  0.180500  0.127700  0.228900  1.0  0.0023
  C  C729  1  0.252700  0.107700  0.208600  1.0  -0.0314
  C  C730  1  0.347100  0.112100  0.216700  1.0  0.0108
  C  C731  1  0.379100  0.135500  0.243500  1.0  0.051
  C  C732  1  0.486800  0.140700  0.254300  1.0  -0.4061
  C  C733  1  0.426200  0.089700  0.195500  1.0  -0.3909
  C  C734  1  0.068300  0.123400  0.221900  1.0  -0.3439
  C  C735  1  0.132500  0.172200  0.276400  1.0  -0.3923
  C  C736  1  0.935000  0.740700  0.972000  1.0  0.4667
  C  C737  1  0.343800  0.295400  0.571900  1.0  0.1522
  C  C738  1  0.422200  0.308100  0.552600  1.0  -0.123
  C  C739  1  0.483000  0.339700  0.563500  1.0  0.0622
  C  C740  1  0.465400  0.358500  0.593700  1.0  -0.117
  C  C741  1  0.387000  0.345700  0.613000  1.0  0.1365
  C  C742  1  0.565200  0.354400  0.542200  1.0  -0.0655
  C  C743  1  0.546000  0.381600  0.516100  1.0  0.0381
  C  C744  1  0.624600  0.401500  0.501200  1.0  0.0085
  C  C745  1  0.724500  0.392400  0.511800  1.0  -0.1211
  C  C746  1  0.739600  0.364000  0.536100  1.0  0.0194
  C  C747  1  0.662100  0.344600  0.551400  1.0  0.0374
  C  C748  1  0.675900  0.309700  0.577800  1.0  -0.3615
  C  C749  1  0.844700  0.355200  0.548100  1.0  -0.3725
  C  C750  1  0.607000  0.431900  0.471900  1.0  -0.3552
  C  C751  1  0.440200  0.391200  0.505700  1.0  -0.352
  C  C752  1  0.256000  0.336200  0.392600  1.0  0.1516
  C  C753  1  0.176100  0.352200  0.409600  1.0  -0.1812
  C  C754  1  0.159100  0.340700  0.442100  1.0  0.0825
  C  C755  1  0.222100  0.313200  0.457600  1.0  -0.1262
  C  C756  1  0.302000  0.297200  0.440700  1.0  0.1552
  C  C757  1  0.071100  0.359000  0.458000  1.0  0.011
  C  C758  1  0.981700  0.345000  0.449600  1.0  0.0034
  C  C759  1  0.897000  0.364000  0.460900  1.0  0.0414
  C  C760  1  0.902800  0.396300  0.484500  1.0  0.0028
  C  C761  1  0.996700  0.408800  0.495300  1.0  0.0382
  C  C762  1  0.082700  0.389800  0.481200  1.0  0.0603
  C  C763  1  0.188800  0.402200  0.490700  1.0  -0.4009
  C  C764  1  0.005500  0.440600  0.521300  1.0  -0.3714
  C  C765  1  0.793600  0.349800  0.450400  1.0  -0.3609
  C  C766  1  0.978500  0.306600  0.425200  1.0  -0.3547
  C  C767  1  0.722300  0.664900  0.475500  1.0  0.152
  C  C768  1  0.727900  0.622100  0.474100  1.0  -0.1195
  C  C769  1  0.789600  0.601000  0.495500  1.0  0.0216
  C  C770  1  0.845900  0.622600  0.518200  1.0  -0.0805
  C  C771  1  0.840300  0.665400  0.519600  1.0  0.1498
  C  C772  1  0.796100  0.554700  0.495800  1.0  -0.0444
  C  C773  1  0.831600  0.533100  0.468600  1.0  0.0364
  C  C774  1  0.831700  0.490900  0.468800  1.0  -0.0223
  C  C775  1  0.801500  0.467800  0.495700  1.0  0.0028
  C  C776  1  0.768900  0.490300  0.524600  1.0  0.0367
  C  C777  1  0.760800  0.532600  0.523700  1.0  -0.0214
  C  C778  1  0.707700  0.556000  0.551600  1.0  -0.3394
  C  C779  1  0.741300  0.468400  0.556500  1.0  -0.3882
  C  C780  1  0.864300  0.466100  0.437100  1.0  -0.3597
  C  C781  1  0.880400  0.559500  0.440700  1.0  -0.3589
  C  C782  1  0.147500  0.271000  0.702300  1.0  0.1642
  C  C783  1  0.152100  0.242400  0.727850  1.0  -0.1033
  C  C784  1  0.179400  0.201900  0.721400  1.0  0.0082
  C  C785  1  0.202100  0.190000  0.689400  1.0  -0.1569
  C  C786  1  0.197500  0.218600  0.663850  1.0  0.1644
  C  C787  1  0.187500  0.170300  0.750000  1.0  -0.1035
  C  C788  1  0.105500  0.156900  0.764400  1.0  0.115
  C  C789  1  0.112700  0.130100  0.792700  1.0  0.0383
  C  C790  1  0.206700  0.116700  0.803000  1.0  -0.0629
  C  C791  1  0.289200  0.130000  0.786500  1.0  -0.0169
  C  C792  1  0.285300  0.157000  0.759000  1.0  0.1002
  C  C793  1  0.371300  0.172600  0.741300  1.0  -0.3865
  C  C794  1  0.393500  0.112800  0.792900  1.0  -0.3902
  C  C795  1  0.018100  0.117700  0.809500  1.0  -0.3853
  C  C796  1  0.006000  0.167900  0.752200  1.0  -0.3854
  C  C797  1  0.659800  0.197400  0.937700  1.0  0.137
  C  C798  1  0.596200  0.176700  0.916800  1.0  -0.1176
  C  C799  1  0.506400  0.162700  0.928400  1.0  0.0575
  C  C800  1  0.480200  0.169600  0.961100  1.0  -0.097
  C  C801  1  0.543800  0.190400  0.982100  1.0  0.1687
  C  C802  1  0.433100  0.143300  0.905700  1.0  -0.0268
  C  C803  1  0.442800  0.102600  0.894000  1.0  0.075
  C  C804  1  0.372500  0.085600  0.874300  1.0  0.0978
  C  C805  1  0.293100  0.109900  0.862800  1.0  -0.0825
  C  C806  1  0.283600  0.150200  0.873800  1.0  -0.0079
  C  C807  1  0.352300  0.167200  0.894900  1.0  0.0192
  C  C808  1  0.337800  0.212200  0.905800  1.0  -0.3775
  C  C809  1  0.192900  0.176800  0.865100  1.0  -0.3464
  C  C810  1  0.387300  0.041900  0.863400  1.0  -0.3269
  C  C811  1  0.528800  0.078400  0.907300  1.0  -0.3865
  C  C812  1  0.864300  0.893400  0.843000  1.0  0.1488
  C  C813  1  0.914300  0.930400  0.839300  1.0  -0.1365
  C  C814  1  0.991600  0.940000  0.860200  1.0  0.0371
  C  C815  1  0.018900  0.912500  0.884800  1.0  -0.1239
  C  C816  1  0.968900  0.875500  0.888500  1.0  0.1531
  C  C817  1  0.046500  0.979800  0.855600  1.0  0.0104
  C  C818  1  0.112500  0.982800  0.826900  1.0  0.0518
  C  C819  1  0.162600  0.018300  0.821700  1.0  -0.0286
  C  C820  1  0.154700  0.051700  0.843100  1.0  -0.0617
  C  C821  1  0.092800  0.046800  0.871900  1.0  0.036
  C  C822  1  0.038800  0.011800  0.876700  1.0  0.0627
  C  C823  1  0.968400  0.008400  0.905800  1.0  -0.3786
  C  C824  1  0.079000  0.085000  0.894900  1.0  -0.3512
  C  C825  1  0.231500  0.021100  0.791200  1.0  -0.3526
  C  C826  1  0.120400  0.944700  0.804000  1.0  -0.3406
  C  C827  1  0.704200  0.802500  0.566700  1.0  0.1356
  C  C828  1  0.643800  0.821200  0.589900  1.0  -0.1221
  C  C829  1  0.546400  0.829300  0.582300  1.0  0.0531
  C  C830  1  0.509400  0.818600  0.551500  1.0  -0.2049
  C  C831  1  0.569800  0.799900  0.528400  1.0  0.1822
  C  C832  1  0.482600  0.850700  0.605500  1.0  -0.0711
  C  C833  1  0.400400  0.830800  0.618300  1.0  -0.0053
  C  C834  1  0.334800  0.851000  0.639600  1.0  0.0207
  C  C835  1  0.356400  0.890800  0.650700  1.0  -0.1044
  C  C836  1  0.445800  0.910000  0.639300  1.0  0.0817
  C  C837  1  0.508000  0.890500  0.617400  1.0  0.0624
  C  C838  1  0.595100  0.911900  0.603900  1.0  -0.3916
  C  C839  1  0.467900  0.951700  0.650800  1.0  -0.3546
  C  C840  1  0.238700  0.830200  0.650900  1.0  -0.3682
  C  C841  1  0.382400  0.785900  0.606100  1.0  -0.3809
  C  C842  1  0.111000  0.140700  0.614400  1.0  0.1527
  C  C843  1  0.154700  0.102800  0.620600  1.0  -0.1138
  C  C844  1  0.117300  0.077200  0.645100  1.0  0.0546
  C  C845  1  0.036100  0.089500  0.663200  1.0  -0.1096
  C  C846  1  0.992400  0.127400  0.657000  1.0  0.1549
  C  C847  1  0.165300  0.035700  0.653300  1.0  -0.0088
  C  C848  1  0.146800  0.002900  0.630600  1.0  0.0148
  C  C849  1  0.188300  0.963700  0.637500  1.0  0.0329
  C  C850  1  0.242500  0.958300  0.665800  1.0  0.0166
  C  C851  1  0.259600  0.992400  0.686600  1.0  0.0217
  C  C852  1  0.222900  0.030000  0.680200  1.0  0.0689
  C  C853  1  0.324400  0.984800  0.717300  1.0  -0.3686
  C  C854  1  0.247200  0.067500  0.702400  1.0  -0.3714
  C  C855  1  0.079500  0.011000  0.600700  1.0  -0.3677
  C  C856  1  0.166300  0.926000  0.615600  1.0  -0.3595
  C  C857  1  0.117100  0.744900  0.805600  1.0  0.1602
  C  C858  1  0.147900  0.772900  0.781840  1.0  -0.1906
  C  C859  1  0.159800  0.814300  0.790000  1.0  0.0603
  C  C860  1  0.141000  0.827700  0.821900  1.0  -0.0939
  C  C861  1  0.110200  0.799700  0.845700  1.0  0.1703
  C  C862  1  0.189300  0.842900  0.762800  1.0  -0.0666
  C  C863  1  0.290800  0.848300  0.755800  1.0  0.0493
  C  C864  1  0.319500  0.872300  0.728900  1.0  0.0057
  C  C865  1  0.247300  0.892300  0.708600  1.0  -0.0314
  C  C866  1  0.152900  0.887900  0.716700  1.0  0.0101
  C  C867  1  0.120900  0.864500  0.743500  1.0  0.05
  C  C868  1  0.013200  0.859300  0.754300  1.0  -0.4057
  C  C869  1  0.073800  0.910300  0.695500  1.0  -0.3905
  C  C870  1  0.431700  0.876600  0.721900  1.0  -0.3434
  C  C871  1  0.367500  0.827800  0.776400  1.0  -0.3913
  C  C872  1  0.565000  0.259300  0.472000  1.0  0.4668
  C  C873  1  0.843800  0.204600  0.428100  1.0  0.152
  C  C874  1  0.922200  0.191900  0.447400  1.0  -0.1239
  C  C875  1  0.983000  0.160300  0.436500  1.0  0.0637
  C  C876  1  0.965400  0.141500  0.406300  1.0  -0.1167
  C  C877  1  0.887000  0.154300  0.387000  1.0  0.1395
  C  C878  1  0.065200  0.145600  0.457800  1.0  -0.0664
  C  C879  1  0.046000  0.118400  0.483900  1.0  0.0379
  C  C880  1  0.124600  0.098500  0.498800  1.0  0.0091
  C  C881  1  0.224500  0.107600  0.488200  1.0  -0.1202
  C  C882  1  0.239600  0.136000  0.463900  1.0  0.0191
  C  C883  1  0.162100  0.155400  0.448600  1.0  0.0372
  C  C884  1  0.175900  0.190300  0.422200  1.0  -0.3612
  C  C885  1  0.344700  0.144800  0.451900  1.0  -0.3723
  C  C886  1  0.107000  0.068100  0.528100  1.0  -0.3556
  C  C887  1  0.940200  0.108800  0.494300  1.0  -0.3513
  C  C888  1  0.756000  0.163800  0.607400  1.0  0.1524
  C  C889  1  0.676100  0.147800  0.590400  1.0  -0.1833
  C  C890  1  0.659100  0.159300  0.557900  1.0  0.0824
  C  C891  1  0.722100  0.186800  0.542400  1.0  -0.1272
  C  C892  1  0.802000  0.202800  0.559300  1.0  0.1544
  C  C893  1  0.571100  0.141000  0.542000  1.0  0.0111
  C  C894  1  0.481700  0.155000  0.550400  1.0  0.0039
  C  C895  1  0.397000  0.136000  0.539100  1.0  0.04
  C  C896  1  0.402800  0.103700  0.515500  1.0  0.0036
  C  C897  1  0.496700  0.091200  0.504700  1.0  0.0377
  C  C898  1  0.582700  0.110200  0.518800  1.0  0.0592
  C  C899  1  0.688800  0.097800  0.509300  1.0  -0.4007
  C  C900  1  0.505500  0.059400  0.478700  1.0  -0.3704
  C  C901  1  0.293600  0.150200  0.549600  1.0  -0.3602
  C  C902  1  0.478500  0.193400  0.574800  1.0  -0.3532
  C  C903  1  0.222300  0.835100  0.524500  1.0  0.1524
  C  C904  1  0.227900  0.877900  0.525900  1.0  -0.1196
  C  C905  1  0.289600  0.899000  0.504500  1.0  0.0218
  C  C906  1  0.345900  0.877400  0.481800  1.0  -0.0801
  C  C907  1  0.340300  0.834600  0.480400  1.0  0.151
  C  C908  1  0.296100  0.945300  0.504200  1.0  -0.044
  C  C909  1  0.331600  0.966900  0.531400  1.0  0.0363
  C  C910  1  0.331700  0.009100  0.531200  1.0  -0.0229
  C  C911  1  0.301500  0.032200  0.504300  1.0  0.0025
  C  C912  1  0.268900  0.009700  0.475400  1.0  0.0359
  C  C913  1  0.260800  0.967400  0.476300  1.0  -0.0219
  C  C914  1  0.207700  0.944000  0.448400  1.0  -0.3401
  C  C915  1  0.241300  0.031600  0.443500  1.0  -0.389
  C  C916  1  0.364300  0.033900  0.562900  1.0  -0.3587
  C  C917  1  0.380400  0.940500  0.559300  1.0  -0.3602
  C  C918  1  0.647500  0.229000  0.297700  1.0  0.1665
  C  C919  1  0.652100  0.257600  0.272150  1.0  -0.1039
  C  C920  1  0.679400  0.298100  0.278600  1.0  0.0079
  C  C921  1  0.702100  0.310000  0.310600  1.0  -0.1552
  C  C922  1  0.697500  0.281400  0.336150  1.0  0.1643
  C  C923  1  0.687500  0.329700  0.250000  1.0  -0.1037
  C  C924  1  0.605500  0.343100  0.235600  1.0  0.1153
  C  C925  1  0.612700  0.369900  0.207300  1.0  0.0382
  C  C926  1  0.706700  0.383300  0.197000  1.0  -0.0641
  C  C927  1  0.789200  0.370000  0.213500  1.0  -0.0181
  C  C928  1  0.785300  0.343000  0.241000  1.0  0.1011
  C  C929  1  0.871300  0.327400  0.258700  1.0  -0.3861
  C  C930  1  0.893500  0.387200  0.207100  1.0  -0.3887
  C  C931  1  0.518100  0.382300  0.190500  1.0  -0.3847
  C  C932  1  0.506000  0.332100  0.247800  1.0  -0.3858
  C  C933  1  0.159800  0.302600  0.062300  1.0  0.1374
  C  C934  1  0.096200  0.323300  0.083200  1.0  -0.1167
  C  C935  1  0.006400  0.337300  0.071600  1.0  0.0575
  C  C936  1  0.980200  0.330400  0.038900  1.0  -0.0952
  C  C937  1  0.043800  0.309600  0.017900  1.0  0.1695
  C  C938  1  0.933100  0.356700  0.094300  1.0  -0.0272
  C  C939  1  0.942800  0.397400  0.106000  1.0  0.0733
  C  C940  1  0.872500  0.414400  0.125700  1.0  0.0969
  C  C941  1  0.793100  0.390100  0.137200  1.0  -0.0827
  C  C942  1  0.783600  0.349800  0.126200  1.0  -0.0077
  C  C943  1  0.852300  0.332800  0.105100  1.0  0.0197
  C  C944  1  0.837800  0.287800  0.094200  1.0  -0.377
  C  C945  1  0.692900  0.323200  0.134900  1.0  -0.3502
  C  C946  1  0.887300  0.458100  0.136600  1.0  -0.3278
  C  C947  1  0.028800  0.421600  0.092700  1.0  -0.3877
  C  C948  1  0.364300  0.606600  0.157000  1.0  0.1501
  C  C949  1  0.414300  0.569600  0.160700  1.0  -0.1354
  C  C950  1  0.491600  0.560000  0.139800  1.0  0.0374
  C  C951  1  0.518900  0.587500  0.115200  1.0  -0.1235
  C  C952  1  0.468900  0.624500  0.111500  1.0  0.1533
  C  C953  1  0.546500  0.520200  0.144400  1.0  0.0109
  C  C954  1  0.612500  0.517200  0.173100  1.0  0.0525
  C  C955  1  0.662600  0.481700  0.178300  1.0  -0.0275
  C  C956  1  0.654700  0.448300  0.156900  1.0  -0.0608
  C  C957  1  0.592800  0.453200  0.128100  1.0  0.0363
  C  C958  1  0.538800  0.488200  0.123300  1.0  0.0622
  C  C959  1  0.468400  0.491600  0.094200  1.0  -0.3785
  C  C960  1  0.579000  0.415000  0.105100  1.0  -0.3522
  C  C961  1  0.731500  0.478900  0.208800  1.0  -0.3518
  C  C962  1  0.620400  0.555300  0.196000  1.0  -0.3403
  C  C963  1  0.204200  0.697500  0.433300  1.0  0.1347
  C  C964  1  0.143800  0.678800  0.410100  1.0  -0.1213
  C  C965  1  0.046400  0.670700  0.417700  1.0  0.053
  C  C966  1  0.009400  0.681400  0.448500  1.0  -0.2043
  C  C967  1  0.069800  0.700100  0.471600  1.0  0.1826
  C  C968  1  0.982600  0.649300  0.394500  1.0  -0.0702
  C  C969  1  0.900400  0.669200  0.381700  1.0  -0.0042
  C  C970  1  0.834800  0.649000  0.360400  1.0  0.0202
  C  C971  1  0.856400  0.609200  0.349300  1.0  -0.1044
  C  C972  1  0.945800  0.590000  0.360700  1.0  0.0801
  C  C973  1  0.008000  0.609500  0.382600  1.0  0.0645
  C  C974  1  0.095100  0.588100  0.396100  1.0  -0.391
  C  C975  1  0.967900  0.548300  0.349200  1.0  -0.354
  C  C976  1  0.738700  0.669800  0.349100  1.0  -0.368
  C  C977  1  0.882400  0.714100  0.393900  1.0  -0.3801
  C  C978  1  0.611000  0.359300  0.385600  1.0  0.1528
  C  C979  1  0.654700  0.397200  0.379400  1.0  -0.1142
  C  C980  1  0.617300  0.422800  0.354900  1.0  0.0542
  C  C981  1  0.536100  0.410500  0.336800  1.0  -0.1105
  C  C982  1  0.492400  0.372600  0.343000  1.0  0.154
  C  C983  1  0.665300  0.464300  0.346700  1.0  -0.0077
  C  C984  1  0.646800  0.497100  0.369400  1.0  0.0158
  C  C985  1  0.688300  0.536300  0.362500  1.0  0.0352
  C  C986  1  0.742500  0.541700  0.334200  1.0  0.0162
  C  C987  1  0.759600  0.507600  0.313400  1.0  0.0198
  C  C988  1  0.722900  0.470000  0.319800  1.0  0.0682
  C  C989  1  0.824400  0.515200  0.282700  1.0  -0.3688
  C  C990  1  0.747200  0.432500  0.297600  1.0  -0.3705
  C  C991  1  0.579500  0.489000  0.399300  1.0  -0.3683
  C  C992  1  0.666300  0.574000  0.384400  1.0  -0.3585
  C  C993  1  0.617100  0.755100  0.194400  1.0  0.1609
  C  C994  1  0.647900  0.727100  0.218160  1.0  -0.1881
  C  C995  1  0.659800  0.685700  0.210000  1.0  0.061
  C  C996  1  0.641000  0.672300  0.178100  1.0  -0.0957
  C  C997  1  0.610200  0.700300  0.154300  1.0  0.1696
  C  C998  1  0.689300  0.657100  0.237200  1.0  -0.0657
  C  C999  1  0.790800  0.651700  0.244200  1.0  0.0504
  C  C1000  1  0.819500  0.627700  0.271100  1.0  0.008
  C  C1001  1  0.747300  0.607700  0.291400  1.0  -0.0317
  C  C1002  1  0.652900  0.612100  0.283300  1.0  0.0092
  C  C1003  1  0.620900  0.635500  0.256500  1.0  0.0508
  C  C1004  1  0.513200  0.640700  0.245700  1.0  -0.4053
  C  C1005  1  0.573800  0.589700  0.304500  1.0  -0.3903
  C  C1006  1  0.931700  0.623400  0.278100  1.0  -0.3422
  C  C1007  1  0.867500  0.672200  0.223600  1.0  -0.3931
  C  C1008  1  0.065000  0.240700  0.528000  1.0  0.4652
  C  C1009  1  0.656200  0.795400  0.928100  1.0  0.1512
  C  C1010  1  0.577800  0.808100  0.947400  1.0  -0.1252
  C  C1011  1  0.517000  0.839700  0.936500  1.0  0.0647
  C  C1012  1  0.534600  0.858500  0.906300  1.0  -0.1155
  C  C1013  1  0.613000  0.845700  0.887000  1.0  0.1388
  C  C1014  1  0.434800  0.854400  0.957800  1.0  -0.0656
  C  C1015  1  0.454000  0.881600  0.983900  1.0  0.0394
  C  C1016  1  0.375400  0.901500  0.998800  1.0  0.0084
  C  C1017  1  0.275500  0.892400  0.988200  1.0  -0.1206
  C  C1018  1  0.260400  0.864000  0.963900  1.0  0.0192
  C  C1019  1  0.337900  0.844600  0.948600  1.0  0.0373
  C  C1020  1  0.324100  0.809700  0.922200  1.0  -0.3597
  C  C1021  1  0.155300  0.855200  0.951900  1.0  -0.3733
  C  C1022  1  0.393000  0.931900  0.028100  1.0  -0.3561
  C  C1023  1  0.559800  0.891200  0.994300  1.0  -0.3533
  C  C1024  1  0.744000  0.836200  0.107400  1.0  0.1511
  C  C1025  1  0.823900  0.852200  0.090400  1.0  -0.1837
  C  C1026  1  0.840900  0.840700  0.057900  1.0  0.0821
  C  C1027  1  0.777900  0.813200  0.042400  1.0  -0.1262
  C  C1028  1  0.698000  0.797200  0.059300  1.0  0.1552
  C  C1029  1  0.928900  0.859000  0.042000  1.0  0.0109
  C  C1030  1  0.018300  0.845000  0.050400  1.0  0.0034
  C  C1031  1  0.103000  0.864000  0.039100  1.0  0.039
  C  C1032  1  0.097200  0.896300  0.015500  1.0  0.0035
  C  C1033  1  0.003300  0.908800  0.004700  1.0  0.0374
  C  C1034  1  0.917300  0.889800  0.018800  1.0  0.0589
  C  C1035  1  0.811200  0.902200  0.009300  1.0  -0.3979
  C  C1036  1  0.994500  0.940600  0.978700  1.0  -0.3694
  C  C1037  1  0.206400  0.849800  0.049600  1.0  -0.3607
  C  C1038  1  0.021500  0.806600  0.074800  1.0  -0.3537
  C  C1039  1  0.277700  0.164900  0.024500  1.0  0.1518
  C  C1040  1  0.272100  0.122100  0.025900  1.0  -0.1186
  C  C1041  1  0.210400  0.101000  0.004500  1.0  0.0216
  C  C1042  1  0.154100  0.122600  0.981800  1.0  -0.0807
  C  C1043  1  0.159700  0.165400  0.980400  1.0  0.1505
  C  C1044  1  0.203900  0.054700  0.004200  1.0  -0.0446
  C  C1045  1  0.168400  0.033100  0.031400  1.0  0.0352
  C  C1046  1  0.168300  0.990900  0.031200  1.0  -0.0227
  C  C1047  1  0.198500  0.967800  0.004300  1.0  0.0028
  C  C1048  1  0.231100  0.990300  0.975400  1.0  0.0352
  C  C1049  1  0.239200  0.032600  0.976300  1.0  -0.0222
  C  C1050  1  0.292300  0.056000  0.948400  1.0  -0.3394
  C  C1051  1  0.258700  0.968400  0.943500  1.0  -0.3899
  C  C1052  1  0.135700  0.966100  0.062900  1.0  -0.3586
  C  C1053  1  0.119600  0.059500  0.059300  1.0  -0.3589
  C  C1054  1  0.852500  0.771000  0.797700  1.0  0.1646
  C  C1055  1  0.847900  0.742400  0.772150  1.0  -0.1046
  C  C1056  1  0.820600  0.701900  0.778600  1.0  0.008
  C  C1057  1  0.797900  0.690000  0.810600  1.0  -0.1582
  C  C1058  1  0.802500  0.718600  0.836150  1.0  0.1638
  C  C1059  1  0.812500  0.670300  0.750000  1.0  -0.104
  C  C1060  1  0.894500  0.656900  0.735600  1.0  0.1155
  C  C1061  1  0.887300  0.630100  0.707300  1.0  0.0393
  C  C1062  1  0.793300  0.616700  0.697000  1.0  -0.0625
  C  C1063  1  0.710800  0.630000  0.713500  1.0  -0.0174
  C  C1064  1  0.714700  0.657000  0.741000  1.0  0.1
  C  C1065  1  0.628700  0.672600  0.758700  1.0  -0.3831
  C  C1066  1  0.606500  0.612800  0.707100  1.0  -0.3904
  C  C1067  1  0.981900  0.617700  0.690500  1.0  -0.3855
  C  C1068  1  0.994000  0.667900  0.747800  1.0  -0.386
  C  C1069  1  0.340200  0.697400  0.562300  1.0  0.1374
  C  C1070  1  0.403800  0.676700  0.583200  1.0  -0.118
  C  C1071  1  0.493600  0.662700  0.571600  1.0  0.0586
  C  C1072  1  0.519800  0.669600  0.538900  1.0  -0.0968
  C  C1073  1  0.456200  0.690400  0.517900  1.0  0.1696
  C  C1074  1  0.566900  0.643300  0.594300  1.0  -0.0279
  C  C1075  1  0.557200  0.602600  0.606000  1.0  0.0745
  C  C1076  1  0.627500  0.585600  0.625700  1.0  0.0962
  C  C1077  1  0.706900  0.609900  0.637200  1.0  -0.0823
  C  C1078  1  0.716400  0.650200  0.626200  1.0  -0.0079
  C  C1079  1  0.647700  0.667200  0.605100  1.0  0.0202
  C  C1080  1  0.662200  0.712200  0.594200  1.0  -0.3768
  C  C1081  1  0.807100  0.676800  0.634900  1.0  -0.3479
  C  C1082  1  0.612700  0.541900  0.636600  1.0  -0.3267
  C  C1083  1  0.471200  0.578400  0.592700  1.0  -0.3886
  C  C1084  1  0.135700  0.393400  0.657000  1.0  0.15
  C  C1085  1  0.085700  0.430400  0.660700  1.0  -0.1349
  C  C1086  1  0.008400  0.440000  0.639800  1.0  0.0362
  C  C1087  1  0.981100  0.412500  0.615200  1.0  -0.1218
  C  C1088  1  0.031100  0.375500  0.611500  1.0  0.1536
  C  C1089  1  0.953500  0.479800  0.644400  1.0  0.0118
  C  C1090  1  0.887500  0.482800  0.673100  1.0  0.0527
  C  C1091  1  0.837400  0.518300  0.678300  1.0  -0.0277
  C  C1092  1  0.845300  0.551700  0.656900  1.0  -0.0623
  C  C1093  1  0.907200  0.546800  0.628100  1.0  0.0371
  C  C1094  1  0.961200  0.511800  0.623300  1.0  0.065
  C  C1095  1  0.031600  0.508400  0.594200  1.0  -0.3778
  C  C1096  1  0.921000  0.585000  0.605100  1.0  -0.352
  C  C1097  1  0.768500  0.521100  0.708800  1.0  -0.3524
  C  C1098  1  0.879600  0.444700  0.696000  1.0  -0.3396
  C  C1099  1  0.295800  0.302500  0.933300  1.0  0.1344
  C  C1100  1  0.356200  0.321200  0.910100  1.0  -0.1236
  C  C1101  1  0.453600  0.329300  0.917700  1.0  0.0529
  C  C1102  1  0.490600  0.318600  0.948500  1.0  -0.2045
  C  C1103  1  0.430200  0.299900  0.971600  1.0  0.1825
  C  C1104  1  0.517400  0.350700  0.894500  1.0  -0.0727
  C  C1105  1  0.599600  0.330800  0.881700  1.0  -0.0059
  C  C1106  1  0.665200  0.351000  0.860400  1.0  0.0199
  C  C1107  1  0.643600  0.390800  0.849300  1.0  -0.1039
  C  C1108  1  0.554200  0.410000  0.860700  1.0  0.0798
  C  C1109  1  0.492000  0.390500  0.882600  1.0  0.0626
  C  C1110  1  0.404900  0.411900  0.896100  1.0  -0.3937
  C  C1111  1  0.532100  0.451700  0.849200  1.0  -0.3531
  C  C1112  1  0.761300  0.330200  0.849100  1.0  -0.3693
  C  C1113  1  0.617600  0.285900  0.893900  1.0  -0.3816
  C  C1114  1  0.889000  0.640700  0.885600  1.0  0.1515
  C  C1115  1  0.845300  0.602800  0.879400  1.0  -0.1138
  C  C1116  1  0.882700  0.577200  0.854900  1.0  0.0557
  C  C1117  1  0.963900  0.589500  0.836800  1.0  -0.1098
  C  C1118  1  0.007600  0.627400  0.843000  1.0  0.1534
  C  C1119  1  0.834700  0.535700  0.846700  1.0  -0.0072
  C  C1120  1  0.853200  0.502900  0.869400  1.0  0.0183
  C  C1121  1  0.811700  0.463700  0.862500  1.0  0.0351
  C  C1122  1  0.757500  0.458300  0.834200  1.0  0.0157
  C  C1123  1  0.740400  0.492400  0.813400  1.0  0.0212
  C  C1124  1  0.777100  0.530000  0.819800  1.0  0.0688
  C  C1125  1  0.675600  0.484800  0.782700  1.0  -0.3677
  C  C1126  1  0.752800  0.567500  0.797600  1.0  -0.3705
  C  C1127  1  0.920500  0.511000  0.899300  1.0  -0.3699
  C  C1128  1  0.833700  0.426000  0.884400  1.0  -0.361
  C  C1129  1  0.882900  0.244900  0.694400  1.0  0.1609
  C  C1130  1  0.852100  0.272900  0.718160  1.0  -0.1904
  C  C1131  1  0.840200  0.314300  0.710000  1.0  0.0601
  C  C1132  1  0.859000  0.327700  0.678100  1.0  -0.0949
  C  C1133  1  0.889800  0.299700  0.654300  1.0  0.1696
  C  C1134  1  0.810700  0.342900  0.737200  1.0  -0.0659
  C  C1135  1  0.709200  0.348300  0.744200  1.0  0.0483
  C  C1136  1  0.680500  0.372300  0.771100  1.0  0.004
  C  C1137  1  0.752700  0.392300  0.791400  1.0  -0.032
  C  C1138  1  0.847100  0.387900  0.783300  1.0  0.0104
  C  C1139  1  0.879100  0.364500  0.756500  1.0  0.051
  C  C1140  1  0.986800  0.359300  0.745700  1.0  -0.4047
  C  C1141  1  0.926200  0.410300  0.804500  1.0  -0.3897
  C  C1142  1  0.568300  0.376600  0.778100  1.0  -0.3428
  C  C1143  1  0.632500  0.327800  0.723600  1.0  -0.3912
  C  C1144  1  0.435000  0.759300  0.028000  1.0  0.4653
  C  C1145  1  0.944300  0.221100  0.899200  1.0  0.3647
  C  C1146  1  0.368300  0.607400  0.794000  1.0  0.4349
  C  C1147  1  0.555700  0.778900  0.399200  1.0  0.3642
  C  C1148  1  0.131700  0.392600  0.294000  1.0  0.4342
  C  C1149  1  0.055700  0.721100  0.600800  1.0  0.3649
  C  C1150  1  0.631700  0.107400  0.706000  1.0  0.4353
  C  C1151  1  0.444300  0.278900  0.100800  1.0  0.3648
  C  C1152  1  0.868300  0.892600  0.206000  1.0  0.4349
  S  S1153  1  0.928600  0.766690  0.933740  1.0  1.1697
  S  S1154  1  0.571400  0.233310  0.433740  1.0  1.1699
  S  S1155  1  0.071400  0.266690  0.566260  1.0  1.1703
  S  S1156  1  0.428600  0.733310  0.066260  1.0  1.171
  S  S1157  1  0.963600  0.252000  0.932860  1.0  1.3087
  S  S1158  1  0.242300  0.611300  0.785400  1.0  1.302
  S  S1159  1  0.536400  0.748000  0.432860  1.0  1.3093
  S  S1160  1  0.257700  0.388700  0.285400  1.0  1.3001
  S  S1161  1  0.036400  0.752000  0.567140  1.0  1.3086
  S  S1162  1  0.757700  0.111300  0.714600  1.0  1.3003
  S  S1163  1  0.463600  0.248000  0.067140  1.0  1.3088
  S  S1164  1  0.742300  0.888700  0.214600  1.0  1.3005
  N  N1165  1  0.173800  0.685800  0.102100  1.0  -0.3363
  N  N1166  1  0.181100  0.691300  0.908200  1.0  -0.3474
  N  N1167  1  0.721500  0.313500  0.998200  1.0  -0.3434
  N  N1168  1  0.329800  0.740900  0.170300  1.0  -0.3569
  N  N1169  1  0.866400  0.795700  0.470400  1.0  -0.3312
  N  N1170  1  0.608400  0.134100  0.367600  1.0  -0.3296
  N  N1171  1  0.832900  0.208200  0.036000  1.0  -0.3614
  N  N1172  1  0.470100  0.847000  0.132600  1.0  -0.3525
  N  N1173  1  0.401700  0.241700  0.337600  1.0  -0.3364
  N  N1174  1  0.326200  0.314200  0.602100  1.0  -0.3365
  N  N1175  1  0.318900  0.308700  0.408200  1.0  -0.3489
  N  N1176  1  0.778500  0.686500  0.498200  1.0  -0.345
  N  N1177  1  0.170200  0.259100  0.670300  1.0  -0.357
  N  N1178  1  0.633600  0.204300  0.970400  1.0  -0.3315
  N  N1179  1  0.891600  0.865900  0.867600  1.0  -0.3334
  N  N1180  1  0.667100  0.791800  0.536000  1.0  -0.3613
  N  N1181  1  0.029900  0.153000  0.632600  1.0  -0.355
  N  N1182  1  0.098300  0.758300  0.837600  1.0  -0.3355
  N  N1183  1  0.826200  0.185800  0.397900  1.0  -0.3336
  N  N1184  1  0.818900  0.191300  0.591800  1.0  -0.3486
  N  N1185  1  0.278500  0.813500  0.501800  1.0  -0.3436
  N  N1186  1  0.670200  0.240900  0.329700  1.0  -0.3566
  N  N1187  1  0.133600  0.295700  0.029600  1.0  -0.3325
  N  N1188  1  0.391600  0.634100  0.132400  1.0  -0.3303
  N  N1189  1  0.167100  0.708200  0.464000  1.0  -0.359
  N  N1190  1  0.529900  0.347000  0.367400  1.0  -0.3545
  N  N1191  1  0.598300  0.741700  0.162400  1.0  -0.3366
  N  N1192  1  0.673800  0.814200  0.897900  1.0  -0.3368
  N  N1193  1  0.681100  0.808700  0.091800  1.0  -0.3485
  N  N1194  1  0.221500  0.186500  0.001800  1.0  -0.3451
  N  N1195  1  0.829800  0.759100  0.829700  1.0  -0.358
  N  N1196  1  0.366400  0.704300  0.529600  1.0  -0.3301
  N  N1197  1  0.108400  0.365900  0.632400  1.0  -0.3313
  N  N1198  1  0.332900  0.291800  0.964000  1.0  -0.3605
  N  N1199  1  0.970100  0.653000  0.867400  1.0  -0.3543
  N  N1200  1  0.901700  0.258300  0.662400  1.0  -0.3355
  O  O1201  1  0.859400  0.741900  0.914700  1.0  -0.6582
  O  O1202  1  0.889400  0.808100  0.944000  1.0  -0.6992
  O  O1203  1  0.026900  0.768400  0.922000  1.0  -0.6556
  O  O1204  1  0.640600  0.258100  0.414700  1.0  -0.6583
  O  O1205  1  0.610600  0.191900  0.444000  1.0  -0.6992
  O  O1206  1  0.473100  0.231600  0.422000  1.0  -0.6541
  O  O1207  1  0.140600  0.241900  0.585300  1.0  -0.6578
  O  O1208  1  0.110600  0.308100  0.556000  1.0  -0.6982
  O  O1209  1  0.973100  0.268400  0.578000  1.0  -0.6541
  O  O1210  1  0.359400  0.758100  0.085300  1.0  -0.6569
  O  O1211  1  0.389400  0.691900  0.056000  1.0  -0.6986
  O  O1212  1  0.526900  0.731600  0.078000  1.0  -0.6563
  O  O1213  1  0.936000  0.292700  0.919100  1.0  -0.6743
  O  O1214  1  0.888000  0.243000  0.955800  1.0  -0.6421
  O  O1215  1  0.063900  0.248400  0.943700  1.0  -0.5857
  O  O1216  1  0.227000  0.604800  0.748500  1.0  -0.5808
  O  O1217  1  0.185000  0.577500  0.802900  1.0  -0.644
  O  O1218  1  0.203000  0.652000  0.796100  1.0  -0.6588
  O  O1219  1  0.564000  0.707300  0.419100  1.0  -0.6742
  O  O1220  1  0.612000  0.757000  0.455800  1.0  -0.6429
  O  O1221  1  0.436100  0.751600  0.443700  1.0  -0.5844
  O  O1222  1  0.273000  0.395200  0.248500  1.0  -0.5826
  O  O1223  1  0.315000  0.422500  0.302900  1.0  -0.6419
  O  O1224  1  0.297000  0.348000  0.296100  1.0  -0.6575
  O  O1225  1  0.064000  0.792700  0.580900  1.0  -0.675
  O  O1226  1  0.112000  0.743000  0.544200  1.0  -0.6433
  O  O1227  1  0.936100  0.748400  0.556300  1.0  -0.5833
  O  O1228  1  0.773000  0.104800  0.751500  1.0  -0.5847
  O  O1229  1  0.815000  0.077500  0.697100  1.0  -0.6434
  O  O1230  1  0.797000  0.152000  0.703900  1.0  -0.6586
  O  O1231  1  0.436000  0.207300  0.080900  1.0  -0.6743
  O  O1232  1  0.388000  0.257000  0.044200  1.0  -0.6429
  O  O1233  1  0.563900  0.251600  0.056300  1.0  -0.5863
  O  O1234  1  0.727000  0.895200  0.251500  1.0  -0.5816
  O  O1235  1  0.685000  0.922500  0.197100  1.0  -0.6432
  O  O1236  1  0.703000  0.848000  0.203900  1.0  -0.6567
  F  F1237  1  0.963400  0.701200  0.966600  1.0  -0.199
  F  F1238  1  0.843100  0.739400  0.985600  1.0  -0.2038
  F  F1239  1  0.992100  0.757400  0.993100  1.0  -0.1991
  F  F1240  1  0.536600  0.298800  0.466600  1.0  -0.2
  F  F1241  1  0.656900  0.260600  0.485600  1.0  -0.2062
  F  F1242  1  0.507900  0.242600  0.493100  1.0  -0.1982
  F  F1243  1  0.036600  0.201200  0.533400  1.0  -0.1996
  F  F1244  1  0.156900  0.239400  0.514400  1.0  -0.2077
  F  F1245  1  0.007900  0.257400  0.506900  1.0  -0.1984
  F  F1246  1  0.463400  0.798800  0.033400  1.0  -0.1998
  F  F1247  1  0.343100  0.760600  0.014400  1.0  -0.2058
  F  F1248  1  0.492100  0.742600  0.006900  1.0  -0.2001
  F  F1249  1  0.994700  0.230000  0.870900  1.0  -0.1972
  F  F1250  1  0.970600  0.182100  0.908800  1.0  -0.2077
  F  F1251  1  0.846400  0.218000  0.889500  1.0  -0.1893
  F  F1252  1  0.428800  0.630400  0.775400  1.0  -0.2322
  F  F1253  1  0.413700  0.571300  0.790800  1.0  -0.1962
  F  F1254  1  0.405600  0.618300  0.823700  1.0  -0.1813
  F  F1255  1  0.505300  0.770000  0.370900  1.0  -0.1963
  F  F1256  1  0.529400  0.817900  0.408800  1.0  -0.2093
  F  F1257  1  0.653600  0.782000  0.389500  1.0  -0.1907
  F  F1258  1  0.071200  0.369600  0.275400  1.0  -0.2335
  F  F1259  1  0.086300  0.428700  0.290800  1.0  -0.1953
  F  F1260  1  0.094400  0.381700  0.323700  1.0  -0.1827
  F  F1261  1  0.005300  0.730000  0.629100  1.0  -0.1946
  F  F1262  1  0.029400  0.682100  0.591200  1.0  -0.2106
  F  F1263  1  0.153600  0.718000  0.610500  1.0  -0.1912
  F  F1264  1  0.571200  0.130400  0.724600  1.0  -0.2327
  F  F1265  1  0.586300  0.071300  0.709200  1.0  -0.1956
  F  F1266  1  0.594400  0.118300  0.676300  1.0  -0.1811
  F  F1267  1  0.494700  0.270000  0.129100  1.0  -0.1944
  F  F1268  1  0.470600  0.317900  0.091200  1.0  -0.21
  F  F1269  1  0.346400  0.282000  0.110500  1.0  -0.1892
  F  F1270  1  0.928800  0.869600  0.224600  1.0  -0.2321
  F  F1271  1  0.913700  0.928700  0.209200  1.0  -0.1991
  F  F1272  1  0.905600  0.881700  0.176300  1.0  -0.1816
