# generated using pymatgen
data_NiAgH42(C5N)12
_symmetry_space_group_name_H-M   'P 1'
_cell_length_a   23.00650000
_cell_length_b   23.00650000
_cell_length_c   23.00650000
_cell_angle_alpha   90.00000000
_cell_angle_beta   90.00000000
_cell_angle_gamma   90.00000000
_symmetry_Int_Tables_number   1
_chemical_formula_structural   NiAgH42(C5N)12
_chemical_formula_sum   'Ni8 Ag8 H336 C480 N96'
_cell_volume   12177.31841552
_cell_formula_units_Z   8
loop_
 _symmetry_equiv_pos_site_id
 _symmetry_equiv_pos_as_xyz
  1  'x, y, z'
loop_
 _atom_site_type_symbol
 _atom_site_label
 _atom_site_symmetry_multiplicity
 _atom_site_fract_x
 _atom_site_fract_y
 _atom_site_fract_z
 _atom_site_occupancy
 _atom_site_charge
  Ni  Ni1  1  0.610950  0.889050  0.110950  1.0  0.6256
  Ni  Ni2  1  0.889050  0.110950  0.610950  1.0  0.6264
  Ni  Ni3  1  0.389050  0.389050  0.389050  1.0  0.627
  Ni  Ni4  1  0.110950  0.610950  0.889050  1.0  0.6245
  Ni  Ni5  1  0.618290  0.381710  0.881710  1.0  0.6146
  Ni  Ni6  1  0.881710  0.618290  0.381710  1.0  0.6121
  Ni  Ni7  1  0.381710  0.881710  0.618290  1.0  0.6114
  Ni  Ni8  1  0.118290  0.118290  0.118290  1.0  0.6145
  Ag  Ag9  1  0.489610  0.510390  0.010390  1.0  0.205
  Ag  Ag10  1  0.010390  0.489610  0.510390  1.0  0.2043
  Ag  Ag11  1  0.510390  0.010390  0.489610  1.0  0.203
  Ag  Ag12  1  0.989610  0.989610  0.989610  1.0  0.2034
  Ag  Ag13  1  0.757360  0.757360  0.757360  1.0  0.3007
  Ag  Ag14  1  0.742640  0.242640  0.257360  1.0  0.3002
  Ag  Ag15  1  0.242640  0.257360  0.742640  1.0  0.299
  Ag  Ag16  1  0.257360  0.742640  0.242640  1.0  0.2988
  H  H17  1  0.806500  0.911300  0.018800  1.0  0.1108
  H  H18  1  0.862700  0.914500  0.103400  1.0  0.1098
  H  H19  1  0.818000  0.907600  0.194500  1.0  0.0979
  H  H20  1  0.717000  0.897600  0.200900  1.0  0.0987
  H  H21  1  0.739600  0.914200  0.934500  1.0  0.1229
  H  H22  1  0.642300  0.910100  0.882900  1.0  0.1143
  H  H23  1  0.531800  0.904300  0.923300  1.0  0.1068
  H  H24  1  0.523900  0.898800  0.992200  1.0  0.1047
  H  H25  1  0.620800  0.794300  0.958800  1.0  0.1046
  H  H26  1  0.605400  0.693900  0.952500  1.0  0.1047
  H  H27  1  0.410800  0.671800  0.929600  1.0  0.1054
  H  H28  1  0.328700  0.733200  0.931000  1.0  0.1104
  H  H29  1  0.344800  0.833700  0.923900  1.0  0.1
  H  H30  1  0.436100  0.873100  0.943800  1.0  0.1086
  H  H31  1  0.693500  0.088700  0.518800  1.0  0.1108
  H  H32  1  0.637300  0.085500  0.603400  1.0  0.1095
  H  H33  1  0.682000  0.092400  0.694500  1.0  0.0979
  H  H34  1  0.783000  0.102400  0.700900  1.0  0.0988
  H  H35  1  0.760400  0.085800  0.434500  1.0  0.1229
  H  H36  1  0.857700  0.089900  0.382900  1.0  0.1141
  H  H37  1  0.968200  0.095700  0.423300  1.0  0.1067
  H  H38  1  0.976100  0.101200  0.492200  1.0  0.1042
  H  H39  1  0.879200  0.205700  0.458800  1.0  0.1057
  H  H40  1  0.894600  0.306100  0.452500  1.0  0.1042
  H  H41  1  0.089200  0.328200  0.429600  1.0  0.1062
  H  H42  1  0.171300  0.266800  0.431000  1.0  0.1102
  H  H43  1  0.155200  0.166300  0.423900  1.0  0.1
  H  H44  1  0.063900  0.126900  0.443800  1.0  0.1085
  H  H45  1  0.193500  0.411300  0.481200  1.0  0.1103
  H  H46  1  0.137300  0.414500  0.396600  1.0  0.1096
  H  H47  1  0.182000  0.407600  0.305500  1.0  0.0974
  H  H48  1  0.283000  0.397600  0.299100  1.0  0.1
  H  H49  1  0.260400  0.414200  0.565500  1.0  0.1238
  H  H50  1  0.357700  0.410100  0.617100  1.0  0.1129
  H  H51  1  0.468200  0.404300  0.576700  1.0  0.106
  H  H52  1  0.476100  0.398800  0.507800  1.0  0.1032
  H  H53  1  0.379200  0.294300  0.541200  1.0  0.1059
  H  H54  1  0.394600  0.193900  0.547500  1.0  0.1037
  H  H55  1  0.589200  0.171800  0.570400  1.0  0.1056
  H  H56  1  0.671300  0.233200  0.569000  1.0  0.1105
  H  H57  1  0.655200  0.333700  0.576100  1.0  0.1001
  H  H58  1  0.563900  0.373100  0.556200  1.0  0.1086
  H  H59  1  0.306500  0.588700  0.981200  1.0  0.111
  H  H60  1  0.362700  0.585500  0.896600  1.0  0.1096
  H  H61  1  0.318000  0.592400  0.805500  1.0  0.0979
  H  H62  1  0.217000  0.602400  0.799100  1.0  0.0997
  H  H63  1  0.239600  0.585800  0.065500  1.0  0.1231
  H  H64  1  0.142300  0.589900  0.117100  1.0  0.113
  H  H65  1  0.031800  0.595700  0.076700  1.0  0.1065
  H  H66  1  0.023900  0.601200  0.007800  1.0  0.1038
  H  H67  1  0.120800  0.705700  0.041200  1.0  0.1047
  H  H68  1  0.105400  0.806100  0.047500  1.0  0.1048
  H  H69  1  0.910800  0.828200  0.070400  1.0  0.1062
  H  H70  1  0.828700  0.766800  0.069000  1.0  0.1099
  H  H71  1  0.844800  0.666300  0.076100  1.0  0.0993
  H  H72  1  0.936100  0.626900  0.056200  1.0  0.1087
  H  H73  1  0.018800  0.806500  0.911300  1.0  0.1096
  H  H74  1  0.103400  0.862700  0.914500  1.0  0.1083
  H  H75  1  0.194500  0.818000  0.907600  1.0  0.0987
  H  H76  1  0.200900  0.717000  0.897600  1.0  0.0975
  H  H77  1  0.934500  0.739600  0.914200  1.0  0.127
  H  H78  1  0.882900  0.642300  0.910100  1.0  0.1137
  H  H79  1  0.923300  0.531800  0.904300  1.0  0.1066
  H  H80  1  0.992200  0.523900  0.898800  1.0  0.1064
  H  H81  1  0.958800  0.620800  0.794300  1.0  0.1034
  H  H82  1  0.952500  0.605400  0.693900  1.0  0.1047
  H  H83  1  0.929600  0.410800  0.671800  1.0  0.1048
  H  H84  1  0.931000  0.328700  0.733200  1.0  0.108
  H  H85  1  0.923900  0.344800  0.833700  1.0  0.1001
  H  H86  1  0.943800  0.436100  0.873100  1.0  0.1057
  H  H87  1  0.518800  0.693500  0.088700  1.0  0.1091
  H  H88  1  0.603400  0.637300  0.085500  1.0  0.109
  H  H89  1  0.694500  0.682000  0.092400  1.0  0.0989
  H  H90  1  0.700900  0.783000  0.102400  1.0  0.0976
  H  H91  1  0.434500  0.760400  0.085800  1.0  0.1264
  H  H92  1  0.382900  0.857700  0.089900  1.0  0.1138
  H  H93  1  0.423300  0.968200  0.095700  1.0  0.106
  H  H94  1  0.492200  0.976100  0.101200  1.0  0.1055
  H  H95  1  0.458800  0.879200  0.205700  1.0  0.1034
  H  H96  1  0.452500  0.894600  0.306100  1.0  0.1041
  H  H97  1  0.429600  0.089200  0.328200  1.0  0.105
  H  H98  1  0.431000  0.171300  0.266800  1.0  0.1081
  H  H99  1  0.423900  0.155200  0.166300  1.0  0.0997
  H  H100  1  0.443800  0.063900  0.126900  1.0  0.1082
  H  H101  1  0.481200  0.193500  0.411300  1.0  0.1104
  H  H102  1  0.396600  0.137300  0.414500  1.0  0.1092
  H  H103  1  0.305500  0.182000  0.407600  1.0  0.099
  H  H104  1  0.299100  0.283000  0.397600  1.0  0.0967
  H  H105  1  0.565500  0.260400  0.414200  1.0  0.1266
  H  H106  1  0.617100  0.357700  0.410100  1.0  0.1142
  H  H107  1  0.576700  0.468200  0.404300  1.0  0.1053
  H  H108  1  0.507800  0.476100  0.398800  1.0  0.1044
  H  H109  1  0.541200  0.379200  0.294300  1.0  0.1037
  H  H110  1  0.547500  0.394600  0.193900  1.0  0.104
  H  H111  1  0.570400  0.589200  0.171800  1.0  0.1047
  H  H112  1  0.569000  0.671300  0.233200  1.0  0.1083
  H  H113  1  0.576100  0.655200  0.333700  1.0  0.0993
  H  H114  1  0.556200  0.563900  0.373100  1.0  0.1061
  H  H115  1  0.981200  0.306500  0.588700  1.0  0.1111
  H  H116  1  0.896600  0.362700  0.585500  1.0  0.1088
  H  H117  1  0.805500  0.318000  0.592400  1.0  0.0987
  H  H118  1  0.799100  0.217000  0.602400  1.0  0.0969
  H  H119  1  0.065500  0.239600  0.585800  1.0  0.125
  H  H120  1  0.117100  0.142300  0.589900  1.0  0.1143
  H  H121  1  0.076700  0.031800  0.595700  1.0  0.1064
  H  H122  1  0.007800  0.023900  0.601200  1.0  0.1044
  H  H123  1  0.041200  0.120800  0.705700  1.0  0.1035
  H  H124  1  0.047500  0.105400  0.806100  1.0  0.1044
  H  H125  1  0.070400  0.910800  0.828200  1.0  0.1056
  H  H126  1  0.069000  0.828700  0.766800  1.0  0.1081
  H  H127  1  0.076100  0.844800  0.666300  1.0  0.0996
  H  H128  1  0.056200  0.936100  0.626900  1.0  0.1077
  H  H129  1  0.911300  0.018800  0.806500  1.0  0.1101
  H  H130  1  0.914500  0.103400  0.862700  1.0  0.1077
  H  H131  1  0.907600  0.194500  0.818000  1.0  0.0982
  H  H132  1  0.897600  0.200900  0.717000  1.0  0.0972
  H  H133  1  0.914200  0.934500  0.739600  1.0  0.1257
  H  H134  1  0.910100  0.882900  0.642300  1.0  0.1176
  H  H135  1  0.904300  0.923300  0.531800  1.0  0.1056
  H  H136  1  0.898800  0.992200  0.523900  1.0  0.1033
  H  H137  1  0.794300  0.958800  0.620800  1.0  0.1031
  H  H138  1  0.693900  0.952500  0.605400  1.0  0.1045
  H  H139  1  0.671800  0.929600  0.410800  1.0  0.1037
  H  H140  1  0.733200  0.931000  0.328700  1.0  0.1083
  H  H141  1  0.833700  0.923900  0.344800  1.0  0.0991
  H  H142  1  0.873100  0.943800  0.436100  1.0  0.1109
  H  H143  1  0.088700  0.518800  0.693500  1.0  0.1101
  H  H144  1  0.085500  0.603400  0.637300  1.0  0.1079
  H  H145  1  0.092400  0.694500  0.682000  1.0  0.0985
  H  H146  1  0.102400  0.700900  0.783000  1.0  0.097
  H  H147  1  0.085800  0.434500  0.760400  1.0  0.1252
  H  H148  1  0.089900  0.382900  0.857700  1.0  0.1185
  H  H149  1  0.095700  0.423300  0.968200  1.0  0.1068
  H  H150  1  0.101200  0.492200  0.976100  1.0  0.1038
  H  H151  1  0.205700  0.458800  0.879200  1.0  0.1038
  H  H152  1  0.306100  0.452500  0.894600  1.0  0.1045
  H  H153  1  0.328200  0.429600  0.089200  1.0  0.1039
  H  H154  1  0.266800  0.431000  0.171300  1.0  0.1084
  H  H155  1  0.166300  0.423900  0.155200  1.0  0.1
  H  H156  1  0.126900  0.443800  0.063900  1.0  0.1103
  H  H157  1  0.411300  0.481200  0.193500  1.0  0.1102
  H  H158  1  0.414500  0.396600  0.137300  1.0  0.1078
  H  H159  1  0.407600  0.305500  0.182000  1.0  0.0983
  H  H160  1  0.397600  0.299100  0.283000  1.0  0.0972
  H  H161  1  0.414200  0.565500  0.260400  1.0  0.124
  H  H162  1  0.410100  0.617100  0.357700  1.0  0.1166
  H  H163  1  0.404300  0.576700  0.468200  1.0  0.1053
  H  H164  1  0.398800  0.507800  0.476100  1.0  0.1043
  H  H165  1  0.294300  0.541200  0.379200  1.0  0.1032
  H  H166  1  0.193900  0.547500  0.394600  1.0  0.1044
  H  H167  1  0.171800  0.570400  0.589200  1.0  0.1036
  H  H168  1  0.233200  0.569000  0.671300  1.0  0.1085
  H  H169  1  0.333700  0.576100  0.655200  1.0  0.0996
  H  H170  1  0.373100  0.556200  0.563900  1.0  0.11
  H  H171  1  0.588700  0.981200  0.306500  1.0  0.1107
  H  H172  1  0.585500  0.896600  0.362700  1.0  0.1068
  H  H173  1  0.592400  0.805500  0.318000  1.0  0.0987
  H  H174  1  0.602400  0.799100  0.217000  1.0  0.0972
  H  H175  1  0.585800  0.065500  0.239600  1.0  0.1236
  H  H176  1  0.589900  0.117100  0.142300  1.0  0.1172
  H  H177  1  0.595700  0.076700  0.031800  1.0  0.1069
  H  H178  1  0.601200  0.007800  0.023900  1.0  0.1047
  H  H179  1  0.705700  0.041200  0.120800  1.0  0.1027
  H  H180  1  0.806100  0.047500  0.105400  1.0  0.1043
  H  H181  1  0.828200  0.070400  0.910800  1.0  0.1042
  H  H182  1  0.766800  0.069000  0.828700  1.0  0.1086
  H  H183  1  0.666300  0.076100  0.844800  1.0  0.099
  H  H184  1  0.626900  0.056200  0.936100  1.0  0.1104
  H  H185  1  0.703100  0.346200  0.079100  1.0  0.1096
  H  H186  1  0.616300  0.335000  0.131000  1.0  0.1021
  H  H187  1  0.527000  0.344500  0.083300  1.0  0.1038
  H  H188  1  0.524400  0.365300  0.983800  1.0  0.0972
  H  H189  1  0.790400  0.357000  0.016200  1.0  0.1194
  H  H190  1  0.845000  0.364700  0.920700  1.0  0.1161
  H  H191  1  0.740700  0.372700  0.799200  1.0  0.1017
  H  H192  1  0.808700  0.364900  0.810700  1.0  0.1075
  H  H193  1  0.783500  0.475000  0.895400  1.0  0.1044
  H  H194  1  0.796300  0.574300  0.877700  1.0  0.1156
  H  H195  1  0.794400  0.590900  0.679500  1.0  0.105
  H  H196  1  0.792100  0.525800  0.601200  1.0  0.1091
  H  H197  1  0.785100  0.425900  0.618900  1.0  0.1042
  H  H198  1  0.786000  0.390800  0.714500  1.0  0.1227
  H  H199  1  0.796900  0.653800  0.579100  1.0  0.1081
  H  H200  1  0.883700  0.665000  0.631000  1.0  0.1022
  H  H201  1  0.973000  0.655500  0.583300  1.0  0.1031
  H  H202  1  0.975600  0.634700  0.483800  1.0  0.0986
  H  H203  1  0.709600  0.643000  0.516200  1.0  0.1201
  H  H204  1  0.655000  0.635300  0.420700  1.0  0.1157
  H  H205  1  0.759300  0.627300  0.299200  1.0  0.0997
  H  H206  1  0.691300  0.635100  0.310700  1.0  0.108
  H  H207  1  0.716500  0.525000  0.395400  1.0  0.105
  H  H208  1  0.703700  0.425700  0.377700  1.0  0.1161
  H  H209  1  0.705600  0.409100  0.179500  1.0  0.1058
  H  H210  1  0.707900  0.474200  0.101200  1.0  0.1095
  H  H211  1  0.714900  0.574100  0.118900  1.0  0.1044
  H  H212  1  0.714000  0.609200  0.214500  1.0  0.124
  H  H213  1  0.296900  0.846200  0.420900  1.0  0.1084
  H  H214  1  0.383700  0.835000  0.369000  1.0  0.1018
  H  H215  1  0.473000  0.844500  0.416700  1.0  0.103
  H  H216  1  0.475600  0.865300  0.516200  1.0  0.0986
  H  H217  1  0.209600  0.857000  0.483800  1.0  0.1202
  H  H218  1  0.155000  0.864700  0.579300  1.0  0.1158
  H  H219  1  0.259300  0.872700  0.700800  1.0  0.1015
  H  H220  1  0.191300  0.864900  0.689300  1.0  0.1082
  H  H221  1  0.216500  0.975000  0.604600  1.0  0.1049
  H  H222  1  0.203700  0.074300  0.622300  1.0  0.1157
  H  H223  1  0.205600  0.090900  0.820500  1.0  0.1047
  H  H224  1  0.207900  0.025800  0.898800  1.0  0.1089
  H  H225  1  0.214900  0.925900  0.881100  1.0  0.1052
  H  H226  1  0.214000  0.890800  0.785500  1.0  0.1233
  H  H227  1  0.203100  0.153800  0.920900  1.0  0.1096
  H  H228  1  0.116300  0.165000  0.869000  1.0  0.1017
  H  H229  1  0.027000  0.155500  0.916700  1.0  0.1033
  H  H230  1  0.024400  0.134700  0.016200  1.0  0.0974
  H  H231  1  0.290400  0.143000  0.983800  1.0  0.1209
  H  H232  1  0.345000  0.135300  0.079300  1.0  0.1164
  H  H233  1  0.240700  0.127300  0.200800  1.0  0.1011
  H  H234  1  0.308700  0.135100  0.189300  1.0  0.1075
  H  H235  1  0.283500  0.025000  0.104600  1.0  0.1045
  H  H236  1  0.296300  0.925700  0.122300  1.0  0.1153
  H  H237  1  0.294400  0.909100  0.320500  1.0  0.1056
  H  H238  1  0.292100  0.974200  0.398800  1.0  0.1095
  H  H239  1  0.285100  0.074100  0.381100  1.0  0.1047
  H  H240  1  0.286000  0.109200  0.285500  1.0  0.124
  H  H241  1  0.079100  0.703100  0.346200  1.0  0.1091
  H  H242  1  0.131000  0.616300  0.335000  1.0  0.1043
  H  H243  1  0.083300  0.527000  0.344500  1.0  0.1043
  H  H244  1  0.983800  0.524400  0.365300  1.0  0.0985
  H  H245  1  0.016200  0.790400  0.357000  1.0  0.1213
  H  H246  1  0.920700  0.845000  0.364700  1.0  0.1155
  H  H247  1  0.799200  0.740700  0.372700  1.0  0.1011
  H  H248  1  0.810700  0.808700  0.364900  1.0  0.1075
  H  H249  1  0.895400  0.783500  0.475000  1.0  0.1049
  H  H250  1  0.877700  0.796300  0.574300  1.0  0.1158
  H  H251  1  0.679500  0.794400  0.590900  1.0  0.1053
  H  H252  1  0.601200  0.792100  0.525800  1.0  0.1082
  H  H253  1  0.618900  0.785100  0.425900  1.0  0.1035
  H  H254  1  0.714500  0.786000  0.390800  1.0  0.1206
  H  H255  1  0.579100  0.796900  0.653800  1.0  0.1087
  H  H256  1  0.631000  0.883700  0.665000  1.0  0.1036
  H  H257  1  0.583300  0.973000  0.655500  1.0  0.104
  H  H258  1  0.483800  0.975600  0.634700  1.0  0.0985
  H  H259  1  0.516200  0.709600  0.643000  1.0  0.1224
  H  H260  1  0.420700  0.655000  0.635300  1.0  0.1171
  H  H261  1  0.299200  0.759300  0.627300  1.0  0.1018
  H  H262  1  0.310700  0.691300  0.635100  1.0  0.1084
  H  H263  1  0.395400  0.716500  0.525000  1.0  0.1047
  H  H264  1  0.377700  0.703700  0.425700  1.0  0.1158
  H  H265  1  0.179500  0.705600  0.409100  1.0  0.1054
  H  H266  1  0.101200  0.707900  0.474200  1.0  0.1085
  H  H267  1  0.118900  0.714900  0.574100  1.0  0.1041
  H  H268  1  0.214500  0.714000  0.609200  1.0  0.1206
  H  H269  1  0.420900  0.296900  0.846200  1.0  0.1084
  H  H270  1  0.369000  0.383700  0.835000  1.0  0.1037
  H  H271  1  0.416700  0.473000  0.844500  1.0  0.104
  H  H272  1  0.516200  0.475600  0.865300  1.0  0.0983
  H  H273  1  0.483800  0.209600  0.857000  1.0  0.1223
  H  H274  1  0.579300  0.155000  0.864700  1.0  0.1161
  H  H275  1  0.700800  0.259300  0.872700  1.0  0.1003
  H  H276  1  0.689300  0.191300  0.864900  1.0  0.1068
  H  H277  1  0.604600  0.216500  0.975000  1.0  0.1052
  H  H278  1  0.622300  0.203700  0.074300  1.0  0.1165
  H  H279  1  0.820500  0.205600  0.090900  1.0  0.1053
  H  H280  1  0.898800  0.207900  0.025800  1.0  0.1082
  H  H281  1  0.881100  0.214900  0.925900  1.0  0.1039
  H  H282  1  0.785500  0.214000  0.890800  1.0  0.1207
  H  H283  1  0.920900  0.203100  0.153800  1.0  0.109
  H  H284  1  0.869000  0.116300  0.165000  1.0  0.1033
  H  H285  1  0.916700  0.027000  0.155500  1.0  0.1045
  H  H286  1  0.016200  0.024400  0.134700  1.0  0.0989
  H  H287  1  0.983800  0.290400  0.143000  1.0  0.1218
  H  H288  1  0.079300  0.345000  0.135300  1.0  0.1147
  H  H289  1  0.200800  0.240700  0.127300  1.0  0.1014
  H  H290  1  0.189300  0.308700  0.135100  1.0  0.1067
  H  H291  1  0.104600  0.283500  0.025000  1.0  0.1051
  H  H292  1  0.122300  0.296300  0.925700  1.0  0.1155
  H  H293  1  0.320500  0.294400  0.909100  1.0  0.1057
  H  H294  1  0.398800  0.292100  0.974200  1.0  0.1083
  H  H295  1  0.381100  0.285100  0.074100  1.0  0.1041
  H  H296  1  0.285500  0.286000  0.109200  1.0  0.1204
  H  H297  1  0.346200  0.079100  0.703100  1.0  0.1097
  H  H298  1  0.335000  0.131000  0.616300  1.0  0.1038
  H  H299  1  0.344500  0.083300  0.527000  1.0  0.1033
  H  H300  1  0.365300  0.983800  0.524400  1.0  0.0993
  H  H301  1  0.357000  0.016200  0.790400  1.0  0.1217
  H  H302  1  0.364700  0.920700  0.845000  1.0  0.1146
  H  H303  1  0.372700  0.799200  0.740700  1.0  0.0998
  H  H304  1  0.364900  0.810700  0.808700  1.0  0.1087
  H  H305  1  0.475000  0.895400  0.783500  1.0  0.1044
  H  H306  1  0.574300  0.877700  0.796300  1.0  0.1156
  H  H307  1  0.590900  0.679500  0.794400  1.0  0.1084
  H  H308  1  0.525800  0.601200  0.792100  1.0  0.1107
  H  H309  1  0.425900  0.618900  0.785100  1.0  0.1056
  H  H310  1  0.390800  0.714500  0.786000  1.0  0.123
  H  H311  1  0.653800  0.579100  0.796900  1.0  0.1102
  H  H312  1  0.665000  0.631000  0.883700  1.0  0.1032
  H  H313  1  0.655500  0.583300  0.973000  1.0  0.103
  H  H314  1  0.634700  0.483800  0.975600  1.0  0.0992
  H  H315  1  0.643000  0.516200  0.709600  1.0  0.1216
  H  H316  1  0.635300  0.420700  0.655000  1.0  0.1146
  H  H317  1  0.627300  0.299200  0.759300  1.0  0.0992
  H  H318  1  0.635100  0.310700  0.691300  1.0  0.1063
  H  H319  1  0.525000  0.395400  0.716500  1.0  0.1043
  H  H320  1  0.425700  0.377700  0.703700  1.0  0.1158
  H  H321  1  0.409100  0.179500  0.705600  1.0  0.1075
  H  H322  1  0.474200  0.101200  0.707900  1.0  0.1108
  H  H323  1  0.574100  0.118900  0.714900  1.0  0.1058
  H  H324  1  0.609200  0.214500  0.714000  1.0  0.1233
  H  H325  1  0.846200  0.420900  0.296900  1.0  0.1103
  H  H326  1  0.835000  0.369000  0.383700  1.0  0.1034
  H  H327  1  0.844500  0.416700  0.473000  1.0  0.1036
  H  H328  1  0.865300  0.516200  0.475600  1.0  0.0993
  H  H329  1  0.857000  0.483800  0.209600  1.0  0.1228
  H  H330  1  0.864700  0.579300  0.155000  1.0  0.1156
  H  H331  1  0.872700  0.700800  0.259300  1.0  0.0996
  H  H332  1  0.864900  0.689300  0.191300  1.0  0.1073
  H  H333  1  0.975000  0.604600  0.216500  1.0  0.1044
  H  H334  1  0.074300  0.622300  0.203700  1.0  0.1155
  H  H335  1  0.090900  0.820500  0.205600  1.0  0.1083
  H  H336  1  0.025800  0.898800  0.207900  1.0  0.1106
  H  H337  1  0.925900  0.881100  0.214900  1.0  0.1055
  H  H338  1  0.890800  0.785500  0.214000  1.0  0.1226
  H  H339  1  0.153800  0.920900  0.203100  1.0  0.1098
  H  H340  1  0.165000  0.869000  0.116300  1.0  0.1037
  H  H341  1  0.155500  0.916700  0.027000  1.0  0.1037
  H  H342  1  0.134700  0.016200  0.024400  1.0  0.0993
  H  H343  1  0.143000  0.983800  0.290400  1.0  0.1232
  H  H344  1  0.135300  0.079300  0.345000  1.0  0.1161
  H  H345  1  0.127300  0.200800  0.240700  1.0  0.099
  H  H346  1  0.135100  0.189300  0.308700  1.0  0.1075
  H  H347  1  0.025000  0.104600  0.283500  1.0  0.1045
  H  H348  1  0.925700  0.122300  0.296300  1.0  0.1153
  H  H349  1  0.909100  0.320500  0.294400  1.0  0.1071
  H  H350  1  0.974200  0.398800  0.292100  1.0  0.1109
  H  H351  1  0.074100  0.381100  0.285100  1.0  0.1057
  H  H352  1  0.109200  0.285500  0.286000  1.0  0.1234
  C  C353  1  0.728300  0.902500  0.059570  1.0  0.2439
  C  C354  1  0.788300  0.908500  0.055800  1.0  -0.1778
  C  C355  1  0.821720  0.910400  0.106100  1.0  -0.1255
  C  C356  1  0.795100  0.906300  0.160200  1.0  -0.0956
  C  C357  1  0.735100  0.900400  0.163970  1.0  0.1555
  C  C358  1  0.692670  0.901800  0.013000  1.0  0.1043
  C  C359  1  0.702800  0.908900  0.952500  1.0  -0.0817
  C  C360  1  0.648300  0.906600  0.923610  1.0  -0.0496
  C  C361  1  0.546400  0.884300  0.958500  1.0  -0.0994
  C  C362  1  0.535600  0.817420  0.951900  1.0  -0.0339
  C  C363  1  0.582480  0.779500  0.954500  1.0  -0.0811
  C  C364  1  0.573400  0.719850  0.950700  1.0  -0.1354
  C  C365  1  0.517300  0.698210  0.944400  1.0  0.0408
  C  C366  1  0.470380  0.736200  0.941800  1.0  0.0223
  C  C367  1  0.479500  0.795800  0.945600  1.0  0.0449
  C  C368  1  0.415300  0.712600  0.933800  1.0  -0.1048
  C  C369  1  0.366940  0.748700  0.931800  1.0  -0.1113
  C  C370  1  0.376590  0.808300  0.931100  1.0  -0.1188
  C  C371  1  0.431500  0.832150  0.940700  1.0  -0.2384
  C  C372  1  0.511200  0.637600  0.947900  1.0  0.1988
  C  C373  1  0.771700  0.097500  0.559570  1.0  0.2439
  C  C374  1  0.711700  0.091500  0.555800  1.0  -0.1772
  C  C375  1  0.678280  0.089600  0.606100  1.0  -0.1263
  C  C376  1  0.704900  0.093700  0.660200  1.0  -0.0969
  C  C377  1  0.764900  0.099600  0.663970  1.0  0.1564
  C  C378  1  0.807330  0.098200  0.513000  1.0  0.1042
  C  C379  1  0.797200  0.091100  0.452500  1.0  -0.0807
  C  C380  1  0.851700  0.093400  0.423610  1.0  -0.049
  C  C381  1  0.953600  0.115700  0.458500  1.0  -0.0999
  C  C382  1  0.964400  0.182580  0.451900  1.0  -0.0332
  C  C383  1  0.917520  0.220500  0.454500  1.0  -0.0849
  C  C384  1  0.926600  0.280150  0.450700  1.0  -0.1344
  C  C385  1  0.982700  0.301790  0.444400  1.0  0.0411
  C  C386  1  0.029620  0.263800  0.441800  1.0  0.0235
  C  C387  1  0.020500  0.204200  0.445600  1.0  0.0459
  C  C388  1  0.084700  0.287400  0.433800  1.0  -0.1065
  C  C389  1  0.133060  0.251300  0.431800  1.0  -0.1103
  C  C390  1  0.123410  0.191700  0.431100  1.0  -0.1168
  C  C391  1  0.068500  0.167850  0.440700  1.0  -0.2368
  C  C392  1  0.988800  0.362400  0.447900  1.0  0.1971
  C  C393  1  0.271700  0.402500  0.440430  1.0  0.243
  C  C394  1  0.211700  0.408500  0.444200  1.0  -0.1783
  C  C395  1  0.178280  0.410400  0.393900  1.0  -0.1263
  C  C396  1  0.204900  0.406300  0.339800  1.0  -0.0961
  C  C397  1  0.264900  0.400400  0.336030  1.0  0.1588
  C  C398  1  0.307330  0.401800  0.487000  1.0  0.104
  C  C399  1  0.297200  0.408900  0.547500  1.0  -0.0823
  C  C400  1  0.351700  0.406600  0.576390  1.0  -0.0505
  C  C401  1  0.453600  0.384300  0.541500  1.0  -0.0991
  C  C402  1  0.464400  0.317420  0.548100  1.0  -0.0335
  C  C403  1  0.417520  0.279500  0.545500  1.0  -0.0846
  C  C404  1  0.426600  0.219850  0.549300  1.0  -0.1355
  C  C405  1  0.482700  0.198210  0.555600  1.0  0.0405
  C  C406  1  0.529620  0.236200  0.558200  1.0  0.0228
  C  C407  1  0.520500  0.295800  0.554400  1.0  0.0459
  C  C408  1  0.584700  0.212600  0.566200  1.0  -0.1041
  C  C409  1  0.633060  0.248700  0.568200  1.0  -0.1102
  C  C410  1  0.623410  0.308300  0.568900  1.0  -0.1161
  C  C411  1  0.568500  0.332150  0.559300  1.0  -0.2376
  C  C412  1  0.488800  0.137600  0.552100  1.0  0.1985
  C  C413  1  0.228300  0.597500  0.940430  1.0  0.2445
  C  C414  1  0.288300  0.591500  0.944200  1.0  -0.1777
  C  C415  1  0.321720  0.589600  0.893900  1.0  -0.1254
  C  C416  1  0.295100  0.593700  0.839800  1.0  -0.0954
  C  C417  1  0.235100  0.599600  0.836030  1.0  0.1575
  C  C418  1  0.192670  0.598200  0.987000  1.0  0.104
  C  C419  1  0.202800  0.591100  0.047500  1.0  -0.0794
  C  C420  1  0.148300  0.593400  0.076390  1.0  -0.0495
  C  C421  1  0.046400  0.615700  0.041500  1.0  -0.0985
  C  C422  1  0.035600  0.682580  0.048100  1.0  -0.033
  C  C423  1  0.082480  0.720500  0.045500  1.0  -0.0816
  C  C424  1  0.073400  0.780150  0.049300  1.0  -0.134
  C  C425  1  0.017300  0.801790  0.055600  1.0  0.0418
  C  C426  1  0.970380  0.763800  0.058200  1.0  0.0218
  C  C427  1  0.979500  0.704200  0.054400  1.0  0.0453
  C  C428  1  0.915300  0.787400  0.066200  1.0  -0.1055
  C  C429  1  0.866940  0.751300  0.068200  1.0  -0.113
  C  C430  1  0.876590  0.691700  0.068900  1.0  -0.1204
  C  C431  1  0.931500  0.667850  0.059300  1.0  -0.2378
  C  C432  1  0.011200  0.862400  0.052100  1.0  0.1977
  C  C433  1  0.059570  0.728300  0.902500  1.0  0.2428
  C  C434  1  0.055800  0.788300  0.908500  1.0  -0.1799
  C  C435  1  0.106100  0.821720  0.910400  1.0  -0.1192
  C  C436  1  0.160200  0.795100  0.906300  1.0  -0.0967
  C  C437  1  0.163970  0.735100  0.900400  1.0  0.1566
  C  C438  1  0.013000  0.692670  0.901800  1.0  0.1034
  C  C439  1  0.952500  0.702800  0.908900  1.0  -0.0892
  C  C440  1  0.923610  0.648300  0.906600  1.0  -0.054
  C  C441  1  0.958500  0.546400  0.884300  1.0  -0.1015
  C  C442  1  0.951900  0.535600  0.817420  1.0  -0.0335
  C  C443  1  0.954500  0.582480  0.779500  1.0  -0.0854
  C  C444  1  0.950700  0.573400  0.719850  1.0  -0.1326
  C  C445  1  0.944400  0.517300  0.698210  1.0  0.0409
  C  C446  1  0.941800  0.470380  0.736200  1.0  0.0215
  C  C447  1  0.945600  0.479500  0.795800  1.0  0.0466
  C  C448  1  0.933800  0.415300  0.712600  1.0  -0.1029
  C  C449  1  0.931800  0.366940  0.748700  1.0  -0.1106
  C  C450  1  0.931100  0.376590  0.808300  1.0  -0.1157
  C  C451  1  0.940700  0.431500  0.832150  1.0  -0.2405
  C  C452  1  0.947900  0.511200  0.637600  1.0  0.2031
  C  C453  1  0.559570  0.771700  0.097500  1.0  0.2434
  C  C454  1  0.555800  0.711700  0.091500  1.0  -0.1795
  C  C455  1  0.606100  0.678280  0.089600  1.0  -0.1192
  C  C456  1  0.660200  0.704900  0.093700  1.0  -0.0959
  C  C457  1  0.663970  0.764900  0.099600  1.0  0.1566
  C  C458  1  0.513000  0.807330  0.098200  1.0  0.1029
  C  C459  1  0.452500  0.797200  0.091100  1.0  -0.0891
  C  C460  1  0.423610  0.851700  0.093400  1.0  -0.0537
  C  C461  1  0.458500  0.953600  0.115700  1.0  -0.1048
  C  C462  1  0.451900  0.964400  0.182580  1.0  -0.0336
  C  C463  1  0.454500  0.917520  0.220500  1.0  -0.0881
  C  C464  1  0.450700  0.926600  0.280150  1.0  -0.1333
  C  C465  1  0.444400  0.982700  0.301790  1.0  0.042
  C  C466  1  0.441800  0.029620  0.263800  1.0  0.0201
  C  C467  1  0.445600  0.020500  0.204200  1.0  0.0467
  C  C468  1  0.433800  0.084700  0.287400  1.0  -0.1036
  C  C469  1  0.431800  0.133060  0.251300  1.0  -0.1085
  C  C470  1  0.431100  0.123410  0.191700  1.0  -0.1132
  C  C471  1  0.440700  0.068500  0.167850  1.0  -0.2388
  C  C472  1  0.447900  0.988800  0.362400  1.0  0.1989
  C  C473  1  0.440430  0.271700  0.402500  1.0  0.2435
  C  C474  1  0.444200  0.211700  0.408500  1.0  -0.1784
  C  C475  1  0.393900  0.178280  0.410400  1.0  -0.1192
  C  C476  1  0.339800  0.204900  0.406300  1.0  -0.0976
  C  C477  1  0.336030  0.264900  0.400400  1.0  0.1565
  C  C478  1  0.487000  0.307330  0.401800  1.0  0.1024
  C  C479  1  0.547500  0.297200  0.408900  1.0  -0.0884
  C  C480  1  0.576390  0.351700  0.406600  1.0  -0.0522
  C  C481  1  0.541500  0.453600  0.384300  1.0  -0.1014
  C  C482  1  0.548100  0.464400  0.317420  1.0  -0.0327
  C  C483  1  0.545500  0.417520  0.279500  1.0  -0.086
  C  C484  1  0.549300  0.426600  0.219850  1.0  -0.133
  C  C485  1  0.555600  0.482700  0.198210  1.0  0.0415
  C  C486  1  0.558200  0.529620  0.236200  1.0  0.0201
  C  C487  1  0.554400  0.520500  0.295800  1.0  0.0451
  C  C488  1  0.566200  0.584700  0.212600  1.0  -0.1036
  C  C489  1  0.568200  0.633060  0.248700  1.0  -0.1087
  C  C490  1  0.568900  0.623410  0.308300  1.0  -0.1148
  C  C491  1  0.559300  0.568500  0.332150  1.0  -0.2391
  C  C492  1  0.552100  0.488800  0.137600  1.0  0.2029
  C  C493  1  0.940430  0.228300  0.597500  1.0  0.2443
  C  C494  1  0.944200  0.288300  0.591500  1.0  -0.178
  C  C495  1  0.893900  0.321720  0.589600  1.0  -0.1191
  C  C496  1  0.839800  0.295100  0.593700  1.0  -0.0979
  C  C497  1  0.836030  0.235100  0.599600  1.0  0.1566
  C  C498  1  0.987000  0.192670  0.598200  1.0  0.1034
  C  C499  1  0.047500  0.202800  0.591100  1.0  -0.0843
  C  C500  1  0.076390  0.148300  0.593400  1.0  -0.0518
  C  C501  1  0.041500  0.046400  0.615700  1.0  -0.1019
  C  C502  1  0.048100  0.035600  0.682580  1.0  -0.0334
  C  C503  1  0.045500  0.082480  0.720500  1.0  -0.0851
  C  C504  1  0.049300  0.073400  0.780150  1.0  -0.133
  C  C505  1  0.055600  0.017300  0.801790  1.0  0.0428
  C  C506  1  0.058200  0.970380  0.763800  1.0  0.0202
  C  C507  1  0.054400  0.979500  0.704200  1.0  0.0456
  C  C508  1  0.066200  0.915300  0.787400  1.0  -0.1039
  C  C509  1  0.068200  0.866940  0.751300  1.0  -0.1116
  C  C510  1  0.068900  0.876590  0.691700  1.0  -0.1169
  C  C511  1  0.059300  0.931500  0.667850  1.0  -0.2366
  C  C512  1  0.052100  0.011200  0.862400  1.0  0.198
  C  C513  1  0.902500  0.059570  0.728300  1.0  0.2444
  C  C514  1  0.908500  0.055800  0.788300  1.0  -0.1772
  C  C515  1  0.910400  0.106100  0.821720  1.0  -0.1201
  C  C516  1  0.906300  0.160200  0.795100  1.0  -0.094
  C  C517  1  0.900400  0.163970  0.735100  1.0  0.159
  C  C518  1  0.901800  0.013000  0.692670  1.0  0.1021
  C  C519  1  0.908900  0.952500  0.702800  1.0  -0.0794
  C  C520  1  0.906600  0.923610  0.648300  1.0  -0.0543
  C  C521  1  0.884300  0.958500  0.546400  1.0  -0.1012
  C  C522  1  0.817420  0.951900  0.535600  1.0  -0.0331
  C  C523  1  0.779500  0.954500  0.582480  1.0  -0.0851
  C  C524  1  0.719850  0.950700  0.573400  1.0  -0.1369
  C  C525  1  0.698210  0.944400  0.517300  1.0  0.0399
  C  C526  1  0.736200  0.941800  0.470380  1.0  0.0217
  C  C527  1  0.795800  0.945600  0.479500  1.0  0.0474
  C  C528  1  0.712600  0.933800  0.415300  1.0  -0.104
  C  C529  1  0.748700  0.931800  0.366940  1.0  -0.1077
  C  C530  1  0.808300  0.931100  0.376590  1.0  -0.1158
  C  C531  1  0.832150  0.940700  0.431500  1.0  -0.2419
  C  C532  1  0.637600  0.947900  0.511200  1.0  0.2002
  C  C533  1  0.097500  0.559570  0.771700  1.0  0.2456
  C  C534  1  0.091500  0.555800  0.711700  1.0  -0.1764
  C  C535  1  0.089600  0.606100  0.678280  1.0  -0.1209
  C  C536  1  0.093700  0.660200  0.704900  1.0  -0.0948
  C  C537  1  0.099600  0.663970  0.764900  1.0  0.1599
  C  C538  1  0.098200  0.513000  0.807330  1.0  0.1017
  C  C539  1  0.091100  0.452500  0.797200  1.0  -0.0809
  C  C540  1  0.093400  0.423610  0.851700  1.0  -0.0556
  C  C541  1  0.115700  0.458500  0.953600  1.0  -0.1017
  C  C542  1  0.182580  0.451900  0.964400  1.0  -0.0336
  C  C543  1  0.220500  0.454500  0.917520  1.0  -0.0875
  C  C544  1  0.280150  0.450700  0.926600  1.0  -0.1362
  C  C545  1  0.301790  0.444400  0.982700  1.0  0.0402
  C  C546  1  0.263800  0.441800  0.029620  1.0  0.0226
  C  C547  1  0.204200  0.445600  0.020500  1.0  0.0485
  C  C548  1  0.287400  0.433800  0.084700  1.0  -0.1034
  C  C549  1  0.251300  0.431800  0.133060  1.0  -0.1068
  C  C550  1  0.191700  0.431100  0.123410  1.0  -0.1173
  C  C551  1  0.167850  0.440700  0.068500  1.0  -0.2418
  C  C552  1  0.362400  0.447900  0.988800  1.0  0.1994
  C  C553  1  0.402500  0.440430  0.271700  1.0  0.2441
  C  C554  1  0.408500  0.444200  0.211700  1.0  -0.176
  C  C555  1  0.410400  0.393900  0.178280  1.0  -0.1211
  C  C556  1  0.406300  0.339800  0.204900  1.0  -0.0961
  C  C557  1  0.400400  0.336030  0.264900  1.0  0.1591
  C  C558  1  0.401800  0.487000  0.307330  1.0  0.1027
  C  C559  1  0.408900  0.547500  0.297200  1.0  -0.0793
  C  C560  1  0.406600  0.576390  0.351700  1.0  -0.0543
  C  C561  1  0.384300  0.541500  0.453600  1.0  -0.1005
  C  C562  1  0.317420  0.548100  0.464400  1.0  -0.0335
  C  C563  1  0.279500  0.545500  0.417520  1.0  -0.0887
  C  C564  1  0.219850  0.549300  0.426600  1.0  -0.1357
  C  C565  1  0.198210  0.555600  0.482700  1.0  0.0399
  C  C566  1  0.236200  0.558200  0.529620  1.0  0.0224
  C  C567  1  0.295800  0.554400  0.520500  1.0  0.0479
  C  C568  1  0.212600  0.566200  0.584700  1.0  -0.1027
  C  C569  1  0.248700  0.568200  0.633060  1.0  -0.1079
  C  C570  1  0.308300  0.568900  0.623410  1.0  -0.1146
  C  C571  1  0.332150  0.559300  0.568500  1.0  -0.2408
  C  C572  1  0.137600  0.552100  0.488800  1.0  0.201
  C  C573  1  0.597500  0.940430  0.228300  1.0  0.2455
  C  C574  1  0.591500  0.944200  0.288300  1.0  -0.1779
  C  C575  1  0.589600  0.893900  0.321720  1.0  -0.1201
  C  C576  1  0.593700  0.839800  0.295100  1.0  -0.0971
  C  C577  1  0.599600  0.836030  0.235100  1.0  0.1585
  C  C578  1  0.598200  0.987000  0.192670  1.0  0.1031
  C  C579  1  0.591100  0.047500  0.202800  1.0  -0.0814
  C  C580  1  0.593400  0.076390  0.148300  1.0  -0.0544
  C  C581  1  0.615700  0.041500  0.046400  1.0  -0.101
  C  C582  1  0.682580  0.048100  0.035600  1.0  -0.0339
  C  C583  1  0.720500  0.045500  0.082480  1.0  -0.0845
  C  C584  1  0.780150  0.049300  0.073400  1.0  -0.1358
  C  C585  1  0.801790  0.055600  0.017300  1.0  0.0392
  C  C586  1  0.763800  0.058200  0.970380  1.0  0.0225
  C  C587  1  0.704200  0.054400  0.979500  1.0  0.0479
  C  C588  1  0.787400  0.066200  0.915300  1.0  -0.103
  C  C589  1  0.751300  0.068200  0.866940  1.0  -0.1085
  C  C590  1  0.691700  0.068900  0.876590  1.0  -0.1174
  C  C591  1  0.667850  0.059300  0.931500  1.0  -0.2429
  C  C592  1  0.862400  0.052100  0.011200  1.0  0.1993
  C  C593  1  0.665300  0.362400  0.000600  1.0  0.2482
  C  C594  1  0.666800  0.350100  0.059700  1.0  -0.1781
  C  C595  1  0.615300  0.343400  0.090560  1.0  -0.1014
  C  C596  1  0.562200  0.349100  0.062300  1.0  -0.1064
  C  C597  1  0.560700  0.361400  0.003100  1.0  0.1572
  C  C598  1  0.713000  0.365300  0.966670  1.0  0.1001
  C  C599  1  0.773400  0.361600  0.978800  1.0  -0.0828
  C  C600  1  0.803950  0.365800  0.925400  1.0  -0.0402
  C  C601  1  0.773600  0.386500  0.823300  1.0  -0.1159
  C  C602  1  0.783100  0.450040  0.810400  1.0  0.0498
  C  C603  1  0.786400  0.488800  0.856620  1.0  -0.0999
  C  C604  1  0.794100  0.547800  0.846100  1.0  -0.1618
  C  C605  1  0.798400  0.568040  0.789300  1.0  0.0334
  C  C606  1  0.795100  0.529300  0.743100  1.0  0.014
  C  C607  1  0.787500  0.470300  0.753630  1.0  0.0151
  C  C608  1  0.793700  0.550200  0.686440  1.0  -0.1064
  C  C609  1  0.791200  0.511700  0.640000  1.0  -0.1122
  C  C610  1  0.787400  0.452300  0.650520  1.0  -0.0905
  C  C611  1  0.786800  0.431400  0.707400  1.0  -0.2248
  C  C612  1  0.805800  0.629000  0.783800  1.0  0.2791
  C  C613  1  0.834700  0.637600  0.500600  1.0  0.2468
  C  C614  1  0.833200  0.649900  0.559700  1.0  -0.1787
  C  C615  1  0.884700  0.656600  0.590560  1.0  -0.1019
  C  C616  1  0.937800  0.650900  0.562300  1.0  -0.106
  C  C617  1  0.939300  0.638600  0.503100  1.0  0.1559
  C  C618  1  0.787000  0.634700  0.466670  1.0  0.0988
  C  C619  1  0.726600  0.638400  0.478800  1.0  -0.0853
  C  C620  1  0.696050  0.634200  0.425400  1.0  -0.0423
  C  C621  1  0.726400  0.613500  0.323300  1.0  -0.1148
  C  C622  1  0.716900  0.549960  0.310400  1.0  0.0491
  C  C623  1  0.713600  0.511200  0.356620  1.0  -0.1015
  C  C624  1  0.705900  0.452200  0.346100  1.0  -0.1607
  C  C625  1  0.701600  0.431960  0.289300  1.0  0.0323
  C  C626  1  0.704900  0.470700  0.243100  1.0  0.0138
  C  C627  1  0.712500  0.529700  0.253630  1.0  0.0156
  C  C628  1  0.706300  0.449800  0.186440  1.0  -0.11
  C  C629  1  0.708800  0.488300  0.140000  1.0  -0.1115
  C  C630  1  0.712600  0.547700  0.150520  1.0  -0.0909
  C  C631  1  0.713200  0.568600  0.207400  1.0  -0.2251
  C  C632  1  0.694200  0.371000  0.283800  1.0  0.2812
  C  C633  1  0.334700  0.862400  0.499400  1.0  0.2481
  C  C634  1  0.333200  0.850100  0.440300  1.0  -0.1789
  C  C635  1  0.384700  0.843400  0.409440  1.0  -0.1005
  C  C636  1  0.437800  0.849100  0.437700  1.0  -0.1054
  C  C637  1  0.439300  0.861400  0.496900  1.0  0.1573
  C  C638  1  0.287000  0.865300  0.533330  1.0  0.0998
  C  C639  1  0.226600  0.861600  0.521200  1.0  -0.0833
  C  C640  1  0.196050  0.865800  0.574600  1.0  -0.0422
  C  C641  1  0.226400  0.886500  0.676700  1.0  -0.1154
  C  C642  1  0.216900  0.950040  0.689600  1.0  0.0486
  C  C643  1  0.213600  0.988800  0.643380  1.0  -0.1043
  C  C644  1  0.205900  0.047800  0.653900  1.0  -0.1612
  C  C645  1  0.201600  0.068040  0.710700  1.0  0.0331
  C  C646  1  0.204900  0.029300  0.756900  1.0  0.0153
  C  C647  1  0.212500  0.970300  0.746370  1.0  0.0166
  C  C648  1  0.206300  0.050200  0.813560  1.0  -0.1086
  C  C649  1  0.208800  0.011700  0.860000  1.0  -0.1101
  C  C650  1  0.212600  0.952300  0.849480  1.0  -0.0905
  C  C651  1  0.213200  0.931400  0.792600  1.0  -0.2244
  C  C652  1  0.194200  0.129000  0.716200  1.0  0.2798
  C  C653  1  0.165300  0.137600  0.999400  1.0  0.2475
  C  C654  1  0.166800  0.149900  0.940300  1.0  -0.1781
  C  C655  1  0.115300  0.156600  0.909440  1.0  -0.1015
  C  C656  1  0.062200  0.150900  0.937700  1.0  -0.1064
  C  C657  1  0.060700  0.138600  0.996900  1.0  0.1588
  C  C658  1  0.213000  0.134700  0.033330  1.0  0.0997
  C  C659  1  0.273400  0.138400  0.021200  1.0  -0.0838
  C  C660  1  0.303950  0.134200  0.074600  1.0  -0.0398
  C  C661  1  0.273600  0.113500  0.176700  1.0  -0.1146
  C  C662  1  0.283100  0.049960  0.189600  1.0  0.0497
  C  C663  1  0.286400  0.011200  0.143380  1.0  -0.1045
  C  C664  1  0.294100  0.952200  0.153900  1.0  -0.1609
  C  C665  1  0.298400  0.931960  0.210700  1.0  0.0331
  C  C666  1  0.295100  0.970700  0.256900  1.0  0.013
  C  C667  1  0.287500  0.029700  0.246370  1.0  0.0156
  C  C668  1  0.293700  0.949800  0.313560  1.0  -0.1098
  C  C669  1  0.291200  0.988300  0.360000  1.0  -0.1106
  C  C670  1  0.287400  0.047700  0.349480  1.0  -0.0921
  C  C671  1  0.286800  0.068600  0.292600  1.0  -0.2257
  C  C672  1  0.305800  0.871000  0.216200  1.0  0.2817
  C  C673  1  0.000600  0.665300  0.362400  1.0  0.2474
  C  C674  1  0.059700  0.666800  0.350100  1.0  -0.1749
  C  C675  1  0.090560  0.615300  0.343400  1.0  -0.1029
  C  C676  1  0.062300  0.562200  0.349100  1.0  -0.1063
  C  C677  1  0.003100  0.560700  0.361400  1.0  0.1492
  C  C678  1  0.966670  0.713000  0.365300  1.0  0.0998
  C  C679  1  0.978800  0.773400  0.361600  1.0  -0.0865
  C  C680  1  0.925400  0.803950  0.365800  1.0  -0.0417
  C  C681  1  0.823300  0.773600  0.386500  1.0  -0.1185
  C  C682  1  0.810400  0.783100  0.450040  1.0  0.051
  C  C683  1  0.856620  0.786400  0.488800  1.0  -0.0961
  C  C684  1  0.846100  0.794100  0.547800  1.0  -0.1593
  C  C685  1  0.789300  0.798400  0.568040  1.0  0.0352
  C  C686  1  0.743100  0.795100  0.529300  1.0  0.0108
  C  C687  1  0.753630  0.787500  0.470300  1.0  0.0136
  C  C688  1  0.686440  0.793700  0.550200  1.0  -0.1048
  C  C689  1  0.640000  0.791200  0.511700  1.0  -0.1125
  C  C690  1  0.650520  0.787400  0.452300  1.0  -0.0933
  C  C691  1  0.707400  0.786800  0.431400  1.0  -0.2208
  C  C692  1  0.783800  0.805800  0.629000  1.0  0.2815
  C  C693  1  0.500600  0.834700  0.637600  1.0  0.2465
  C  C694  1  0.559700  0.833200  0.649900  1.0  -0.176
  C  C695  1  0.590560  0.884700  0.656600  1.0  -0.1035
  C  C696  1  0.562300  0.937800  0.650900  1.0  -0.1058
  C  C697  1  0.503100  0.939300  0.638600  1.0  0.15
  C  C698  1  0.466670  0.787000  0.634700  1.0  0.0994
  C  C699  1  0.478800  0.726600  0.638400  1.0  -0.0882
  C  C700  1  0.425400  0.696050  0.634200  1.0  -0.0418
  C  C701  1  0.323300  0.726400  0.613500  1.0  -0.1147
  C  C702  1  0.310400  0.716900  0.549960  1.0  0.0513
  C  C703  1  0.356620  0.713600  0.511200  1.0  -0.097
  C  C704  1  0.346100  0.705900  0.452200  1.0  -0.1601
  C  C705  1  0.289300  0.701600  0.431960  1.0  0.0353
  C  C706  1  0.243100  0.704900  0.470700  1.0  0.0121
  C  C707  1  0.253630  0.712500  0.529700  1.0  0.0136
  C  C708  1  0.186440  0.706300  0.449800  1.0  -0.1026
  C  C709  1  0.140000  0.708800  0.488300  1.0  -0.112
  C  C710  1  0.150520  0.712600  0.547700  1.0  -0.0932
  C  C711  1  0.207400  0.713200  0.568600  1.0  -0.2217
  C  C712  1  0.283800  0.694200  0.371000  1.0  0.2798
  C  C713  1  0.499400  0.334700  0.862400  1.0  0.2467
  C  C714  1  0.440300  0.333200  0.850100  1.0  -0.1754
  C  C715  1  0.409440  0.384700  0.843400  1.0  -0.1046
  C  C716  1  0.437700  0.437800  0.849100  1.0  -0.1065
  C  C717  1  0.496900  0.439300  0.861400  1.0  0.1495
  C  C718  1  0.533330  0.287000  0.865300  1.0  0.0994
  C  C719  1  0.521200  0.226600  0.861600  1.0  -0.0879
  C  C720  1  0.574600  0.196050  0.865800  1.0  -0.0425
  C  C721  1  0.676700  0.226400  0.886500  1.0  -0.1189
  C  C722  1  0.689600  0.216900  0.950040  1.0  0.0501
  C  C723  1  0.643380  0.213600  0.988800  1.0  -0.0988
  C  C724  1  0.653900  0.205900  0.047800  1.0  -0.1615
  C  C725  1  0.710700  0.201600  0.068040  1.0  0.0356
  C  C726  1  0.756900  0.204900  0.029300  1.0  0.0117
  C  C727  1  0.746370  0.212500  0.970300  1.0  0.0137
  C  C728  1  0.813560  0.206300  0.050200  1.0  -0.1042
  C  C729  1  0.860000  0.208800  0.011700  1.0  -0.1116
  C  C730  1  0.849480  0.212600  0.952300  1.0  -0.0919
  C  C731  1  0.792600  0.213200  0.931400  1.0  -0.2211
  C  C732  1  0.716200  0.194200  0.129000  1.0  0.2803
  C  C733  1  0.999400  0.165300  0.137600  1.0  0.2463
  C  C734  1  0.940300  0.166800  0.149900  1.0  -0.1752
  C  C735  1  0.909440  0.115300  0.156600  1.0  -0.1041
  C  C736  1  0.937700  0.062200  0.150900  1.0  -0.1063
  C  C737  1  0.996900  0.060700  0.138600  1.0  0.1493
  C  C738  1  0.033330  0.213000  0.134700  1.0  0.0994
  C  C739  1  0.021200  0.273400  0.138400  1.0  -0.0897
  C  C740  1  0.074600  0.303950  0.134200  1.0  -0.0417
  C  C741  1  0.176700  0.273600  0.113500  1.0  -0.1151
  C  C742  1  0.189600  0.283100  0.049960  1.0  0.0504
  C  C743  1  0.143380  0.286400  0.011200  1.0  -0.1003
  C  C744  1  0.153900  0.294100  0.952200  1.0  -0.1616
  C  C745  1  0.210700  0.298400  0.931960  1.0  0.0359
  C  C746  1  0.256900  0.295100  0.970700  1.0  0.0127
  C  C747  1  0.246370  0.287500  0.029700  1.0  0.014
  C  C748  1  0.313560  0.293700  0.949800  1.0  -0.104
  C  C749  1  0.360000  0.291200  0.988300  1.0  -0.1126
  C  C750  1  0.349480  0.287400  0.047700  1.0  -0.0914
  C  C751  1  0.292600  0.286800  0.068600  1.0  -0.2214
  C  C752  1  0.216200  0.305800  0.871000  1.0  0.2793
  C  C753  1  0.362400  0.000600  0.665300  1.0  0.2457
  C  C754  1  0.350100  0.059700  0.666800  1.0  -0.1793
  C  C755  1  0.343400  0.090560  0.615300  1.0  -0.1011
  C  C756  1  0.349100  0.062300  0.562200  1.0  -0.1045
  C  C757  1  0.361400  0.003100  0.560700  1.0  0.1531
  C  C758  1  0.365300  0.966670  0.713000  1.0  0.1005
  C  C759  1  0.361600  0.978800  0.773400  1.0  -0.0856
  C  C760  1  0.365800  0.925400  0.803950  1.0  -0.0392
  C  C761  1  0.386500  0.823300  0.773600  1.0  -0.1129
  C  C762  1  0.450040  0.810400  0.783100  1.0  0.0483
  C  C763  1  0.488800  0.856620  0.786400  1.0  -0.1032
  C  C764  1  0.547800  0.846100  0.794100  1.0  -0.163
  C  C765  1  0.568040  0.789300  0.798400  1.0  0.0326
  C  C766  1  0.529300  0.743100  0.795100  1.0  0.0125
  C  C767  1  0.470300  0.753630  0.787500  1.0  0.0135
  C  C768  1  0.550200  0.686440  0.793700  1.0  -0.108
  C  C769  1  0.511700  0.640000  0.791200  1.0  -0.1142
  C  C770  1  0.452300  0.650520  0.787400  1.0  -0.0883
  C  C771  1  0.431400  0.707400  0.786800  1.0  -0.2244
  C  C772  1  0.629000  0.783800  0.805800  1.0  0.2828
  C  C773  1  0.637600  0.500600  0.834700  1.0  0.2453
  C  C774  1  0.649900  0.559700  0.833200  1.0  -0.1778
  C  C775  1  0.656600  0.590560  0.884700  1.0  -0.0997
  C  C776  1  0.650900  0.562300  0.937800  1.0  -0.1046
  C  C777  1  0.638600  0.503100  0.939300  1.0  0.1521
  C  C778  1  0.634700  0.466670  0.787000  1.0  0.1009
  C  C779  1  0.638400  0.478800  0.726600  1.0  -0.0848
  C  C780  1  0.634200  0.425400  0.696050  1.0  -0.0395
  C  C781  1  0.613500  0.323300  0.726400  1.0  -0.1139
  C  C782  1  0.549960  0.310400  0.716900  1.0  0.0482
  C  C783  1  0.511200  0.356620  0.713600  1.0  -0.1034
  C  C784  1  0.452200  0.346100  0.705900  1.0  -0.1634
  C  C785  1  0.431960  0.289300  0.701600  1.0  0.0321
  C  C786  1  0.470700  0.243100  0.704900  1.0  0.0132
  C  C787  1  0.529700  0.253630  0.712500  1.0  0.0146
  C  C788  1  0.449800  0.186440  0.706300  1.0  -0.1066
  C  C789  1  0.488300  0.140000  0.708800  1.0  -0.1135
  C  C790  1  0.547700  0.150520  0.712600  1.0  -0.0886
  C  C791  1  0.568600  0.207400  0.713200  1.0  -0.2242
  C  C792  1  0.371000  0.283800  0.694200  1.0  0.2788
  C  C793  1  0.862400  0.499400  0.334700  1.0  0.2466
  C  C794  1  0.850100  0.440300  0.333200  1.0  -0.179
  C  C795  1  0.843400  0.409440  0.384700  1.0  -0.102
  C  C796  1  0.849100  0.437700  0.437800  1.0  -0.1051
  C  C797  1  0.861400  0.496900  0.439300  1.0  0.1521
  C  C798  1  0.865300  0.533330  0.287000  1.0  0.1001
  C  C799  1  0.861600  0.521200  0.226600  1.0  -0.0883
  C  C800  1  0.865800  0.574600  0.196050  1.0  -0.0412
  C  C801  1  0.886500  0.676700  0.226400  1.0  -0.1136
  C  C802  1  0.950040  0.689600  0.216900  1.0  0.0483
  C  C803  1  0.988800  0.643380  0.213600  1.0  -0.104
  C  C804  1  0.047800  0.653900  0.205900  1.0  -0.1619
  C  C805  1  0.068040  0.710700  0.201600  1.0  0.0319
  C  C806  1  0.029300  0.756900  0.204900  1.0  0.0127
  C  C807  1  0.970300  0.746370  0.212500  1.0  0.0139
  C  C808  1  0.050200  0.813560  0.206300  1.0  -0.1074
  C  C809  1  0.011700  0.860000  0.208800  1.0  -0.1108
  C  C810  1  0.952300  0.849480  0.212600  1.0  -0.0877
  C  C811  1  0.931400  0.792600  0.213200  1.0  -0.2248
  C  C812  1  0.129000  0.716200  0.194200  1.0  0.2813
  C  C813  1  0.137600  0.999400  0.165300  1.0  0.2455
  C  C814  1  0.149900  0.940300  0.166800  1.0  -0.1802
  C  C815  1  0.156600  0.909440  0.115300  1.0  -0.1012
  C  C816  1  0.150900  0.937700  0.062200  1.0  -0.1045
  C  C817  1  0.138600  0.996900  0.060700  1.0  0.1532
  C  C818  1  0.134700  0.033330  0.213000  1.0  0.0998
  C  C819  1  0.138400  0.021200  0.273400  1.0  -0.0868
  C  C820  1  0.134200  0.074600  0.303950  1.0  -0.0392
  C  C821  1  0.113500  0.176700  0.273600  1.0  -0.1138
  C  C822  1  0.049960  0.189600  0.283100  1.0  0.0482
  C  C823  1  0.011200  0.143380  0.286400  1.0  -0.1042
  C  C824  1  0.952200  0.153900  0.294100  1.0  -0.1623
  C  C825  1  0.931960  0.210700  0.298400  1.0  0.0327
  C  C826  1  0.970700  0.256900  0.295100  1.0  0.0131
  C  C827  1  0.029700  0.246370  0.287500  1.0  0.0147
  C  C828  1  0.949800  0.313560  0.293700  1.0  -0.1055
  C  C829  1  0.988300  0.360000  0.291200  1.0  -0.1116
  C  C830  1  0.047700  0.349480  0.287400  1.0  -0.0872
  C  C831  1  0.068600  0.292600  0.286800  1.0  -0.2242
  C  C832  1  0.871000  0.216200  0.305800  1.0  0.279
  N  N833  1  0.701710  0.898500  0.113700  1.0  -0.3527
  N  N834  1  0.604500  0.898200  0.966200  1.0  -0.0454
  N  N835  1  0.631900  0.895200  0.021460  1.0  -0.3215
  N  N836  1  0.504000  0.583600  0.949700  1.0  -0.4936
  N  N837  1  0.798290  0.101500  0.613700  1.0  -0.3542
  N  N838  1  0.895500  0.101800  0.466200  1.0  -0.0447
  N  N839  1  0.868100  0.104800  0.521460  1.0  -0.3198
  N  N840  1  0.996000  0.416400  0.449700  1.0  -0.4958
  N  N841  1  0.298290  0.398500  0.386300  1.0  -0.3531
  N  N842  1  0.395500  0.398200  0.533800  1.0  -0.0466
  N  N843  1  0.368100  0.395200  0.478540  1.0  -0.3219
  N  N844  1  0.496000  0.083600  0.550300  1.0  -0.4941
  N  N845  1  0.201710  0.601500  0.886300  1.0  -0.3519
  N  N846  1  0.104500  0.601800  0.033800  1.0  -0.0479
  N  N847  1  0.131900  0.604800  0.978540  1.0  -0.3227
  N  N848  1  0.004000  0.916400  0.050300  1.0  -0.4953
  N  N849  1  0.113700  0.701710  0.898500  1.0  -0.3534
  N  N850  1  0.966200  0.604500  0.898200  1.0  -0.0479
  N  N851  1  0.021460  0.631900  0.895200  1.0  -0.3208
  N  N852  1  0.949700  0.504000  0.583600  1.0  -0.4942
  N  N853  1  0.613700  0.798290  0.101500  1.0  -0.3507
  N  N854  1  0.466200  0.895500  0.101800  1.0  -0.0486
  N  N855  1  0.521460  0.868100  0.104800  1.0  -0.3201
  N  N856  1  0.449700  0.996000  0.416400  1.0  -0.4926
  N  N857  1  0.386300  0.298290  0.398500  1.0  -0.3522
  N  N858  1  0.533800  0.395500  0.398200  1.0  -0.0477
  N  N859  1  0.478540  0.368100  0.395200  1.0  -0.3215
  N  N860  1  0.550300  0.496000  0.083600  1.0  -0.4918
  N  N861  1  0.886300  0.201710  0.601500  1.0  -0.353
  N  N862  1  0.033800  0.104500  0.601800  1.0  -0.047
  N  N863  1  0.978540  0.131900  0.604800  1.0  -0.3217
  N  N864  1  0.050300  0.004000  0.916400  1.0  -0.4913
  N  N865  1  0.898500  0.113700  0.701710  1.0  -0.356
  N  N866  1  0.898200  0.966200  0.604500  1.0  -0.0482
  N  N867  1  0.895200  0.021460  0.631900  1.0  -0.3221
  N  N868  1  0.583600  0.949700  0.504000  1.0  -0.4904
  N  N869  1  0.101500  0.613700  0.798290  1.0  -0.3543
  N  N870  1  0.101800  0.466200  0.895500  1.0  -0.049
  N  N871  1  0.104800  0.521460  0.868100  1.0  -0.3219
  N  N872  1  0.416400  0.449700  0.996000  1.0  -0.493
  N  N873  1  0.398500  0.386300  0.298290  1.0  -0.3545
  N  N874  1  0.398200  0.533800  0.395500  1.0  -0.0471
  N  N875  1  0.395200  0.478540  0.368100  1.0  -0.3209
  N  N876  1  0.083600  0.550300  0.496000  1.0  -0.489
  N  N877  1  0.601500  0.886300  0.201710  1.0  -0.3555
  N  N878  1  0.601800  0.033800  0.104500  1.0  -0.0479
  N  N879  1  0.604800  0.978540  0.131900  1.0  -0.3208
  N  N880  1  0.916400  0.050300  0.004000  1.0  -0.4928
  N  N881  1  0.612200  0.368100  0.972310  1.0  -0.3461
  N  N882  1  0.762400  0.372200  0.880150  1.0  -0.0095
  N  N883  1  0.706220  0.371800  0.905680  1.0  -0.3299
  N  N884  1  0.812700  0.679000  0.778000  1.0  -0.5264
  N  N885  1  0.887800  0.631900  0.472310  1.0  -0.3458
  N  N886  1  0.737600  0.627800  0.380150  1.0  -0.0096
  N  N887  1  0.793780  0.628200  0.405680  1.0  -0.3293
  N  N888  1  0.687300  0.321000  0.278000  1.0  -0.5267
  N  N889  1  0.387800  0.868100  0.527690  1.0  -0.3441
  N  N890  1  0.237600  0.872200  0.619850  1.0  -0.0092
  N  N891  1  0.293780  0.871800  0.594320  1.0  -0.3292
  N  N892  1  0.187300  0.179000  0.722000  1.0  -0.5271
  N  N893  1  0.112200  0.131900  0.027690  1.0  -0.3434
  N  N894  1  0.262400  0.127800  0.119850  1.0  -0.0094
  N  N895  1  0.206220  0.128200  0.094320  1.0  -0.3303
  N  N896  1  0.312700  0.821000  0.222000  1.0  -0.5258
  N  N897  1  0.972310  0.612200  0.368100  1.0  -0.3434
  N  N898  1  0.880150  0.762400  0.372200  1.0  -0.0088
  N  N899  1  0.905680  0.706220  0.371800  1.0  -0.3293
  N  N900  1  0.778000  0.812700  0.679000  1.0  -0.5324
  N  N901  1  0.472310  0.887800  0.631900  1.0  -0.3433
  N  N902  1  0.380150  0.737600  0.627800  1.0  -0.0099
  N  N903  1  0.405680  0.793780  0.628200  1.0  -0.3295
  N  N904  1  0.278000  0.687300  0.321000  1.0  -0.5337
  N  N905  1  0.527690  0.387800  0.868100  1.0  -0.3441
  N  N906  1  0.619850  0.237600  0.872200  1.0  -0.0091
  N  N907  1  0.594320  0.293780  0.871800  1.0  -0.3287
  N  N908  1  0.722000  0.187300  0.179000  1.0  -0.5311
  N  N909  1  0.027690  0.112200  0.131900  1.0  -0.3432
  N  N910  1  0.119850  0.262400  0.127800  1.0  -0.0096
  N  N911  1  0.094320  0.206220  0.128200  1.0  -0.3287
  N  N912  1  0.222000  0.312700  0.821000  1.0  -0.5331
  N  N913  1  0.368100  0.972310  0.612200  1.0  -0.3439
  N  N914  1  0.372200  0.880150  0.762400  1.0  -0.0098
  N  N915  1  0.371800  0.905680  0.706220  1.0  -0.3292
  N  N916  1  0.679000  0.778000  0.812700  1.0  -0.5275
  N  N917  1  0.631900  0.472310  0.887800  1.0  -0.3441
  N  N918  1  0.627800  0.380150  0.737600  1.0  -0.0088
  N  N919  1  0.628200  0.405680  0.793780  1.0  -0.3282
  N  N920  1  0.321000  0.278000  0.687300  1.0  -0.5266
  N  N921  1  0.868100  0.527690  0.387800  1.0  -0.3444
  N  N922  1  0.872200  0.619850  0.237600  1.0  -0.0092
  N  N923  1  0.871800  0.594320  0.293780  1.0  -0.328
  N  N924  1  0.179000  0.722000  0.187300  1.0  -0.5275
  N  N925  1  0.131900  0.027690  0.112200  1.0  -0.343
  N  N926  1  0.127800  0.119850  0.262400  1.0  -0.0093
  N  N927  1  0.128200  0.094320  0.206220  1.0  -0.3278
  N  N928  1  0.821000  0.222000  0.312700  1.0  -0.5267
