# generated using pymatgen
data_CoAgH42(C5N)12
_symmetry_space_group_name_H-M   'P 1'
_cell_length_a   23.05380000
_cell_length_b   23.05380000
_cell_length_c   23.05380000
_cell_angle_alpha   90.00000000
_cell_angle_beta   90.00000000
_cell_angle_gamma   90.00000000
_symmetry_Int_Tables_number   1
_chemical_formula_structural   CoAgH42(C5N)12
_chemical_formula_sum   'Co8 Ag8 H336 C480 N96'
_cell_volume   12252.58047208
_cell_formula_units_Z   8
loop_
 _symmetry_equiv_pos_site_id
 _symmetry_equiv_pos_as_xyz
  1  'x, y, z'
loop_
 _atom_site_type_symbol
 _atom_site_label
 _atom_site_symmetry_multiplicity
 _atom_site_fract_x
 _atom_site_fract_y
 _atom_site_fract_z
 _atom_site_occupancy
 _atom_site_charge
  Co  Co1  1  0.129780  0.870220  0.370220  1.0  0.6544
  Co  Co2  1  0.370220  0.129780  0.870220  1.0  0.6567
  Co  Co3  1  0.870220  0.370220  0.129780  1.0  0.6572
  Co  Co4  1  0.629780  0.629780  0.629780  1.0  0.6532
  Co  Co5  1  0.861610  0.138390  0.638390  1.0  0.7183
  Co  Co6  1  0.638390  0.861610  0.138390  1.0  0.7202
  Co  Co7  1  0.138390  0.638390  0.861610  1.0  0.7222
  Co  Co8  1  0.361610  0.361610  0.361610  1.0  0.7179
  Ag  Ag9  1  0.006790  0.493210  0.506790  1.0  0.3189
  Ag  Ag10  1  0.493210  0.506790  0.006790  1.0  0.3181
  Ag  Ag11  1  0.993210  0.993210  0.993210  1.0  0.3181
  Ag  Ag12  1  0.506790  0.006790  0.493210  1.0  0.3196
  Ag  Ag13  1  0.240840  0.259160  0.740840  1.0  0.2103
  Ag  Ag14  1  0.259160  0.740840  0.240840  1.0  0.2094
  Ag  Ag15  1  0.759160  0.759160  0.759160  1.0  0.21
  Ag  Ag16  1  0.740840  0.240840  0.259160  1.0  0.2119
  H  H17  1  0.329900  0.905900  0.455900  1.0  0.1112
  H  H18  1  0.381000  0.917900  0.369100  1.0  0.1047
  H  H19  1  0.333000  0.908400  0.280200  1.0  0.1043
  H  H20  1  0.233900  0.886700  0.278100  1.0  0.1027
  H  H21  1  0.263900  0.893600  0.546600  1.0  0.1381
  H  H22  1  0.166900  0.889200  0.594400  1.0  0.116
  H  H23  1  0.051200  0.877100  0.491200  1.0  0.1038
  H  H24  1  0.061100  0.885700  0.559200  1.0  0.1018
  H  H25  1  0.145200  0.775500  0.535900  1.0  0.1015
  H  H26  1  0.126500  0.676300  0.545900  1.0  0.1204
  H  H27  1  0.929100  0.661500  0.552300  1.0  0.1087
  H  H28  1  0.851000  0.725400  0.537700  1.0  0.1154
  H  H29  1  0.869300  0.825200  0.533200  1.0  0.1005
  H  H30  1  0.964500  0.860600  0.541900  1.0  0.1228
  H  H31  1  0.170100  0.094100  0.955900  1.0  0.1111
  H  H32  1  0.119000  0.082100  0.869100  1.0  0.1046
  H  H33  1  0.167000  0.091600  0.780200  1.0  0.104
  H  H34  1  0.266100  0.113300  0.778100  1.0  0.1029
  H  H35  1  0.236100  0.106400  0.046600  1.0  0.1398
  H  H36  1  0.333100  0.110800  0.094400  1.0  0.1174
  H  H37  1  0.448800  0.122900  0.991200  1.0  0.1031
  H  H38  1  0.438900  0.114300  0.059200  1.0  0.1021
  H  H39  1  0.354800  0.224500  0.035900  1.0  0.1016
  H  H40  1  0.373500  0.323700  0.045900  1.0  0.1194
  H  H41  1  0.570900  0.338500  0.052300  1.0  0.1085
  H  H42  1  0.649000  0.274600  0.037700  1.0  0.1171
  H  H43  1  0.630700  0.174800  0.033200  1.0  0.0999
  H  H44  1  0.535500  0.139400  0.041900  1.0  0.122
  H  H45  1  0.670100  0.405900  0.044100  1.0  0.1115
  H  H46  1  0.619000  0.417900  0.130900  1.0  0.1044
  H  H47  1  0.667000  0.408400  0.219800  1.0  0.1042
  H  H48  1  0.766100  0.386700  0.221900  1.0  0.1025
  H  H49  1  0.736100  0.393600  0.953400  1.0  0.1395
  H  H50  1  0.833100  0.389200  0.905600  1.0  0.1171
  H  H51  1  0.948800  0.377100  0.008800  1.0  0.1034
  H  H52  1  0.938900  0.385700  0.940800  1.0  0.1012
  H  H53  1  0.854800  0.275500  0.964100  1.0  0.1013
  H  H54  1  0.873500  0.176300  0.954100  1.0  0.1197
  H  H55  1  0.070900  0.161500  0.947700  1.0  0.1091
  H  H56  1  0.149000  0.225400  0.962300  1.0  0.1165
  H  H57  1  0.130700  0.325200  0.966800  1.0  0.0997
  H  H58  1  0.035500  0.360600  0.958100  1.0  0.1225
  H  H59  1  0.829900  0.594100  0.544100  1.0  0.112
  H  H60  1  0.881000  0.582100  0.630900  1.0  0.1049
  H  H61  1  0.833000  0.591600  0.719800  1.0  0.1045
  H  H62  1  0.733900  0.613300  0.721900  1.0  0.1027
  H  H63  1  0.763900  0.606400  0.453400  1.0  0.1396
  H  H64  1  0.666900  0.610800  0.405600  1.0  0.1173
  H  H65  1  0.551200  0.622900  0.508800  1.0  0.1032
  H  H66  1  0.561100  0.614300  0.440800  1.0  0.1009
  H  H67  1  0.645200  0.724500  0.464100  1.0  0.1016
  H  H68  1  0.626500  0.823700  0.454100  1.0  0.12
  H  H69  1  0.429100  0.838500  0.447700  1.0  0.1085
  H  H70  1  0.351000  0.774600  0.462300  1.0  0.1155
  H  H71  1  0.369300  0.674800  0.466800  1.0  0.1002
  H  H72  1  0.464500  0.639400  0.458100  1.0  0.1225
  H  H73  1  0.455900  0.329900  0.905900  1.0  0.111
  H  H74  1  0.369100  0.381000  0.917900  1.0  0.1046
  H  H75  1  0.280200  0.333000  0.908400  1.0  0.1044
  H  H76  1  0.278100  0.233900  0.886700  1.0  0.1017
  H  H77  1  0.546600  0.263900  0.893600  1.0  0.1417
  H  H78  1  0.594400  0.166900  0.889200  1.0  0.1195
  H  H79  1  0.491200  0.051200  0.877100  1.0  0.1031
  H  H80  1  0.559200  0.061100  0.885700  1.0  0.103
  H  H81  1  0.535900  0.145200  0.775500  1.0  0.1017
  H  H82  1  0.545900  0.126500  0.676300  1.0  0.1185
  H  H83  1  0.552300  0.929100  0.661500  1.0  0.1072
  H  H84  1  0.537700  0.851000  0.725400  1.0  0.1171
  H  H85  1  0.533200  0.869300  0.825200  1.0  0.101
  H  H86  1  0.541900  0.964500  0.860600  1.0  0.1199
  H  H87  1  0.955900  0.170100  0.094100  1.0  0.1107
  H  H88  1  0.869100  0.119000  0.082100  1.0  0.1043
  H  H89  1  0.780200  0.167000  0.091600  1.0  0.1046
  H  H90  1  0.778100  0.266100  0.113300  1.0  0.1017
  H  H91  1  0.046600  0.236100  0.106400  1.0  0.1423
  H  H92  1  0.094400  0.333100  0.110800  1.0  0.1192
  H  H93  1  0.991200  0.448800  0.122900  1.0  0.1041
  H  H94  1  0.059200  0.438900  0.114300  1.0  0.1017
  H  H95  1  0.035900  0.354800  0.224500  1.0  0.102
  H  H96  1  0.045900  0.373500  0.323700  1.0  0.1188
  H  H97  1  0.052300  0.570900  0.338500  1.0  0.1069
  H  H98  1  0.037700  0.649000  0.274600  1.0  0.1178
  H  H99  1  0.033200  0.630700  0.174800  1.0  0.0999
  H  H100  1  0.041900  0.535500  0.139400  1.0  0.1192
  H  H101  1  0.044100  0.670100  0.405900  1.0  0.1098
  H  H102  1  0.130900  0.619000  0.417900  1.0  0.1045
  H  H103  1  0.219800  0.667000  0.408400  1.0  0.1047
  H  H104  1  0.221900  0.766100  0.386700  1.0  0.103
  H  H105  1  0.953400  0.736100  0.393600  1.0  0.1414
  H  H106  1  0.905600  0.833100  0.389200  1.0  0.118
  H  H107  1  0.008800  0.948800  0.377100  1.0  0.1038
  H  H108  1  0.940800  0.938900  0.385700  1.0  0.102
  H  H109  1  0.964100  0.854800  0.275500  1.0  0.102
  H  H110  1  0.954100  0.873500  0.176300  1.0  0.1184
  H  H111  1  0.947700  0.070900  0.161500  1.0  0.1071
  H  H112  1  0.962300  0.149000  0.225400  1.0  0.1173
  H  H113  1  0.966800  0.130700  0.325200  1.0  0.1004
  H  H114  1  0.958100  0.035500  0.360600  1.0  0.1192
  H  H115  1  0.544100  0.829900  0.594100  1.0  0.11
  H  H116  1  0.630900  0.881000  0.582100  1.0  0.1052
  H  H117  1  0.719800  0.833000  0.591600  1.0  0.1046
  H  H118  1  0.721900  0.733900  0.613300  1.0  0.1028
  H  H119  1  0.453400  0.763900  0.606400  1.0  0.1414
  H  H120  1  0.405600  0.666900  0.610800  1.0  0.1185
  H  H121  1  0.508800  0.551200  0.622900  1.0  0.1033
  H  H122  1  0.440800  0.561100  0.614300  1.0  0.1011
  H  H123  1  0.464100  0.645200  0.724500  1.0  0.1019
  H  H124  1  0.454100  0.626500  0.823700  1.0  0.1182
  H  H125  1  0.447700  0.429100  0.838500  1.0  0.1066
  H  H126  1  0.462300  0.351000  0.774600  1.0  0.1168
  H  H127  1  0.466800  0.369300  0.674800  1.0  0.0997
  H  H128  1  0.458100  0.464500  0.639400  1.0  0.1194
  H  H129  1  0.905900  0.455900  0.329900  1.0  0.1095
  H  H130  1  0.917900  0.369100  0.381000  1.0  0.1032
  H  H131  1  0.908400  0.280200  0.333000  1.0  0.1053
  H  H132  1  0.886700  0.278100  0.233900  1.0  0.1026
  H  H133  1  0.893600  0.546600  0.263900  1.0  0.1396
  H  H134  1  0.889200  0.594400  0.166900  1.0  0.1175
  H  H135  1  0.877100  0.491200  0.051200  1.0  0.1036
  H  H136  1  0.885700  0.559200  0.061100  1.0  0.102
  H  H137  1  0.775500  0.535900  0.145200  1.0  0.1017
  H  H138  1  0.676300  0.545900  0.126500  1.0  0.1193
  H  H139  1  0.661500  0.552300  0.929100  1.0  0.1076
  H  H140  1  0.725400  0.537700  0.851000  1.0  0.117
  H  H141  1  0.825200  0.533200  0.869300  1.0  0.1
  H  H142  1  0.860600  0.541900  0.964500  1.0  0.1217
  H  H143  1  0.094100  0.955900  0.170100  1.0  0.1104
  H  H144  1  0.082100  0.869100  0.119000  1.0  0.1031
  H  H145  1  0.091600  0.780200  0.167000  1.0  0.1044
  H  H146  1  0.113300  0.778100  0.266100  1.0  0.1026
  H  H147  1  0.106400  0.046600  0.236100  1.0  0.141
  H  H148  1  0.110800  0.094400  0.333100  1.0  0.1177
  H  H149  1  0.122900  0.991200  0.448800  1.0  0.1035
  H  H150  1  0.114300  0.059200  0.438900  1.0  0.1029
  H  H151  1  0.224500  0.035900  0.354800  1.0  0.1015
  H  H152  1  0.323700  0.045900  0.373500  1.0  0.1195
  H  H153  1  0.338500  0.052300  0.570900  1.0  0.1088
  H  H154  1  0.274600  0.037700  0.649000  1.0  0.1168
  H  H155  1  0.174800  0.033200  0.630700  1.0  0.1013
  H  H156  1  0.139400  0.041900  0.535500  1.0  0.1216
  H  H157  1  0.405900  0.044100  0.670100  1.0  0.1101
  H  H158  1  0.417900  0.130900  0.619000  1.0  0.1032
  H  H159  1  0.408400  0.219800  0.667000  1.0  0.105
  H  H160  1  0.386700  0.221900  0.766100  1.0  0.1027
  H  H161  1  0.393600  0.953400  0.736100  1.0  0.1401
  H  H162  1  0.389200  0.905600  0.833100  1.0  0.1185
  H  H163  1  0.377100  0.008800  0.948800  1.0  0.1026
  H  H164  1  0.385700  0.940800  0.938900  1.0  0.1031
  H  H165  1  0.275500  0.964100  0.854800  1.0  0.1011
  H  H166  1  0.176300  0.954100  0.873500  1.0  0.119
  H  H167  1  0.161500  0.947700  0.070900  1.0  0.1082
  H  H168  1  0.225400  0.962300  0.149000  1.0  0.1169
  H  H169  1  0.325200  0.966800  0.130700  1.0  0.1012
  H  H170  1  0.360600  0.958100  0.035500  1.0  0.1218
  H  H171  1  0.594100  0.544100  0.829900  1.0  0.1103
  H  H172  1  0.582100  0.630900  0.881000  1.0  0.1039
  H  H173  1  0.591600  0.719800  0.833000  1.0  0.105
  H  H174  1  0.613300  0.721900  0.733900  1.0  0.1023
  H  H175  1  0.606400  0.453400  0.763900  1.0  0.1397
  H  H176  1  0.610800  0.405600  0.666900  1.0  0.1185
  H  H177  1  0.622900  0.508800  0.551200  1.0  0.1043
  H  H178  1  0.614300  0.440800  0.561100  1.0  0.1023
  H  H179  1  0.724500  0.464100  0.645200  1.0  0.1013
  H  H180  1  0.823700  0.454100  0.626500  1.0  0.1188
  H  H181  1  0.838500  0.447700  0.429100  1.0  0.1084
  H  H182  1  0.774600  0.462300  0.351000  1.0  0.1174
  H  H183  1  0.674800  0.466800  0.369300  1.0  0.1001
  H  H184  1  0.639400  0.458100  0.464500  1.0  0.1214
  H  H185  1  0.842500  0.941000  0.730700  1.0  0.1128
  H  H186  1  0.834700  0.885900  0.645800  1.0  0.108
  H  H187  1  0.838300  0.931700  0.555200  1.0  0.1035
  H  H188  1  0.849500  0.032400  0.549600  1.0  0.1
  H  H189  1  0.839500  0.009400  0.815200  1.0  0.1216
  H  H190  1  0.839600  0.102300  0.865000  1.0  0.1132
  H  H191  1  0.846600  0.218400  0.823400  1.0  0.1183
  H  H192  1  0.854600  0.223400  0.754700  1.0  0.1214
  H  H193  1  0.957000  0.127700  0.792100  1.0  0.1057
  H  H194  1  0.057200  0.142900  0.797600  1.0  0.1034
  H  H195  1  0.078900  0.338800  0.815400  1.0  0.1058
  H  H196  1  0.016400  0.419500  0.812900  1.0  0.1134
  H  H197  1  0.916500  0.402900  0.825100  1.0  0.1049
  H  H198  1  0.878100  0.311200  0.804400  1.0  0.1196
  H  H199  1  0.657500  0.059000  0.230700  1.0  0.1136
  H  H200  1  0.665300  0.114100  0.145800  1.0  0.1077
  H  H201  1  0.661700  0.068300  0.055200  1.0  0.1027
  H  H202  1  0.650500  0.967600  0.049600  1.0  0.1001
  H  H203  1  0.660500  0.990600  0.315200  1.0  0.1223
  H  H204  1  0.660400  0.897700  0.365000  1.0  0.1129
  H  H205  1  0.653400  0.781600  0.323400  1.0  0.117
  H  H206  1  0.645400  0.776600  0.254700  1.0  0.1201
  H  H207  1  0.543000  0.872300  0.292100  1.0  0.1059
  H  H208  1  0.442800  0.857100  0.297600  1.0  0.104
  H  H209  1  0.421100  0.661200  0.315400  1.0  0.105
  H  H210  1  0.483600  0.580500  0.312900  1.0  0.1126
  H  H211  1  0.583500  0.597100  0.325100  1.0  0.1055
  H  H212  1  0.621900  0.688800  0.304400  1.0  0.1191
  H  H213  1  0.157500  0.441000  0.769300  1.0  0.1136
  H  H214  1  0.165300  0.385900  0.854200  1.0  0.1086
  H  H215  1  0.161700  0.431700  0.944800  1.0  0.104
  H  H216  1  0.150500  0.532400  0.950400  1.0  0.0994
  H  H217  1  0.160500  0.509400  0.684800  1.0  0.1212
  H  H218  1  0.160400  0.602300  0.635000  1.0  0.1143
  H  H219  1  0.153400  0.718400  0.676600  1.0  0.1175
  H  H220  1  0.145400  0.723400  0.745300  1.0  0.1212
  H  H221  1  0.043000  0.627700  0.707900  1.0  0.1058
  H  H222  1  0.942800  0.642900  0.702400  1.0  0.1033
  H  H223  1  0.921100  0.838800  0.684600  1.0  0.1052
  H  H224  1  0.983600  0.919500  0.687100  1.0  0.1138
  H  H225  1  0.083500  0.902900  0.674900  1.0  0.1044
  H  H226  1  0.121900  0.811200  0.695600  1.0  0.119
  H  H227  1  0.342500  0.559000  0.269300  1.0  0.114
  H  H228  1  0.334700  0.614100  0.354200  1.0  0.1073
  H  H229  1  0.338300  0.568300  0.444800  1.0  0.104
  H  H230  1  0.349500  0.467600  0.450400  1.0  0.0993
  H  H231  1  0.339500  0.490600  0.184800  1.0  0.1218
  H  H232  1  0.339600  0.397700  0.135000  1.0  0.114
  H  H233  1  0.346600  0.281600  0.176600  1.0  0.1179
  H  H234  1  0.354600  0.276600  0.245300  1.0  0.122
  H  H235  1  0.457000  0.372300  0.207900  1.0  0.1063
  H  H236  1  0.557200  0.357100  0.202400  1.0  0.1041
  H  H237  1  0.578900  0.161200  0.184600  1.0  0.1057
  H  H238  1  0.516400  0.080500  0.187100  1.0  0.1132
  H  H239  1  0.416500  0.097100  0.174900  1.0  0.1054
  H  H240  1  0.378100  0.188800  0.195600  1.0  0.1194
  H  H241  1  0.730700  0.842500  0.941000  1.0  0.1132
  H  H242  1  0.645800  0.834700  0.885900  1.0  0.1066
  H  H243  1  0.555200  0.838300  0.931700  1.0  0.1041
  H  H244  1  0.549600  0.849500  0.032400  1.0  0.0982
  H  H245  1  0.815200  0.839500  0.009400  1.0  0.1219
  H  H246  1  0.865000  0.839600  0.102300  1.0  0.1142
  H  H247  1  0.823400  0.846600  0.218400  1.0  0.1169
  H  H248  1  0.754700  0.854600  0.223400  1.0  0.117
  H  H249  1  0.792100  0.957000  0.127700  1.0  0.108
  H  H250  1  0.797600  0.057200  0.142900  1.0  0.1036
  H  H251  1  0.815400  0.078900  0.338800  1.0  0.1053
  H  H252  1  0.812900  0.016400  0.419500  1.0  0.1116
  H  H253  1  0.825100  0.916500  0.402900  1.0  0.104
  H  H254  1  0.804400  0.878100  0.311200  1.0  0.1206
  H  H255  1  0.230700  0.657500  0.059000  1.0  0.1131
  H  H256  1  0.145800  0.665300  0.114100  1.0  0.1057
  H  H257  1  0.055200  0.661700  0.068300  1.0  0.1042
  H  H258  1  0.049600  0.650500  0.967600  1.0  0.0981
  H  H259  1  0.315200  0.660500  0.990600  1.0  0.1206
  H  H260  1  0.365000  0.660400  0.897700  1.0  0.114
  H  H261  1  0.323400  0.653400  0.781600  1.0  0.1168
  H  H262  1  0.254700  0.645400  0.776600  1.0  0.1185
  H  H263  1  0.292100  0.543000  0.872300  1.0  0.1056
  H  H264  1  0.297600  0.442800  0.857100  1.0  0.1041
  H  H265  1  0.315400  0.421100  0.661200  1.0  0.1044
  H  H266  1  0.312900  0.483600  0.580500  1.0  0.1108
  H  H267  1  0.325100  0.583500  0.597100  1.0  0.1025
  H  H268  1  0.304400  0.621900  0.688800  1.0  0.1205
  H  H269  1  0.769300  0.157500  0.441000  1.0  0.1109
  H  H270  1  0.854200  0.165300  0.385900  1.0  0.1067
  H  H271  1  0.944800  0.161700  0.431700  1.0  0.1041
  H  H272  1  0.950400  0.150500  0.532400  1.0  0.0991
  H  H273  1  0.684800  0.160500  0.509400  1.0  0.1221
  H  H274  1  0.635000  0.160400  0.602300  1.0  0.1149
  H  H275  1  0.676600  0.153400  0.718400  1.0  0.1173
  H  H276  1  0.745300  0.145400  0.723400  1.0  0.118
  H  H277  1  0.707900  0.043000  0.627700  1.0  0.1069
  H  H278  1  0.702400  0.942800  0.642900  1.0  0.1034
  H  H279  1  0.684600  0.921100  0.838800  1.0  0.1051
  H  H280  1  0.687100  0.983600  0.919500  1.0  0.1114
  H  H281  1  0.674900  0.083500  0.902900  1.0  0.104
  H  H282  1  0.695600  0.121900  0.811200  1.0  0.1198
  H  H283  1  0.269300  0.342500  0.559000  1.0  0.1115
  H  H284  1  0.354200  0.334700  0.614100  1.0  0.1059
  H  H285  1  0.444800  0.338300  0.568300  1.0  0.1042
  H  H286  1  0.450400  0.349500  0.467600  1.0  0.0989
  H  H287  1  0.184800  0.339500  0.490600  1.0  0.122
  H  H288  1  0.135000  0.339600  0.397700  1.0  0.1147
  H  H289  1  0.176600  0.346600  0.281600  1.0  0.1179
  H  H290  1  0.245300  0.354600  0.276600  1.0  0.1178
  H  H291  1  0.207900  0.457000  0.372300  1.0  0.1061
  H  H292  1  0.202400  0.557200  0.357100  1.0  0.1037
  H  H293  1  0.184600  0.578900  0.161200  1.0  0.1057
  H  H294  1  0.187100  0.516400  0.080500  1.0  0.1117
  H  H295  1  0.174900  0.416500  0.097100  1.0  0.1033
  H  H296  1  0.195600  0.378100  0.188800  1.0  0.1202
  H  H297  1  0.941000  0.730700  0.842500  1.0  0.1136
  H  H298  1  0.885900  0.645800  0.834700  1.0  0.1071
  H  H299  1  0.931700  0.555200  0.838300  1.0  0.1042
  H  H300  1  0.032400  0.549600  0.849500  1.0  0.1001
  H  H301  1  0.009400  0.815200  0.839500  1.0  0.1228
  H  H302  1  0.102300  0.865000  0.839600  1.0  0.1143
  H  H303  1  0.218400  0.823400  0.846600  1.0  0.1168
  H  H304  1  0.223400  0.754700  0.854600  1.0  0.1171
  H  H305  1  0.127700  0.792100  0.957000  1.0  0.1071
  H  H306  1  0.142900  0.797600  0.057200  1.0  0.1044
  H  H307  1  0.338800  0.815400  0.078900  1.0  0.1053
  H  H308  1  0.419500  0.812900  0.016400  1.0  0.1132
  H  H309  1  0.402900  0.825100  0.916500  1.0  0.103
  H  H310  1  0.311200  0.804400  0.878100  1.0  0.1192
  H  H311  1  0.059000  0.230700  0.657500  1.0  0.1141
  H  H312  1  0.114100  0.145800  0.665300  1.0  0.1075
  H  H313  1  0.068300  0.055200  0.661700  1.0  0.1045
  H  H314  1  0.967600  0.049600  0.650500  1.0  0.0998
  H  H315  1  0.990600  0.315200  0.660500  1.0  0.1232
  H  H316  1  0.897700  0.365000  0.660400  1.0  0.1145
  H  H317  1  0.781600  0.323400  0.653400  1.0  0.1161
  H  H318  1  0.776600  0.254700  0.645400  1.0  0.117
  H  H319  1  0.872300  0.292100  0.543000  1.0  0.107
  H  H320  1  0.857100  0.297600  0.442800  1.0  0.1044
  H  H321  1  0.661200  0.315400  0.421100  1.0  0.1048
  H  H322  1  0.580500  0.312900  0.483600  1.0  0.1119
  H  H323  1  0.597100  0.325100  0.583500  1.0  0.1034
  H  H324  1  0.688800  0.304400  0.621900  1.0  0.12
  H  H325  1  0.441000  0.769300  0.157500  1.0  0.1121
  H  H326  1  0.385900  0.854200  0.165300  1.0  0.1069
  H  H327  1  0.431700  0.944800  0.161700  1.0  0.1043
  H  H328  1  0.532400  0.950400  0.150500  1.0  0.1
  H  H329  1  0.509400  0.684800  0.160500  1.0  0.1233
  H  H330  1  0.602300  0.635000  0.160400  1.0  0.1155
  H  H331  1  0.718400  0.676600  0.153400  1.0  0.1165
  H  H332  1  0.723400  0.745300  0.145400  1.0  0.1162
  H  H333  1  0.627700  0.707900  0.043000  1.0  0.107
  H  H334  1  0.642900  0.702400  0.942800  1.0  0.1045
  H  H335  1  0.838800  0.684600  0.921100  1.0  0.1058
  H  H336  1  0.919500  0.687100  0.983600  1.0  0.1132
  H  H337  1  0.902900  0.674900  0.083500  1.0  0.1034
  H  H338  1  0.811200  0.695600  0.121900  1.0  0.1196
  H  H339  1  0.559000  0.269300  0.342500  1.0  0.1125
  H  H340  1  0.614100  0.354200  0.334700  1.0  0.1081
  H  H341  1  0.568300  0.444800  0.338300  1.0  0.1038
  H  H342  1  0.467600  0.450400  0.349500  1.0  0.0998
  H  H343  1  0.490600  0.184800  0.339500  1.0  0.1227
  H  H344  1  0.397700  0.135000  0.339600  1.0  0.1159
  H  H345  1  0.281600  0.176600  0.346600  1.0  0.1163
  H  H346  1  0.276600  0.245300  0.354600  1.0  0.1169
  H  H347  1  0.372300  0.207900  0.457000  1.0  0.1068
  H  H348  1  0.357100  0.202400  0.557200  1.0  0.1045
  H  H349  1  0.161200  0.184600  0.578900  1.0  0.1055
  H  H350  1  0.080500  0.187100  0.516400  1.0  0.1121
  H  H351  1  0.097100  0.174900  0.416500  1.0  0.1032
  H  H352  1  0.188800  0.195600  0.378100  1.0  0.119
  C  C353  1  0.251500  0.889200  0.418600  1.0  0.144
  C  C354  1  0.310400  0.902000  0.419800  1.0  -0.1109
  C  C355  1  0.340800  0.909200  0.368300  1.0  -0.0893
  C  C356  1  0.312300  0.903500  0.315400  1.0  -0.0936
  C  C357  1  0.253400  0.890600  0.314200  1.0  0.154
  C  C358  1  0.214400  0.886400  0.469000  1.0  0.0965
  C  C359  1  0.227100  0.889600  0.528500  1.0  -0.1041
  C  C360  1  0.174100  0.885800  0.553900  1.0  1e-04
  C  C361  1  0.074100  0.863400  0.524900  1.0  -0.1668
  C  C362  1  0.060600  0.801100  0.534700  1.0  0.0533
  C  C363  1  0.106300  0.762000  0.537800  1.0  -0.0966
  C  C364  1  0.095200  0.703000  0.543800  1.0  -0.1547
  C  C365  1  0.038300  0.683200  0.546600  1.0  -0.0844
  C  C366  1  0.992600  0.722300  0.543500  1.0  0.0042
  C  C367  1  0.003700  0.781300  0.537500  1.0  -0.0016
  C  C368  1  0.936000  0.701600  0.546200  1.0  -0.1338
  C  C369  1  0.889600  0.739600  0.539900  1.0  -0.0883
  C  C370  1  0.900700  0.798800  0.536900  1.0  -0.1047
  C  C371  1  0.957600  0.820100  0.539200  1.0  -0.2262
  C  C372  1  0.032600  0.620200  0.552900  1.0  0.2647
  C  C373  1  0.248500  0.110800  0.918600  1.0  0.1445
  C  C374  1  0.189600  0.098000  0.919800  1.0  -0.1101
  C  C375  1  0.159200  0.090800  0.868300  1.0  -0.0901
  C  C376  1  0.187700  0.096500  0.815400  1.0  -0.0916
  C  C377  1  0.246600  0.109400  0.814200  1.0  0.1549
  C  C378  1  0.285600  0.113600  0.969000  1.0  0.0956
  C  C379  1  0.272900  0.110400  0.028500  1.0  -0.1046
  C  C380  1  0.325900  0.114200  0.053900  1.0  -0.0017
  C  C381  1  0.425900  0.136600  0.024900  1.0  -0.1692
  C  C382  1  0.439400  0.198900  0.034700  1.0  0.0526
  C  C383  1  0.393700  0.238000  0.037800  1.0  -0.0967
  C  C384  1  0.404800  0.297000  0.043800  1.0  -0.1559
  C  C385  1  0.461700  0.316800  0.046600  1.0  -0.0832
  C  C386  1  0.507400  0.277700  0.043500  1.0  0.0055
  C  C387  1  0.496300  0.218700  0.037500  1.0  -0.0003
  C  C388  1  0.564000  0.298400  0.046200  1.0  -0.1307
  C  C389  1  0.610400  0.260400  0.039900  1.0  -0.0882
  C  C390  1  0.599300  0.201200  0.036900  1.0  -0.1044
  C  C391  1  0.542400  0.179900  0.039200  1.0  -0.2253
  C  C392  1  0.467400  0.379800  0.052900  1.0  0.2634
  C  C393  1  0.748500  0.389200  0.081400  1.0  0.1441
  C  C394  1  0.689600  0.402000  0.080200  1.0  -0.1092
  C  C395  1  0.659200  0.409200  0.131700  1.0  -0.0902
  C  C396  1  0.687700  0.403500  0.184600  1.0  -0.0927
  C  C397  1  0.746600  0.390600  0.185800  1.0  0.1525
  C  C398  1  0.785600  0.386400  0.031000  1.0  0.0956
  C  C399  1  0.772900  0.389600  0.971500  1.0  -0.1055
  C  C400  1  0.825900  0.385800  0.946100  1.0  -0.0028
  C  C401  1  0.925900  0.363400  0.975100  1.0  -0.1674
  C  C402  1  0.939400  0.301100  0.965300  1.0  0.0525
  C  C403  1  0.893700  0.262000  0.962200  1.0  -0.0967
  C  C404  1  0.904800  0.203000  0.956200  1.0  -0.1546
  C  C405  1  0.961700  0.183200  0.953400  1.0  -0.0844
  C  C406  1  0.007400  0.222300  0.956500  1.0  0.0047
  C  C407  1  0.996300  0.281300  0.962500  1.0  -0.0005
  C  C408  1  0.064000  0.201600  0.953800  1.0  -0.1327
  C  C409  1  0.110400  0.239600  0.960100  1.0  -0.0892
  C  C410  1  0.099300  0.298800  0.963100  1.0  -0.103
  C  C411  1  0.042400  0.320100  0.960800  1.0  -0.2261
  C  C412  1  0.967400  0.120200  0.947100  1.0  0.2639
  C  C413  1  0.751500  0.610800  0.581400  1.0  0.1451
  C  C414  1  0.810400  0.598000  0.580200  1.0  -0.111
  C  C415  1  0.840800  0.590800  0.631700  1.0  -0.0883
  C  C416  1  0.812300  0.596500  0.684600  1.0  -0.0926
  C  C417  1  0.753400  0.609400  0.685800  1.0  0.1518
  C  C418  1  0.714400  0.613600  0.531000  1.0  0.0951
  C  C419  1  0.727100  0.610400  0.471500  1.0  -0.104
  C  C420  1  0.674100  0.614200  0.446100  1.0  -0.0002
  C  C421  1  0.574100  0.636600  0.475100  1.0  -0.1694
  C  C422  1  0.560600  0.698900  0.465300  1.0  0.0538
  C  C423  1  0.606300  0.738000  0.462200  1.0  -0.0957
  C  C424  1  0.595200  0.797000  0.456200  1.0  -0.1564
  C  C425  1  0.538300  0.816800  0.453400  1.0  -0.0826
  C  C426  1  0.492600  0.777700  0.456500  1.0  0.0054
  C  C427  1  0.503700  0.718700  0.462500  1.0  -0.0013
  C  C428  1  0.436000  0.798400  0.453800  1.0  -0.131
  C  C429  1  0.389600  0.760400  0.460100  1.0  -0.0889
  C  C430  1  0.400700  0.701200  0.463100  1.0  -0.1043
  C  C431  1  0.457600  0.679900  0.460800  1.0  -0.2262
  C  C432  1  0.532600  0.879800  0.447100  1.0  0.2631
  C  C433  1  0.418600  0.251500  0.889200  1.0  0.1439
  C  C434  1  0.419800  0.310400  0.902000  1.0  -0.1113
  C  C435  1  0.368300  0.340800  0.909200  1.0  -0.0861
  C  C436  1  0.315400  0.312300  0.903500  1.0  -0.0896
  C  C437  1  0.314200  0.253400  0.890600  1.0  0.1549
  C  C438  1  0.469000  0.214400  0.886400  1.0  0.0981
  C  C439  1  0.528500  0.227100  0.889600  1.0  -0.1059
  C  C440  1  0.553900  0.174100  0.885800  1.0  -0.0066
  C  C441  1  0.524900  0.074100  0.863400  1.0  -0.1685
  C  C442  1  0.534700  0.060600  0.801100  1.0  0.0549
  C  C443  1  0.537800  0.106300  0.762000  1.0  -0.0985
  C  C444  1  0.543800  0.095200  0.703000  1.0  -0.1541
  C  C445  1  0.546600  0.038300  0.683200  1.0  -0.0849
  C  C446  1  0.543500  0.992600  0.722300  1.0  0.003
  C  C447  1  0.537500  0.003700  0.781300  1.0  1e-04
  C  C448  1  0.546200  0.936000  0.701600  1.0  -0.1259
  C  C449  1  0.539900  0.889600  0.739600  1.0  -0.0899
  C  C450  1  0.536900  0.900700  0.798800  1.0  -0.1021
  C  C451  1  0.539200  0.957600  0.820100  1.0  -0.2295
  C  C452  1  0.552900  0.032600  0.620200  1.0  0.2627
  C  C453  1  0.918600  0.248500  0.110800  1.0  0.1446
  C  C454  1  0.919800  0.189600  0.098000  1.0  -0.1114
  C  C455  1  0.868300  0.159200  0.090800  1.0  -0.0846
  C  C456  1  0.815400  0.187700  0.096500  1.0  -0.09
  C  C457  1  0.814200  0.246600  0.109400  1.0  0.1548
  C  C458  1  0.969000  0.285600  0.113600  1.0  0.0981
  C  C459  1  0.028500  0.272900  0.110400  1.0  -0.107
  C  C460  1  0.053900  0.325900  0.114200  1.0  -0.0071
  C  C461  1  0.024900  0.425900  0.136600  1.0  -0.1726
  C  C462  1  0.034700  0.439400  0.198900  1.0  0.0541
  C  C463  1  0.037800  0.393700  0.238000  1.0  -0.0966
  C  C464  1  0.043800  0.404800  0.297000  1.0  -0.1536
  C  C465  1  0.046600  0.461700  0.316800  1.0  -0.0855
  C  C466  1  0.043500  0.507400  0.277700  1.0  0.0021
  C  C467  1  0.037500  0.496300  0.218700  1.0  -0.0003
  C  C468  1  0.046200  0.564000  0.298400  1.0  -0.1284
  C  C469  1  0.039900  0.610400  0.260400  1.0  -0.0859
  C  C470  1  0.036900  0.599300  0.201200  1.0  -0.0983
  C  C471  1  0.039200  0.542400  0.179900  1.0  -0.2254
  C  C472  1  0.052900  0.467400  0.379800  1.0  0.2641
  C  C473  1  0.081400  0.748500  0.389200  1.0  0.144
  C  C474  1  0.080200  0.689600  0.402000  1.0  -0.1102
  C  C475  1  0.131700  0.659200  0.409200  1.0  -0.0842
  C  C476  1  0.184600  0.687700  0.403500  1.0  -0.0899
  C  C477  1  0.185800  0.746600  0.390600  1.0  0.1543
  C  C478  1  0.031000  0.785600  0.386400  1.0  0.0995
  C  C479  1  0.971500  0.772900  0.389600  1.0  -0.1098
  C  C480  1  0.946100  0.825900  0.385800  1.0  -0.006
  C  C481  1  0.975100  0.925900  0.363400  1.0  -0.1691
  C  C482  1  0.965300  0.939400  0.301100  1.0  0.0536
  C  C483  1  0.962200  0.893700  0.262000  1.0  -0.098
  C  C484  1  0.956200  0.904800  0.203000  1.0  -0.1536
  C  C485  1  0.953400  0.961700  0.183200  1.0  -0.0843
  C  C486  1  0.956500  0.007400  0.222300  1.0  0.004
  C  C487  1  0.962500  0.996300  0.281300  1.0  0.0005
  C  C488  1  0.953800  0.064000  0.201600  1.0  -0.1268
  C  C489  1  0.960100  0.110400  0.239600  1.0  -0.085
  C  C490  1  0.963100  0.099300  0.298800  1.0  -0.0976
  C  C491  1  0.960800  0.042400  0.320100  1.0  -0.2278
  C  C492  1  0.947100  0.967400  0.120200  1.0  0.263
  C  C493  1  0.581400  0.751500  0.610800  1.0  0.1446
  C  C494  1  0.580200  0.810400  0.598000  1.0  -0.1099
  C  C495  1  0.631700  0.840800  0.590800  1.0  -0.0855
  C  C496  1  0.684600  0.812300  0.596500  1.0  -0.0904
  C  C497  1  0.685800  0.753400  0.609400  1.0  0.1545
  C  C498  1  0.531000  0.714400  0.613600  1.0  0.0978
  C  C499  1  0.471500  0.727100  0.610400  1.0  -0.1075
  C  C500  1  0.446100  0.674100  0.614200  1.0  -0.0072
  C  C501  1  0.475100  0.574100  0.636600  1.0  -0.1701
  C  C502  1  0.465300  0.560600  0.698900  1.0  0.0531
  C  C503  1  0.462200  0.606300  0.738000  1.0  -0.0976
  C  C504  1  0.456200  0.595200  0.797000  1.0  -0.1542
  C  C505  1  0.453400  0.538300  0.816800  1.0  -0.0846
  C  C506  1  0.456500  0.492600  0.777700  1.0  0.0021
  C  C507  1  0.462500  0.503700  0.718700  1.0  0.0005
  C  C508  1  0.453800  0.436000  0.798400  1.0  -0.1282
  C  C509  1  0.460100  0.389600  0.760400  1.0  -0.0884
  C  C510  1  0.463100  0.400700  0.701200  1.0  -0.102
  C  C511  1  0.460800  0.457600  0.679900  1.0  -0.2263
  C  C512  1  0.447100  0.532600  0.879800  1.0  0.264
  C  C513  1  0.889200  0.418600  0.251500  1.0  0.1447
  C  C514  1  0.902000  0.419800  0.310400  1.0  -0.1083
  C  C515  1  0.909200  0.368300  0.340800  1.0  -0.0907
  C  C516  1  0.903500  0.315400  0.312300  1.0  -0.0896
  C  C517  1  0.890600  0.314200  0.253400  1.0  0.1556
  C  C518  1  0.886400  0.469000  0.214400  1.0  0.0949
  C  C519  1  0.889600  0.528500  0.227100  1.0  -0.1013
  C  C520  1  0.885800  0.553900  0.174100  1.0  -0.0064
  C  C521  1  0.863400  0.524900  0.074100  1.0  -0.1685
  C  C522  1  0.801100  0.534700  0.060600  1.0  0.0514
  C  C523  1  0.762000  0.537800  0.106300  1.0  -0.1022
  C  C524  1  0.703000  0.543800  0.095200  1.0  -0.1537
  C  C525  1  0.683200  0.546600  0.038300  1.0  -0.0851
  C  C526  1  0.722300  0.543500  0.992600  1.0  0.0043
  C  C527  1  0.781300  0.537500  0.003700  1.0  0.0002
  C  C528  1  0.701600  0.546200  0.936000  1.0  -0.1292
  C  C529  1  0.739600  0.539900  0.889600  1.0  -0.0864
  C  C530  1  0.798800  0.536900  0.900700  1.0  -0.1021
  C  C531  1  0.820100  0.539200  0.957600  1.0  -0.2286
  C  C532  1  0.620200  0.552900  0.032600  1.0  0.264
  C  C533  1  0.110800  0.918600  0.248500  1.0  0.1459
  C  C534  1  0.098000  0.919800  0.189600  1.0  -0.1092
  C  C535  1  0.090800  0.868300  0.159200  1.0  -0.0896
  C  C536  1  0.096500  0.815400  0.187700  1.0  -0.0888
  C  C537  1  0.109400  0.814200  0.246600  1.0  0.1568
  C  C538  1  0.113600  0.969000  0.285600  1.0  0.0949
  C  C539  1  0.110400  0.028500  0.272900  1.0  -0.1001
  C  C540  1  0.114200  0.053900  0.325900  1.0  -0.0057
  C  C541  1  0.136600  0.024900  0.425900  1.0  -0.1688
  C  C542  1  0.198900  0.034700  0.439400  1.0  0.0515
  C  C543  1  0.238000  0.037800  0.393700  1.0  -0.1035
  C  C544  1  0.297000  0.043800  0.404800  1.0  -0.1534
  C  C545  1  0.316800  0.046600  0.461700  1.0  -0.0835
  C  C546  1  0.277700  0.043500  0.507400  1.0  0.005
  C  C547  1  0.218700  0.037500  0.496300  1.0  0.0016
  C  C548  1  0.298400  0.046200  0.564000  1.0  -0.1307
  C  C549  1  0.260400  0.039900  0.610400  1.0  -0.0867
  C  C550  1  0.201200  0.036900  0.599300  1.0  -0.1037
  C  C551  1  0.179900  0.039200  0.542400  1.0  -0.2301
  C  C552  1  0.379800  0.052900  0.467400  1.0  0.265
  C  C553  1  0.389200  0.081400  0.748500  1.0  0.1455
  C  C554  1  0.402000  0.080200  0.689600  1.0  -0.1085
  C  C555  1  0.409200  0.131700  0.659200  1.0  -0.0897
  C  C556  1  0.403500  0.184600  0.687700  1.0  -0.0878
  C  C557  1  0.390600  0.185800  0.746600  1.0  0.1572
  C  C558  1  0.386400  0.031000  0.785600  1.0  0.0953
  C  C559  1  0.389600  0.971500  0.772900  1.0  -0.1027
  C  C560  1  0.385800  0.946100  0.825900  1.0  -0.0057
  C  C561  1  0.363400  0.975100  0.925900  1.0  -0.1678
  C  C562  1  0.301100  0.965300  0.939400  1.0  0.0516
  C  C563  1  0.262000  0.962200  0.893700  1.0  -0.1032
  C  C564  1  0.203000  0.956200  0.904800  1.0  -0.1544
  C  C565  1  0.183200  0.953400  0.961700  1.0  -0.0853
  C  C566  1  0.222300  0.956500  0.007400  1.0  0.0051
  C  C567  1  0.281300  0.962500  0.996300  1.0  0.0014
  C  C568  1  0.201600  0.953800  0.064000  1.0  -0.1292
  C  C569  1  0.239600  0.960100  0.110400  1.0  -0.0881
  C  C570  1  0.298800  0.963100  0.099300  1.0  -0.1025
  C  C571  1  0.320100  0.960800  0.042400  1.0  -0.2289
  C  C572  1  0.120200  0.947100  0.967400  1.0  0.264
  C  C573  1  0.610800  0.581400  0.751500  1.0  0.145
  C  C574  1  0.598000  0.580200  0.810400  1.0  -0.1089
  C  C575  1  0.590800  0.631700  0.840800  1.0  -0.0927
  C  C576  1  0.596500  0.684600  0.812300  1.0  -0.0882
  C  C577  1  0.609400  0.685800  0.753400  1.0  0.1564
  C  C578  1  0.613600  0.531000  0.714400  1.0  0.0957
  C  C579  1  0.610400  0.471500  0.727100  1.0  -0.1019
  C  C580  1  0.614200  0.446100  0.674100  1.0  -0.0069
  C  C581  1  0.636600  0.475100  0.574100  1.0  -0.1683
  C  C582  1  0.698900  0.465300  0.560600  1.0  0.0512
  C  C583  1  0.738000  0.462200  0.606300  1.0  -0.1027
  C  C584  1  0.797000  0.456200  0.595200  1.0  -0.153
  C  C585  1  0.816800  0.453400  0.538300  1.0  -0.0835
  C  C586  1  0.777700  0.456500  0.492600  1.0  0.0054
  C  C587  1  0.718700  0.462500  0.503700  1.0  0.0006
  C  C588  1  0.798400  0.453800  0.436000  1.0  -0.1298
  C  C589  1  0.760400  0.460100  0.389600  1.0  -0.0859
  C  C590  1  0.701200  0.463100  0.400700  1.0  -0.1021
  C  C591  1  0.679900  0.460800  0.457600  1.0  -0.2305
  C  C592  1  0.879800  0.447100  0.532600  1.0  0.2644
  C  C593  1  0.850500  0.019300  0.690600  1.0  0.1552
  C  C594  1  0.843900  0.959500  0.694000  1.0  -0.1329
  C  C595  1  0.839300  0.926800  0.643500  1.0  -0.1134
  C  C596  1  0.841400  0.954000  0.589700  1.0  -0.0931
  C  C597  1  0.848000  0.013800  0.586400  1.0  0.1637
  C  C598  1  0.847600  0.058600  0.739100  1.0  0.1918
  C  C599  1  0.842900  0.046600  0.797800  1.0  -0.1748
  C  C600  1  0.844000  0.096600  0.824400  1.0  -0.0367
  C  C601  1  0.867700  0.202300  0.789700  1.0  -0.1302
  C  C602  1  0.934100  0.212800  0.798200  1.0  -0.023
  C  C603  1  0.971900  0.165900  0.795900  1.0  -0.1063
  C  C604  1  0.031400  0.175000  0.799200  1.0  -0.1384
  C  C605  1  0.053100  0.231000  0.804700  1.0  0.0354
  C  C606  1  0.015300  0.277900  0.807000  1.0  0.0024
  C  C607  1  0.955800  0.268800  0.803800  1.0  0.0241
  C  C608  1  0.038100  0.333400  0.812500  1.0  -0.1226
  C  C609  1  0.001300  0.381200  0.813900  1.0  -0.0976
  C  C610  1  0.941900  0.371500  0.816800  1.0  -0.0888
  C  C611  1  0.918800  0.316300  0.807800  1.0  -0.2106
  C  C612  1  0.113800  0.237700  0.800700  1.0  0.2021
  C  C613  1  0.649500  0.980700  0.190600  1.0  0.1555
  C  C614  1  0.656100  0.040500  0.194000  1.0  -0.1323
  C  C615  1  0.660700  0.073200  0.143500  1.0  -0.112
  C  C616  1  0.658600  0.046000  0.089700  1.0  -0.0941
  C  C617  1  0.652000  0.986200  0.086400  1.0  0.1634
  C  C618  1  0.652400  0.941400  0.239100  1.0  0.1911
  C  C619  1  0.657100  0.953400  0.297800  1.0  -0.1762
  C  C620  1  0.656000  0.903400  0.324400  1.0  -0.036
  C  C621  1  0.632300  0.797700  0.289700  1.0  -0.1298
  C  C622  1  0.565900  0.787200  0.298200  1.0  -0.0228
  C  C623  1  0.528100  0.834100  0.295900  1.0  -0.1048
  C  C624  1  0.468600  0.825000  0.299200  1.0  -0.1362
  C  C625  1  0.446900  0.769000  0.304700  1.0  0.0352
  C  C626  1  0.484700  0.722100  0.307000  1.0  0.0037
  C  C627  1  0.544200  0.731200  0.303800  1.0  0.0237
  C  C628  1  0.461900  0.666667  0.312500  1.0  -0.1245
  C  C629  1  0.498700  0.618800  0.313900  1.0  -0.1005
  C  C630  1  0.558100  0.628500  0.316800  1.0  -0.0915
  C  C631  1  0.581200  0.683700  0.307800  1.0  -0.2101
  C  C632  1  0.386200  0.762300  0.300700  1.0  0.2033
  C  C633  1  0.149500  0.519300  0.809400  1.0  0.155
  C  C634  1  0.156100  0.459500  0.806000  1.0  -0.1326
  C  C635  1  0.160700  0.426800  0.856500  1.0  -0.1133
  C  C636  1  0.158600  0.454000  0.910300  1.0  -0.0944
  C  C637  1  0.152000  0.513800  0.913600  1.0  0.1629
  C  C638  1  0.152400  0.558600  0.760900  1.0  0.1915
  C  C639  1  0.157100  0.546600  0.702200  1.0  -0.1771
  C  C640  1  0.156000  0.596600  0.675600  1.0  -0.0381
  C  C641  1  0.132300  0.702300  0.710300  1.0  -0.1309
  C  C642  1  0.065900  0.712800  0.701800  1.0  -0.0233
  C  C643  1  0.028100  0.665900  0.704100  1.0  -0.106
  C  C644  1  0.968600  0.675000  0.700800  1.0  -0.1358
  C  C645  1  0.946900  0.731000  0.695300  1.0  0.0337
  C  C646  1  0.984700  0.777900  0.693000  1.0  0.0033
  C  C647  1  0.044200  0.768800  0.696200  1.0  0.0238
  C  C648  1  0.961900  0.833400  0.687500  1.0  -0.1241
  C  C649  1  0.998700  0.881200  0.686100  1.0  -0.0991
  C  C650  1  0.058100  0.871500  0.683200  1.0  -0.0876
  C  C651  1  0.081200  0.816300  0.692200  1.0  -0.2094
  C  C652  1  0.886200  0.737700  0.699300  1.0  0.2041
  C  C653  1  0.350500  0.480700  0.309400  1.0  0.1553
  C  C654  1  0.343900  0.540500  0.306000  1.0  -0.1324
  C  C655  1  0.339300  0.573200  0.356500  1.0  -0.112
  C  C656  1  0.341400  0.546000  0.410300  1.0  -0.0945
  C  C657  1  0.348000  0.486200  0.413600  1.0  0.1633
  C  C658  1  0.347600  0.441400  0.260900  1.0  0.1917
  C  C659  1  0.342900  0.453400  0.202200  1.0  -0.1739
  C  C660  1  0.344000  0.403400  0.175600  1.0  -0.0378
  C  C661  1  0.367700  0.297700  0.210300  1.0  -0.1317
  C  C662  1  0.434100  0.287200  0.201800  1.0  -0.0234
  C  C663  1  0.471900  0.334100  0.204100  1.0  -0.1055
  C  C664  1  0.531400  0.325000  0.200800  1.0  -0.1387
  C  C665  1  0.553100  0.269000  0.195300  1.0  0.035
  C  C666  1  0.515300  0.222100  0.193000  1.0  0.0029
  C  C667  1  0.455800  0.231200  0.196200  1.0  0.0244
  C  C668  1  0.538100  0.166600  0.187500  1.0  -0.125
  C  C669  1  0.501300  0.118800  0.186100  1.0  -0.1004
  C  C670  1  0.441900  0.128500  0.183200  1.0  -0.0905
  C  C671  1  0.418800  0.183700  0.192200  1.0  -0.2114
  C  C672  1  0.613800  0.262300  0.199300  1.0  0.2015
  C  C673  1  0.690600  0.850500  0.019300  1.0  0.158
  C  C674  1  0.694000  0.843900  0.959500  1.0  -0.1327
  C  C675  1  0.643500  0.839300  0.926800  1.0  -0.1173
  C  C676  1  0.589700  0.841400  0.954000  1.0  -0.0978
  C  C677  1  0.586400  0.848000  0.013800  1.0  0.1689
  C  C678  1  0.739100  0.847600  0.058600  1.0  0.1903
  C  C679  1  0.797800  0.842900  0.046600  1.0  -0.1772
  C  C680  1  0.824400  0.844000  0.096600  1.0  -0.0378
  C  C681  1  0.789700  0.867700  0.202300  1.0  -0.1313
  C  C682  1  0.798200  0.934100  0.212800  1.0  -0.0236
  C  C683  1  0.795900  0.971900  0.165900  1.0  -0.1051
  C  C684  1  0.799200  0.031400  0.175000  1.0  -0.1353
  C  C685  1  0.804700  0.053100  0.231000  1.0  0.0375
  C  C686  1  0.807000  0.015300  0.277900  1.0  0.0042
  C  C687  1  0.803800  0.955800  0.268800  1.0  0.0249
  C  C688  1  0.812500  0.038100  0.333400  1.0  -0.1256
  C  C689  1  0.813900  0.001300  0.381200  1.0  -0.0957
  C  C690  1  0.816800  0.941900  0.371500  1.0  -0.0891
  C  C691  1  0.807800  0.918800  0.316300  1.0  -0.2102
  C  C692  1  0.800700  0.113800  0.237700  1.0  0.1971
  C  C693  1  0.190600  0.649500  0.980700  1.0  0.1576
  C  C694  1  0.194000  0.656100  0.040500  1.0  -0.1336
  C  C695  1  0.143500  0.660700  0.073200  1.0  -0.1171
  C  C696  1  0.089700  0.658600  0.046000  1.0  -0.0967
  C  C697  1  0.086400  0.652000  0.986200  1.0  0.167
  C  C698  1  0.239100  0.652400  0.941400  1.0  0.1903
  C  C699  1  0.297800  0.657100  0.953400  1.0  -0.1768
  C  C700  1  0.324400  0.656000  0.903400  1.0  -0.0385
  C  C701  1  0.289700  0.632300  0.797700  1.0  -0.1317
  C  C702  1  0.298200  0.565900  0.787200  1.0  -0.0237
  C  C703  1  0.295900  0.528100  0.834100  1.0  -0.1024
  C  C704  1  0.299200  0.468600  0.825000  1.0  -0.1365
  C  C705  1  0.304700  0.446900  0.769000  1.0  0.036
  C  C706  1  0.307000  0.484700  0.722100  1.0  0.0038
  C  C707  1  0.303800  0.544200  0.731200  1.0  0.0236
  C  C708  1  0.312500  0.461900  0.666667  1.0  -0.1252
  C  C709  1  0.313900  0.498700  0.618800  1.0  -0.0947
  C  C710  1  0.316800  0.558100  0.628500  1.0  -0.089
  C  C711  1  0.307800  0.581200  0.683700  1.0  -0.2125
  C  C712  1  0.300700  0.386200  0.762300  1.0  0.1983
  C  C713  1  0.809400  0.149500  0.519300  1.0  0.1574
  C  C714  1  0.806000  0.156100  0.459500  1.0  -0.1322
  C  C715  1  0.856500  0.160700  0.426800  1.0  -0.1174
  C  C716  1  0.910300  0.158600  0.454000  1.0  -0.0958
  C  C717  1  0.913600  0.152000  0.513800  1.0  0.1687
  C  C718  1  0.760900  0.152400  0.558600  1.0  0.1891
  C  C719  1  0.702200  0.157100  0.546600  1.0  -0.1793
  C  C720  1  0.675600  0.156000  0.596600  1.0  -0.0387
  C  C721  1  0.710300  0.132300  0.702300  1.0  -0.1316
  C  C722  1  0.701800  0.065900  0.712800  1.0  -0.0233
  C  C723  1  0.704100  0.028100  0.665900  1.0  -0.1046
  C  C724  1  0.700800  0.968600  0.675000  1.0  -0.1357
  C  C725  1  0.695300  0.946900  0.731000  1.0  0.0346
  C  C726  1  0.693000  0.984700  0.777900  1.0  0.0037
  C  C727  1  0.696200  0.044200  0.768800  1.0  0.0259
  C  C728  1  0.687500  0.961900  0.833400  1.0  -0.1246
  C  C729  1  0.686100  0.998700  0.881200  1.0  -0.0958
  C  C730  1  0.683200  0.058100  0.871500  1.0  -0.0893
  C  C731  1  0.692200  0.081200  0.816300  1.0  -0.2117
  C  C732  1  0.699300  0.886200  0.737700  1.0  0.1992
  C  C733  1  0.309400  0.350500  0.480700  1.0  0.1575
  C  C734  1  0.306000  0.343900  0.540500  1.0  -0.1336
  C  C735  1  0.356500  0.339300  0.573200  1.0  -0.1166
  C  C736  1  0.410300  0.341400  0.546000  1.0  -0.0953
  C  C737  1  0.413600  0.348000  0.486200  1.0  0.1667
  C  C738  1  0.260900  0.347600  0.441400  1.0  0.19
  C  C739  1  0.202200  0.342900  0.453400  1.0  -0.1806
  C  C740  1  0.175600  0.344000  0.403400  1.0  -0.0391
  C  C741  1  0.210300  0.367700  0.297700  1.0  -0.1324
  C  C742  1  0.201800  0.434100  0.287200  1.0  -0.0231
  C  C743  1  0.204100  0.471900  0.334100  1.0  -0.1029
  C  C744  1  0.200800  0.531400  0.325000  1.0  -0.1367
  C  C745  1  0.195300  0.553100  0.269000  1.0  0.0372
  C  C746  1  0.193000  0.515300  0.222100  1.0  0.0042
  C  C747  1  0.196200  0.455800  0.231200  1.0  0.0253
  C  C748  1  0.187500  0.538100  0.166600  1.0  -0.1252
  C  C749  1  0.186100  0.501300  0.118800  1.0  -0.0953
  C  C750  1  0.183200  0.441900  0.128500  1.0  -0.0915
  C  C751  1  0.192200  0.418800  0.183700  1.0  -0.212
  C  C752  1  0.199300  0.613800  0.262300  1.0  0.1979
  C  C753  1  0.019300  0.690600  0.850500  1.0  0.1565
  C  C754  1  0.959500  0.694000  0.843900  1.0  -0.1326
  C  C755  1  0.926800  0.643500  0.839300  1.0  -0.1195
  C  C756  1  0.954000  0.589700  0.841400  1.0  -0.0954
  C  C757  1  0.013800  0.586400  0.848000  1.0  0.1585
  C  C758  1  0.058600  0.739100  0.847600  1.0  0.189
  C  C759  1  0.046600  0.797800  0.842900  1.0  -0.1813
  C  C760  1  0.096600  0.824400  0.844000  1.0  -0.0347
  C  C761  1  0.202300  0.789700  0.867700  1.0  -0.1354
  C  C762  1  0.212800  0.798200  0.934100  1.0  -0.0239
  C  C763  1  0.165900  0.795900  0.971900  1.0  -0.1025
  C  C764  1  0.175000  0.799200  0.031400  1.0  -0.1341
  C  C765  1  0.231000  0.804700  0.053100  1.0  0.0355
  C  C766  1  0.277900  0.807000  0.015300  1.0  0.0016
  C  C767  1  0.268800  0.803800  0.955800  1.0  0.0239
  C  C768  1  0.333400  0.812500  0.038100  1.0  -0.1224
  C  C769  1  0.381200  0.813900  0.001300  1.0  -0.0964
  C  C770  1  0.371500  0.816800  0.941900  1.0  -0.0922
  C  C771  1  0.316300  0.807800  0.918800  1.0  -0.2069
  C  C772  1  0.237700  0.800700  0.113800  1.0  0.1992
  C  C773  1  0.980700  0.190600  0.649500  1.0  0.1561
  C  C774  1  0.040500  0.194000  0.656100  1.0  -0.133
  C  C775  1  0.073200  0.143500  0.660700  1.0  -0.118
  C  C776  1  0.046000  0.089700  0.658600  1.0  -0.0953
  C  C777  1  0.986200  0.086400  0.652000  1.0  0.1586
  C  C778  1  0.941400  0.239100  0.652400  1.0  0.1917
  C  C779  1  0.953400  0.297800  0.657100  1.0  -0.1778
  C  C780  1  0.903400  0.324400  0.656000  1.0  -0.0351
  C  C781  1  0.797700  0.289700  0.632300  1.0  -0.1327
  C  C782  1  0.787200  0.298200  0.565900  1.0  -0.0225
  C  C783  1  0.834100  0.295900  0.528100  1.0  -0.1001
  C  C784  1  0.825000  0.299200  0.468600  1.0  -0.1368
  C  C785  1  0.769000  0.304700  0.446900  1.0  0.0348
  C  C786  1  0.722100  0.307000  0.484700  1.0  0.0031
  C  C787  1  0.731200  0.303800  0.544200  1.0  0.0234
  C  C788  1  0.666667  0.312500  0.461900  1.0  -0.1214
  C  C789  1  0.618800  0.313900  0.498700  1.0  -0.0971
  C  C790  1  0.628500  0.316800  0.558100  1.0  -0.0935
  C  C791  1  0.683700  0.307800  0.581200  1.0  -0.2087
  C  C792  1  0.762300  0.300700  0.386200  1.0  0.2048
  C  C793  1  0.519300  0.809400  0.149500  1.0  0.1557
  C  C794  1  0.459500  0.806000  0.156100  1.0  -0.1321
  C  C795  1  0.426800  0.856500  0.160700  1.0  -0.1194
  C  C796  1  0.454000  0.910300  0.158600  1.0  -0.0939
  C  C797  1  0.513800  0.913600  0.152000  1.0  0.1593
  C  C798  1  0.558600  0.760900  0.152400  1.0  0.1898
  C  C799  1  0.546600  0.702200  0.157100  1.0  -0.1831
  C  C800  1  0.596600  0.675600  0.156000  1.0  -0.0345
  C  C801  1  0.702300  0.710300  0.132300  1.0  -0.1324
  C  C802  1  0.712800  0.701800  0.065900  1.0  -0.0231
  C  C803  1  0.665900  0.704100  0.028100  1.0  -0.1027
  C  C804  1  0.675000  0.700800  0.968600  1.0  -0.1341
  C  C805  1  0.731000  0.695300  0.946900  1.0  0.0345
  C  C806  1  0.777900  0.693000  0.984700  1.0  0.0023
  C  C807  1  0.768800  0.696200  0.044200  1.0  0.0237
  C  C808  1  0.833400  0.687500  0.961900  1.0  -0.1217
  C  C809  1  0.881200  0.686100  0.998700  1.0  -0.0965
  C  C810  1  0.871500  0.683200  0.058100  1.0  -0.0909
  C  C811  1  0.816300  0.692200  0.081200  1.0  -0.2084
  C  C812  1  0.737700  0.699300  0.886200  1.0  0.2041
  C  C813  1  0.480700  0.309400  0.350500  1.0  0.1574
  C  C814  1  0.540500  0.306000  0.343900  1.0  -0.1344
  C  C815  1  0.573200  0.356500  0.339300  1.0  -0.1183
  C  C816  1  0.546000  0.410300  0.341400  1.0  -0.0923
  C  C817  1  0.486200  0.413600  0.348000  1.0  0.1593
  C  C818  1  0.441400  0.260900  0.347600  1.0  0.1916
  C  C819  1  0.453400  0.202200  0.342900  1.0  -0.1787
  C  C820  1  0.403400  0.175600  0.344000  1.0  -0.0344
  C  C821  1  0.297700  0.210300  0.367700  1.0  -0.1343
  C  C822  1  0.287200  0.201800  0.434100  1.0  -0.0227
  C  C823  1  0.334100  0.204100  0.471900  1.0  -0.0998
  C  C824  1  0.325000  0.200800  0.531400  1.0  -0.1369
  C  C825  1  0.269000  0.195300  0.553100  1.0  0.0371
  C  C826  1  0.222100  0.193000  0.515300  1.0  0.0018
  C  C827  1  0.231200  0.196200  0.455800  1.0  0.0234
  C  C828  1  0.166600  0.187500  0.538100  1.0  -0.1224
  C  C829  1  0.118800  0.186100  0.501300  1.0  -0.0965
  C  C830  1  0.128500  0.183200  0.441900  1.0  -0.0935
  C  C831  1  0.183700  0.192200  0.418800  1.0  -0.2075
  C  C832  1  0.262300  0.199300  0.613800  1.0  0.1989
  N  N833  1  0.223000  0.883500  0.365800  1.0  -0.3497
  N  N834  1  0.134600  0.876600  0.514500  1.0  0.1407
  N  N835  1  0.156200  0.879100  0.459800  1.0  -0.3526
  N  N836  1  0.028300  0.570900  0.557800  1.0  -0.5259
  N  N837  1  0.277000  0.116500  0.865800  1.0  -0.3493
  N  N838  1  0.365400  0.123400  0.014500  1.0  0.1416
  N  N839  1  0.343800  0.120900  0.959800  1.0  -0.3529
  N  N840  1  0.471700  0.429100  0.057800  1.0  -0.5226
  N  N841  1  0.777000  0.383500  0.134200  1.0  -0.3485
  N  N842  1  0.865400  0.376600  0.985500  1.0  0.142
  N  N843  1  0.843800  0.379100  0.040200  1.0  -0.3533
  N  N844  1  0.971700  0.070900  0.942200  1.0  -0.5246
  N  N845  1  0.723000  0.616500  0.634200  1.0  -0.3496
  N  N846  1  0.634600  0.623400  0.485500  1.0  0.1407
  N  N847  1  0.656200  0.620900  0.540200  1.0  -0.3541
  N  N848  1  0.528300  0.929100  0.442200  1.0  -0.5233
  N  N849  1  0.365800  0.223000  0.883500  1.0  -0.3501
  N  N850  1  0.514500  0.134600  0.876600  1.0  0.1416
  N  N851  1  0.459800  0.156200  0.879100  1.0  -0.3553
  N  N852  1  0.557800  0.028300  0.570900  1.0  -0.5281
  N  N853  1  0.865800  0.277000  0.116500  1.0  -0.3505
  N  N854  1  0.014500  0.365400  0.123400  1.0  0.1424
  N  N855  1  0.959800  0.343800  0.120900  1.0  -0.3545
  N  N856  1  0.057800  0.471700  0.429100  1.0  -0.5249
  N  N857  1  0.134200  0.777000  0.383500  1.0  -0.3507
  N  N858  1  0.985500  0.865400  0.376600  1.0  0.1434
  N  N859  1  0.040200  0.843800  0.379100  1.0  -0.3541
  N  N860  1  0.942200  0.971700  0.070900  1.0  -0.5288
  N  N861  1  0.634200  0.723000  0.616500  1.0  -0.3512
  N  N862  1  0.485500  0.634600  0.623400  1.0  0.1416
  N  N863  1  0.540200  0.656200  0.620900  1.0  -0.3546
  N  N864  1  0.442200  0.528300  0.929100  1.0  -0.5258
  N  N865  1  0.883500  0.365800  0.223000  1.0  -0.3495
  N  N866  1  0.876600  0.514500  0.134600  1.0  0.1413
  N  N867  1  0.879100  0.459800  0.156200  1.0  -0.3551
  N  N868  1  0.570900  0.557800  0.028300  1.0  -0.5211
  N  N869  1  0.116500  0.865800  0.277000  1.0  -0.349
  N  N870  1  0.123400  0.014500  0.365400  1.0  0.141
  N  N871  1  0.120900  0.959800  0.343800  1.0  -0.3551
  N  N872  1  0.429100  0.057800  0.471700  1.0  -0.5218
  N  N873  1  0.383500  0.134200  0.777000  1.0  -0.3487
  N  N874  1  0.376600  0.985500  0.865400  1.0  0.1413
  N  N875  1  0.379100  0.040200  0.843800  1.0  -0.3551
  N  N876  1  0.070900  0.942200  0.971700  1.0  -0.5212
  N  N877  1  0.616500  0.634200  0.723000  1.0  -0.3503
  N  N878  1  0.623400  0.485500  0.634600  1.0  0.1412
  N  N879  1  0.620900  0.540200  0.656200  1.0  -0.3548
  N  N880  1  0.929100  0.442200  0.528300  1.0  -0.5214
  N  N881  1  0.852600  0.046500  0.636800  1.0  -0.3469
  N  N882  1  0.852700  0.140100  0.783300  1.0  -0.0518
  N  N883  1  0.854800  0.115000  0.728800  1.0  -0.3204
  N  N884  1  0.166100  0.242600  0.799900  1.0  -0.4905
  N  N885  1  0.647400  0.953500  0.136800  1.0  -0.3486
  N  N886  1  0.647300  0.859900  0.283300  1.0  -0.0529
  N  N887  1  0.645200  0.885000  0.228800  1.0  -0.3216
  N  N888  1  0.333900  0.757400  0.299900  1.0  -0.4891
  N  N889  1  0.147400  0.546500  0.863200  1.0  -0.3483
  N  N890  1  0.147300  0.640100  0.716700  1.0  -0.0512
  N  N891  1  0.145200  0.615000  0.771200  1.0  -0.3196
  N  N892  1  0.833900  0.742600  0.700100  1.0  -0.4886
  N  N893  1  0.352600  0.453500  0.363200  1.0  -0.3496
  N  N894  1  0.352700  0.359900  0.216700  1.0  -0.0502
  N  N895  1  0.354800  0.385000  0.271200  1.0  -0.3203
  N  N896  1  0.666100  0.257400  0.200100  1.0  -0.4899
  N  N897  1  0.636800  0.852600  0.046500  1.0  -0.3498
  N  N898  1  0.783300  0.852700  0.140100  1.0  -0.0508
  N  N899  1  0.728800  0.854800  0.115000  1.0  -0.3218
  N  N900  1  0.799900  0.166100  0.242600  1.0  -0.4956
  N  N901  1  0.136800  0.647400  0.953500  1.0  -0.3507
  N  N902  1  0.283300  0.647300  0.859900  1.0  -0.0514
  N  N903  1  0.228800  0.645200  0.885000  1.0  -0.3209
  N  N904  1  0.299900  0.333900  0.757400  1.0  -0.4963
  N  N905  1  0.863200  0.147400  0.546500  1.0  -0.3489
  N  N906  1  0.716700  0.147300  0.640100  1.0  -0.0504
  N  N907  1  0.771200  0.145200  0.615000  1.0  -0.3205
  N  N908  1  0.700100  0.833900  0.742600  1.0  -0.4949
  N  N909  1  0.363200  0.352600  0.453500  1.0  -0.3506
  N  N910  1  0.216700  0.352700  0.359900  1.0  -0.0507
  N  N911  1  0.271200  0.354800  0.385000  1.0  -0.3212
  N  N912  1  0.200100  0.666100  0.257400  1.0  -0.4964
  N  N913  1  0.046500  0.636800  0.852600  1.0  -0.3485
  N  N914  1  0.140100  0.783300  0.852700  1.0  -0.0511
  N  N915  1  0.115000  0.728800  0.854800  1.0  -0.3207
  N  N916  1  0.242600  0.799900  0.166100  1.0  -0.4899
  N  N917  1  0.953500  0.136800  0.647400  1.0  -0.3478
  N  N918  1  0.859900  0.283300  0.647300  1.0  -0.0505
  N  N919  1  0.885000  0.228800  0.645200  1.0  -0.3207
  N  N920  1  0.757400  0.299900  0.333900  1.0  -0.4902
  N  N921  1  0.546500  0.863200  0.147400  1.0  -0.3483
  N  N922  1  0.640100  0.716700  0.147300  1.0  -0.0509
  N  N923  1  0.615000  0.771200  0.145200  1.0  -0.3199
  N  N924  1  0.742600  0.700100  0.833900  1.0  -0.4903
  N  N925  1  0.453500  0.363200  0.352600  1.0  -0.3477
  N  N926  1  0.359900  0.216700  0.352700  1.0  -0.0521
  N  N927  1  0.385000  0.271200  0.354800  1.0  -0.3201
  N  N928  1  0.257400  0.200100  0.666100  1.0  -0.4906
