# generated using pymatgen
data_Gd3H13C37(N2O9)2
_symmetry_space_group_name_H-M   'P 1'
_cell_length_a   34.96700000
_cell_length_b   21.61250000
_cell_length_c   41.29600000
_cell_angle_alpha   90.00000000
_cell_angle_beta   90.00000000
_cell_angle_gamma   90.00000000
_symmetry_Int_Tables_number   1
_chemical_formula_structural   Gd3H13C37(N2O9)2
_chemical_formula_sum   'Gd48 H208 C592 N64 O288'
_cell_volume   31208.39017660
_cell_formula_units_Z   16
loop_
 _symmetry_equiv_pos_site_id
 _symmetry_equiv_pos_as_xyz
  1  'x, y, z'
loop_
 _atom_site_type_symbol
 _atom_site_label
 _atom_site_symmetry_multiplicity
 _atom_site_fract_x
 _atom_site_fract_y
 _atom_site_fract_z
 _atom_site_occupancy
 _atom_site_charge
  Gd  Gd1  1  0.276600  0.062480  0.043410  1.0  2.1848
  Gd  Gd2  1  0.522330  0.275730  0.894070  1.0  2.1788
  Gd  Gd3  1  0.448910  0.145420  0.839860  1.0  2.0933
  Gd  Gd4  1  0.593040  0.353010  0.146230  1.0  2.1522
  Gd  Gd5  1  0.353670  0.780270  0.929940  1.0  2.1782
  Gd  Gd6  1  0.345700  0.940070  0.983240  1.0  2.1887
  Gd  Gd7  1  0.223400  0.937520  0.543410  1.0  2.1827
  Gd  Gd8  1  0.977670  0.724270  0.394070  1.0  2.1793
  Gd  Gd9  1  0.051090  0.854580  0.339860  1.0  2.0947
  Gd  Gd10  1  0.906960  0.646990  0.646230  1.0  2.1523
  Gd  Gd11  1  0.146330  0.219730  0.429940  1.0  2.1779
  Gd  Gd12  1  0.154300  0.059930  0.483240  1.0  2.1882
  Gd  Gd13  1  0.723400  0.562480  0.456590  1.0  2.1839
  Gd  Gd14  1  0.477670  0.775730  0.605930  1.0  2.1787
  Gd  Gd15  1  0.551090  0.645420  0.660140  1.0  2.095
  Gd  Gd16  1  0.406960  0.853010  0.353770  1.0  2.1525
  Gd  Gd17  1  0.646330  0.280270  0.570060  1.0  2.1785
  Gd  Gd18  1  0.654300  0.440070  0.516760  1.0  2.1883
  Gd  Gd19  1  0.776600  0.437520  0.956590  1.0  2.1853
  Gd  Gd20  1  0.022330  0.224270  0.105930  1.0  2.1786
  Gd  Gd21  1  0.948910  0.354580  0.160140  1.0  2.0947
  Gd  Gd22  1  0.093040  0.146990  0.853770  1.0  2.1525
  Gd  Gd23  1  0.853670  0.719730  0.070060  1.0  2.179
  Gd  Gd24  1  0.845700  0.559930  0.016760  1.0  2.1881
  Gd  Gd25  1  0.723400  0.937520  0.956590  1.0  2.1843
  Gd  Gd26  1  0.477670  0.724270  0.105930  1.0  2.1793
  Gd  Gd27  1  0.551090  0.854580  0.160140  1.0  2.0949
  Gd  Gd28  1  0.406960  0.646990  0.853770  1.0  2.1526
  Gd  Gd29  1  0.646330  0.219730  0.070060  1.0  2.1786
  Gd  Gd30  1  0.654300  0.059930  0.016760  1.0  2.1877
  Gd  Gd31  1  0.776600  0.062480  0.456590  1.0  2.185
  Gd  Gd32  1  0.022330  0.275730  0.605930  1.0  2.1787
  Gd  Gd33  1  0.948910  0.145420  0.660140  1.0  2.095
  Gd  Gd34  1  0.093040  0.353010  0.353770  1.0  2.1525
  Gd  Gd35  1  0.853670  0.780270  0.570060  1.0  2.1791
  Gd  Gd36  1  0.845700  0.940070  0.516760  1.0  2.1881
  Gd  Gd37  1  0.276600  0.437520  0.543410  1.0  2.1847
  Gd  Gd38  1  0.522330  0.224270  0.394070  1.0  2.1786
  Gd  Gd39  1  0.448910  0.354580  0.339860  1.0  2.0934
  Gd  Gd40  1  0.593040  0.146990  0.646230  1.0  2.1521
  Gd  Gd41  1  0.353670  0.719730  0.429940  1.0  2.1782
  Gd  Gd42  1  0.345700  0.559930  0.483240  1.0  2.1879
  Gd  Gd43  1  0.223400  0.562480  0.043410  1.0  2.1828
  Gd  Gd44  1  0.977670  0.775730  0.894070  1.0  2.1787
  Gd  Gd45  1  0.051090  0.645420  0.839860  1.0  2.0944
  Gd  Gd46  1  0.906960  0.853010  0.146230  1.0  2.1522
  Gd  Gd47  1  0.146330  0.280270  0.929940  1.0  2.1778
  Gd  Gd48  1  0.154300  0.440070  0.983240  1.0  2.188
  H  H49  1  0.231200  0.277500  0.031500  1.0  0.0994
  H  H50  1  0.281200  0.429000  0.067500  1.0  0.1211
  H  H51  1  0.382100  0.288400  0.816200  1.0  0.109
  H  H52  1  0.317900  0.259300  0.092600  1.0  0.1165
  H  H53  1  0.396200  0.106800  0.946500  1.0  0.1062
  H  H54  1  0.442100  0.274000  0.963200  1.0  0.0924
  H  H55  1  0.368600  0.200100  0.027600  1.0  0.1182
  H  H56  1  0.588300  0.097200  0.925700  1.0  0.1016
  H  H57  1  0.616900  0.925500  0.901800  1.0  0.1082
  H  H58  1  0.529500  0.017900  0.854500  1.0  0.0904
  H  H59  1  0.563300  0.299600  0.008000  1.0  0.0909
  H  H60  1  0.524200  0.418700  0.073000  1.0  0.1088
  H  H61  1  0.477800  0.415100  0.984400  1.0  0.1062
  H  H62  1  0.542400  0.176300  0.754800  1.0  0.1147
  H  H63  1  0.641500  0.266500  0.740100  1.0  0.1128
  H  H64  1  0.584700  0.290100  0.823800  1.0  0.108
  H  H65  1  0.421600  0.929000  0.867700  1.0  0.0849
  H  H66  1  0.455400  0.778800  0.820200  1.0  0.082
  H  H67  1  0.482500  0.946000  0.787900  1.0  0.1058
  H  H68  1  0.215400  0.105200  0.948800  1.0  0.1039
  H  H69  1  0.192800  0.059400  0.855700  1.0  0.1166
  H  H70  1  0.266000  0.961500  0.908600  1.0  0.0963
  H  H71  1  0.439700  0.428400  0.854200  1.0  0.0938
  H  H72  1  0.348600  0.463500  0.801000  1.0  0.1131
  H  H73  1  0.351200  0.935200  0.889300  1.0  0.1034
  H  H74  1  0.359400  0.789200  0.021900  1.0  0.0982
  H  H75  1  0.268800  0.722500  0.531500  1.0  0.0994
  H  H76  1  0.218800  0.571000  0.567500  1.0  0.121
  H  H77  1  0.117900  0.711600  0.316200  1.0  0.1081
  H  H78  1  0.182100  0.740700  0.592600  1.0  0.1162
  H  H79  1  0.103800  0.893200  0.446500  1.0  0.1067
  H  H80  1  0.057900  0.726000  0.463200  1.0  0.0921
  H  H81  1  0.131400  0.799900  0.527600  1.0  0.1183
  H  H82  1  0.911700  0.902800  0.425700  1.0  0.102
  H  H83  1  0.883100  0.074500  0.401800  1.0  0.108
  H  H84  1  0.970500  0.982100  0.354500  1.0  0.0898
  H  H85  1  0.936700  0.700400  0.508000  1.0  0.0907
  H  H86  1  0.975800  0.581300  0.573000  1.0  0.1086
  H  H87  1  0.022200  0.584900  0.484400  1.0  0.1059
  H  H88  1  0.957600  0.823700  0.254800  1.0  0.115
  H  H89  1  0.858500  0.733500  0.240100  1.0  0.1132
  H  H90  1  0.915300  0.709900  0.323800  1.0  0.1086
  H  H91  1  0.078400  0.071000  0.367700  1.0  0.0848
  H  H92  1  0.044600  0.221200  0.320200  1.0  0.0832
  H  H93  1  0.017500  0.054000  0.287900  1.0  0.1056
  H  H94  1  0.284600  0.894800  0.448800  1.0  0.1038
  H  H95  1  0.307200  0.940600  0.355700  1.0  0.1164
  H  H96  1  0.234000  0.038500  0.408600  1.0  0.0965
  H  H97  1  0.060300  0.571600  0.354200  1.0  0.0937
  H  H98  1  0.151400  0.536500  0.301000  1.0  0.1133
  H  H99  1  0.148800  0.064800  0.389300  1.0  0.1031
  H  H100  1  0.140600  0.210800  0.521900  1.0  0.0984
  H  H101  1  0.768800  0.777500  0.468500  1.0  0.099
  H  H102  1  0.718800  0.929000  0.432500  1.0  0.1208
  H  H103  1  0.617900  0.788400  0.683800  1.0  0.109
  H  H104  1  0.682100  0.759300  0.407400  1.0  0.1165
  H  H105  1  0.603800  0.606800  0.553500  1.0  0.1063
  H  H106  1  0.557900  0.774000  0.536800  1.0  0.0922
  H  H107  1  0.631400  0.700100  0.472400  1.0  0.1189
  H  H108  1  0.411700  0.597200  0.574300  1.0  0.1019
  H  H109  1  0.383100  0.425500  0.598200  1.0  0.1086
  H  H110  1  0.470500  0.517900  0.645500  1.0  0.0905
  H  H111  1  0.436700  0.799600  0.492000  1.0  0.0905
  H  H112  1  0.475800  0.918700  0.427000  1.0  0.1081
  H  H113  1  0.522200  0.915100  0.515600  1.0  0.1062
  H  H114  1  0.457600  0.676300  0.745200  1.0  0.1149
  H  H115  1  0.358500  0.766500  0.759900  1.0  0.1127
  H  H116  1  0.415300  0.790100  0.676200  1.0  0.108
  H  H117  1  0.578400  0.429000  0.632300  1.0  0.0849
  H  H118  1  0.544600  0.278800  0.679800  1.0  0.0824
  H  H119  1  0.517500  0.446000  0.712100  1.0  0.1064
  H  H120  1  0.784600  0.605200  0.551200  1.0  0.1035
  H  H121  1  0.807200  0.559400  0.644300  1.0  0.1164
  H  H122  1  0.734000  0.461500  0.591400  1.0  0.0966
  H  H123  1  0.560300  0.928400  0.645800  1.0  0.0937
  H  H124  1  0.651400  0.963500  0.699000  1.0  0.1134
  H  H125  1  0.648800  0.435200  0.610700  1.0  0.1033
  H  H126  1  0.640600  0.289200  0.478100  1.0  0.0988
  H  H127  1  0.731200  0.222500  0.968500  1.0  0.0988
  H  H128  1  0.781200  0.071000  0.932500  1.0  0.1215
  H  H129  1  0.882100  0.211600  0.183800  1.0  0.1088
  H  H130  1  0.817900  0.240700  0.907400  1.0  0.1167
  H  H131  1  0.896200  0.393200  0.053500  1.0  0.1065
  H  H132  1  0.942100  0.226000  0.036800  1.0  0.0922
  H  H133  1  0.868600  0.299900  0.972400  1.0  0.1191
  H  H134  1  0.088300  0.402800  0.074300  1.0  0.1015
  H  H135  1  0.116900  0.574500  0.098200  1.0  0.108
  H  H136  1  0.029500  0.482100  0.145500  1.0  0.0908
  H  H137  1  0.063300  0.200400  0.992000  1.0  0.0901
  H  H138  1  0.024200  0.081300  0.927000  1.0  0.1089
  H  H139  1  0.977800  0.084900  0.015600  1.0  0.1063
  H  H140  1  0.042400  0.323700  0.245200  1.0  0.1147
  H  H141  1  0.141500  0.233500  0.259900  1.0  0.1119
  H  H142  1  0.084700  0.209900  0.176200  1.0  0.1085
  H  H143  1  0.921600  0.571000  0.132300  1.0  0.0851
  H  H144  1  0.955400  0.721200  0.179800  1.0  0.0824
  H  H145  1  0.982500  0.554000  0.212100  1.0  0.1054
  H  H146  1  0.715400  0.394800  0.051200  1.0  0.1034
  H  H147  1  0.692800  0.440600  0.144300  1.0  0.1162
  H  H148  1  0.766000  0.538500  0.091400  1.0  0.0963
  H  H149  1  0.939700  0.071600  0.145800  1.0  0.0933
  H  H150  1  0.848600  0.036500  0.199000  1.0  0.1133
  H  H151  1  0.851200  0.564800  0.110700  1.0  0.1038
  H  H152  1  0.859400  0.710800  0.978100  1.0  0.0986
  H  H153  1  0.768800  0.722500  0.968500  1.0  0.0987
  H  H154  1  0.718800  0.571000  0.932500  1.0  0.1214
  H  H155  1  0.617900  0.711600  0.183800  1.0  0.1083
  H  H156  1  0.682100  0.740700  0.907400  1.0  0.1166
  H  H157  1  0.603800  0.893200  0.053500  1.0  0.1065
  H  H158  1  0.557900  0.726000  0.036800  1.0  0.092
  H  H159  1  0.631400  0.799900  0.972400  1.0  0.1189
  H  H160  1  0.411700  0.902800  0.074300  1.0  0.1015
  H  H161  1  0.383100  0.074500  0.098200  1.0  0.1082
  H  H162  1  0.470500  0.982100  0.145500  1.0  0.0902
  H  H163  1  0.436700  0.700400  0.992000  1.0  0.0897
  H  H164  1  0.475800  0.581300  0.927000  1.0  0.1084
  H  H165  1  0.522200  0.584900  0.015600  1.0  0.1061
  H  H166  1  0.457600  0.823700  0.245200  1.0  0.1145
  H  H167  1  0.358500  0.733500  0.259900  1.0  0.1129
  H  H168  1  0.415300  0.709900  0.176200  1.0  0.1085
  H  H169  1  0.578400  0.071000  0.132300  1.0  0.0849
  H  H170  1  0.544600  0.221200  0.179800  1.0  0.083
  H  H171  1  0.517500  0.054000  0.212100  1.0  0.106
  H  H172  1  0.784600  0.894800  0.051200  1.0  0.1034
  H  H173  1  0.807200  0.940600  0.144300  1.0  0.1165
  H  H174  1  0.734000  0.038500  0.091400  1.0  0.0969
  H  H175  1  0.560300  0.571600  0.145800  1.0  0.0937
  H  H176  1  0.651400  0.536500  0.199000  1.0  0.1134
  H  H177  1  0.648800  0.064800  0.110700  1.0  0.1033
  H  H178  1  0.640600  0.210800  0.978100  1.0  0.097
  H  H179  1  0.731200  0.277500  0.468500  1.0  0.0991
  H  H180  1  0.781200  0.429000  0.432500  1.0  0.121
  H  H181  1  0.882100  0.288400  0.683800  1.0  0.1095
  H  H182  1  0.817900  0.259300  0.407400  1.0  0.117
  H  H183  1  0.896200  0.106800  0.553500  1.0  0.1064
  H  H184  1  0.942100  0.274000  0.536800  1.0  0.0921
  H  H185  1  0.868600  0.200100  0.472400  1.0  0.1192
  H  H186  1  0.088300  0.097200  0.574300  1.0  0.1017
  H  H187  1  0.116900  0.925500  0.598200  1.0  0.1081
  H  H188  1  0.029500  0.017900  0.645500  1.0  0.091
  H  H189  1  0.063300  0.299600  0.492000  1.0  0.0906
  H  H190  1  0.024200  0.418700  0.427000  1.0  0.1084
  H  H191  1  0.977800  0.415100  0.515600  1.0  0.1063
  H  H192  1  0.042400  0.176300  0.745200  1.0  0.1146
  H  H193  1  0.141500  0.266500  0.759900  1.0  0.1118
  H  H194  1  0.084700  0.290100  0.676200  1.0  0.1084
  H  H195  1  0.921600  0.929000  0.632300  1.0  0.0852
  H  H196  1  0.955400  0.778800  0.679800  1.0  0.0818
  H  H197  1  0.982500  0.946000  0.712100  1.0  0.1058
  H  H198  1  0.715400  0.105200  0.551200  1.0  0.1036
  H  H199  1  0.692800  0.059400  0.644300  1.0  0.1163
  H  H200  1  0.766000  0.961500  0.591400  1.0  0.0967
  H  H201  1  0.939700  0.428400  0.645800  1.0  0.0939
  H  H202  1  0.848600  0.463500  0.699000  1.0  0.1134
  H  H203  1  0.851200  0.935200  0.610700  1.0  0.104
  H  H204  1  0.859400  0.789200  0.478100  1.0  0.0968
  H  H205  1  0.231200  0.222500  0.531500  1.0  0.0994
  H  H206  1  0.281200  0.071000  0.567500  1.0  0.1213
  H  H207  1  0.382100  0.211600  0.316200  1.0  0.1082
  H  H208  1  0.317900  0.240700  0.592600  1.0  0.1165
  H  H209  1  0.396200  0.393200  0.446500  1.0  0.1067
  H  H210  1  0.442100  0.226000  0.463200  1.0  0.0924
  H  H211  1  0.368600  0.299900  0.527600  1.0  0.1184
  H  H212  1  0.588300  0.402800  0.425700  1.0  0.102
  H  H213  1  0.616900  0.574500  0.401800  1.0  0.1078
  H  H214  1  0.529500  0.482100  0.354500  1.0  0.0905
  H  H215  1  0.563300  0.200400  0.508000  1.0  0.091
  H  H216  1  0.524200  0.081300  0.573000  1.0  0.1091
  H  H217  1  0.477800  0.084900  0.484400  1.0  0.106
  H  H218  1  0.542400  0.323700  0.254800  1.0  0.1152
  H  H219  1  0.641500  0.233500  0.240100  1.0  0.1124
  H  H220  1  0.584700  0.209900  0.323800  1.0  0.1082
  H  H221  1  0.421600  0.571000  0.367700  1.0  0.0851
  H  H222  1  0.455400  0.721200  0.320200  1.0  0.0825
  H  H223  1  0.482500  0.554000  0.287900  1.0  0.1056
  H  H224  1  0.215400  0.394800  0.448800  1.0  0.1038
  H  H225  1  0.192800  0.440600  0.355700  1.0  0.1163
  H  H226  1  0.266000  0.538500  0.408600  1.0  0.0961
  H  H227  1  0.439700  0.071600  0.354200  1.0  0.0936
  H  H228  1  0.348600  0.036500  0.301000  1.0  0.1132
  H  H229  1  0.351200  0.564800  0.389300  1.0  0.1032
  H  H230  1  0.359400  0.710800  0.521900  1.0  0.0981
  H  H231  1  0.268800  0.777500  0.031500  1.0  0.0993
  H  H232  1  0.218800  0.929000  0.067500  1.0  0.1209
  H  H233  1  0.117900  0.788400  0.816200  1.0  0.109
  H  H234  1  0.182100  0.759300  0.092600  1.0  0.116
  H  H235  1  0.103800  0.606800  0.946500  1.0  0.1062
  H  H236  1  0.057900  0.774000  0.963200  1.0  0.0923
  H  H237  1  0.131400  0.700100  0.027600  1.0  0.118
  H  H238  1  0.911700  0.597200  0.925700  1.0  0.1017
  H  H239  1  0.883100  0.425500  0.901800  1.0  0.1084
  H  H240  1  0.970500  0.517900  0.854500  1.0  0.0899
  H  H241  1  0.936700  0.799600  0.008000  1.0  0.0906
  H  H242  1  0.975800  0.918700  0.073000  1.0  0.1085
  H  H243  1  0.022200  0.915100  0.984400  1.0  0.106
  H  H244  1  0.957600  0.676300  0.754800  1.0  0.1152
  H  H245  1  0.858500  0.766500  0.740100  1.0  0.1133
  H  H246  1  0.915300  0.790100  0.823800  1.0  0.1081
  H  H247  1  0.078400  0.429000  0.867700  1.0  0.0846
  H  H248  1  0.044600  0.278800  0.820200  1.0  0.0824
  H  H249  1  0.017500  0.446000  0.787900  1.0  0.106
  H  H250  1  0.284600  0.605200  0.948800  1.0  0.104
  H  H251  1  0.307200  0.559400  0.855700  1.0  0.1165
  H  H252  1  0.234000  0.461500  0.908600  1.0  0.096
  H  H253  1  0.060300  0.928400  0.854200  1.0  0.0937
  H  H254  1  0.151400  0.963500  0.801000  1.0  0.1129
  H  H255  1  0.148800  0.435200  0.889300  1.0  0.1032
  H  H256  1  0.140600  0.289200  0.021900  1.0  0.0985
  C  C257  1  0.274200  0.256800  0.061700  1.0  -0.1277
  C  C258  1  0.273000  0.188100  0.057000  1.0  0.6889
  C  C259  1  0.249500  0.294900  0.045100  1.0  0.0039
  C  C260  1  0.251200  0.359300  0.048300  1.0  -0.14
  C  C261  1  0.223400  0.399800  0.030400  1.0  0.7109
  C  C262  1  0.279000  0.386100  0.066400  1.0  -0.0591
  C  C263  1  0.304600  0.347300  0.083600  1.0  0.124
  C  C264  1  0.331600  0.373900  0.102900  1.0  0.0969
  C  C265  1  0.386000  0.330800  0.818400  1.0  -0.0186
  C  C266  1  0.301200  0.284300  0.080900  1.0  -0.0777
  C  C267  1  0.377100  0.149600  0.986100  1.0  -0.1145
  C  C268  1  0.348800  0.100000  0.997200  1.0  0.7092
  C  C269  1  0.397900  0.142900  0.958700  1.0  -0.0143
  C  C270  1  0.422400  0.191300  0.948900  1.0  -0.1474
  C  C271  1  0.441900  0.190400  0.917300  1.0  0.7792
  C  C272  1  0.426500  0.241300  0.969500  1.0  -0.0955
  C  C273  1  0.408000  0.244600  0.999200  1.0  -0.0053
  C  C274  1  0.409300  0.300200  0.018600  1.0  0.3345
  C  C275  1  0.381900  0.198500  0.008200  1.0  -0.1017
  C  C276  1  0.554900  0.066400  0.889400  1.0  -0.1571
  C  C277  1  0.530300  0.123800  0.886800  1.0  0.7737
  C  C278  1  0.584200  0.063200  0.912400  1.0  0.0011
  C  C279  1  0.608000  0.010600  0.916200  1.0  -0.0648
  C  C280  1  0.639300  0.009600  0.939800  1.0  0.7551
  C  C281  1  0.602000  0.960600  0.898700  1.0  -0.0419
  C  C282  1  0.571900  0.960700  0.874400  1.0  -0.0038
  C  C283  1  0.562000  0.902000  0.866200  1.0  0.3775
  C  C284  1  0.548600  0.016700  0.870200  1.0  -0.046
  C  C285  1  0.522000  0.352800  0.990000  1.0  -0.1231
  C  C286  1  0.522000  0.328300  0.957100  1.0  0.657
  C  C287  1  0.547000  0.332000  0.013200  1.0  -0.0244
  C  C288  1  0.548900  0.356500  0.043700  1.0  -0.107
  C  C289  1  0.577200  0.332700  0.065800  1.0  0.7633
  C  C290  1  0.523300  0.402000  0.052200  1.0  -0.0141
  C  C291  1  0.495800  0.423500  0.030200  1.0  -0.0332
  C  C292  1  0.468500  0.472300  0.040200  1.0  0.3096
  C  C293  1  0.495400  0.400100  0.999400  1.0  -0.0366
  C  C294  1  0.557800  0.232600  0.792900  1.0  -0.1613
  C  C295  1  0.526000  0.215300  0.813700  1.0  0.6862
  C  C296  1  0.560800  0.204300  0.761900  1.0  -0.0335
  C  C297  1  0.591800  0.219700  0.742600  1.0  -0.1157
  C  C298  1  0.594400  0.190900  0.709200  1.0  0.6666
  C  C299  1  0.619600  0.258400  0.752200  1.0  -0.0974
  C  C300  1  0.612600  0.285000  0.782000  1.0  0.2774
  C  C301  1  0.641800  0.321000  0.792000  1.0  0.4043
  C  C302  1  0.585200  0.272600  0.803200  1.0  -0.136
  C  C303  1  0.451900  0.947400  0.829000  1.0  -0.1524
  C  C304  1  0.449500  0.015400  0.831500  1.0  0.6897
  C  C305  1  0.435100  0.911100  0.850700  1.0  0.0006
  C  C306  1  0.437200  0.844900  0.848500  1.0  -0.1528
  C  C307  1  0.415300  0.806600  0.872600  1.0  0.7362
  C  C308  1  0.455300  0.821500  0.823000  1.0  -0.0669
  C  C309  1  0.474000  0.858700  0.800200  1.0  -0.0146
  C  C310  1  0.495000  0.832300  0.773700  1.0  0.1813
  C  C311  1  0.471200  0.920600  0.803400  1.0  -0.0531
  C  C312  1  0.241800  0.029400  0.934000  1.0  -0.107
  C  C313  1  0.264300  0.021400  0.964800  1.0  0.7272
  C  C314  1  0.218800  0.078600  0.931300  1.0  -0.0101
  C  C315  1  0.200400  0.089600  0.903000  1.0  -0.1263
  C  C316  1  0.173600  0.145300  0.898300  1.0  0.7518
  C  C317  1  0.204800  0.050400  0.875200  1.0  -0.0994
  C  C318  1  0.227800  0.999000  0.878600  1.0  0.0327
  C  C319  1  0.234700  0.959400  0.851400  1.0  0.3426
  C  C320  1  0.247600  0.992500  0.907200  1.0  -0.0578
  C  C321  1  0.417300  0.350700  0.835100  1.0  -0.1408
  C  C322  1  0.446400  0.307100  0.851100  1.0  0.732
  C  C323  1  0.419800  0.414000  0.841300  1.0  0.0137
  C  C324  1  0.394700  0.454900  0.829300  1.0  -0.1641
  C  C325  1  0.399200  0.522000  0.836000  1.0  0.6541
  C  C326  1  0.365200  0.434800  0.810300  1.0  -0.0349
  C  C327  1  0.359500  0.371300  0.804500  1.0  -0.0792
  C  C328  1  0.327200  0.347000  0.784000  1.0  0.2443
  C  C329  1  0.349900  0.939000  0.911700  1.0  0.6207
  C  C330  1  0.358400  0.785400  0.999500  1.0  0.5786
  C  C331  1  0.225800  0.743200  0.561700  1.0  -0.127
  C  C332  1  0.227000  0.811900  0.557000  1.0  0.6889
  C  C333  1  0.250500  0.705100  0.545100  1.0  0.0031
  C  C334  1  0.248800  0.640700  0.548300  1.0  -0.1399
  C  C335  1  0.276600  0.600200  0.530400  1.0  0.7102
  C  C336  1  0.221000  0.613900  0.566400  1.0  -0.0601
  C  C337  1  0.195400  0.652700  0.583600  1.0  0.1233
  C  C338  1  0.168400  0.626100  0.602900  1.0  0.0974
  C  C339  1  0.114000  0.669200  0.318400  1.0  -0.0208
  C  C340  1  0.198800  0.715700  0.580900  1.0  -0.0777
  C  C341  1  0.122900  0.850400  0.486100  1.0  -0.1145
  C  C342  1  0.151200  0.900000  0.497200  1.0  0.7098
  C  C343  1  0.102100  0.857100  0.458700  1.0  -0.0154
  C  C344  1  0.077600  0.808700  0.448900  1.0  -0.1471
  C  C345  1  0.058100  0.809600  0.417300  1.0  0.78
  C  C346  1  0.073500  0.758700  0.469500  1.0  -0.0964
  C  C347  1  0.092000  0.755400  0.499200  1.0  -0.0069
  C  C348  1  0.090700  0.699800  0.518600  1.0  0.3348
  C  C349  1  0.118100  0.801500  0.508200  1.0  -0.1002
  C  C350  1  0.945100  0.933600  0.389400  1.0  -0.1564
  C  C351  1  0.969700  0.876200  0.386800  1.0  0.7741
  C  C352  1  0.915800  0.936800  0.412400  1.0  0.0045
  C  C353  1  0.892000  0.989400  0.416200  1.0  -0.0644
  C  C354  1  0.860700  0.990400  0.439800  1.0  0.7545
  C  C355  1  0.898000  0.039400  0.398700  1.0  -0.0421
  C  C356  1  0.928100  0.039300  0.374400  1.0  -0.0035
  C  C357  1  0.938000  0.098000  0.366200  1.0  0.3804
  C  C358  1  0.951400  0.983300  0.370200  1.0  -0.0438
  C  C359  1  0.978000  0.647200  0.490000  1.0  -0.1222
  C  C360  1  0.978000  0.671700  0.457100  1.0  0.6571
  C  C361  1  0.953000  0.668000  0.513200  1.0  -0.0221
  C  C362  1  0.951100  0.643500  0.543700  1.0  -0.1067
  C  C363  1  0.922800  0.667300  0.565800  1.0  0.7634
  C  C364  1  0.976700  0.598000  0.552200  1.0  -0.0129
  C  C365  1  0.004200  0.576500  0.530200  1.0  -0.0334
  C  C366  1  0.031500  0.527700  0.540200  1.0  0.3112
  C  C367  1  0.004600  0.599900  0.499400  1.0  -0.0377
  C  C368  1  0.942200  0.767400  0.292900  1.0  -0.1606
  C  C369  1  0.974000  0.784700  0.313700  1.0  0.6866
  C  C370  1  0.939200  0.795700  0.261900  1.0  -0.0347
  C  C371  1  0.908200  0.780300  0.242600  1.0  -0.1157
  C  C372  1  0.905600  0.809100  0.209200  1.0  0.6685
  C  C373  1  0.880400  0.741600  0.252200  1.0  -0.0972
  C  C374  1  0.887400  0.715000  0.282000  1.0  0.2796
  C  C375  1  0.858200  0.679000  0.292000  1.0  0.4059
  C  C376  1  0.914800  0.727400  0.303200  1.0  -0.1353
  C  C377  1  0.048100  0.052600  0.329000  1.0  -0.1538
  C  C378  1  0.050500  0.984600  0.331500  1.0  0.6889
  C  C379  1  0.064900  0.088900  0.350700  1.0  0.0006
  C  C380  1  0.062800  0.155100  0.348500  1.0  -0.1527
  C  C381  1  0.084700  0.193400  0.372600  1.0  0.7368
  C  C382  1  0.044700  0.178500  0.323000  1.0  -0.0669
  C  C383  1  0.026000  0.141300  0.300200  1.0  -0.0128
  C  C384  1  0.005000  0.167700  0.273700  1.0  0.18
  C  C385  1  0.028800  0.079400  0.303400  1.0  -0.0519
  C  C386  1  0.258200  0.970600  0.434000  1.0  -0.1071
  C  C387  1  0.235700  0.978600  0.464800  1.0  0.727
  C  C388  1  0.281200  0.921400  0.431300  1.0  -0.0075
  C  C389  1  0.299600  0.910400  0.403000  1.0  -0.1261
  C  C390  1  0.326400  0.854700  0.398300  1.0  0.7505
  C  C391  1  0.295200  0.949600  0.375200  1.0  -0.0993
  C  C392  1  0.272200  0.001000  0.378600  1.0  0.0355
  C  C393  1  0.265300  0.040600  0.351400  1.0  0.3433
  C  C394  1  0.252400  0.007500  0.407200  1.0  -0.06
  C  C395  1  0.082700  0.649300  0.335100  1.0  -0.1406
  C  C396  1  0.053600  0.692900  0.351100  1.0  0.7342
  C  C397  1  0.080200  0.586000  0.341300  1.0  0.0144
  C  C398  1  0.105300  0.545100  0.329300  1.0  -0.1629
  C  C399  1  0.100800  0.478000  0.336000  1.0  0.654
  C  C400  1  0.134800  0.565200  0.310300  1.0  -0.0343
  C  C401  1  0.140500  0.628700  0.304500  1.0  -0.0778
  C  C402  1  0.172800  0.653000  0.284000  1.0  0.2445
  C  C403  1  0.150100  0.061000  0.411700  1.0  0.6211
  C  C404  1  0.141600  0.214600  0.499500  1.0  0.5767
  C  C405  1  0.725800  0.756800  0.438300  1.0  -0.1275
  C  C406  1  0.727000  0.688100  0.443000  1.0  0.6897
  C  C407  1  0.750500  0.794900  0.454900  1.0  0.0031
  C  C408  1  0.748800  0.859300  0.451700  1.0  -0.1403
  C  C409  1  0.776600  0.899800  0.469600  1.0  0.7106
  C  C410  1  0.721000  0.886100  0.433600  1.0  -0.0608
  C  C411  1  0.695400  0.847300  0.416400  1.0  0.1241
  C  C412  1  0.668400  0.873900  0.397100  1.0  0.0996
  C  C413  1  0.614000  0.830800  0.681600  1.0  -0.0189
  C  C414  1  0.698800  0.784300  0.419100  1.0  -0.0772
  C  C415  1  0.622900  0.649600  0.513900  1.0  -0.1143
  C  C416  1  0.651200  0.600000  0.502800  1.0  0.7094
  C  C417  1  0.602100  0.642900  0.541300  1.0  -0.0139
  C  C418  1  0.577600  0.691300  0.551100  1.0  -0.1469
  C  C419  1  0.558100  0.690400  0.582700  1.0  0.7817
  C  C420  1  0.573500  0.741300  0.530500  1.0  -0.0965
  C  C421  1  0.592000  0.744600  0.500800  1.0  -0.0061
  C  C422  1  0.590700  0.800200  0.481400  1.0  0.3335
  C  C423  1  0.618100  0.698500  0.491800  1.0  -0.1
  C  C424  1  0.445100  0.566400  0.610600  1.0  -0.1568
  C  C425  1  0.469700  0.623800  0.613200  1.0  0.7739
  C  C426  1  0.415800  0.563200  0.587600  1.0  0.0018
  C  C427  1  0.392000  0.510600  0.583800  1.0  -0.0648
  C  C428  1  0.360700  0.509600  0.560200  1.0  0.7529
  C  C429  1  0.398000  0.460600  0.601300  1.0  -0.0416
  C  C430  1  0.428100  0.460700  0.625600  1.0  -0.0028
  C  C431  1  0.438000  0.402000  0.633800  1.0  0.3803
  C  C432  1  0.451400  0.516700  0.629800  1.0  -0.0434
  C  C433  1  0.478000  0.852800  0.510000  1.0  -0.1214
  C  C434  1  0.478000  0.828300  0.542900  1.0  0.6575
  C  C435  1  0.453000  0.832000  0.486800  1.0  -0.0224
  C  C436  1  0.451100  0.856500  0.456300  1.0  -0.1057
  C  C437  1  0.422800  0.832700  0.434200  1.0  0.764
  C  C438  1  0.476700  0.902000  0.447800  1.0  -0.0151
  C  C439  1  0.504200  0.923500  0.469800  1.0  -0.0331
  C  C440  1  0.531500  0.972300  0.459800  1.0  0.3096
  C  C441  1  0.504600  0.900100  0.500600  1.0  -0.0379
  C  C442  1  0.442200  0.732600  0.707100  1.0  -0.1606
  C  C443  1  0.474000  0.715300  0.686300  1.0  0.6863
  C  C444  1  0.439200  0.704300  0.738100  1.0  -0.0338
  C  C445  1  0.408200  0.719700  0.757400  1.0  -0.1134
  C  C446  1  0.405600  0.690900  0.790800  1.0  0.667
  C  C447  1  0.380400  0.758400  0.747800  1.0  -0.0976
  C  C448  1  0.387400  0.785000  0.718000  1.0  0.2798
  C  C449  1  0.358200  0.821000  0.708000  1.0  0.4048
  C  C450  1  0.414800  0.772600  0.696800  1.0  -0.1347
  C  C451  1  0.548100  0.447400  0.671000  1.0  -0.1537
  C  C452  1  0.550500  0.515400  0.668500  1.0  0.688
  C  C453  1  0.564900  0.411100  0.649300  1.0  0.0015
  C  C454  1  0.562800  0.344900  0.651500  1.0  -0.1532
  C  C455  1  0.584700  0.306600  0.627400  1.0  0.7363
  C  C456  1  0.544700  0.321500  0.677000  1.0  -0.0665
  C  C457  1  0.526000  0.358700  0.699800  1.0  -0.0153
  C  C458  1  0.505000  0.332300  0.726300  1.0  0.1791
  C  C459  1  0.528800  0.420600  0.696600  1.0  -0.0546
  C  C460  1  0.758200  0.529400  0.566000  1.0  -0.1073
  C  C461  1  0.735700  0.521400  0.535200  1.0  0.728
  C  C462  1  0.781200  0.578600  0.568700  1.0  -0.0081
  C  C463  1  0.799600  0.589600  0.597000  1.0  -0.1255
  C  C464  1  0.826400  0.645300  0.601700  1.0  0.7515
  C  C465  1  0.795200  0.550400  0.624800  1.0  -0.0997
  C  C466  1  0.772200  0.499000  0.621400  1.0  0.0327
  C  C467  1  0.765300  0.459400  0.648600  1.0  0.3437
  C  C468  1  0.752400  0.492500  0.592800  1.0  -0.0584
  C  C469  1  0.582700  0.850700  0.664900  1.0  -0.1409
  C  C470  1  0.553600  0.807100  0.648900  1.0  0.733
  C  C471  1  0.580200  0.914000  0.658700  1.0  0.0144
  C  C472  1  0.605300  0.954900  0.670700  1.0  -0.1631
  C  C473  1  0.600800  0.022000  0.664000  1.0  0.654
  C  C474  1  0.634800  0.934800  0.689700  1.0  -0.0339
  C  C475  1  0.640500  0.871300  0.695500  1.0  -0.0765
  C  C476  1  0.672800  0.847000  0.716000  1.0  0.2455
  C  C477  1  0.650100  0.439000  0.588300  1.0  0.62
  C  C478  1  0.641600  0.285400  0.500500  1.0  0.5778
  C  C479  1  0.774200  0.243200  0.938300  1.0  -0.1277
  C  C480  1  0.773000  0.311900  0.943000  1.0  0.689
  C  C481  1  0.749500  0.205100  0.954900  1.0  0.0027
  C  C482  1  0.751200  0.140700  0.951700  1.0  -0.141
  C  C483  1  0.723400  0.100200  0.969600  1.0  0.711
  C  C484  1  0.779000  0.113900  0.933600  1.0  -0.059
  C  C485  1  0.804600  0.152700  0.916400  1.0  0.1237
  C  C486  1  0.831600  0.126100  0.897100  1.0  0.0985
  C  C487  1  0.886000  0.169200  0.181600  1.0  -0.0202
  C  C488  1  0.801200  0.215700  0.919100  1.0  -0.0796
  C  C489  1  0.877100  0.350400  0.013900  1.0  -0.1147
  C  C490  1  0.848800  0.400000  0.002800  1.0  0.7086
  C  C491  1  0.897900  0.357100  0.041300  1.0  -0.0157
  C  C492  1  0.922400  0.308700  0.051100  1.0  -0.1479
  C  C493  1  0.941900  0.309600  0.082700  1.0  0.7801
  C  C494  1  0.926500  0.258700  0.030500  1.0  -0.0953
  C  C495  1  0.908000  0.255400  0.000800  1.0  -0.0075
  C  C496  1  0.909300  0.199800  0.981400  1.0  0.3337
  C  C497  1  0.881900  0.301500  0.991800  1.0  -0.1011
  C  C498  1  0.054900  0.433600  0.110600  1.0  -0.1566
  C  C499  1  0.030300  0.376200  0.113200  1.0  0.7744
  C  C500  1  0.084200  0.436800  0.087600  1.0  0.0037
  C  C501  1  0.108000  0.489400  0.083800  1.0  -0.0647
  C  C502  1  0.139300  0.490400  0.060200  1.0  0.7533
  C  C503  1  0.102000  0.539400  0.101300  1.0  -0.0427
  C  C504  1  0.071900  0.539300  0.125600  1.0  -0.0022
  C  C505  1  0.062000  0.598000  0.133800  1.0  0.3777
  C  C506  1  0.048600  0.483300  0.129800  1.0  -0.0447
  C  C507  1  0.022000  0.147200  0.010000  1.0  -0.1221
  C  C508  1  0.022000  0.171700  0.042900  1.0  0.6581
  C  C509  1  0.047000  0.168000  0.986800  1.0  -0.024
  C  C510  1  0.048900  0.143500  0.956300  1.0  -0.1057
  C  C511  1  0.077200  0.167300  0.934200  1.0  0.7645
  C  C512  1  0.023300  0.098000  0.947800  1.0  -0.0144
  C  C513  1  0.995800  0.076500  0.969800  1.0  -0.0353
  C  C514  1  0.968500  0.027700  0.959800  1.0  0.3107
  C  C515  1  0.995400  0.099900  0.000600  1.0  -0.0378
  C  C516  1  0.057800  0.267400  0.207100  1.0  -0.1608
  C  C517  1  0.026000  0.284700  0.186300  1.0  0.6859
  C  C518  1  0.060800  0.295700  0.238100  1.0  -0.0355
  C  C519  1  0.091800  0.280300  0.257400  1.0  -0.1157
  C  C520  1  0.094400  0.309100  0.290800  1.0  0.6679
  C  C521  1  0.119600  0.241600  0.247800  1.0  -0.0969
  C  C522  1  0.112600  0.215000  0.218000  1.0  0.2777
  C  C523  1  0.141800  0.179000  0.208000  1.0  0.406
  C  C524  1  0.085200  0.227400  0.196800  1.0  -0.1356
  C  C525  1  0.951900  0.552600  0.171000  1.0  -0.1534
  C  C526  1  0.949500  0.484600  0.168500  1.0  0.6877
  C  C527  1  0.935100  0.588900  0.149300  1.0  0.0011
  C  C528  1  0.937200  0.655100  0.151500  1.0  -0.1531
  C  C529  1  0.915300  0.693400  0.127400  1.0  0.7362
  C  C530  1  0.955300  0.678500  0.177000  1.0  -0.0671
  C  C531  1  0.974000  0.641300  0.199800  1.0  -0.0179
  C  C532  1  0.995000  0.667700  0.226300  1.0  0.1805
  C  C533  1  0.971200  0.579400  0.196600  1.0  -0.0543
  C  C534  1  0.741800  0.470600  0.066000  1.0  -0.107
  C  C535  1  0.764300  0.478600  0.035200  1.0  0.7286
  C  C536  1  0.718800  0.421400  0.068700  1.0  -0.0077
  C  C537  1  0.700400  0.410400  0.097000  1.0  -0.1272
  C  C538  1  0.673600  0.354700  0.101700  1.0  0.7513
  C  C539  1  0.704800  0.449600  0.124800  1.0  -0.0994
  C  C540  1  0.727800  0.501000  0.121400  1.0  0.0332
  C  C541  1  0.734700  0.540600  0.148600  1.0  0.3436
  C  C542  1  0.747600  0.507500  0.092800  1.0  -0.0593
  C  C543  1  0.917300  0.149300  0.164900  1.0  -0.1408
  C  C544  1  0.946400  0.192900  0.148900  1.0  0.7329
  C  C545  1  0.919800  0.086000  0.158700  1.0  0.014
  C  C546  1  0.894700  0.045100  0.170700  1.0  -0.164
  C  C547  1  0.899200  0.978000  0.164000  1.0  0.6539
  C  C548  1  0.865200  0.065200  0.189700  1.0  -0.0352
  C  C549  1  0.859500  0.128700  0.195500  1.0  -0.0773
  C  C550  1  0.827200  0.153000  0.216000  1.0  0.243
  C  C551  1  0.849900  0.561000  0.088300  1.0  0.6203
  C  C552  1  0.858400  0.714600  0.000500  1.0  0.5783
  C  C553  1  0.725800  0.743200  0.938300  1.0  -0.1277
  C  C554  1  0.727000  0.811900  0.943000  1.0  0.689
  C  C555  1  0.750500  0.705100  0.954900  1.0  0.0024
  C  C556  1  0.748800  0.640700  0.951700  1.0  -0.1405
  C  C557  1  0.776600  0.600200  0.969600  1.0  0.7096
  C  C558  1  0.721000  0.613900  0.933600  1.0  -0.0602
  C  C559  1  0.695400  0.652700  0.916400  1.0  0.123
  C  C560  1  0.668400  0.626100  0.897100  1.0  0.1001
  C  C561  1  0.614000  0.669200  0.181600  1.0  -0.0205
  C  C562  1  0.698800  0.715700  0.919100  1.0  -0.0772
  C  C563  1  0.622900  0.850400  0.013900  1.0  -0.1146
  C  C564  1  0.651200  0.900000  0.002800  1.0  0.7077
  C  C565  1  0.602100  0.857100  0.041300  1.0  -0.0159
  C  C566  1  0.577600  0.808700  0.051100  1.0  -0.1472
  C  C567  1  0.558100  0.809600  0.082700  1.0  0.7811
  C  C568  1  0.573500  0.758700  0.030500  1.0  -0.0962
  C  C569  1  0.592000  0.755400  0.000800  1.0  -0.0081
  C  C570  1  0.590700  0.699800  0.981400  1.0  0.3333
  C  C571  1  0.618100  0.801500  0.991800  1.0  -0.1003
  C  C572  1  0.445100  0.933600  0.110600  1.0  -0.1563
  C  C573  1  0.469700  0.876200  0.113200  1.0  0.7742
  C  C574  1  0.415800  0.936800  0.087600  1.0  0.0042
  C  C575  1  0.392000  0.989400  0.083800  1.0  -0.0647
  C  C576  1  0.360700  0.990400  0.060200  1.0  0.7528
  C  C577  1  0.398000  0.039400  0.101300  1.0  -0.0427
  C  C578  1  0.428100  0.039300  0.125600  1.0  -0.0031
  C  C579  1  0.438000  0.098000  0.133800  1.0  0.3798
  C  C580  1  0.451400  0.983300  0.129800  1.0  -0.0431
  C  C581  1  0.478000  0.647200  0.010000  1.0  -0.1213
  C  C582  1  0.478000  0.671700  0.042900  1.0  0.6575
  C  C583  1  0.453000  0.668000  0.986800  1.0  -0.0223
  C  C584  1  0.451100  0.643500  0.956300  1.0  -0.1056
  C  C585  1  0.422800  0.667300  0.934200  1.0  0.7645
  C  C586  1  0.476700  0.598000  0.947800  1.0  -0.0144
  C  C587  1  0.504200  0.576500  0.969800  1.0  -0.0337
  C  C588  1  0.531500  0.527700  0.959800  1.0  0.3105
  C  C589  1  0.504600  0.599900  0.000600  1.0  -0.0383
  C  C590  1  0.442200  0.767400  0.207100  1.0  -0.1603
  C  C591  1  0.474000  0.784700  0.186300  1.0  0.6864
  C  C592  1  0.439200  0.795700  0.238100  1.0  -0.0351
  C  C593  1  0.408200  0.780300  0.257400  1.0  -0.1141
  C  C594  1  0.405600  0.809100  0.290800  1.0  0.6678
  C  C595  1  0.380400  0.741600  0.247800  1.0  -0.0972
  C  C596  1  0.387400  0.715000  0.218000  1.0  0.2795
  C  C597  1  0.358200  0.679000  0.208000  1.0  0.4057
  C  C598  1  0.414800  0.727400  0.196800  1.0  -0.135
  C  C599  1  0.548100  0.052600  0.171000  1.0  -0.1543
  C  C600  1  0.550500  0.984600  0.168500  1.0  0.6883
  C  C601  1  0.564900  0.088900  0.149300  1.0  0.0015
  C  C602  1  0.562800  0.155100  0.151500  1.0  -0.153
  C  C603  1  0.584700  0.193400  0.127400  1.0  0.7363
  C  C604  1  0.544700  0.178500  0.177000  1.0  -0.0664
  C  C605  1  0.526000  0.141300  0.199800  1.0  -0.0161
  C  C606  1  0.505000  0.167700  0.226300  1.0  0.1789
  C  C607  1  0.528800  0.079400  0.196600  1.0  -0.0547
  C  C608  1  0.758200  0.970600  0.066000  1.0  -0.1068
  C  C609  1  0.735700  0.978600  0.035200  1.0  0.7279
  C  C610  1  0.781200  0.921400  0.068700  1.0  -0.0076
  C  C611  1  0.799600  0.910400  0.097000  1.0  -0.1258
  C  C612  1  0.826400  0.854700  0.101700  1.0  0.7505
  C  C613  1  0.795200  0.949600  0.124800  1.0  -0.0994
  C  C614  1  0.772200  0.001000  0.121400  1.0  0.0331
  C  C615  1  0.765300  0.040600  0.148600  1.0  0.3436
  C  C616  1  0.752400  0.007500  0.092800  1.0  -0.0601
  C  C617  1  0.582700  0.649300  0.164900  1.0  -0.1406
  C  C618  1  0.553600  0.692900  0.148900  1.0  0.7341
  C  C619  1  0.580200  0.586000  0.158700  1.0  0.0147
  C  C620  1  0.605300  0.545100  0.170700  1.0  -0.1631
  C  C621  1  0.600800  0.478000  0.164000  1.0  0.654
  C  C622  1  0.634800  0.565200  0.189700  1.0  -0.034
  C  C623  1  0.640500  0.628700  0.195500  1.0  -0.0771
  C  C624  1  0.672800  0.653000  0.216000  1.0  0.245
  C  C625  1  0.650100  0.061000  0.088300  1.0  0.6202
  C  C626  1  0.641600  0.214600  0.000500  1.0  0.577
  C  C627  1  0.774200  0.256800  0.438300  1.0  -0.1282
  C  C628  1  0.773000  0.188100  0.443000  1.0  0.6889
  C  C629  1  0.749500  0.294900  0.454900  1.0  0.0033
  C  C630  1  0.751200  0.359300  0.451700  1.0  -0.1404
  C  C631  1  0.723400  0.399800  0.469600  1.0  0.71
  C  C632  1  0.779000  0.386100  0.433600  1.0  -0.0601
  C  C633  1  0.804600  0.347300  0.416400  1.0  0.1241
  C  C634  1  0.831600  0.373900  0.397100  1.0  0.0976
  C  C635  1  0.886000  0.330800  0.681600  1.0  -0.019
  C  C636  1  0.801200  0.284300  0.419100  1.0  -0.0797
  C  C637  1  0.877100  0.149600  0.513900  1.0  -0.1146
  C  C638  1  0.848800  0.100000  0.502800  1.0  0.7065
  C  C639  1  0.897900  0.142900  0.541300  1.0  -0.0138
  C  C640  1  0.922400  0.191300  0.551100  1.0  -0.1476
  C  C641  1  0.941900  0.190400  0.582700  1.0  0.7807
  C  C642  1  0.926500  0.241300  0.530500  1.0  -0.0955
  C  C643  1  0.908000  0.244600  0.500800  1.0  -0.0057
  C  C644  1  0.909300  0.300200  0.481400  1.0  0.3342
  C  C645  1  0.881900  0.198500  0.491800  1.0  -0.1008
  C  C646  1  0.054900  0.066400  0.610600  1.0  -0.1571
  C  C647  1  0.030300  0.123800  0.613200  1.0  0.774
  C  C648  1  0.084200  0.063200  0.587600  1.0  0.0015
  C  C649  1  0.108000  0.010600  0.583800  1.0  -0.0649
  C  C650  1  0.139300  0.009600  0.560200  1.0  0.7534
  C  C651  1  0.102000  0.960600  0.601300  1.0  -0.0425
  C  C652  1  0.071900  0.960700  0.625600  1.0  -0.0023
  C  C653  1  0.062000  0.902000  0.633800  1.0  0.3774
  C  C654  1  0.048600  0.016700  0.629800  1.0  -0.0447
  C  C655  1  0.022000  0.352800  0.510000  1.0  -0.1221
  C  C656  1  0.022000  0.328300  0.542900  1.0  0.6579
  C  C657  1  0.047000  0.332000  0.486800  1.0  -0.0245
  C  C658  1  0.048900  0.356500  0.456300  1.0  -0.1058
  C  C659  1  0.077200  0.332700  0.434200  1.0  0.764
  C  C660  1  0.023300  0.402000  0.447800  1.0  -0.0149
  C  C661  1  0.995800  0.423500  0.469800  1.0  -0.0332
  C  C662  1  0.968500  0.472300  0.459800  1.0  0.3099
  C  C663  1  0.995400  0.400100  0.500600  1.0  -0.0374
  C  C664  1  0.057800  0.232600  0.707100  1.0  -0.1614
  C  C665  1  0.026000  0.215300  0.686300  1.0  0.6858
  C  C666  1  0.060800  0.204300  0.738100  1.0  -0.0337
  C  C667  1  0.091800  0.219700  0.757400  1.0  -0.1147
  C  C668  1  0.094400  0.190900  0.790800  1.0  0.6673
  C  C669  1  0.119600  0.258400  0.747800  1.0  -0.0971
  C  C670  1  0.112600  0.285000  0.718000  1.0  0.2773
  C  C671  1  0.141800  0.321000  0.708000  1.0  0.4053
  C  C672  1  0.085200  0.272600  0.696800  1.0  -0.1353
  C  C673  1  0.951900  0.947400  0.671000  1.0  -0.1525
  C  C674  1  0.949500  0.015400  0.668500  1.0  0.6888
  C  C675  1  0.935100  0.911100  0.649300  1.0  0.0012
  C  C676  1  0.937200  0.844900  0.651500  1.0  -0.1533
  C  C677  1  0.915300  0.806600  0.627400  1.0  0.7363
  C  C678  1  0.955300  0.821500  0.677000  1.0  -0.0664
  C  C679  1  0.974000  0.858700  0.699800  1.0  -0.0164
  C  C680  1  0.995000  0.832300  0.726300  1.0  0.1808
  C  C681  1  0.971200  0.920600  0.696600  1.0  -0.0539
  C  C682  1  0.741800  0.029400  0.566000  1.0  -0.1076
  C  C683  1  0.764300  0.021400  0.535200  1.0  0.7286
  C  C684  1  0.718800  0.078600  0.568700  1.0  -0.0086
  C  C685  1  0.700400  0.089600  0.597000  1.0  -0.1263
  C  C686  1  0.673600  0.145300  0.601700  1.0  0.7518
  C  C687  1  0.704800  0.050400  0.624800  1.0  -0.0998
  C  C688  1  0.727800  0.999000  0.621400  1.0  0.0328
  C  C689  1  0.734700  0.959400  0.648600  1.0  0.3436
  C  C690  1  0.747600  0.992500  0.592800  1.0  -0.0577
  C  C691  1  0.917300  0.350700  0.664900  1.0  -0.1408
  C  C692  1  0.946400  0.307100  0.648900  1.0  0.7318
  C  C693  1  0.919800  0.414000  0.658700  1.0  0.0137
  C  C694  1  0.894700  0.454900  0.670700  1.0  -0.1641
  C  C695  1  0.899200  0.522000  0.664000  1.0  0.654
  C  C696  1  0.865200  0.434800  0.689700  1.0  -0.0352
  C  C697  1  0.859500  0.371300  0.695500  1.0  -0.0781
  C  C698  1  0.827200  0.347000  0.716000  1.0  0.2436
  C  C699  1  0.849900  0.939000  0.588300  1.0  0.6201
  C  C700  1  0.858400  0.785400  0.500500  1.0  0.579
  C  C701  1  0.274200  0.243200  0.561700  1.0  -0.1271
  C  C702  1  0.273000  0.311900  0.557000  1.0  0.6885
  C  C703  1  0.249500  0.205100  0.545100  1.0  0.0037
  C  C704  1  0.251200  0.140700  0.548300  1.0  -0.1407
  C  C705  1  0.223400  0.100200  0.530400  1.0  0.71
  C  C706  1  0.279000  0.113900  0.566400  1.0  -0.059
  C  C707  1  0.304600  0.152700  0.583600  1.0  0.1241
  C  C708  1  0.331600  0.126100  0.602900  1.0  0.0978
  C  C709  1  0.386000  0.169200  0.318400  1.0  -0.0204
  C  C710  1  0.301200  0.215700  0.580900  1.0  -0.0778
  C  C711  1  0.377100  0.350400  0.486100  1.0  -0.1147
  C  C712  1  0.348800  0.400000  0.497200  1.0  0.7066
  C  C713  1  0.397900  0.357100  0.458700  1.0  -0.0152
  C  C714  1  0.422400  0.308700  0.448900  1.0  -0.1475
  C  C715  1  0.441900  0.309600  0.417300  1.0  0.7791
  C  C716  1  0.426500  0.258700  0.469500  1.0  -0.0954
  C  C717  1  0.408000  0.255400  0.499200  1.0  -0.0064
  C  C718  1  0.409300  0.199800  0.518600  1.0  0.3351
  C  C719  1  0.381900  0.301500  0.508200  1.0  -0.1011
  C  C720  1  0.554900  0.433600  0.389400  1.0  -0.1567
  C  C721  1  0.530300  0.376200  0.386800  1.0  0.7743
  C  C722  1  0.584200  0.436800  0.412400  1.0  0.0042
  C  C723  1  0.608000  0.489400  0.416200  1.0  -0.0646
  C  C724  1  0.639300  0.490400  0.439800  1.0  0.7551
  C  C725  1  0.602000  0.539400  0.398700  1.0  -0.0423
  C  C726  1  0.571900  0.539300  0.374400  1.0  -0.003
  C  C727  1  0.562000  0.598000  0.366200  1.0  0.3791
  C  C728  1  0.548600  0.483300  0.370200  1.0  -0.0455
  C  C729  1  0.522000  0.147200  0.490000  1.0  -0.1226
  C  C730  1  0.522000  0.171700  0.457100  1.0  0.6567
  C  C731  1  0.547000  0.168000  0.513200  1.0  -0.0236
  C  C732  1  0.548900  0.143500  0.543700  1.0  -0.107
  C  C733  1  0.577200  0.167300  0.565800  1.0  0.7637
  C  C734  1  0.523300  0.098000  0.552200  1.0  -0.0135
  C  C735  1  0.495800  0.076500  0.530200  1.0  -0.0343
  C  C736  1  0.468500  0.027700  0.540200  1.0  0.3107
  C  C737  1  0.495400  0.099900  0.499400  1.0  -0.0371
  C  C738  1  0.557800  0.267400  0.292900  1.0  -0.161
  C  C739  1  0.526000  0.284700  0.313700  1.0  0.6862
  C  C740  1  0.560800  0.295700  0.261900  1.0  -0.0352
  C  C741  1  0.591800  0.280300  0.242600  1.0  -0.1163
  C  C742  1  0.594400  0.309100  0.209200  1.0  0.668
  C  C743  1  0.619600  0.241600  0.252200  1.0  -0.0977
  C  C744  1  0.612600  0.215000  0.282000  1.0  0.2779
  C  C745  1  0.641800  0.179000  0.292000  1.0  0.4065
  C  C746  1  0.585200  0.227400  0.303200  1.0  -0.1356
  C  C747  1  0.451900  0.552600  0.329000  1.0  -0.1534
  C  C748  1  0.449500  0.484600  0.331500  1.0  0.6885
  C  C749  1  0.435100  0.588900  0.350700  1.0  0.0007
  C  C750  1  0.437200  0.655100  0.348500  1.0  -0.1528
  C  C751  1  0.415300  0.693400  0.372600  1.0  0.736
  C  C752  1  0.455300  0.678500  0.323000  1.0  -0.0675
  C  C753  1  0.474000  0.641300  0.300200  1.0  -0.0139
  C  C754  1  0.495000  0.667700  0.273700  1.0  0.1811
  C  C755  1  0.471200  0.579400  0.303400  1.0  -0.0536
  C  C756  1  0.241800  0.470600  0.434000  1.0  -0.1076
  C  C757  1  0.264300  0.478600  0.464800  1.0  0.7271
  C  C758  1  0.218800  0.421400  0.431300  1.0  -0.0077
  C  C759  1  0.200400  0.410400  0.403000  1.0  -0.1271
  C  C760  1  0.173600  0.354700  0.398300  1.0  0.7514
  C  C761  1  0.204800  0.449600  0.375200  1.0  -0.0989
  C  C762  1  0.227800  0.501000  0.378600  1.0  0.0354
  C  C763  1  0.234700  0.540600  0.351400  1.0  0.3428
  C  C764  1  0.247600  0.507500  0.407200  1.0  -0.0593
  C  C765  1  0.417300  0.149300  0.335100  1.0  -0.1407
  C  C766  1  0.446400  0.192900  0.351100  1.0  0.7329
  C  C767  1  0.419800  0.086000  0.341300  1.0  0.0141
  C  C768  1  0.394700  0.045100  0.329300  1.0  -0.1638
  C  C769  1  0.399200  0.978000  0.336000  1.0  0.6541
  C  C770  1  0.365200  0.065200  0.310300  1.0  -0.0344
  C  C771  1  0.359500  0.128700  0.304500  1.0  -0.0779
  C  C772  1  0.327200  0.153000  0.284000  1.0  0.2437
  C  C773  1  0.349900  0.561000  0.411700  1.0  0.6209
  C  C774  1  0.358400  0.714600  0.499500  1.0  0.5781
  C  C775  1  0.225800  0.756800  0.061700  1.0  -0.1272
  C  C776  1  0.227000  0.688100  0.057000  1.0  0.69
  C  C777  1  0.250500  0.794900  0.045100  1.0  0.0034
  C  C778  1  0.248800  0.859300  0.048300  1.0  -0.1397
  C  C779  1  0.276600  0.899800  0.030400  1.0  0.7094
  C  C780  1  0.221000  0.886100  0.066400  1.0  -0.0599
  C  C781  1  0.195400  0.847300  0.083600  1.0  0.1238
  C  C782  1  0.168400  0.873900  0.102900  1.0  0.0971
  C  C783  1  0.114000  0.830800  0.818400  1.0  -0.0189
  C  C784  1  0.198800  0.784300  0.080900  1.0  -0.0771
  C  C785  1  0.122900  0.649600  0.986100  1.0  -0.1142
  C  C786  1  0.151200  0.600000  0.997200  1.0  0.7082
  C  C787  1  0.102100  0.642900  0.958700  1.0  -0.0146
  C  C788  1  0.077600  0.691300  0.948900  1.0  -0.1471
  C  C789  1  0.058100  0.690400  0.917300  1.0  0.7802
  C  C790  1  0.073500  0.741300  0.969500  1.0  -0.0966
  C  C791  1  0.092000  0.744600  0.999200  1.0  -0.0057
  C  C792  1  0.090700  0.800200  0.018600  1.0  0.3337
  C  C793  1  0.118100  0.698500  0.008200  1.0  -0.1008
  C  C794  1  0.945100  0.566400  0.889400  1.0  -0.1568
  C  C795  1  0.969700  0.623800  0.886800  1.0  0.7738
  C  C796  1  0.915800  0.563200  0.912400  1.0  0.0013
  C  C797  1  0.892000  0.510600  0.916200  1.0  -0.0644
  C  C798  1  0.860700  0.509600  0.939800  1.0  0.7545
  C  C799  1  0.898000  0.460600  0.898700  1.0  -0.0411
  C  C800  1  0.928100  0.460700  0.874400  1.0  -0.0041
  C  C801  1  0.938000  0.402000  0.866200  1.0  0.3797
  C  C802  1  0.951400  0.516700  0.870200  1.0  -0.0445
  C  C803  1  0.978000  0.852800  0.990000  1.0  -0.1227
  C  C804  1  0.978000  0.828300  0.957100  1.0  0.6577
  C  C805  1  0.953000  0.832000  0.013200  1.0  -0.0227
  C  C806  1  0.951100  0.856500  0.043700  1.0  -0.1066
  C  C807  1  0.922800  0.832700  0.065800  1.0  0.7631
  C  C808  1  0.976700  0.902000  0.052200  1.0  -0.0136
  C  C809  1  0.004200  0.923500  0.030200  1.0  -0.0336
  C  C810  1  0.031500  0.972300  0.040200  1.0  0.3102
  C  C811  1  0.004600  0.900100  0.999400  1.0  -0.0373
  C  C812  1  0.942200  0.732600  0.792900  1.0  -0.1606
  C  C813  1  0.974000  0.715300  0.813700  1.0  0.6865
  C  C814  1  0.939200  0.704300  0.761900  1.0  -0.0336
  C  C815  1  0.908200  0.719700  0.742600  1.0  -0.1153
  C  C816  1  0.905600  0.690900  0.709200  1.0  0.6667
  C  C817  1  0.880400  0.758400  0.752200  1.0  -0.0969
  C  C818  1  0.887400  0.785000  0.782000  1.0  0.2797
  C  C819  1  0.858200  0.821000  0.792000  1.0  0.4038
  C  C820  1  0.914800  0.772600  0.803200  1.0  -0.1357
  C  C821  1  0.048100  0.447400  0.829000  1.0  -0.1533
  C  C822  1  0.050500  0.515400  0.831500  1.0  0.6885
  C  C823  1  0.064900  0.411100  0.850700  1.0  0.0004
  C  C824  1  0.062800  0.344900  0.848500  1.0  -0.1526
  C  C825  1  0.084700  0.306600  0.872600  1.0  0.7371
  C  C826  1  0.044700  0.321500  0.823000  1.0  -0.067
  C  C827  1  0.026000  0.358700  0.800200  1.0  -0.0137
  C  C828  1  0.005000  0.332300  0.773700  1.0  0.1803
  C  C829  1  0.028800  0.420600  0.803400  1.0  -0.0516
  C  C830  1  0.258200  0.529400  0.934000  1.0  -0.1065
  C  C831  1  0.235700  0.521400  0.964800  1.0  0.727
  C  C832  1  0.281200  0.578600  0.931300  1.0  -0.0092
  C  C833  1  0.299600  0.589600  0.903000  1.0  -0.1258
  C  C834  1  0.326400  0.645300  0.898300  1.0  0.7513
  C  C835  1  0.295200  0.550400  0.875200  1.0  -0.0998
  C  C836  1  0.272200  0.499000  0.878600  1.0  0.0324
  C  C837  1  0.265300  0.459400  0.851400  1.0  0.3434
  C  C838  1  0.252400  0.492500  0.907200  1.0  -0.0585
  C  C839  1  0.082700  0.850700  0.835100  1.0  -0.1409
  C  C840  1  0.053600  0.807100  0.851100  1.0  0.7332
  C  C841  1  0.080200  0.914000  0.841300  1.0  0.014
  C  C842  1  0.105300  0.954900  0.829300  1.0  -0.163
  C  C843  1  0.100800  0.022000  0.836000  1.0  0.654
  C  C844  1  0.134800  0.934800  0.810300  1.0  -0.0348
  C  C845  1  0.140500  0.871300  0.804500  1.0  -0.0779
  C  C846  1  0.172800  0.847000  0.784000  1.0  0.2447
  C  C847  1  0.150100  0.439000  0.911700  1.0  0.6208
  C  C848  1  0.141600  0.285400  0.999500  1.0  0.5771
  N  N849  1  0.357500  0.393300  0.119400  1.0  -0.4151
  N  N850  1  0.413100  0.343200  0.034500  1.0  -0.4354
  N  N851  1  0.558000  0.871000  0.843800  1.0  -0.4326
  N  N852  1  0.447800  0.508700  0.048000  1.0  -0.3975
  N  N853  1  0.662700  0.359000  0.800200  1.0  -0.4353
  N  N854  1  0.512500  0.813900  0.751700  1.0  -0.4109
  N  N855  1  0.239500  0.927800  0.830900  1.0  -0.3994
  N  N856  1  0.303800  0.329300  0.767400  1.0  -0.4544
  N  N857  1  0.142500  0.606700  0.619400  1.0  -0.4138
  N  N858  1  0.086900  0.656800  0.534500  1.0  -0.4335
  N  N859  1  0.942000  0.129000  0.343800  1.0  -0.4332
  N  N860  1  0.052200  0.491300  0.548000  1.0  -0.3983
  N  N861  1  0.837300  0.641000  0.300200  1.0  -0.4328
  N  N862  1  0.987500  0.186100  0.251700  1.0  -0.4112
  N  N863  1  0.260500  0.072200  0.330900  1.0  -0.4006
  N  N864  1  0.196200  0.670700  0.267400  1.0  -0.4524
  N  N865  1  0.642500  0.893300  0.380600  1.0  -0.4122
  N  N866  1  0.586900  0.843200  0.465500  1.0  -0.4355
  N  N867  1  0.442000  0.371000  0.656200  1.0  -0.4322
  N  N868  1  0.552200  0.008700  0.452000  1.0  -0.399
  N  N869  1  0.337300  0.859000  0.699800  1.0  -0.4332
  N  N870  1  0.487500  0.313900  0.748300  1.0  -0.411
  N  N871  1  0.760500  0.427800  0.669100  1.0  -0.3966
  N  N872  1  0.696200  0.829300  0.732600  1.0  -0.4545
  N  N873  1  0.857500  0.106700  0.880600  1.0  -0.4118
  N  N874  1  0.913100  0.156800  0.965500  1.0  -0.4349
  N  N875  1  0.058000  0.629000  0.156200  1.0  -0.4332
  N  N876  1  0.947800  0.991300  0.952000  1.0  -0.3962
  N  N877  1  0.162700  0.141000  0.199800  1.0  -0.4336
  N  N878  1  0.012500  0.686100  0.248300  1.0  -0.4125
  N  N879  1  0.739500  0.572200  0.169100  1.0  -0.3998
  N  N880  1  0.803800  0.170700  0.232600  1.0  -0.454
  N  N881  1  0.642500  0.606700  0.880600  1.0  -0.4124
  N  N882  1  0.586900  0.656800  0.965500  1.0  -0.4344
  N  N883  1  0.442000  0.129000  0.156200  1.0  -0.4336
  N  N884  1  0.552200  0.491300  0.952000  1.0  -0.3972
  N  N885  1  0.337300  0.641000  0.199800  1.0  -0.4334
  N  N886  1  0.487500  0.186100  0.248300  1.0  -0.4118
  N  N887  1  0.760500  0.072200  0.169100  1.0  -0.3994
  N  N888  1  0.696200  0.670700  0.232600  1.0  -0.4547
  N  N889  1  0.857500  0.393300  0.380600  1.0  -0.4118
  N  N890  1  0.913100  0.343200  0.465500  1.0  -0.4361
  N  N891  1  0.058000  0.871000  0.656200  1.0  -0.4316
  N  N892  1  0.947800  0.508700  0.452000  1.0  -0.397
  N  N893  1  0.162700  0.359000  0.699800  1.0  -0.4341
  N  N894  1  0.012500  0.813900  0.748300  1.0  -0.4119
  N  N895  1  0.739500  0.927800  0.669100  1.0  -0.3987
  N  N896  1  0.803800  0.329300  0.732600  1.0  -0.454
  N  N897  1  0.357500  0.106700  0.619400  1.0  -0.4141
  N  N898  1  0.413100  0.156800  0.534500  1.0  -0.4334
  N  N899  1  0.558000  0.629000  0.343800  1.0  -0.4327
  N  N900  1  0.447800  0.991300  0.548000  1.0  -0.3962
  N  N901  1  0.662700  0.141000  0.300200  1.0  -0.4335
  N  N902  1  0.512500  0.686100  0.251700  1.0  -0.4109
  N  N903  1  0.239500  0.572200  0.330900  1.0  -0.4013
  N  N904  1  0.303800  0.170700  0.267400  1.0  -0.453
  N  N905  1  0.142500  0.893300  0.119400  1.0  -0.4146
  N  N906  1  0.086900  0.843200  0.034500  1.0  -0.4355
  N  N907  1  0.942000  0.371000  0.843800  1.0  -0.4333
  N  N908  1  0.052200  0.008700  0.048000  1.0  -0.4
  N  N909  1  0.837300  0.859000  0.800200  1.0  -0.434
  N  N910  1  0.987500  0.313900  0.751700  1.0  -0.4115
  N  N911  1  0.260500  0.427800  0.830900  1.0  -0.4006
  N  N912  1  0.196200  0.829300  0.767400  1.0  -0.4538
  O  O913  1  0.249400  0.167100  0.037400  1.0  -0.6745
  O  O914  1  0.292700  0.155300  0.075000  1.0  -0.6403
  O  O915  1  0.225400  0.457900  0.036100  1.0  -0.7171
  O  O916  1  0.199800  0.374800  0.010600  1.0  -0.6473
  O  O917  1  0.322100  0.115200  0.014600  1.0  -0.6214
  O  O918  1  0.355700  0.045900  0.987700  1.0  -0.7657
  O  O919  1  0.469600  0.228900  0.913500  1.0  -0.6915
  O  O920  1  0.431000  0.154000  0.896000  1.0  -0.6719
  O  O921  1  0.540900  0.170300  0.901700  1.0  -0.6719
  O  O922  1  0.503500  0.118500  0.867400  1.0  -0.7068
  O  O923  1  0.637100  0.049300  0.962900  1.0  -0.7235
  O  O924  1  0.664000  0.969300  0.936700  1.0  -0.7023
  O  O925  1  0.499000  0.350800  0.935600  1.0  -0.6192
  O  O926  1  0.543500  0.283900  0.949600  1.0  -0.6461
  O  O927  1  0.584900  0.366700  0.090400  1.0  -0.7174
  O  O928  1  0.592800  0.280600  0.061600  1.0  -0.7124
  O  O929  1  0.526300  0.243500  0.841900  1.0  -0.6574
  O  O930  1  0.501100  0.179500  0.805200  1.0  -0.6066
  O  O931  1  0.564600  0.163200  0.698700  1.0  -0.6737
  O  O932  1  0.624500  0.198400  0.692700  1.0  -0.6706
  O  O933  1  0.466400  0.049400  0.811500  1.0  -0.7052
  O  O934  1  0.430400  0.037900  0.854400  1.0  -0.6722
  O  O935  1  0.401100  0.829600  0.897700  1.0  -0.6253
  O  O936  1  0.413900  0.750000  0.866000  1.0  -0.7759
  O  O937  1  0.256600  0.054900  0.988500  1.0  -0.7368
  O  O938  1  0.288400  0.974500  0.965800  1.0  -0.6655
  O  O939  1  0.172700  0.181800  0.921100  1.0  -0.7615
  O  O940  1  0.154300  0.151600  0.872600  1.0  -0.7074
  O  O941  1  0.471800  0.328000  0.868200  1.0  -0.6166
  O  O942  1  0.440400  0.250500  0.842900  1.0  -0.7593
  O  O943  1  0.425100  0.540000  0.854300  1.0  -0.6229
  O  O944  1  0.375400  0.561400  0.823700  1.0  -0.6597
  O  O945  1  0.341700  0.890000  0.930100  1.0  -0.7509
  O  O946  1  0.355400  0.986100  0.923800  1.0  -0.4688
  O  O947  1  0.367900  0.833500  0.981400  1.0  -0.7168
  O  O948  1  0.348300  0.736000  0.987700  1.0  -0.5925
  O  O949  1  0.250600  0.832900  0.537400  1.0  -0.6765
  O  O950  1  0.207300  0.844700  0.575000  1.0  -0.6396
  O  O951  1  0.274600  0.542100  0.536100  1.0  -0.7168
  O  O952  1  0.300200  0.625200  0.510600  1.0  -0.6493
  O  O953  1  0.177900  0.884800  0.514600  1.0  -0.6214
  O  O954  1  0.144300  0.954100  0.487700  1.0  -0.7668
  O  O955  1  0.030400  0.771100  0.413500  1.0  -0.6925
  O  O956  1  0.069000  0.846000  0.396000  1.0  -0.6724
  O  O957  1  0.959100  0.829700  0.401700  1.0  -0.6723
  O  O958  1  0.996500  0.881500  0.367400  1.0  -0.707
  O  O959  1  0.862900  0.950700  0.462900  1.0  -0.7231
  O  O960  1  0.836000  0.030700  0.436700  1.0  -0.7007
  O  O961  1  0.001000  0.649200  0.435600  1.0  -0.6204
  O  O962  1  0.956500  0.716100  0.449600  1.0  -0.6462
  O  O963  1  0.915100  0.633300  0.590400  1.0  -0.7173
  O  O964  1  0.907200  0.719400  0.561600  1.0  -0.7154
  O  O965  1  0.973700  0.756500  0.341900  1.0  -0.6555
  O  O966  1  0.998900  0.820500  0.305200  1.0  -0.6078
  O  O967  1  0.935400  0.836800  0.198700  1.0  -0.6735
  O  O968  1  0.875500  0.801600  0.192700  1.0  -0.6695
  O  O969  1  0.033600  0.950600  0.311500  1.0  -0.7026
  O  O970  1  0.069600  0.962100  0.354400  1.0  -0.675
  O  O971  1  0.098900  0.170400  0.397700  1.0  -0.6254
  O  O972  1  0.086100  0.250000  0.366000  1.0  -0.7764
  O  O973  1  0.243400  0.945100  0.488500  1.0  -0.7352
  O  O974  1  0.211600  0.025500  0.465800  1.0  -0.6664
  O  O975  1  0.327300  0.818200  0.421100  1.0  -0.7624
  O  O976  1  0.345700  0.848400  0.372600  1.0  -0.7078
  O  O977  1  0.028200  0.672000  0.368200  1.0  -0.6162
  O  O978  1  0.059600  0.749500  0.342900  1.0  -0.7571
  O  O979  1  0.074900  0.460000  0.354300  1.0  -0.624
  O  O980  1  0.124600  0.438600  0.323700  1.0  -0.66
  O  O981  1  0.158300  0.110000  0.430100  1.0  -0.7501
  O  O982  1  0.144600  0.013900  0.423800  1.0  -0.4693
  O  O983  1  0.132100  0.166500  0.481400  1.0  -0.7201
  O  O984  1  0.151700  0.264000  0.487700  1.0  -0.591
  O  O985  1  0.750600  0.667100  0.462600  1.0  -0.6759
  O  O986  1  0.707300  0.655300  0.425000  1.0  -0.6376
  O  O987  1  0.774600  0.957900  0.463900  1.0  -0.718
  O  O988  1  0.800200  0.874800  0.489400  1.0  -0.6493
  O  O989  1  0.677900  0.615200  0.485400  1.0  -0.6216
  O  O990  1  0.644300  0.545900  0.512300  1.0  -0.7651
  O  O991  1  0.530400  0.728900  0.586500  1.0  -0.691
  O  O992  1  0.569000  0.654000  0.604000  1.0  -0.6723
  O  O993  1  0.459100  0.670300  0.598300  1.0  -0.6726
  O  O994  1  0.496500  0.618500  0.632600  1.0  -0.708
  O  O995  1  0.362900  0.549300  0.537100  1.0  -0.7246
  O  O996  1  0.336000  0.469300  0.563300  1.0  -0.7015
  O  O997  1  0.501000  0.850800  0.564400  1.0  -0.6209
  O  O998  1  0.456500  0.783900  0.550400  1.0  -0.6432
  O  O999  1  0.415100  0.866700  0.409600  1.0  -0.716
  O  O1000  1  0.407200  0.780600  0.438400  1.0  -0.7143
  O  O1001  1  0.473700  0.743500  0.658100  1.0  -0.6566
  O  O1002  1  0.498900  0.679500  0.694800  1.0  -0.6075
  O  O1003  1  0.435400  0.663200  0.801300  1.0  -0.6748
  O  O1004  1  0.375500  0.698400  0.807300  1.0  -0.6693
  O  O1005  1  0.533600  0.549400  0.688500  1.0  -0.7004
  O  O1006  1  0.569600  0.537900  0.645600  1.0  -0.6754
  O  O1007  1  0.598900  0.329600  0.602300  1.0  -0.6246
  O  O1008  1  0.586100  0.250000  0.634000  1.0  -0.7761
  O  O1009  1  0.743400  0.554900  0.511500  1.0  -0.7361
  O  O1010  1  0.711600  0.474500  0.534200  1.0  -0.6672
  O  O1011  1  0.827300  0.681800  0.578900  1.0  -0.7629
  O  O1012  1  0.845700  0.651600  0.627400  1.0  -0.7085
  O  O1013  1  0.528200  0.828000  0.631800  1.0  -0.6156
  O  O1014  1  0.559600  0.750500  0.657100  1.0  -0.7584
  O  O1015  1  0.574900  0.040000  0.645700  1.0  -0.6242
  O  O1016  1  0.624600  0.061400  0.676300  1.0  -0.6585
  O  O1017  1  0.658300  0.390000  0.569900  1.0  -0.7506
  O  O1018  1  0.644600  0.486100  0.576200  1.0  -0.4678
  O  O1019  1  0.632100  0.333500  0.518600  1.0  -0.7173
  O  O1020  1  0.651700  0.236000  0.512300  1.0  -0.5938
  O  O1021  1  0.749400  0.332900  0.962600  1.0  -0.6741
  O  O1022  1  0.792700  0.344700  0.925000  1.0  -0.6412
  O  O1023  1  0.725400  0.042100  0.963900  1.0  -0.7175
  O  O1024  1  0.699800  0.125200  0.989400  1.0  -0.6482
  O  O1025  1  0.822100  0.384800  0.985400  1.0  -0.6213
  O  O1026  1  0.855700  0.454100  0.012300  1.0  -0.7662
  O  O1027  1  0.969600  0.271100  0.086500  1.0  -0.6927
  O  O1028  1  0.931000  0.346000  0.104000  1.0  -0.6724
  O  O1029  1  0.040900  0.329700  0.098300  1.0  -0.6725
  O  O1030  1  0.003500  0.381500  0.132600  1.0  -0.707
  O  O1031  1  0.137100  0.450700  0.037100  1.0  -0.7237
  O  O1032  1  0.164000  0.530700  0.063300  1.0  -0.7015
  O  O1033  1  0.999000  0.149200  0.064400  1.0  -0.6188
  O  O1034  1  0.043500  0.216100  0.050400  1.0  -0.6462
  O  O1035  1  0.084900  0.133300  0.909600  1.0  -0.7172
  O  O1036  1  0.092800  0.219400  0.938400  1.0  -0.7146
  O  O1037  1  0.026300  0.256500  0.158100  1.0  -0.6567
  O  O1038  1  0.001100  0.320500  0.194800  1.0  -0.6067
  O  O1039  1  0.064600  0.336800  0.301300  1.0  -0.6758
  O  O1040  1  0.124500  0.301600  0.307300  1.0  -0.6695
  O  O1041  1  0.966400  0.450600  0.188500  1.0  -0.7044
  O  O1042  1  0.930400  0.462100  0.145600  1.0  -0.6712
  O  O1043  1  0.901100  0.670400  0.102300  1.0  -0.6243
  O  O1044  1  0.913900  0.750000  0.134000  1.0  -0.7761
  O  O1045  1  0.756600  0.445100  0.011500  1.0  -0.7387
  O  O1046  1  0.788400  0.525500  0.034200  1.0  -0.6648
  O  O1047  1  0.672700  0.318200  0.078900  1.0  -0.7618
  O  O1048  1  0.654300  0.348400  0.127400  1.0  -0.7078
  O  O1049  1  0.971800  0.172000  0.131800  1.0  -0.6165
  O  O1050  1  0.940400  0.249500  0.157100  1.0  -0.7595
  O  O1051  1  0.925100  0.960000  0.145700  1.0  -0.6232
  O  O1052  1  0.875400  0.938600  0.176300  1.0  -0.6573
  O  O1053  1  0.841700  0.610000  0.069900  1.0  -0.7504
  O  O1054  1  0.855400  0.513900  0.076200  1.0  -0.4688
  O  O1055  1  0.867900  0.666500  0.018600  1.0  -0.7183
  O  O1056  1  0.848300  0.764000  0.012300  1.0  -0.5915
  O  O1057  1  0.750600  0.832900  0.962600  1.0  -0.6759
  O  O1058  1  0.707300  0.844700  0.925000  1.0  -0.6385
  O  O1059  1  0.774600  0.542100  0.963900  1.0  -0.7179
  O  O1060  1  0.800200  0.625200  0.989400  1.0  -0.6499
  O  O1061  1  0.677900  0.884800  0.985400  1.0  -0.6214
  O  O1062  1  0.644300  0.954100  0.012300  1.0  -0.7666
  O  O1063  1  0.530400  0.771100  0.086500  1.0  -0.6924
  O  O1064  1  0.569000  0.846000  0.104000  1.0  -0.6737
  O  O1065  1  0.459100  0.829700  0.098300  1.0  -0.6733
  O  O1066  1  0.496500  0.881500  0.132600  1.0  -0.7076
  O  O1067  1  0.362900  0.950700  0.037100  1.0  -0.7231
  O  O1068  1  0.336000  0.030700  0.063300  1.0  -0.7009
  O  O1069  1  0.501000  0.649200  0.064400  1.0  -0.6197
  O  O1070  1  0.456500  0.716100  0.050400  1.0  -0.6459
  O  O1071  1  0.415100  0.633300  0.909600  1.0  -0.7167
  O  O1072  1  0.407200  0.719400  0.938400  1.0  -0.7157
  O  O1073  1  0.473700  0.756500  0.158100  1.0  -0.6558
  O  O1074  1  0.498900  0.820500  0.194800  1.0  -0.607
  O  O1075  1  0.435400  0.836800  0.301300  1.0  -0.6746
  O  O1076  1  0.375500  0.801600  0.307300  1.0  -0.669
  O  O1077  1  0.533600  0.950600  0.188500  1.0  -0.7027
  O  O1078  1  0.569600  0.962100  0.145600  1.0  -0.6743
  O  O1079  1  0.598900  0.170400  0.102300  1.0  -0.6248
  O  O1080  1  0.586100  0.250000  0.134000  1.0  -0.7763
  O  O1081  1  0.743400  0.945100  0.011500  1.0  -0.7366
  O  O1082  1  0.711600  0.025500  0.034200  1.0  -0.6661
  O  O1083  1  0.827300  0.818200  0.078900  1.0  -0.7618
  O  O1084  1  0.845700  0.848400  0.127400  1.0  -0.7075
  O  O1085  1  0.528200  0.672000  0.131800  1.0  -0.6157
  O  O1086  1  0.559600  0.749500  0.157100  1.0  -0.7579
  O  O1087  1  0.574900  0.460000  0.145700  1.0  -0.6251
  O  O1088  1  0.624600  0.438600  0.176300  1.0  -0.658
  O  O1089  1  0.658300  0.110000  0.069900  1.0  -0.7502
  O  O1090  1  0.644600  0.013900  0.076200  1.0  -0.4687
  O  O1091  1  0.632100  0.166500  0.018600  1.0  -0.7196
  O  O1092  1  0.651700  0.264000  0.012300  1.0  -0.5914
  O  O1093  1  0.749400  0.167100  0.462600  1.0  -0.6738
  O  O1094  1  0.792700  0.155300  0.425000  1.0  -0.6395
  O  O1095  1  0.725400  0.457900  0.463900  1.0  -0.7167
  O  O1096  1  0.699800  0.374800  0.489400  1.0  -0.6474
  O  O1097  1  0.822100  0.115200  0.485400  1.0  -0.6212
  O  O1098  1  0.855700  0.045900  0.512300  1.0  -0.7654
  O  O1099  1  0.969600  0.228900  0.586500  1.0  -0.6915
  O  O1100  1  0.931000  0.154000  0.604000  1.0  -0.6708
  O  O1101  1  0.040900  0.170300  0.598300  1.0  -0.6719
  O  O1102  1  0.003500  0.118500  0.632600  1.0  -0.7075
  O  O1103  1  0.137100  0.049300  0.537100  1.0  -0.7238
  O  O1104  1  0.164000  0.969300  0.563300  1.0  -0.7027
  O  O1105  1  0.999000  0.350800  0.564400  1.0  -0.6194
  O  O1106  1  0.043500  0.283900  0.550400  1.0  -0.6449
  O  O1107  1  0.084900  0.366700  0.409600  1.0  -0.717
  O  O1108  1  0.092800  0.280600  0.438400  1.0  -0.7131
  O  O1109  1  0.026300  0.243500  0.658100  1.0  -0.6569
  O  O1110  1  0.001100  0.179500  0.694800  1.0  -0.6068
  O  O1111  1  0.064600  0.163200  0.801300  1.0  -0.674
  O  O1112  1  0.124500  0.198400  0.807300  1.0  -0.6696
  O  O1113  1  0.966400  0.049400  0.688500  1.0  -0.7017
  O  O1114  1  0.930400  0.037900  0.645600  1.0  -0.6726
  O  O1115  1  0.901100  0.829600  0.602300  1.0  -0.6242
  O  O1116  1  0.913900  0.750000  0.634000  1.0  -0.7762
  O  O1117  1  0.756600  0.054900  0.511500  1.0  -0.7383
  O  O1118  1  0.788400  0.974500  0.534200  1.0  -0.6653
  O  O1119  1  0.672700  0.181800  0.578900  1.0  -0.7606
  O  O1120  1  0.654300  0.151600  0.627400  1.0  -0.7087
  O  O1121  1  0.971800  0.328000  0.631800  1.0  -0.6163
  O  O1122  1  0.940400  0.250500  0.657100  1.0  -0.7591
  O  O1123  1  0.925100  0.540000  0.645700  1.0  -0.623
  O  O1124  1  0.875400  0.561400  0.676300  1.0  -0.6583
  O  O1125  1  0.841700  0.890000  0.569900  1.0  -0.7507
  O  O1126  1  0.855400  0.986100  0.576200  1.0  -0.4675
  O  O1127  1  0.867900  0.833500  0.518600  1.0  -0.7152
  O  O1128  1  0.848300  0.736000  0.512300  1.0  -0.5928
  O  O1129  1  0.249400  0.332900  0.537400  1.0  -0.6751
  O  O1130  1  0.292700  0.344700  0.575000  1.0  -0.6423
  O  O1131  1  0.225400  0.042100  0.536100  1.0  -0.7167
  O  O1132  1  0.199800  0.125200  0.510600  1.0  -0.6475
  O  O1133  1  0.322100  0.384800  0.514600  1.0  -0.6213
  O  O1134  1  0.355700  0.454100  0.487700  1.0  -0.7657
  O  O1135  1  0.469600  0.271100  0.413500  1.0  -0.6927
  O  O1136  1  0.431000  0.346000  0.396000  1.0  -0.6716
  O  O1137  1  0.540900  0.329700  0.401700  1.0  -0.6719
  O  O1138  1  0.503500  0.381500  0.367400  1.0  -0.7062
  O  O1139  1  0.637100  0.450700  0.462900  1.0  -0.7233
  O  O1140  1  0.664000  0.530700  0.436700  1.0  -0.7024
  O  O1141  1  0.499000  0.149200  0.435600  1.0  -0.6192
  O  O1142  1  0.543500  0.216100  0.449600  1.0  -0.6458
  O  O1143  1  0.584900  0.133300  0.590400  1.0  -0.7176
  O  O1144  1  0.592800  0.219400  0.561600  1.0  -0.7142
  O  O1145  1  0.526300  0.256500  0.341900  1.0  -0.6569
  O  O1146  1  0.501100  0.320500  0.305200  1.0  -0.6073
  O  O1147  1  0.564600  0.336800  0.198700  1.0  -0.6759
  O  O1148  1  0.624500  0.301600  0.192700  1.0  -0.6706
  O  O1149  1  0.466400  0.450600  0.311500  1.0  -0.7033
  O  O1150  1  0.430400  0.462100  0.354400  1.0  -0.6714
  O  O1151  1  0.401100  0.670400  0.397700  1.0  -0.6246
  O  O1152  1  0.413900  0.750000  0.366000  1.0  -0.7761
  O  O1153  1  0.256600  0.445100  0.488500  1.0  -0.736
  O  O1154  1  0.288400  0.525500  0.465800  1.0  -0.6651
  O  O1155  1  0.172700  0.318200  0.421100  1.0  -0.7612
  O  O1156  1  0.154300  0.348400  0.372600  1.0  -0.7076
  O  O1157  1  0.471800  0.172000  0.368200  1.0  -0.6169
  O  O1158  1  0.440400  0.249500  0.342900  1.0  -0.7587
  O  O1159  1  0.425100  0.960000  0.354300  1.0  -0.6229
  O  O1160  1  0.375400  0.938600  0.323700  1.0  -0.659
  O  O1161  1  0.341700  0.610000  0.430100  1.0  -0.7503
  O  O1162  1  0.355400  0.513900  0.423800  1.0  -0.4695
  O  O1163  1  0.367900  0.666500  0.481400  1.0  -0.7191
  O  O1164  1  0.348300  0.764000  0.487700  1.0  -0.5906
  O  O1165  1  0.250600  0.667100  0.037400  1.0  -0.676
  O  O1166  1  0.207300  0.655300  0.075000  1.0  -0.6391
  O  O1167  1  0.274600  0.957900  0.036100  1.0  -0.718
  O  O1168  1  0.300200  0.874800  0.010600  1.0  -0.6492
  O  O1169  1  0.177900  0.615200  0.014600  1.0  -0.6217
  O  O1170  1  0.144300  0.545900  0.987700  1.0  -0.7662
  O  O1171  1  0.030400  0.728900  0.913500  1.0  -0.6911
  O  O1172  1  0.069000  0.654000  0.896000  1.0  -0.6727
  O  O1173  1  0.959100  0.670300  0.901700  1.0  -0.6725
  O  O1174  1  0.996500  0.618500  0.867400  1.0  -0.7074
  O  O1175  1  0.862900  0.549300  0.962900  1.0  -0.7245
  O  O1176  1  0.836000  0.469300  0.936700  1.0  -0.7024
  O  O1177  1  0.001000  0.850800  0.935600  1.0  -0.6205
  O  O1178  1  0.956500  0.783900  0.949600  1.0  -0.645
  O  O1179  1  0.915100  0.866700  0.090400  1.0  -0.7166
  O  O1180  1  0.907200  0.780600  0.061600  1.0  -0.7136
  O  O1181  1  0.973700  0.743500  0.841900  1.0  -0.6571
  O  O1182  1  0.998900  0.679500  0.805200  1.0  -0.6075
  O  O1183  1  0.935400  0.663200  0.698700  1.0  -0.674
  O  O1184  1  0.875500  0.698400  0.692700  1.0  -0.6698
  O  O1185  1  0.033600  0.549400  0.811500  1.0  -0.7044
  O  O1186  1  0.069600  0.537900  0.854400  1.0  -0.6746
  O  O1187  1  0.098900  0.329600  0.897700  1.0  -0.6259
  O  O1188  1  0.086100  0.250000  0.866000  1.0  -0.7759
  O  O1189  1  0.243400  0.554900  0.988500  1.0  -0.7363
  O  O1190  1  0.211600  0.474500  0.965800  1.0  -0.6675
  O  O1191  1  0.327300  0.681800  0.921100  1.0  -0.7626
  O  O1192  1  0.345700  0.651600  0.872600  1.0  -0.7076
  O  O1193  1  0.028200  0.828000  0.868200  1.0  -0.6161
  O  O1194  1  0.059600  0.750500  0.842900  1.0  -0.7583
  O  O1195  1  0.074900  0.040000  0.854300  1.0  -0.6236
  O  O1196  1  0.124600  0.061400  0.823700  1.0  -0.6604
  O  O1197  1  0.158300  0.390000  0.930100  1.0  -0.7508
  O  O1198  1  0.144600  0.486100  0.923800  1.0  -0.469
  O  O1199  1  0.132100  0.333500  0.981400  1.0  -0.7184
  O  O1200  1  0.151700  0.236000  0.987700  1.0  -0.593
